MODEL 1
REMARK VINA RESULT:    -1.844      0.000      0.000
REMARK INTER + INTRA:          -3.808
REMARK INTER:                  -2.814
REMARK INTRA:                  -0.994
REMARK UNBOUND:                -0.994
REMARK SMILES O=C([O-])CCCCCCCCC(=O)[O-]
REMARK SMILES IDX 7 1 6 2 5 3 4 4 2 5 1 6 3 7 8 8 9 9 10 10 11 11 12 12 13 13
REMARK SMILES IDX 14 14
REMARK H PARENT
REMARK Flexibility Score: inf
ROOT
ATOM      1  C   UNL     1     115.818  15.625  24.605  1.00  0.00     0.000 C 
ENDROOT
BRANCH   1   2
ATOM      2  C   UNL     1     117.260  15.712  25.135  1.00  0.00     0.000 C 
BRANCH   2   3
ATOM      3  C   UNL     1     117.360  16.481  26.467  1.00  0.00     0.006 C 
BRANCH   3   4
ATOM      4  C   UNL     1     117.949  15.664  27.629  1.00  0.00     0.053 C 
BRANCH   4   5
ATOM      5  C   UNL     1     116.906  14.849  28.330  1.00  0.00     0.041 C 
ATOM      6  O   UNL     1     117.213  13.753  28.868  1.00  0.00    -0.550 OA
ATOM      7  O   UNL     1     115.586  15.285  28.357  1.00  0.00    -0.550 OA
ENDBRANCH   4   5
ENDBRANCH   3   4
ENDBRANCH   2   3
ENDBRANCH   1   2
BRANCH   1   8
ATOM      8  C   UNL     1     115.138  14.293  24.963  1.00  0.00     0.000 C 
BRANCH   8   9
ATOM      9  C   UNL     1     116.138  13.136  25.110  1.00  0.00     0.000 C 
BRANCH   9  10
ATOM     10  C   UNL     1     115.893  12.059  24.043  1.00  0.00     0.006 C 
BRANCH  10  11
ATOM     11  C   UNL     1     117.022  12.000  23.006  1.00  0.00     0.053 C 
BRANCH  11  12
ATOM     12  C   UNL     1     116.941  13.133  22.030  1.00  0.00     0.041 C 
ATOM     13  O   UNL     1     117.848  14.005  21.995  1.00  0.00    -0.550 OA
ATOM     14  O   UNL     1     115.847  13.245  21.180  1.00  0.00    -0.550 OA
ENDBRANCH  11  12
ENDBRANCH  10  11
ENDBRANCH   9  10
ENDBRANCH   8   9
ENDBRANCH   1   8
TORSDOF 9
ENDMDL
MODEL 2
REMARK VINA RESULT:    -1.830      2.597      4.217
REMARK INTER + INTRA:          -3.787
REMARK INTER:                  -3.050
REMARK INTRA:                  -0.737
REMARK UNBOUND:                -0.994
REMARK SMILES O=C([O-])CCCCCCCCC(=O)[O-]
REMARK SMILES IDX 7 1 6 2 5 3 4 4 2 5 1 6 3 7 8 8 9 9 10 10 11 11 12 12 13 13
REMARK SMILES IDX 14 14
REMARK H PARENT
REMARK Flexibility Score: inf
ROOT
ATOM      1  C   UNL     1     116.983  13.031  22.461  1.00  0.00     0.000 C 
ENDROOT
BRANCH   1   2
ATOM      2  C   UNL     1     116.591  12.591  23.882  1.00  0.00     0.000 C 
BRANCH   2   3
ATOM      3  C   UNL     1     115.753  13.651  24.624  1.00  0.00     0.006 C 
BRANCH   3   4
ATOM      4  C   UNL     1     116.383  14.156  25.932  1.00  0.00     0.053 C 
BRANCH   4   5
ATOM      5  C   UNL     1     115.862  13.420  27.128  1.00  0.00     0.041 C 
ATOM      6  O   UNL     1     114.875  12.646  27.016  1.00  0.00    -0.550 OA
ATOM      7  O   UNL     1     116.445  13.617  28.375  1.00  0.00    -0.550 OA
ENDBRANCH   4   5
ENDBRANCH   3   4
ENDBRANCH   2   3
ENDBRANCH   1   2
BRANCH   1   8
ATOM      8  C   UNL     1     117.167  14.553  22.345  1.00  0.00     0.000 C 
BRANCH   8   9
ATOM      9  C   UNL     1     118.462  14.940  21.613  1.00  0.00     0.000 C 
BRANCH   9  10
ATOM     10  C   UNL     1     119.323  15.872  22.479  1.00  0.00     0.006 C 
BRANCH  10  11
ATOM     11  C   UNL     1     118.585  16.344  23.738  1.00  0.00     0.053 C 
BRANCH  11  12
ATOM     12  C   UNL     1     119.529  16.613  24.869  1.00  0.00     0.041 C 
ATOM     13  O   UNL     1     119.149  16.466  26.060  1.00  0.00    -0.550 OA
ATOM     14  O   UNL     1     120.820  17.059  24.609  1.00  0.00    -0.550 OA
ENDBRANCH  11  12
ENDBRANCH  10  11
ENDBRANCH   9  10
ENDBRANCH   8   9
ENDBRANCH   1   8
TORSDOF 9
ENDMDL
MODEL 3
REMARK VINA RESULT:    -1.829      2.198      2.974
REMARK INTER + INTRA:          -3.785
REMARK INTER:                  -3.033
REMARK INTRA:                  -0.752
REMARK UNBOUND:                -0.994
REMARK SMILES O=C([O-])CCCCCCCCC(=O)[O-]
REMARK SMILES IDX 7 1 6 2 5 3 4 4 2 5 1 6 3 7 8 8 9 9 10 10 11 11 12 12 13 13
REMARK SMILES IDX 14 14
REMARK H PARENT
REMARK Flexibility Score: inf
ROOT
ATOM      1  C   UNL     1     117.505  16.377  23.625  1.00  0.00     0.000 C 
ENDROOT
BRANCH   1   2
ATOM      2  C   UNL     1     118.587  17.179  24.369  1.00  0.00     0.000 C 
BRANCH   2   3
ATOM      3  C   UNL     1     118.959  16.557  25.729  1.00  0.00     0.006 C 
BRANCH   3   4
ATOM      4  C   UNL     1     117.775  15.936  26.488  1.00  0.00     0.053 C 
BRANCH   4   5
ATOM      5  C   UNL     1     118.107  15.662  27.922  1.00  0.00     0.041 C 
ATOM      6  O   UNL     1     119.022  16.310  28.496  1.00  0.00    -0.550 OA
ATOM      7  O   UNL     1     117.429  14.666  28.615  1.00  0.00    -0.550 OA
ENDBRANCH   4   5
ENDBRANCH   3   4
ENDBRANCH   2   3
ENDBRANCH   1   2
BRANCH   1   8
ATOM      8  C   UNL     1     118.095  15.431  22.567  1.00  0.00     0.000 C 
BRANCH   8   9
ATOM      9  C   UNL     1     117.334  14.100  22.470  1.00  0.00     0.000 C 
BRANCH   9  10
ATOM     10  C   UNL     1     116.228  14.020  23.532  1.00  0.00     0.006 C 
BRANCH  10  11
ATOM     11  C   UNL     1     116.373  12.785  24.432  1.00  0.00     0.053 C 
BRANCH  11  12
ATOM     12  C   UNL     1     115.250  12.679  25.416  1.00  0.00     0.041 C 
ATOM     13  O   UNL     1     115.475  12.801  26.649  1.00  0.00    -0.550 OA
ATOM     14  O   UNL     1     113.959  12.412  24.976  1.00  0.00    -0.550 OA
ENDBRANCH  11  12
ENDBRANCH  10  11
ENDBRANCH   9  10
ENDBRANCH   8   9
ENDBRANCH   1   8
TORSDOF 9
ENDMDL
MODEL 4
REMARK VINA RESULT:    -1.821      2.742      4.712
REMARK INTER + INTRA:          -3.772
REMARK INTER:                  -3.246
REMARK INTRA:                  -0.526
REMARK UNBOUND:                -0.994
REMARK SMILES O=C([O-])CCCCCCCCC(=O)[O-]
REMARK SMILES IDX 7 1 6 2 5 3 4 4 2 5 1 6 3 7 8 8 9 9 10 10 11 11 12 12 13 13
REMARK SMILES IDX 14 14
REMARK H PARENT
REMARK Flexibility Score: inf
ROOT
ATOM      1  C   UNL     1     117.023  14.433  22.978  1.00  0.00     0.000 C 
ENDROOT
BRANCH   1   2
ATOM      2  C   UNL     1     118.131  14.784  21.970  1.00  0.00     0.000 C 
BRANCH   2   3
ATOM      3  C   UNL     1     119.060  15.907  22.474  1.00  0.00     0.006 C 
BRANCH   3   4
ATOM      4  C   UNL     1     118.631  16.533  23.810  1.00  0.00     0.053 C 
BRANCH   4   5
ATOM      5  C   UNL     1     119.802  16.813  24.702  1.00  0.00     0.041 C 
ATOM      6  O   UNL     1     120.953  16.418  24.380  1.00  0.00    -0.550 OA
ATOM      7  O   UNL     1     119.615  17.481  25.906  1.00  0.00    -0.550 OA
ENDBRANCH   4   5
ENDBRANCH   3   4
ENDBRANCH   2   3
ENDBRANCH   1   2
BRANCH   1   8
ATOM      8  C   UNL     1     116.694  12.932  22.994  1.00  0.00     0.000 C 
BRANCH   8   9
ATOM      9  C   UNL     1     116.302  12.424  24.390  1.00  0.00     0.000 C 
BRANCH   9  10
ATOM     10  C   UNL     1     116.347  13.561  25.421  1.00  0.00     0.006 C 
BRANCH  10  11
ATOM     11  C   UNL     1     115.486  13.261  26.656  1.00  0.00     0.053 C 
BRANCH  11  12
ATOM     12  C   UNL     1     116.235  13.509  27.929  1.00  0.00     0.041 C 
ATOM     13  O   UNL     1     117.121  14.402  27.979  1.00  0.00    -0.550 OA
ATOM     14  O   UNL     1     115.978  12.731  29.051  1.00  0.00    -0.550 OA
ENDBRANCH  11  12
ENDBRANCH  10  11
ENDBRANCH   9  10
ENDBRANCH   8   9
ENDBRANCH   1   8
TORSDOF 9
ENDMDL
MODEL 5
REMARK VINA RESULT:    -1.801      2.296      3.410
REMARK INTER + INTRA:          -3.743
REMARK INTER:                  -3.101
REMARK INTRA:                  -0.642
REMARK UNBOUND:                -0.994
REMARK SMILES O=C([O-])CCCCCCCCC(=O)[O-]
REMARK SMILES IDX 7 1 6 2 5 3 4 4 2 5 1 6 3 7 8 8 9 9 10 10 11 11 12 12 13 13
REMARK SMILES IDX 14 14
REMARK H PARENT
REMARK Flexibility Score: inf
ROOT
ATOM      1  C   UNL     1     116.214  12.641  24.411  1.00  0.00     0.000 C 
ENDROOT
BRANCH   1   2
ATOM      2  C   UNL     1     115.038  12.787  25.394  1.00  0.00     0.000 C 
BRANCH   2   3
ATOM      3  C   UNL     1     115.493  13.191  26.810  1.00  0.00     0.006 C 
BRANCH   3   4
ATOM      4  C   UNL     1     116.512  14.342  26.845  1.00  0.00     0.053 C 
BRANCH   4   5
ATOM      5  C   UNL     1     117.227  14.421  28.158  1.00  0.00     0.041 C 
ATOM      6  O   UNL     1     117.078  13.512  29.018  1.00  0.00    -0.550 OA
ATOM      7  O   UNL     1     118.032  15.516  28.447  1.00  0.00    -0.550 OA
ENDBRANCH   4   5
ENDBRANCH   3   4
ENDBRANCH   2   3
ENDBRANCH   1   2
BRANCH   1   8
ATOM      8  C   UNL     1     116.116  13.617  23.227  1.00  0.00     0.000 C 
BRANCH   8   9
ATOM      9  C   UNL     1     117.352  13.570  22.316  1.00  0.00     0.000 C 
BRANCH   9  10
ATOM     10  C   UNL     1     117.973  14.967  22.161  1.00  0.00     0.006 C 
BRANCH  10  11
ATOM     11  C   UNL     1     117.669  15.875  23.360  1.00  0.00     0.053 C 
BRANCH  11  12
ATOM     12  C   UNL     1     118.920  16.311  24.058  1.00  0.00     0.041 C 
ATOM     13  O   UNL     1     120.018  16.323  23.442  1.00  0.00    -0.550 OA
ATOM     14  O   UNL     1     118.880  16.674  25.399  1.00  0.00    -0.550 OA
ENDBRANCH  11  12
ENDBRANCH  10  11
ENDBRANCH   9  10
ENDBRANCH   8   9
ENDBRANCH   1   8
TORSDOF 9
ENDMDL
MODEL 6
REMARK VINA RESULT:    -1.759      1.978      2.490
REMARK INTER + INTRA:          -3.678
REMARK INTER:                  -2.786
REMARK INTRA:                  -0.892
REMARK UNBOUND:                -0.994
REMARK SMILES O=C([O-])CCCCCCCCC(=O)[O-]
REMARK SMILES IDX 7 1 6 2 5 3 4 4 2 5 1 6 3 7 8 8 9 9 10 10 11 11 12 12 13 13
REMARK SMILES IDX 14 14
REMARK H PARENT
REMARK Flexibility Score: inf
ROOT
ATOM      1  C   UNL     1     114.452  14.796  26.934  1.00  0.00     0.000 C 
ENDROOT
BRANCH   1   2
ATOM      2  C   UNL     1     115.265  14.065  28.017  1.00  0.00     0.000 C 
BRANCH   2   3
ATOM      3  C   UNL     1     116.772  14.378  27.943  1.00  0.00     0.006 C 
BRANCH   3   4
ATOM      4  C   UNL     1     117.142  15.481  26.939  1.00  0.00     0.053 C 
BRANCH   4   5
ATOM      5  C   UNL     1     118.481  16.084  27.233  1.00  0.00     0.041 C 
ATOM      6  O   UNL     1     119.197  16.528  26.297  1.00  0.00    -0.550 OA
ATOM      7  O   UNL     1     118.955  16.122  28.540  1.00  0.00    -0.550 OA
ENDBRANCH   4   5
ENDBRANCH   3   4
ENDBRANCH   2   3
ENDBRANCH   1   2
BRANCH   1   8
ATOM      8  C   UNL     1     113.666  13.830  26.034  1.00  0.00     0.000 C 
BRANCH   8   9
ATOM      9  C   UNL     1     114.236  12.403  26.053  1.00  0.00     0.000 C 
BRANCH   9  10
ATOM     10  C   UNL     1     114.856  12.041  24.695  1.00  0.00     0.006 C 
BRANCH  10  11
ATOM     11  C   UNL     1     116.283  12.586  24.544  1.00  0.00     0.053 C 
BRANCH  11  12
ATOM     12  C   UNL     1     116.394  13.542  23.396  1.00  0.00     0.041 C 
ATOM     13  O   UNL     1     116.991  14.640  23.542  1.00  0.00    -0.550 OA
ATOM     14  O   UNL     1     115.808  13.235  22.174  1.00  0.00    -0.550 OA
ENDBRANCH  11  12
ENDBRANCH  10  11
ENDBRANCH   9  10
ENDBRANCH   8   9
ENDBRANCH   1   8
TORSDOF 9
ENDMDL
MODEL 7
REMARK VINA RESULT:    -1.725      1.972      5.614
REMARK INTER + INTRA:          -3.626
REMARK INTER:                  -2.882
REMARK INTRA:                  -0.744
REMARK UNBOUND:                -0.994
REMARK SMILES O=C([O-])CCCCCCCCC(=O)[O-]
REMARK SMILES IDX 7 1 6 2 5 3 4 4 2 5 1 6 3 7 8 8 9 9 10 10 11 11 12 12 13 13
REMARK SMILES IDX 14 14
REMARK H PARENT
REMARK Flexibility Score: inf
ROOT
ATOM      1  C   UNL     1     113.669  12.272  26.773  1.00  0.00     0.000 C 
ENDROOT
BRANCH   1   2
ATOM      2  C   UNL     1     113.960  12.672  25.316  1.00  0.00     0.000 C 
BRANCH   2   3
ATOM      3  C   UNL     1     115.127  11.876  24.701  1.00  0.00     0.006 C 
BRANCH   3   4
ATOM      4  C   UNL     1     116.318  12.739  24.254  1.00  0.00     0.053 C 
BRANCH   4   5
ATOM      5  C   UNL     1     116.363  12.909  22.767  1.00  0.00     0.041 C 
ATOM      6  O   UNL     1     115.431  12.460  22.048  1.00  0.00    -0.550 OA
ATOM      7  O   UNL     1     117.452  13.533  22.170  1.00  0.00    -0.550 OA
ENDBRANCH   4   5
ENDBRANCH   3   4
ENDBRANCH   2   3
ENDBRANCH   1   2
BRANCH   1   8
ATOM      8  C   UNL     1     114.274  13.256  27.787  1.00  0.00     0.000 C 
BRANCH   8   9
ATOM      9  C   UNL     1     115.327  12.601  28.696  1.00  0.00     0.000 C 
BRANCH   9  10
ATOM     10  C   UNL     1     116.608  13.447  28.749  1.00  0.00     0.006 C 
BRANCH  10  11
ATOM     11  C   UNL     1     116.721  14.408  27.558  1.00  0.00     0.053 C 
BRANCH  11  12
ATOM     12  C   UNL     1     117.705  15.506  27.821  1.00  0.00     0.041 C 
ATOM     13  O   UNL     1     118.318  16.049  26.866  1.00  0.00    -0.550 OA
ATOM     14  O   UNL     1     117.970  15.907  29.125  1.00  0.00    -0.550 OA
ENDBRANCH  11  12
ENDBRANCH  10  11
ENDBRANCH   9  10
ENDBRANCH   8   9
ENDBRANCH   1   8
TORSDOF 9
ENDMDL
MODEL 8
REMARK VINA RESULT:    -1.712      1.534      5.732
REMARK INTER + INTRA:          -3.607
REMARK INTER:                  -2.945
REMARK INTRA:                  -0.662
REMARK UNBOUND:                -0.994
REMARK SMILES O=C([O-])CCCCCCCCC(=O)[O-]
REMARK SMILES IDX 7 1 6 2 5 3 4 4 2 5 1 6 3 7 8 8 9 9 10 10 11 11 12 12 13 13
REMARK SMILES IDX 14 14
REMARK H PARENT
REMARK Flexibility Score: inf
ROOT
ATOM      1  C   UNL     1     116.295  11.875  24.016  1.00  0.00     0.000 C 
ENDROOT
BRANCH   1   2
ATOM      2  C   UNL     1     117.024  12.401  22.767  1.00  0.00     0.000 C 
BRANCH   2   3
ATOM      3  C   UNL     1     116.152  13.353  21.925  1.00  0.00     0.006 C 
BRANCH   3   4
ATOM      4  C   UNL     1     116.733  14.767  21.761  1.00  0.00     0.053 C 
BRANCH   4   5
ATOM      5  C   UNL     1     118.129  14.743  21.219  1.00  0.00     0.041 C 
ATOM      6  O   UNL     1     118.363  14.230  20.093  1.00  0.00    -0.550 OA
ATOM      7  O   UNL     1     119.177  15.255  21.975  1.00  0.00    -0.550 OA
ENDBRANCH   4   5
ENDBRANCH   3   4
ENDBRANCH   2   3
ENDBRANCH   1   2
BRANCH   1   8
ATOM      8  C   UNL     1     114.868  12.432  24.144  1.00  0.00     0.000 C 
BRANCH   8   9
ATOM      9  C   UNL     1     114.758  13.548  25.194  1.00  0.00     0.000 C 
BRANCH   9  10
ATOM     10  C   UNL     1     115.863  13.417  26.253  1.00  0.00     0.006 C 
BRANCH  10  11
ATOM     11  C   UNL     1     116.549  14.758  26.547  1.00  0.00     0.053 C 
BRANCH  11  12
ATOM     12  C   UNL     1     117.283  14.733  27.852  1.00  0.00     0.041 C 
ATOM     13  O   UNL     1     116.944  13.922  28.754  1.00  0.00    -0.550 OA
ATOM     14  O   UNL     1     118.319  15.628  28.086  1.00  0.00    -0.550 OA
ENDBRANCH  11  12
ENDBRANCH  10  11
ENDBRANCH   9  10
ENDBRANCH   8   9
ENDBRANCH   1   8
TORSDOF 9
ENDMDL
