MODEL 1
REMARK VINA RESULT:    -5.566      0.000      0.000
REMARK INTER + INTRA:          -9.206
REMARK INTER:                  -8.494
REMARK INTRA:                  -0.712
REMARK UNBOUND:                -0.712
REMARK SMILES CCCCCCCCCC=CC(=O)[O-]
REMARK SMILES IDX 7 1 8 2 9 3 10 4 11 5 12 6 13 7 14 8 6 9 5 10 4 11 3 12 2 13
REMARK SMILES IDX 1 14
REMARK H PARENT
REMARK Flexibility Score: inf
ROOT
ATOM      1  C   UNL     1      -2.396  44.284   2.258  1.00  0.00     0.000 C 
ENDROOT
BRANCH   1   2
ATOM      2  C   UNL     1      -3.472  44.847   1.318  1.00  0.00     0.004 C 
BRANCH   2   3
ATOM      3  C   UNL     1      -2.884  45.399   0.010  1.00  0.00     0.027 C 
BRANCH   3   4
ATOM      4  C   UNL     1      -1.433  45.040  -0.125  1.00  0.00    -0.025 C 
ATOM      5  C   UNL     1      -0.807  45.093  -1.307  1.00  0.00     0.020 C 
BRANCH   5   6
ATOM      6  C   UNL     1       0.611  44.733  -1.466  1.00  0.00     0.064 C 
ATOM      7  O   UNL     1       1.092  44.467  -2.599  1.00  0.00    -0.545 OA
ATOM      8  O   UNL     1       1.433  44.683  -0.347  1.00  0.00    -0.545 OA
ENDBRANCH   5   6
ENDBRANCH   3   4
ENDBRANCH   2   3
ENDBRANCH   1   2
BRANCH   1   9
ATOM      9  C   UNL     1      -2.301  45.062   3.580  1.00  0.00     0.000 C 
BRANCH   9  10
ATOM     10  C   UNL     1      -1.252  46.177   3.487  1.00  0.00     0.000 C 
BRANCH  10  11
ATOM     11  C   UNL     1       0.041  45.665   2.841  1.00  0.00    -0.000 C 
BRANCH  11  12
ATOM     12  C   UNL     1       1.269  46.078   3.668  1.00  0.00    -0.000 C 
BRANCH  12  13
ATOM     13  C   UNL     1       2.592  45.808   2.934  1.00  0.00    -0.003 C 
ATOM     14  C   UNL     1       3.573  44.985   3.768  1.00  0.00     0.004 C 
ENDBRANCH  12  13
ENDBRANCH  11  12
ENDBRANCH  10  11
ENDBRANCH   9  10
ENDBRANCH   1   9
TORSDOF 9
ENDMDL
MODEL 2
REMARK VINA RESULT:    -5.511      1.460      2.208
REMARK INTER + INTRA:          -9.122
REMARK INTER:                  -8.375
REMARK INTRA:                  -0.747
REMARK UNBOUND:                -0.712
REMARK SMILES CCCCCCCCCC=CC(=O)[O-]
REMARK SMILES IDX 7 1 8 2 9 3 10 4 11 5 12 6 13 7 14 8 6 9 5 10 4 11 3 12 2 13
REMARK SMILES IDX 1 14
REMARK H PARENT
REMARK Flexibility Score: inf
ROOT
ATOM      1  C   UNL     1      -1.271  45.684   3.680  1.00  0.00     0.000 C 
ENDROOT
BRANCH   1   2
ATOM      2  C   UNL     1      -1.774  44.894   2.463  1.00  0.00     0.004 C 
BRANCH   2   3
ATOM      3  C   UNL     1      -2.404  45.796   1.391  1.00  0.00     0.027 C 
BRANCH   3   4
ATOM      4  C   UNL     1      -1.669  45.683   0.087  1.00  0.00    -0.025 C 
ATOM      5  C   UNL     1      -0.599  44.890  -0.046  1.00  0.00     0.020 C 
BRANCH   5   6
ATOM      6  C   UNL     1       0.146  44.774  -1.309  1.00  0.00     0.064 C 
ATOM      7  O   UNL     1       1.390  44.577  -1.316  1.00  0.00    -0.545 OA
ATOM      8  O   UNL     1      -0.534  44.886  -2.515  1.00  0.00    -0.545 OA
ENDBRANCH   5   6
ENDBRANCH   3   4
ENDBRANCH   2   3
ENDBRANCH   1   2
BRANCH   1   9
ATOM      9  C   UNL     1      -0.020  46.520   3.366  1.00  0.00     0.000 C 
BRANCH   9  10
ATOM     10  C   UNL     1       1.259  45.749   3.719  1.00  0.00     0.000 C 
BRANCH  10  11
ATOM     11  C   UNL     1       2.242  45.744   2.542  1.00  0.00    -0.000 C 
BRANCH  11  12
ATOM     12  C   UNL     1       3.628  46.237   2.983  1.00  0.00    -0.000 C 
BRANCH  12  13
ATOM     13  C   UNL     1       4.313  47.104   1.915  1.00  0.00    -0.003 C 
ATOM     14  C   UNL     1       5.757  47.454   2.274  1.00  0.00     0.004 C 
ENDBRANCH  12  13
ENDBRANCH  11  12
ENDBRANCH  10  11
ENDBRANCH   9  10
ENDBRANCH   1   9
TORSDOF 9
ENDMDL
MODEL 3
REMARK VINA RESULT:    -5.488      3.739      5.344
REMARK INTER + INTRA:          -9.088
REMARK INTER:                  -8.538
REMARK INTRA:                  -0.550
REMARK UNBOUND:                -0.712
REMARK SMILES CCCCCCCCCC=CC(=O)[O-]
REMARK SMILES IDX 7 1 8 2 9 3 10 4 11 5 12 6 13 7 14 8 6 9 5 10 4 11 3 12 2 13
REMARK SMILES IDX 1 14
REMARK H PARENT
REMARK Flexibility Score: inf
ROOT
ATOM      1  C   UNL     1       1.142  46.199   3.714  1.00  0.00     0.000 C 
ENDROOT
BRANCH   1   2
ATOM      2  C   UNL     1      -0.332  46.539   3.446  1.00  0.00     0.004 C 
BRANCH   2   3
ATOM      3  C   UNL     1      -0.971  45.615   2.398  1.00  0.00     0.027 C 
BRANCH   3   4
ATOM      4  C   UNL     1      -2.192  44.936   2.947  1.00  0.00    -0.025 C 
ATOM      5  C   UNL     1      -2.691  45.258   4.147  1.00  0.00     0.020 C 
BRANCH   5   6
ATOM      6  C   UNL     1      -3.878  44.597   4.711  1.00  0.00     0.064 C 
ATOM      7  O   UNL     1      -4.870  45.266   5.106  1.00  0.00    -0.545 OA
ATOM      8  O   UNL     1      -3.905  43.212   4.813  1.00  0.00    -0.545 OA
ENDBRANCH   5   6
ENDBRANCH   3   4
ENDBRANCH   2   3
ENDBRANCH   1   2
BRANCH   1   9
ATOM      9  C   UNL     1       1.836  45.578   2.491  1.00  0.00     0.000 C 
BRANCH   9  10
ATOM     10  C   UNL     1       3.339  45.402   2.744  1.00  0.00     0.000 C 
BRANCH  10  11
ATOM     11  C   UNL     1       3.597  44.783   4.123  1.00  0.00    -0.000 C 
BRANCH  11  12
ATOM     12  C   UNL     1       5.042  45.040   4.578  1.00  0.00    -0.000 C 
BRANCH  12  13
ATOM     13  C   UNL     1       5.343  44.430   5.956  1.00  0.00    -0.003 C 
ATOM     14  C   UNL     1       4.142  43.700   6.555  1.00  0.00     0.004 C 
ENDBRANCH  12  13
ENDBRANCH  11  12
ENDBRANCH  10  11
ENDBRANCH   9  10
ENDBRANCH   1   9
TORSDOF 9
ENDMDL
MODEL 4
REMARK VINA RESULT:    -5.427      3.220      4.678
REMARK INTER + INTRA:          -8.994
REMARK INTER:                  -8.051
REMARK INTRA:                  -0.943
REMARK UNBOUND:                -0.712
REMARK SMILES CCCCCCCCCC=CC(=O)[O-]
REMARK SMILES IDX 7 1 8 2 9 3 10 4 11 5 12 6 13 7 14 8 6 9 5 10 4 11 3 12 2 13
REMARK SMILES IDX 1 14
REMARK H PARENT
REMARK Flexibility Score: inf
ROOT
ATOM      1  C   UNL     1      -1.574  45.794  -0.235  1.00  0.00     0.000 C 
ENDROOT
BRANCH   1   2
ATOM      2  C   UNL     1      -2.890  45.432   0.469  1.00  0.00     0.004 C 
BRANCH   2   3
ATOM      3  C   UNL     1      -2.766  44.175   1.344  1.00  0.00     0.027 C 
BRANCH   3   4
ATOM      4  C   UNL     1      -3.187  44.455   2.758  1.00  0.00    -0.025 C 
ATOM      5  C   UNL     1      -2.368  45.065   3.622  1.00  0.00     0.020 C 
BRANCH   5   6
ATOM      6  C   UNL     1      -2.752  45.338   5.016  1.00  0.00     0.064 C 
ATOM      7  O   UNL     1      -3.864  44.958   5.471  1.00  0.00    -0.545 OA
ATOM      8  O   UNL     1      -1.875  46.027   5.844  1.00  0.00    -0.545 OA
ENDBRANCH   5   6
ENDBRANCH   3   4
ENDBRANCH   2   3
ENDBRANCH   1   2
BRANCH   1   9
ATOM      9  C   UNL     1      -0.741  44.557  -0.603  1.00  0.00     0.000 C 
BRANCH   9  10
ATOM     10  C   UNL     1       0.744  44.780  -0.287  1.00  0.00     0.000 C 
BRANCH  10  11
ATOM     11  C   UNL     1       1.031  44.549   1.202  1.00  0.00    -0.000 C 
BRANCH  11  12
ATOM     12  C   UNL     1       2.407  45.112   1.590  1.00  0.00    -0.000 C 
BRANCH  12  13
ATOM     13  C   UNL     1       2.452  45.612   3.042  1.00  0.00    -0.003 C 
ATOM     14  C   UNL     1       1.107  46.158   3.522  1.00  0.00     0.004 C 
ENDBRANCH  12  13
ENDBRANCH  11  12
ENDBRANCH  10  11
ENDBRANCH   9  10
ENDBRANCH   1   9
TORSDOF 9
ENDMDL
MODEL 5
REMARK VINA RESULT:    -5.408      5.954      8.373
REMARK INTER + INTRA:          -8.966
REMARK INTER:                  -8.570
REMARK INTRA:                  -0.395
REMARK UNBOUND:                -0.712
REMARK SMILES CCCCCCCCCC=CC(=O)[O-]
REMARK SMILES IDX 7 1 8 2 9 3 10 4 11 5 12 6 13 7 14 8 6 9 5 10 4 11 3 12 2 13
REMARK SMILES IDX 1 14
REMARK H PARENT
REMARK Flexibility Score: inf
ROOT
ATOM      1  C   UNL     1       7.131  47.852  -2.873  1.00  0.00     0.000 C 
ENDROOT
BRANCH   1   2
ATOM      2  C   UNL     1       8.344  46.924  -3.039  1.00  0.00     0.004 C 
BRANCH   2   3
ATOM      3  C   UNL     1       8.371  46.226  -4.407  1.00  0.00     0.027 C 
BRANCH   3   4
ATOM      4  C   UNL     1       6.982  46.034  -4.945  1.00  0.00    -0.025 C 
ATOM      5  C   UNL     1       6.198  45.038  -4.516  1.00  0.00     0.020 C 
BRANCH   5   6
ATOM      6  C   UNL     1       4.840  44.822  -5.038  1.00  0.00     0.064 C 
ATOM      7  O   UNL     1       3.828  44.968  -4.301  1.00  0.00    -0.545 OA
ATOM      8  O   UNL     1       4.669  44.448  -6.364  1.00  0.00    -0.545 OA
ENDBRANCH   5   6
ENDBRANCH   3   4
ENDBRANCH   2   3
ENDBRANCH   1   2
BRANCH   1   9
ATOM      9  C   UNL     1       7.096  48.537  -1.498  1.00  0.00     0.000 C 
BRANCH   9  10
ATOM     10  C   UNL     1       5.659  48.636  -0.970  1.00  0.00     0.000 C 
BRANCH  10  11
ATOM     11  C   UNL     1       5.644  48.886   0.543  1.00  0.00    -0.000 C 
BRANCH  11  12
ATOM     12  C   UNL     1       6.376  47.762   1.293  1.00  0.00    -0.000 C 
BRANCH  12  13
ATOM     13  C   UNL     1       5.620  47.301   2.549  1.00  0.00    -0.003 C 
ATOM     14  C   UNL     1       4.165  46.932   2.262  1.00  0.00     0.004 C 
ENDBRANCH  12  13
ENDBRANCH  11  12
ENDBRANCH  10  11
ENDBRANCH   9  10
ENDBRANCH   1   9
TORSDOF 9
ENDMDL
MODEL 6
REMARK VINA RESULT:    -5.392      3.256      4.699
REMARK INTER + INTRA:          -8.940
REMARK INTER:                  -8.253
REMARK INTRA:                  -0.687
REMARK UNBOUND:                -0.712
REMARK SMILES CCCCCCCCCC=CC(=O)[O-]
REMARK SMILES IDX 7 1 8 2 9 3 10 4 11 5 12 6 13 7 14 8 6 9 5 10 4 11 3 12 2 13
REMARK SMILES IDX 1 14
REMARK H PARENT
REMARK Flexibility Score: inf
ROOT
ATOM      1  C   UNL     1       0.210  44.479   0.171  1.00  0.00     0.000 C 
ENDROOT
BRANCH   1   2
ATOM      2  C   UNL     1      -0.999  45.139   0.850  1.00  0.00     0.004 C 
BRANCH   2   3
ATOM      3  C   UNL     1      -2.123  44.139   1.158  1.00  0.00     0.027 C 
BRANCH   3   4
ATOM      4  C   UNL     1      -2.517  44.195   2.606  1.00  0.00    -0.025 C 
ATOM      5  C   UNL     1      -2.248  45.267   3.362  1.00  0.00     0.020 C 
BRANCH   5   6
ATOM      6  C   UNL     1      -2.612  45.340   4.786  1.00  0.00     0.064 C 
ATOM      7  O   UNL     1      -1.868  45.922   5.619  1.00  0.00    -0.545 OA
ATOM      8  O   UNL     1      -3.794  44.754   5.220  1.00  0.00    -0.545 OA
ENDBRANCH   5   6
ENDBRANCH   3   4
ENDBRANCH   2   3
ENDBRANCH   1   2
BRANCH   1   9
ATOM      9  C   UNL     1       1.475  44.527   1.041  1.00  0.00     0.000 C 
BRANCH   9  10
ATOM     10  C   UNL     1       1.274  45.446   2.253  1.00  0.00     0.000 C 
BRANCH  10  11
ATOM     11  C   UNL     1       2.606  45.725   2.961  1.00  0.00    -0.000 C 
BRANCH  11  12
ATOM     12  C   UNL     1       3.671  46.197   1.959  1.00  0.00    -0.000 C 
BRANCH  12  13
ATOM     13  C   UNL     1       4.698  47.148   2.595  1.00  0.00    -0.003 C 
ATOM     14  C   UNL     1       5.555  47.872   1.558  1.00  0.00     0.004 C 
ENDBRANCH  12  13
ENDBRANCH  11  12
ENDBRANCH  10  11
ENDBRANCH   9  10
ENDBRANCH   1   9
TORSDOF 9
ENDMDL
MODEL 7
REMARK VINA RESULT:    -5.374      3.213      5.750
REMARK INTER + INTRA:          -8.914
REMARK INTER:                  -8.393
REMARK INTRA:                  -0.521
REMARK UNBOUND:                -0.712
REMARK SMILES CCCCCCCCCC=CC(=O)[O-]
REMARK SMILES IDX 7 1 8 2 9 3 10 4 11 5 12 6 13 7 14 8 6 9 5 10 4 11 3 12 2 13
REMARK SMILES IDX 1 14
REMARK H PARENT
REMARK Flexibility Score: inf
ROOT
ATOM      1  C   UNL     1       2.057  45.421   3.170  1.00  0.00     0.000 C 
ENDROOT
BRANCH   1   2
ATOM      2  C   UNL     1       0.970  46.371   3.696  1.00  0.00     0.004 C 
BRANCH   2   3
ATOM      3  C   UNL     1      -0.388  46.151   3.013  1.00  0.00     0.027 C 
BRANCH   3   4
ATOM      4  C   UNL     1      -1.406  45.631   3.987  1.00  0.00    -0.025 C 
ATOM      5  C   UNL     1      -2.548  45.069   3.571  1.00  0.00     0.020 C 
BRANCH   5   6
ATOM      6  C   UNL     1      -3.566  44.565   4.506  1.00  0.00     0.064 C 
ATOM      7  O   UNL     1      -3.764  43.330   4.649  1.00  0.00    -0.545 OA
ATOM      8  O   UNL     1      -4.323  45.468   5.243  1.00  0.00    -0.545 OA
ENDBRANCH   5   6
ENDBRANCH   3   4
ENDBRANCH   2   3
ENDBRANCH   1   2
BRANCH   1   9
ATOM      9  C   UNL     1       2.298  45.578   1.661  1.00  0.00     0.000 C 
BRANCH   9  10
ATOM     10  C   UNL     1       1.819  44.337   0.896  1.00  0.00     0.000 C 
BRANCH  10  11
ATOM     11  C   UNL     1       0.351  44.481   0.477  1.00  0.00    -0.000 C 
BRANCH  11  12
ATOM     12  C   UNL     1       0.235  44.775  -1.026  1.00  0.00    -0.000 C 
BRANCH  12  13
ATOM     13  C   UNL     1      -1.117  45.401  -1.402  1.00  0.00    -0.003 C 
ATOM     14  C   UNL     1      -2.114  45.394  -0.244  1.00  0.00     0.004 C 
ENDBRANCH  12  13
ENDBRANCH  11  12
ENDBRANCH  10  11
ENDBRANCH   9  10
ENDBRANCH   1   9
TORSDOF 9
ENDMDL
MODEL 8
REMARK VINA RESULT:    -5.360      7.104     10.015
REMARK INTER + INTRA:          -8.892
REMARK INTER:                  -8.376
REMARK INTRA:                  -0.516
REMARK UNBOUND:                -0.712
REMARK SMILES CCCCCCCCCC=CC(=O)[O-]
REMARK SMILES IDX 7 1 8 2 9 3 10 4 11 5 12 6 13 7 14 8 6 9 5 10 4 11 3 12 2 13
REMARK SMILES IDX 1 14
REMARK H PARENT
REMARK Flexibility Score: inf
ROOT
ATOM      1  C   UNL     1       4.342  44.323  10.334  1.00  0.00     0.000 C 
ENDROOT
BRANCH   1   2
ATOM      2  C   UNL     1       3.922  45.652  10.982  1.00  0.00     0.004 C 
BRANCH   2   3
ATOM      3  C   UNL     1       2.740  45.490  11.949  1.00  0.00     0.027 C 
BRANCH   3   4
ATOM      4  C   UNL     1       1.509  46.167  11.418  1.00  0.00    -0.025 C 
ATOM      5  C   UNL     1       0.439  45.465  11.027  1.00  0.00     0.020 C 
BRANCH   5   6
ATOM      6  C   UNL     1      -0.772  46.105  10.490  1.00  0.00     0.064 C 
ATOM      7  O   UNL     1      -1.557  46.744  11.240  1.00  0.00    -0.545 OA
ATOM      8  O   UNL     1      -1.057  46.000   9.135  1.00  0.00    -0.545 OA
ENDBRANCH   5   6
ENDBRANCH   3   4
ENDBRANCH   2   3
ENDBRANCH   1   2
BRANCH   1   9
ATOM      9  C   UNL     1       3.139  43.472   9.900  1.00  0.00     0.000 C 
BRANCH   9  10
ATOM     10  C   UNL     1       3.555  42.426   8.856  1.00  0.00     0.000 C 
BRANCH  10  11
ATOM     11  C   UNL     1       3.371  42.966   7.433  1.00  0.00    -0.000 C 
BRANCH  11  12
ATOM     12  C   UNL     1       4.725  43.102   6.719  1.00  0.00    -0.000 C 
BRANCH  12  13
ATOM     13  C   UNL     1       4.873  44.444   5.984  1.00  0.00    -0.003 C 
ATOM     14  C   UNL     1       4.041  44.512   4.705  1.00  0.00     0.004 C 
ENDBRANCH  12  13
ENDBRANCH  11  12
ENDBRANCH  10  11
ENDBRANCH   9  10
ENDBRANCH   1   9
TORSDOF 9
ENDMDL
MODEL 9
REMARK VINA RESULT:    -5.301      6.958     10.117
REMARK INTER + INTRA:          -8.801
REMARK INTER:                  -8.289
REMARK INTRA:                  -0.512
REMARK UNBOUND:                -0.712
REMARK SMILES CCCCCCCCCC=CC(=O)[O-]
REMARK SMILES IDX 7 1 8 2 9 3 10 4 11 5 12 6 13 7 14 8 6 9 5 10 4 11 3 12 2 13
REMARK SMILES IDX 1 14
REMARK H PARENT
REMARK Flexibility Score: inf
ROOT
ATOM      1  C   UNL     1       3.561  43.218   8.489  1.00  0.00     0.000 C 
ENDROOT
BRANCH   1   2
ATOM      2  C   UNL     1       3.074  43.670   9.874  1.00  0.00     0.004 C 
BRANCH   2   3
ATOM      3  C   UNL     1       3.994  44.724  10.508  1.00  0.00     0.027 C 
BRANCH   3   4
ATOM      4  C   UNL     1       3.229  45.620  11.440  1.00  0.00    -0.025 C 
ATOM      5  C   UNL     1       2.287  46.457  10.989  1.00  0.00     0.020 C 
BRANCH   5   6
ATOM      6  C   UNL     1       1.535  47.353  11.880  1.00  0.00     0.064 C 
ATOM      7  O   UNL     1       0.444  46.993  12.395  1.00  0.00    -0.545 OA
ATOM      8  O   UNL     1       2.036  48.619  12.157  1.00  0.00    -0.545 OA
ENDBRANCH   5   6
ENDBRANCH   3   4
ENDBRANCH   2   3
ENDBRANCH   1   2
BRANCH   1   9
ATOM      9  C   UNL     1       4.994  43.683   8.185  1.00  0.00     0.000 C 
BRANCH   9  10
ATOM     10  C   UNL     1       5.052  44.455   6.861  1.00  0.00     0.000 C 
BRANCH  10  11
ATOM     11  C   UNL     1       4.021  43.915   5.862  1.00  0.00    -0.000 C 
BRANCH  11  12
ATOM     12  C   UNL     1       4.216  44.548   4.476  1.00  0.00    -0.000 C 
BRANCH  12  13
ATOM     13  C   UNL     1       2.961  45.286   3.983  1.00  0.00    -0.003 C 
ATOM     14  C   UNL     1       2.895  45.387   2.460  1.00  0.00     0.004 C 
ENDBRANCH  12  13
ENDBRANCH  11  12
ENDBRANCH  10  11
ENDBRANCH   9  10
ENDBRANCH   1   9
TORSDOF 9
ENDMDL
