MODEL 1
REMARK VINA RESULT:    -4.190      0.000      0.000
REMARK INTER + INTRA:          -5.343
REMARK INTER:                  -6.394
REMARK INTRA:                   1.051
REMARK UNBOUND:                 1.051
REMARK SMILES CC1=CCC[C@H](C)C(=O)C[C@@H](C(C)C)C(=O)C1
REMARK SMILES IDX 8 1 9 2 6 3 7 4 5 5 4 6 3 7 2 8 1 9 10 11 11 12 15 13 16 14
REMARK SMILES IDX 17 15 12 17 13 18 14 19
REMARK H PARENT
REMARK Flexibility Score: 70.00
ROOT
ATOM      1  C   UNL     1      -3.690  29.579  27.474  1.00  0.00     0.136 C 
ATOM      2  O   UNL     1      -4.210  29.123  26.465  1.00  0.00    -0.299 OA
ENDROOT
BRANCH   1   3
ATOM      3  C   UNL     1      -4.415  30.646  28.273  1.00  0.00     0.053 C 
ATOM      4  C   UNL     1      -4.463  31.964  27.488  1.00  0.00     0.016 C 
BRANCH   3   5
ATOM      5  C   UNL     1      -5.840  30.172  28.641  1.00  0.00     0.015 C 
BRANCH   5   6
ATOM      6  C   UNL     1      -5.848  29.365  29.954  1.00  0.00     0.028 C 
BRANCH   6   7
ATOM      7  C   UNL     1      -4.822  29.842  30.952  1.00  0.00    -0.028 C 
ATOM      8  C   UNL     1      -3.708  29.161  31.321  1.00  0.00    -0.070 CG0
ATOM      9  C   UNL     1      -2.749  29.847  32.261  1.00  0.00     0.039 C 
ATOM     10  G   UNL     1      -3.405  27.736  30.876  1.00  0.00     0.000 G0
ENDBRANCH   6   7
ENDBRANCH   5   6
ENDBRANCH   3   5
ENDBRANCH   1   3
BRANCH   1  11
ATOM     11  C   UNL     1      -2.325  29.075  27.886  1.00  0.00     0.087 C 
BRANCH  11  12
ATOM     12  C   UNL     1      -2.379  27.633  28.458  1.00  0.00     0.066 C 
BRANCH  12  13
ATOM     13  C   UNL     1      -2.191  27.630  29.969  1.00  0.00     0.140 C 
ATOM     14  O   UNL     1      -1.075  27.500  30.453  1.00  0.00    -0.299 OA
BRANCH  13  15
ATOM     15  C   UNL     1      -3.391  27.730  30.879  1.00  0.00     0.106 CG0
ATOM     16  G   UNL     1      -3.713  29.150  31.324  1.00  0.00     0.000 G0
ENDBRANCH  13  15
ENDBRANCH  12  13
BRANCH  12  17
ATOM     17  C   UNL     1      -1.398  26.644  27.747  1.00  0.00    -0.006 C 
ATOM     18  C   UNL     1      -0.072  26.514  28.514  1.00  0.00     0.008 C 
ATOM     19  C   UNL     1      -1.995  25.245  27.501  1.00  0.00     0.008 C 
ENDBRANCH  12  17
ENDBRANCH  11  12
ENDBRANCH   1  11
TORSDOF 1
ENDMDL
MODEL 2
REMARK VINA RESULT:    -3.182      1.560      3.238
REMARK INTER + INTRA:          -3.804
REMARK INTER:                  -6.936
REMARK INTRA:                   3.131
REMARK UNBOUND:                 1.051
REMARK SMILES CC1=CCC[C@H](C)C(=O)C[C@@H](C(C)C)C(=O)C1
REMARK SMILES IDX 8 1 9 2 6 3 7 4 5 5 4 6 3 7 2 8 1 9 10 11 11 12 15 13 16 14
REMARK SMILES IDX 17 15 12 17 13 18 14 19
REMARK H PARENT
REMARK Flexibility Score: 70.00
ROOT
ATOM      1  C   UNL     1      -3.259  27.514  30.147  1.00  0.00     0.136 C 
ATOM      2  O   UNL     1      -3.926  26.814  29.398  1.00  0.00    -0.299 OA
ENDROOT
BRANCH   1   3
ATOM      3  C   UNL     1      -3.954  28.348  31.207  1.00  0.00     0.053 C 
ATOM      4  C   UNL     1      -3.001  29.421  31.754  1.00  0.00     0.016 C 
BRANCH   3   5
ATOM      5  C   UNL     1      -5.238  28.991  30.636  1.00  0.00     0.015 C 
BRANCH   5   6
ATOM      6  C   UNL     1      -5.324  28.824  29.107  1.00  0.00     0.028 C 
BRANCH   6   7
ATOM      7  C   UNL     1      -5.200  30.128  28.358  1.00  0.00    -0.028 C 
ATOM      8  C   UNL     1      -4.036  30.684  27.935  1.00  0.00    -0.070 CG0
ATOM      9  C   UNL     1      -4.123  31.946  27.114  1.00  0.00     0.039 C 
ATOM     10  G   UNL     1      -2.661  30.131  28.286  1.00  0.00     0.000 G0
ENDBRANCH   6   7
ENDBRANCH   5   6
ENDBRANCH   3   5
ENDBRANCH   1   3
BRANCH   1  11
ATOM     11  C   UNL     1      -1.755  27.537  29.984  1.00  0.00     0.087 C 
BRANCH  11  12
ATOM     12  C   UNL     1      -1.326  27.887  28.534  1.00  0.00     0.066 C 
BRANCH  12  13
ATOM     13  C   UNL     1      -2.386  28.725  27.832  1.00  0.00     0.140 C 
ATOM     14  O   UNL     1      -2.991  28.277  26.869  1.00  0.00    -0.299 OA
BRANCH  13  15
ATOM     15  C   UNL     1      -2.652  30.140  28.287  1.00  0.00     0.106 CG0
ATOM     16  G   UNL     1      -4.039  30.655  27.926  1.00  0.00     0.000 G0
ENDBRANCH  13  15
ENDBRANCH  12  13
BRANCH  12  17
ATOM     17  C   UNL     1      -0.917  26.637  27.688  1.00  0.00    -0.006 C 
ATOM     18  C   UNL     1       0.323  25.941  28.272  1.00  0.00     0.008 C 
ATOM     19  C   UNL     1      -2.050  25.611  27.505  1.00  0.00     0.008 C 
ENDBRANCH  12  17
ENDBRANCH  11  12
ENDBRANCH   1  11
TORSDOF 1
ENDMDL
MODEL 3
REMARK VINA RESULT:    -3.174      1.512      4.176
REMARK INTER + INTRA:          -3.792
REMARK INTER:                  -4.622
REMARK INTRA:                   0.830
REMARK UNBOUND:                 1.051
REMARK SMILES CC1=CCC[C@H](C)C(=O)C[C@@H](C(C)C)C(=O)C1
REMARK SMILES IDX 8 1 9 2 6 3 7 4 5 5 4 6 3 7 2 8 1 9 10 11 11 12 15 13 16 14
REMARK SMILES IDX 17 15 12 17 13 18 14 19
REMARK H PARENT
REMARK Flexibility Score: 70.00
ROOT
ATOM      1  C   UNL     1      -2.691  28.800  27.799  1.00  0.00     0.136 C 
ATOM      2  O   UNL     1      -1.699  29.513  27.863  1.00  0.00    -0.299 OA
ENDROOT
BRANCH   1   3
ATOM      3  C   UNL     1      -2.541  27.296  27.925  1.00  0.00     0.053 C 
ATOM      4  C   UNL     1      -1.087  26.928  28.258  1.00  0.00     0.016 C 
BRANCH   3   5
ATOM      5  C   UNL     1      -3.508  26.741  28.996  1.00  0.00     0.015 C 
BRANCH   5   6
ATOM      6  C   UNL     1      -2.810  26.575  30.359  1.00  0.00     0.028 C 
BRANCH   6   7
ATOM      7  C   UNL     1      -2.591  27.883  31.079  1.00  0.00    -0.028 C 
ATOM      8  C   UNL     1      -3.502  28.882  31.188  1.00  0.00    -0.070 CG0
ATOM      9  C   UNL     1      -3.132  30.075  32.033  1.00  0.00     0.039 C 
ATOM     10  G   UNL     1      -4.844  28.882  30.468  1.00  0.00     0.000 G0
ENDBRANCH   6   7
ENDBRANCH   5   6
ENDBRANCH   3   5
ENDBRANCH   1   3
BRANCH   1  11
ATOM     11  C   UNL     1      -4.043  29.443  27.579  1.00  0.00     0.087 C 
BRANCH  11  12
ATOM     12  C   UNL     1      -4.301  30.617  28.561  1.00  0.00     0.066 C 
BRANCH  12  13
ATOM     13  C   UNL     1      -5.177  30.179  29.727  1.00  0.00     0.140 C 
ATOM     14  O   UNL     1      -6.106  30.880  30.101  1.00  0.00    -0.299 OA
BRANCH  13  15
ATOM     15  C   UNL     1      -4.864  28.900  30.467  1.00  0.00     0.106 CG0
ATOM     16  G   UNL     1      -3.522  28.915  31.186  1.00  0.00     0.000 G0
ENDBRANCH  13  15
ENDBRANCH  12  13
BRANCH  12  17
ATOM     17  C   UNL     1      -4.859  31.901  27.864  1.00  0.00    -0.006 C 
ATOM     18  C   UNL     1      -3.725  32.791  27.329  1.00  0.00     0.008 C 
ATOM     19  C   UNL     1      -5.865  31.608  26.735  1.00  0.00     0.008 C 
ENDBRANCH  12  17
ENDBRANCH  11  12
ENDBRANCH   1  11
TORSDOF 1
ENDMDL
MODEL 4
REMARK VINA RESULT:    -2.354      1.944      4.617
REMARK INTER + INTRA:          -2.542
REMARK INTER:                  -4.852
REMARK INTRA:                   2.310
REMARK UNBOUND:                 1.051
REMARK SMILES CC1=CCC[C@H](C)C(=O)C[C@@H](C(C)C)C(=O)C1
REMARK SMILES IDX 8 1 9 2 6 3 7 4 5 5 4 6 3 7 2 8 1 9 10 11 11 12 15 13 16 14
REMARK SMILES IDX 17 15 12 17 13 18 14 19
REMARK H PARENT
REMARK Flexibility Score: 70.00
ROOT
ATOM      1  C   UNL     1      -5.070  28.789  29.835  1.00  0.00     0.136 C 
ATOM      2  O   UNL     1      -5.090  29.840  30.460  1.00  0.00    -0.299 OA
ENDROOT
BRANCH   1   3
ATOM      3  C   UNL     1      -4.737  27.496  30.556  1.00  0.00     0.053 C 
ATOM      4  C   UNL     1      -4.687  26.326  29.563  1.00  0.00     0.016 C 
BRANCH   3   5
ATOM      5  C   UNL     1      -3.399  27.629  31.319  1.00  0.00     0.015 C 
BRANCH   5   6
ATOM      6  C   UNL     1      -2.349  28.396  30.492  1.00  0.00     0.028 C 
BRANCH   6   7
ATOM      7  C   UNL     1      -1.432  27.491  29.706  1.00  0.00    -0.028 C 
ATOM      8  C   UNL     1      -1.486  27.289  28.366  1.00  0.00    -0.070 CG0
ATOM      9  C   UNL     1      -0.420  26.421  27.746  1.00  0.00     0.039 C 
ATOM     10  G   UNL     1      -2.586  27.848  27.472  1.00  0.00     0.000 G0
ENDBRANCH   6   7
ENDBRANCH   5   6
ENDBRANCH   3   5
ENDBRANCH   1   3
BRANCH   1  11
ATOM     11  C   UNL     1      -5.364  28.813  28.351  1.00  0.00     0.087 C 
BRANCH  11  12
ATOM     12  C   UNL     1      -4.397  29.747  27.575  1.00  0.00     0.066 C 
BRANCH  12  13
ATOM     13  C   UNL     1      -2.953  29.285  27.714  1.00  0.00     0.140 C 
ATOM     14  O   UNL     1      -2.071  30.086  27.991  1.00  0.00    -0.299 OA
BRANCH  13  15
ATOM     15  C   UNL     1      -2.594  27.842  27.452  1.00  0.00     0.106 CG0
ATOM     16  G   UNL     1      -1.489  27.307  28.353  1.00  0.00     0.000 G0
ENDBRANCH  13  15
ENDBRANCH  12  13
BRANCH  12  17
ATOM     17  C   UNL     1      -4.563  31.258  27.942  1.00  0.00    -0.006 C 
ATOM     18  C   UNL     1      -3.951  32.171  26.867  1.00  0.00     0.008 C 
ATOM     19  C   UNL     1      -6.021  31.677  28.210  1.00  0.00     0.008 C 
ENDBRANCH  12  17
ENDBRANCH  11  12
ENDBRANCH   1  11
TORSDOF 1
ENDMDL
MODEL 5
REMARK VINA RESULT:    -2.164      1.996      3.679
REMARK INTER + INTRA:          -2.251
REMARK INTER:                  -3.703
REMARK INTRA:                   1.452
REMARK UNBOUND:                 1.051
REMARK SMILES CC1=CCC[C@H](C)C(=O)C[C@@H](C(C)C)C(=O)C1
REMARK SMILES IDX 8 1 9 2 6 3 7 4 5 5 4 6 3 7 2 8 1 9 10 11 11 12 15 13 16 14
REMARK SMILES IDX 17 15 12 17 13 18 14 19
REMARK H PARENT
REMARK Flexibility Score: 70.00
ROOT
ATOM      1  C   UNL     1      -5.644  30.400  29.233  1.00  0.00     0.136 C 
ATOM      2  O   UNL     1      -6.090  31.303  29.926  1.00  0.00    -0.299 OA
ENDROOT
BRANCH   1   3
ATOM      3  C   UNL     1      -5.157  30.705  27.828  1.00  0.00     0.053 C 
ATOM      4  C   UNL     1      -5.798  32.000  27.309  1.00  0.00     0.016 C 
BRANCH   3   5
ATOM      5  C   UNL     1      -3.614  30.804  27.798  1.00  0.00     0.015 C 
BRANCH   5   6
ATOM      6  C   UNL     1      -2.980  29.567  27.133  1.00  0.00     0.028 C 
BRANCH   6   7
ATOM      7  C   UNL     1      -1.826  28.994  27.919  1.00  0.00    -0.028 C 
ATOM      8  C   UNL     1      -1.761  27.732  28.413  1.00  0.00    -0.070 CG0
ATOM      9  C   UNL     1      -0.480  27.313  29.089  1.00  0.00     0.039 C 
ATOM     10  G   UNL     1      -2.920  26.746  28.364  1.00  0.00     0.000 G0
ENDBRANCH   6   7
ENDBRANCH   5   6
ENDBRANCH   3   5
ENDBRANCH   1   3
BRANCH   1  11
ATOM     11  C   UNL     1      -5.605  28.996  29.794  1.00  0.00     0.087 C 
BRANCH  11  12
ATOM     12  C   UNL     1      -4.154  28.465  29.948  1.00  0.00     0.066 C 
BRANCH  12  13
ATOM     13  C   UNL     1      -4.016  27.062  29.372  1.00  0.00     0.140 C 
ATOM     14  O   UNL     1      -4.752  26.162  29.750  1.00  0.00    -0.299 OA
BRANCH  13  15
ATOM     15  C   UNL     1      -2.925  26.762  28.372  1.00  0.00     0.106 CG0
ATOM     16  G   UNL     1      -1.754  27.734  28.424  1.00  0.00     0.000 G0
ENDBRANCH  13  15
ENDBRANCH  12  13
BRANCH  12  17
ATOM     17  C   UNL     1      -3.613  28.549  31.413  1.00  0.00    -0.006 C 
ATOM     18  C   UNL     1      -2.695  27.361  31.745  1.00  0.00     0.008 C 
ATOM     19  C   UNL     1      -2.888  29.870  31.733  1.00  0.00     0.008 C 
ENDBRANCH  12  17
ENDBRANCH  11  12
ENDBRANCH   1  11
TORSDOF 1
ENDMDL
MODEL 6
REMARK VINA RESULT:    -1.969      1.867      4.807
REMARK INTER + INTRA:          -1.953
REMARK INTER:                  -3.331
REMARK INTRA:                   1.378
REMARK UNBOUND:                 1.051
REMARK SMILES CC1=CCC[C@H](C)C(=O)C[C@@H](C(C)C)C(=O)C1
REMARK SMILES IDX 8 1 9 2 6 3 7 4 5 5 4 6 3 7 2 8 1 9 10 11 11 12 15 13 16 14
REMARK SMILES IDX 17 15 12 17 13 18 14 19
REMARK H PARENT
REMARK Flexibility Score: 70.00
ROOT
ATOM      1  C   UNL     1      -4.127  29.231  30.819  1.00  0.00     0.136 C 
ATOM      2  O   UNL     1      -4.695  28.226  31.223  1.00  0.00    -0.299 OA
ENDROOT
BRANCH   1   3
ATOM      3  C   UNL     1      -2.699  29.508  31.251  1.00  0.00     0.053 C 
ATOM      4  C   UNL     1      -2.677  30.159  32.642  1.00  0.00     0.016 C 
BRANCH   3   5
ATOM      5  C   UNL     1      -1.865  28.206  31.239  1.00  0.00     0.015 C 
BRANCH   5   6
ATOM      6  C   UNL     1      -0.771  28.244  30.155  1.00  0.00     0.028 C 
BRANCH   6   7
ATOM      7  C   UNL     1      -0.951  27.191  29.090  1.00  0.00    -0.028 C 
ATOM      8  C   UNL     1      -1.680  27.339  27.954  1.00  0.00    -0.070 CG0
ATOM      9  C   UNL     1      -1.661  26.205  26.960  1.00  0.00     0.039 C 
ATOM     10  G   UNL     1      -2.544  28.558  27.659  1.00  0.00     0.000 G0
ENDBRANCH   6   7
ENDBRANCH   5   6
ENDBRANCH   3   5
ENDBRANCH   1   3
BRANCH   1  11
ATOM     11  C   UNL     1      -4.874  30.179  29.907  1.00  0.00     0.087 C 
BRANCH  11  12
ATOM     12  C   UNL     1      -4.756  29.774  28.413  1.00  0.00     0.066 C 
BRANCH  12  13
ATOM     13  C   UNL     1      -3.934  28.503  28.249  1.00  0.00     0.140 C 
ATOM     14  O   UNL     1      -4.368  27.430  28.644  1.00  0.00    -0.299 OA
BRANCH  13  15
ATOM     15  C   UNL     1      -2.550  28.572  27.649  1.00  0.00     0.106 CG0
ATOM     16  G   UNL     1      -1.686  27.353  27.946  1.00  0.00     0.000 G0
ENDBRANCH  13  15
ENDBRANCH  12  13
BRANCH  12  17
ATOM     17  C   UNL     1      -4.235  30.928  27.495  1.00  0.00    -0.006 C 
ATOM     18  C   UNL     1      -5.376  31.562  26.683  1.00  0.00     0.008 C 
ATOM     19  C   UNL     1      -3.464  32.025  28.252  1.00  0.00     0.008 C 
ENDBRANCH  12  17
ENDBRANCH  11  12
ENDBRANCH   1  11
TORSDOF 1
ENDMDL
MODEL 7
REMARK VINA RESULT:    -1.545      2.055      3.964
REMARK INTER + INTRA:          -1.307
REMARK INTER:                  -1.831
REMARK INTRA:                   0.524
REMARK UNBOUND:                 1.051
REMARK SMILES CC1=CCC[C@H](C)C(=O)C[C@@H](C(C)C)C(=O)C1
REMARK SMILES IDX 8 1 9 2 6 3 7 4 5 5 4 6 3 7 2 8 1 9 10 11 11 12 15 13 16 14
REMARK SMILES IDX 17 15 12 17 13 18 14 19
REMARK H PARENT
REMARK Flexibility Score: 70.00
ROOT
ATOM      1  C   UNL     1      -4.525  28.798  30.532  1.00  0.00     0.136 C 
ATOM      2  O   UNL     1      -3.869  28.873  31.561  1.00  0.00    -0.299 OA
ENDROOT
BRANCH   1   3
ATOM      3  C   UNL     1      -5.902  29.432  30.475  1.00  0.00     0.053 C 
ATOM      4  C   UNL     1      -6.083  30.426  31.631  1.00  0.00     0.016 C 
BRANCH   3   5
ATOM      5  C   UNL     1      -6.124  30.127  29.112  1.00  0.00     0.015 C 
BRANCH   5   6
ATOM      6  C   UNL     1      -5.696  31.607  29.154  1.00  0.00     0.028 C 
BRANCH   6   7
ATOM      7  C   UNL     1      -5.489  32.205  27.784  1.00  0.00    -0.028 C 
ATOM      8  C   UNL     1      -4.411  31.991  26.988  1.00  0.00    -0.070 CG0
ATOM      9  C   UNL     1      -4.430  32.600  25.609  1.00  0.00     0.039 C 
ATOM     10  G   UNL     1      -3.177  31.215  27.429  1.00  0.00     0.000 G0
ENDBRANCH   6   7
ENDBRANCH   5   6
ENDBRANCH   3   5
ENDBRANCH   1   3
BRANCH   1  11
ATOM     11  C   UNL     1      -3.946  28.059  29.345  1.00  0.00     0.087 C 
BRANCH  11  12
ATOM     12  C   UNL     1      -2.829  28.870  28.635  1.00  0.00     0.066 C 
BRANCH  12  13
ATOM     13  C   UNL     1      -3.390  29.687  27.479  1.00  0.00     0.140 C 
ATOM     14  O   UNL     1      -3.966  29.134  26.554  1.00  0.00    -0.299 OA
BRANCH  13  15
ATOM     15  C   UNL     1      -3.183  31.182  27.441  1.00  0.00     0.106 CG0
ATOM     16  G   UNL     1      -4.419  31.966  27.024  1.00  0.00     0.000 G0
ENDBRANCH  13  15
ENDBRANCH  12  13
BRANCH  12  17
ATOM     17  C   UNL     1      -1.610  27.996  28.194  1.00  0.00    -0.006 C 
ATOM     18  C   UNL     1      -0.607  27.804  29.344  1.00  0.00     0.008 C 
ATOM     19  C   UNL     1      -2.005  26.624  27.616  1.00  0.00     0.008 C 
ENDBRANCH  12  17
ENDBRANCH  11  12
ENDBRANCH   1  11
TORSDOF 1
ENDMDL
MODEL 8
REMARK VINA RESULT:    -1.351      2.019      4.270
REMARK INTER + INTRA:          -1.011
REMARK INTER:                  -3.336
REMARK INTRA:                   2.325
REMARK UNBOUND:                 1.051
REMARK SMILES CC1=CCC[C@H](C)C(=O)C[C@@H](C(C)C)C(=O)C1
REMARK SMILES IDX 8 1 9 2 6 3 7 4 5 5 4 6 3 7 2 8 1 9 10 11 11 12 15 13 16 14
REMARK SMILES IDX 17 15 12 17 13 18 14 19
REMARK H PARENT
REMARK Flexibility Score: 70.00
ROOT
ATOM      1  C   UNL     1      -2.875  26.844  28.664  1.00  0.00     0.136 C 
ATOM      2  O   UNL     1      -2.480  25.811  28.141  1.00  0.00    -0.299 OA
ENDROOT
BRANCH   1   3
ATOM      3  C   UNL     1      -1.881  27.941  28.995  1.00  0.00     0.053 C 
ATOM      4  C   UNL     1      -0.487  27.346  29.241  1.00  0.00     0.016 C 
BRANCH   3   5
ATOM      5  C   UNL     1      -1.838  28.994  27.864  1.00  0.00     0.015 C 
BRANCH   5   6
ATOM      6  C   UNL     1      -3.189  29.093  27.129  1.00  0.00     0.028 C 
BRANCH   6   7
ATOM      7  C   UNL     1      -3.907  30.397  27.376  1.00  0.00    -0.028 C 
ATOM      8  C   UNL     1      -5.063  30.538  28.073  1.00  0.00    -0.070 CG0
ATOM      9  C   UNL     1      -5.577  31.938  28.297  1.00  0.00     0.039 C 
ATOM     10  G   UNL     1      -5.883  29.364  28.592  1.00  0.00     0.000 G0
ENDBRANCH   6   7
ENDBRANCH   5   6
ENDBRANCH   3   5
ENDBRANCH   1   3
BRANCH   1  11
ATOM     11  C   UNL     1      -4.347  26.990  28.981  1.00  0.00     0.087 C 
BRANCH  11  12
ATOM     12  C   UNL     1      -4.592  27.816  30.272  1.00  0.00     0.066 C 
BRANCH  12  13
ATOM     13  C   UNL     1      -5.543  28.976  30.013  1.00  0.00     0.140 C 
ATOM     14  O   UNL     1      -6.076  29.559  30.946  1.00  0.00    -0.299 OA
BRANCH  13  15
ATOM     15  C   UNL     1      -5.879  29.375  28.596  1.00  0.00     0.106 CG0
ATOM     16  G   UNL     1      -5.061  30.547  28.073  1.00  0.00     0.000 G0
ENDBRANCH  13  15
ENDBRANCH  12  13
BRANCH  12  17
ATOM     17  C   UNL     1      -3.273  28.288  30.968  1.00  0.00    -0.006 C 
ATOM     18  C   UNL     1      -3.383  29.741  31.458  1.00  0.00     0.008 C 
ATOM     19  C   UNL     1      -2.823  27.381  32.128  1.00  0.00     0.008 C 
ENDBRANCH  12  17
ENDBRANCH  11  12
ENDBRANCH   1  11
TORSDOF 1
ENDMDL
