MODEL 1
REMARK VINA RESULT:    -3.786      0.000      0.000
REMARK INTER + INTRA:          -6.869
REMARK INTER:                  -5.778
REMARK INTRA:                  -1.091
REMARK UNBOUND:                -1.091
REMARK SMILES CCCCCCCCCCC(=O)[O-]
REMARK SMILES IDX 7 1 8 2 9 3 10 4 11 5 12 6 13 7 6 8 5 9 4 10 3 11 2 12 1 13
REMARK H PARENT
REMARK Flexibility Score: inf
ROOT
ATOM      1  C   UNL     1      -2.377   4.075  -8.725  1.00  0.00     0.000 C 
ENDROOT
BRANCH   1   2
ATOM      2  C   UNL     1      -2.727   4.131 -10.221  1.00  0.00     0.000 C 
BRANCH   2   3
ATOM      3  C   UNL     1      -3.934   3.235 -10.535  1.00  0.00     0.006 C 
BRANCH   3   4
ATOM      4  C   UNL     1      -4.321   2.344  -9.347  1.00  0.00     0.053 C 
BRANCH   4   5
ATOM      5  C   UNL     1      -5.806   2.188  -9.230  1.00  0.00     0.041 C 
ATOM      6  O   UNL     1      -6.437   1.484 -10.063  1.00  0.00    -0.550 OA
ATOM      7  O   UNL     1      -6.490   2.795  -8.184  1.00  0.00    -0.550 OA
ENDBRANCH   4   5
ENDBRANCH   3   4
ENDBRANCH   2   3
ENDBRANCH   1   2
BRANCH   1   8
ATOM      8  C   UNL     1      -0.867   3.943  -8.474  1.00  0.00     0.000 C 
BRANCH   8   9
ATOM      9  C   UNL     1      -0.503   2.648  -7.727  1.00  0.00    -0.000 C 
BRANCH   9  10
ATOM     10  C   UNL     1       0.095   1.580  -8.657  1.00  0.00    -0.000 C 
BRANCH  10  11
ATOM     11  C   UNL     1       0.680   2.177  -9.949  1.00  0.00    -0.000 C 
BRANCH  11  12
ATOM     12  C   UNL     1       0.457   1.270 -11.169  1.00  0.00    -0.003 C 
ATOM     13  C   UNL     1      -1.022   1.088 -11.507  1.00  0.00     0.004 C 
ENDBRANCH  11  12
ENDBRANCH  10  11
ENDBRANCH   9  10
ENDBRANCH   8   9
ENDBRANCH   1   8
TORSDOF 9
ENDMDL
MODEL 2
REMARK VINA RESULT:    -3.752      1.305      2.149
REMARK INTER + INTRA:          -6.817
REMARK INTER:                  -6.005
REMARK INTRA:                  -0.812
REMARK UNBOUND:                -1.091
REMARK SMILES CCCCCCCCCCC(=O)[O-]
REMARK SMILES IDX 7 1 8 2 9 3 10 4 11 5 12 6 13 7 6 8 5 9 4 10 3 11 2 12 1 13
REMARK H PARENT
REMARK Flexibility Score: inf
ROOT
ATOM      1  C   UNL     1      -2.792   5.796  -9.879  1.00  0.00     0.000 C 
ENDROOT
BRANCH   1   2
ATOM      2  C   UNL     1      -4.292   5.502  -9.716  1.00  0.00     0.000 C 
BRANCH   2   3
ATOM      3  C   UNL     1      -4.514   4.254  -8.849  1.00  0.00     0.006 C 
BRANCH   3   4
ATOM      4  C   UNL     1      -4.372   2.955  -9.654  1.00  0.00     0.053 C 
BRANCH   4   5
ATOM      5  C   UNL     1      -5.475   1.989  -9.349  1.00  0.00     0.041 C 
ATOM      6  O   UNL     1      -5.787   1.738  -8.154  1.00  0.00    -0.550 OA
ATOM      7  O   UNL     1      -6.181   1.390 -10.385  1.00  0.00    -0.550 OA
ENDBRANCH   4   5
ENDBRANCH   3   4
ENDBRANCH   2   3
ENDBRANCH   1   2
BRANCH   1   8
ATOM      8  C   UNL     1      -2.080   6.017  -8.534  1.00  0.00     0.000 C 
BRANCH   8   9
ATOM      9  C   UNL     1      -0.669   5.405  -8.506  1.00  0.00    -0.000 C 
BRANCH   9  10
ATOM     10  C   UNL     1      -0.583   4.085  -9.288  1.00  0.00    -0.000 C 
BRANCH  10  11
ATOM     11  C   UNL     1      -0.751   2.849  -8.387  1.00  0.00    -0.000 C 
BRANCH  11  12
ATOM     12  C   UNL     1       0.194   1.703  -8.779  1.00  0.00    -0.003 C 
ATOM     13  C   UNL     1       0.170   1.405 -10.278  1.00  0.00     0.004 C 
ENDBRANCH  11  12
ENDBRANCH  10  11
ENDBRANCH   9  10
ENDBRANCH   8   9
ENDBRANCH   1   8
TORSDOF 9
ENDMDL
MODEL 3
REMARK VINA RESULT:    -3.735      3.247      5.263
REMARK INTER + INTRA:          -6.791
REMARK INTER:                  -5.720
REMARK INTRA:                  -1.071
REMARK UNBOUND:                -1.091
REMARK SMILES CCCCCCCCCCC(=O)[O-]
REMARK SMILES IDX 7 1 8 2 9 3 10 4 11 5 12 6 13 7 6 8 5 9 4 10 3 11 2 12 1 13
REMARK H PARENT
REMARK Flexibility Score: inf
ROOT
ATOM      1  C   UNL     1      -1.837   5.667  -9.170  1.00  0.00     0.000 C 
ENDROOT
BRANCH   1   2
ATOM      2  C   UNL     1      -0.948   4.624  -8.472  1.00  0.00     0.000 C 
BRANCH   2   3
ATOM      3  C   UNL     1      -1.604   3.236  -8.505  1.00  0.00     0.006 C 
BRANCH   3   4
ATOM      4  C   UNL     1      -0.984   2.326  -9.574  1.00  0.00     0.053 C 
BRANCH   4   5
ATOM      5  C   UNL     1       0.352   1.800  -9.149  1.00  0.00     0.041 C 
ATOM      6  O   UNL     1       0.472   1.178  -8.060  1.00  0.00    -0.550 OA
ATOM      7  O   UNL     1       1.459   1.969  -9.971  1.00  0.00    -0.550 OA
ENDBRANCH   4   5
ENDBRANCH   3   4
ENDBRANCH   2   3
ENDBRANCH   1   2
BRANCH   1   8
ATOM      8  C   UNL     1      -3.329   5.484  -8.851  1.00  0.00     0.000 C 
BRANCH   8   9
ATOM      9  C   UNL     1      -4.214   5.550 -10.108  1.00  0.00    -0.000 C 
BRANCH   9  10
ATOM     10  C   UNL     1      -5.424   4.605 -10.027  1.00  0.00    -0.000 C 
BRANCH  10  11
ATOM     11  C   UNL     1      -5.373   3.676  -8.802  1.00  0.00    -0.000 C 
BRANCH  11  12
ATOM     12  C   UNL     1      -5.442   2.191  -9.187  1.00  0.00    -0.003 C 
ATOM     13  C   UNL     1      -4.696   1.883 -10.485  1.00  0.00     0.004 C 
ENDBRANCH  11  12
ENDBRANCH  10  11
ENDBRANCH   9  10
ENDBRANCH   8   9
ENDBRANCH   1   8
TORSDOF 9
ENDMDL
MODEL 4
REMARK VINA RESULT:    -3.713      3.183      5.380
REMARK INTER + INTRA:          -6.758
REMARK INTER:                  -5.617
REMARK INTRA:                  -1.140
REMARK UNBOUND:                -1.091
REMARK SMILES CCCCCCCCCCC(=O)[O-]
REMARK SMILES IDX 7 1 8 2 9 3 10 4 11 5 12 6 13 7 6 8 5 9 4 10 3 11 2 12 1 13
REMARK H PARENT
REMARK Flexibility Score: inf
ROOT
ATOM      1  C   UNL     1      -3.211   5.096  -8.860  1.00  0.00     0.000 C 
ENDROOT
BRANCH   1   2
ATOM      2  C   UNL     1      -1.793   4.563  -9.124  1.00  0.00     0.000 C 
BRANCH   2   3
ATOM      3  C   UNL     1      -1.650   3.118  -8.625  1.00  0.00     0.006 C 
BRANCH   3   4
ATOM      4  C   UNL     1      -0.996   2.205  -9.671  1.00  0.00     0.053 C 
BRANCH   4   5
ATOM      5  C   UNL     1       0.360   1.743  -9.235  1.00  0.00     0.041 C 
ATOM      6  O   UNL     1       0.492   1.067  -8.180  1.00  0.00    -0.550 OA
ATOM      7  O   UNL     1       1.476   2.032 -10.010  1.00  0.00    -0.550 OA
ENDBRANCH   4   5
ENDBRANCH   3   4
ENDBRANCH   2   3
ENDBRANCH   1   2
BRANCH   1   8
ATOM      8  C   UNL     1      -3.940   5.508 -10.149  1.00  0.00     0.000 C 
BRANCH   8   9
ATOM      9  C   UNL     1      -4.016   4.364 -11.176  1.00  0.00    -0.000 C 
BRANCH   9  10
ATOM     10  C   UNL     1      -5.228   3.447 -10.947  1.00  0.00    -0.000 C 
BRANCH  10  11
ATOM     11  C   UNL     1      -4.857   2.142 -10.221  1.00  0.00    -0.000 C 
BRANCH  11  12
ATOM     12  C   UNL     1      -5.627   1.963  -8.904  1.00  0.00    -0.003 C 
ATOM     13  C   UNL     1      -6.401   3.217  -8.498  1.00  0.00     0.004 C 
ENDBRANCH  11  12
ENDBRANCH  10  11
ENDBRANCH   9  10
ENDBRANCH   8   9
ENDBRANCH   1   8
TORSDOF 9
ENDMDL
MODEL 5
REMARK VINA RESULT:    -3.560      1.400      2.557
REMARK INTER + INTRA:          -6.523
REMARK INTER:                  -5.670
REMARK INTRA:                  -0.854
REMARK UNBOUND:                -1.091
REMARK SMILES CCCCCCCCCCC(=O)[O-]
REMARK SMILES IDX 7 1 8 2 9 3 10 4 11 5 12 6 13 7 6 8 5 9 4 10 3 11 2 12 1 13
REMARK H PARENT
REMARK Flexibility Score: inf
ROOT
ATOM      1  C   UNL     1      -4.202   4.319  -8.990  1.00  0.00     0.000 C 
ENDROOT
BRANCH   1   2
ATOM      2  C   UNL     1      -4.163   2.855  -9.457  1.00  0.00     0.000 C 
BRANCH   2   3
ATOM      3  C   UNL     1      -5.369   2.076  -8.914  1.00  0.00     0.006 C 
BRANCH   3   4
ATOM      4  C   UNL     1      -6.668   2.890  -8.988  1.00  0.00     0.053 C 
BRANCH   4   5
ATOM      5  C   UNL     1      -7.366   2.703 -10.300  1.00  0.00     0.041 C 
ATOM      6  O   UNL     1      -7.729   3.704 -10.974  1.00  0.00    -0.550 OA
ATOM      7  O   UNL     1      -7.589   1.424 -10.793  1.00  0.00    -0.550 OA
ENDBRANCH   4   5
ENDBRANCH   3   4
ENDBRANCH   2   3
ENDBRANCH   1   2
BRANCH   1   8
ATOM      8  C   UNL     1      -3.023   5.146  -9.530  1.00  0.00     0.000 C 
BRANCH   8   9
ATOM      9  C   UNL     1      -1.948   5.410  -8.462  1.00  0.00    -0.000 C 
BRANCH   9  10
ATOM     10  C   UNL     1      -0.698   4.536  -8.655  1.00  0.00    -0.000 C 
BRANCH  10  11
ATOM     11  C   UNL     1      -0.795   3.190  -7.916  1.00  0.00    -0.000 C 
BRANCH  11  12
ATOM     12  C   UNL     1      -0.094   2.052  -8.675  1.00  0.00    -0.003 C 
ATOM     13  C   UNL     1      -0.564   1.933 -10.124  1.00  0.00     0.004 C 
ENDBRANCH  11  12
ENDBRANCH  10  11
ENDBRANCH   9  10
ENDBRANCH   8   9
ENDBRANCH   1   8
TORSDOF 9
ENDMDL
MODEL 6
REMARK VINA RESULT:    -3.476      1.428      2.999
REMARK INTER + INTRA:          -6.396
REMARK INTER:                  -5.011
REMARK INTRA:                  -1.385
REMARK UNBOUND:                -1.091
REMARK SMILES CCCCCCCCCCC(=O)[O-]
REMARK SMILES IDX 7 1 8 2 9 3 10 4 11 5 12 6 13 7 6 8 5 9 4 10 3 11 2 12 1 13
REMARK H PARENT
REMARK Flexibility Score: inf
ROOT
ATOM      1  C   UNL     1      -1.686   2.503 -12.113  1.00  0.00     0.000 C 
ENDROOT
BRANCH   1   2
ATOM      2  C   UNL     1      -2.843   3.218 -11.397  1.00  0.00     0.000 C 
BRANCH   2   3
ATOM      3  C   UNL     1      -3.780   2.204 -10.725  1.00  0.00     0.006 C 
BRANCH   3   4
ATOM      4  C   UNL     1      -4.123   2.599  -9.282  1.00  0.00     0.053 C 
BRANCH   4   5
ATOM      5  C   UNL     1      -4.652   3.997  -9.200  1.00  0.00     0.041 C 
ATOM      6  O   UNL     1      -4.043   4.868  -8.524  1.00  0.00    -0.550 OA
ATOM      7  O   UNL     1      -5.803   4.348  -9.895  1.00  0.00    -0.550 OA
ENDBRANCH   4   5
ENDBRANCH   3   4
ENDBRANCH   2   3
ENDBRANCH   1   2
BRANCH   1   8
ATOM      8  C   UNL     1      -1.268   1.200 -11.412  1.00  0.00     0.000 C 
BRANCH   8   9
ATOM      9  C   UNL     1       0.213   1.204 -10.994  1.00  0.00    -0.000 C 
BRANCH   9  10
ATOM     10  C   UNL     1       0.528   2.286  -9.949  1.00  0.00    -0.000 C 
BRANCH  10  11
ATOM     11  C   UNL     1      -0.126   2.004  -8.586  1.00  0.00    -0.000 C 
BRANCH  11  12
ATOM     12  C   UNL     1      -0.765   3.258  -7.969  1.00  0.00    -0.003 C 
ATOM     13  C   UNL     1      -0.598   4.497  -8.848  1.00  0.00     0.004 C 
ENDBRANCH  11  12
ENDBRANCH  10  11
ENDBRANCH   9  10
ENDBRANCH   8   9
ENDBRANCH   1   8
TORSDOF 9
ENDMDL
MODEL 7
REMARK VINA RESULT:    -3.300      1.719      3.243
REMARK INTER + INTRA:          -6.127
REMARK INTER:                  -4.962
REMARK INTRA:                  -1.165
REMARK UNBOUND:                -1.091
REMARK SMILES CCCCCCCCCCC(=O)[O-]
REMARK SMILES IDX 7 1 8 2 9 3 10 4 11 5 12 6 13 7 6 8 5 9 4 10 3 11 2 12 1 13
REMARK H PARENT
REMARK Flexibility Score: inf
ROOT
ATOM      1  C   UNL     1      -3.142   2.862 -11.483  1.00  0.00     0.000 C 
ENDROOT
BRANCH   1   2
ATOM      2  C   UNL     1      -3.830   4.232 -11.379  1.00  0.00     0.000 C 
BRANCH   2   3
ATOM      3  C   UNL     1      -5.285   4.081 -10.913  1.00  0.00     0.006 C 
BRANCH   3   4
ATOM      4  C   UNL     1      -5.438   4.302  -9.402  1.00  0.00     0.053 C 
BRANCH   4   5
ATOM      5  C   UNL     1      -6.036   3.109  -8.723  1.00  0.00     0.041 C 
ATOM      6  O   UNL     1      -6.695   3.248  -7.659  1.00  0.00    -0.550 OA
ATOM      7  O   UNL     1      -5.890   1.845  -9.283  1.00  0.00    -0.550 OA
ENDBRANCH   4   5
ENDBRANCH   3   4
ENDBRANCH   2   3
ENDBRANCH   1   2
BRANCH   1   8
ATOM      8  C   UNL     1      -1.873   2.767 -10.620  1.00  0.00     0.000 C 
BRANCH   8   9
ATOM      9  C   UNL     1      -2.165   2.934  -9.119  1.00  0.00    -0.000 C 
BRANCH   9  10
ATOM     10  C   UNL     1      -0.975   3.530  -8.350  1.00  0.00    -0.000 C 
BRANCH  10  11
ATOM     11  C   UNL     1      -0.773   5.028  -8.636  1.00  0.00    -0.000 C 
BRANCH  11  12
ATOM     12  C   UNL     1      -2.074   5.834  -8.498  1.00  0.00    -0.003 C 
ATOM     13  C   UNL     1      -2.121   7.043  -9.431  1.00  0.00     0.004 C 
ENDBRANCH  11  12
ENDBRANCH  10  11
ENDBRANCH   9  10
ENDBRANCH   8   9
ENDBRANCH   1   8
TORSDOF 9
ENDMDL
MODEL 8
REMARK VINA RESULT:    -3.295      3.039      5.055
REMARK INTER + INTRA:          -6.119
REMARK INTER:                  -5.274
REMARK INTRA:                  -0.846
REMARK UNBOUND:                -1.091
REMARK SMILES CCCCCCCCCCC(=O)[O-]
REMARK SMILES IDX 7 1 8 2 9 3 10 4 11 5 12 6 13 7 6 8 5 9 4 10 3 11 2 12 1 13
REMARK H PARENT
REMARK Flexibility Score: inf
ROOT
ATOM      1  C   UNL     1      -3.844   4.930  -8.919  1.00  0.00     0.000 C 
ENDROOT
BRANCH   1   2
ATOM      2  C   UNL     1      -2.653   4.184  -9.541  1.00  0.00     0.000 C 
BRANCH   2   3
ATOM      3  C   UNL     1      -2.037   3.201  -8.535  1.00  0.00     0.006 C 
BRANCH   3   4
ATOM      4  C   UNL     1      -0.503   3.244  -8.545  1.00  0.00     0.053 C 
BRANCH   4   5
ATOM      5  C   UNL     1       0.084   2.000  -9.137  1.00  0.00     0.041 C 
ATOM      6  O   UNL     1       0.202   1.886 -10.386  1.00  0.00    -0.550 OA
ATOM      7  O   UNL     1       0.529   0.978  -8.307  1.00  0.00    -0.550 OA
ENDBRANCH   4   5
ENDBRANCH   3   4
ENDBRANCH   2   3
ENDBRANCH   1   2
BRANCH   1   8
ATOM      8  C   UNL     1      -5.186   4.553  -9.569  1.00  0.00     0.000 C 
BRANCH   8   9
ATOM      9  C   UNL     1      -5.910   3.424  -8.815  1.00  0.00    -0.000 C 
BRANCH   9  10
ATOM     10  C   UNL     1      -5.508   2.027  -9.316  1.00  0.00    -0.000 C 
BRANCH  10  11
ATOM     11  C   UNL     1      -6.206   1.645 -10.633  1.00  0.00    -0.000 C 
BRANCH  11  12
ATOM     12  C   UNL     1      -5.297   1.837 -11.857  1.00  0.00    -0.003 C 
ATOM     13  C   UNL     1      -3.852   1.418 -11.590  1.00  0.00     0.004 C 
ENDBRANCH  11  12
ENDBRANCH  10  11
ENDBRANCH   9  10
ENDBRANCH   8   9
ENDBRANCH   1   8
TORSDOF 9
ENDMDL
