MODEL 1
REMARK VINA RESULT:    -2.835      0.000      0.000
REMARK INTER + INTRA:          -3.627
REMARK INTER:                  -3.497
REMARK INTRA:                  -0.130
REMARK UNBOUND:                -0.130
REMARK SMILES C=CC[C@@H](C)C(=O)CC
REMARK SMILES IDX 4 1 5 2 6 3 7 4 8 5 9 6 3 7 2 8 1 9
REMARK H PARENT
REMARK Flexibility Score: inf
ROOT
ATOM      1  C   UNL     1      19.448   9.534  28.995  1.00  0.00     0.057 C 
ATOM      2  C   UNL     1      18.704  10.621  28.208  1.00  0.00     0.016 C 
ENDROOT
BRANCH   1   3
ATOM      3  C   UNL     1      19.219   8.168  28.378  1.00  0.00     0.135 C 
ATOM      4  O   UNL     1      20.149   7.380  28.281  1.00  0.00    -0.299 OA
BRANCH   3   5
ATOM      5  C   UNL     1      17.859   7.760  27.875  1.00  0.00     0.072 C 
ATOM      6  C   UNL     1      17.598   6.285  28.159  1.00  0.00     0.012 C 
ENDBRANCH   3   5
ENDBRANCH   1   3
BRANCH   1   7
ATOM      7  C   UNL     1      20.952   9.843  29.161  1.00  0.00     0.038 C 
BRANCH   7   8
ATOM      8  C   UNL     1      21.617  10.333  27.900  1.00  0.00    -0.034 C 
ATOM      9  C   UNL     1      22.350  11.449  27.875  1.00  0.00     0.004 C 
ENDBRANCH   7   8
ENDBRANCH   1   7
TORSDOF 4
ENDMDL
MODEL 2
REMARK VINA RESULT:    -2.690     18.401     19.753
REMARK INTER + INTRA:          -3.448
REMARK INTER:                  -3.290
REMARK INTRA:                  -0.159
REMARK UNBOUND:                -0.130
REMARK SMILES C=CC[C@@H](C)C(=O)CC
REMARK SMILES IDX 4 1 5 2 6 3 7 4 8 5 9 6 3 7 2 8 1 9
REMARK H PARENT
REMARK Flexibility Score: inf
ROOT
ATOM      1  C   UNL     1      30.934  24.411  32.001  1.00  0.00     0.057 C 
ATOM      2  C   UNL     1      29.554  24.895  32.466  1.00  0.00     0.016 C 
ENDROOT
BRANCH   1   3
ATOM      3  C   UNL     1      31.066  24.520  30.495  1.00  0.00     0.135 C 
ATOM      4  O   UNL     1      32.174  24.527  29.978  1.00  0.00    -0.299 OA
BRANCH   3   5
ATOM      5  C   UNL     1      29.848  24.626  29.614  1.00  0.00     0.072 C 
ATOM      6  C   UNL     1      30.055  23.859  28.313  1.00  0.00     0.012 C 
ENDBRANCH   3   5
ENDBRANCH   1   3
BRANCH   1   7
ATOM      7  C   UNL     1      32.093  25.125  32.731  1.00  0.00     0.038 C 
BRANCH   7   8
ATOM      8  C   UNL     1      32.411  24.544  34.086  1.00  0.00    -0.034 C 
ATOM      9  C   UNL     1      31.990  25.116  35.216  1.00  0.00     0.004 C 
ENDBRANCH   7   8
ENDBRANCH   1   7
TORSDOF 4
ENDMDL
MODEL 3
REMARK VINA RESULT:    -2.432      1.496      4.387
REMARK INTER + INTRA:          -3.130
REMARK INTER:                  -2.903
REMARK INTRA:                  -0.227
REMARK UNBOUND:                -0.130
REMARK SMILES C=CC[C@@H](C)C(=O)CC
REMARK SMILES IDX 4 1 5 2 6 3 7 4 8 5 9 6 3 7 2 8 1 9
REMARK H PARENT
REMARK Flexibility Score: inf
ROOT
ATOM      1  C   UNL     1      19.382   8.565  28.807  1.00  0.00     0.057 C 
ATOM      2  C   UNL     1      19.974   8.389  30.212  1.00  0.00     0.016 C 
ENDROOT
BRANCH   1   3
ATOM      3  C   UNL     1      19.870   9.852  28.172  1.00  0.00     0.135 C 
ATOM      4  O   UNL     1      19.070  10.729  27.878  1.00  0.00    -0.299 OA
BRANCH   3   5
ATOM      5  C   UNL     1      21.333  10.072  27.889  1.00  0.00     0.072 C 
ATOM      6  C   UNL     1      21.738  11.503  28.223  1.00  0.00     0.012 C 
ENDBRANCH   3   5
ENDBRANCH   1   3
BRANCH   1   7
ATOM      7  C   UNL     1      19.636   7.343  27.896  1.00  0.00     0.038 C 
BRANCH   7   8
ATOM      8  C   UNL     1      18.520   6.329  27.909  1.00  0.00    -0.034 C 
ATOM      9  C   UNL     1      17.246   6.684  28.088  1.00  0.00     0.004 C 
ENDBRANCH   7   8
ENDBRANCH   1   7
TORSDOF 4
ENDMDL
MODEL 4
REMARK VINA RESULT:    -2.316     17.431     19.212
REMARK INTER + INTRA:          -2.988
REMARK INTER:                  -2.722
REMARK INTRA:                  -0.265
REMARK UNBOUND:                -0.130
REMARK SMILES C=CC[C@@H](C)C(=O)CC
REMARK SMILES IDX 4 1 5 2 6 3 7 4 8 5 9 6 3 7 2 8 1 9
REMARK H PARENT
REMARK Flexibility Score: inf
ROOT
ATOM      1  C   UNL     1      30.963  23.754  28.467  1.00  0.00     0.057 C 
ATOM      2  C   UNL     1      29.979  22.712  27.920  1.00  0.00     0.016 C 
ENDROOT
BRANCH   1   3
ATOM      3  C   UNL     1      30.294  24.639  29.501  1.00  0.00     0.135 C 
ATOM      4  O   UNL     1      29.195  25.122  29.270  1.00  0.00    -0.299 OA
BRANCH   3   5
ATOM      5  C   UNL     1      30.964  24.939  30.816  1.00  0.00     0.072 C 
ATOM      6  C   UNL     1      29.982  24.780  31.971  1.00  0.00     0.012 C 
ENDBRANCH   3   5
ENDBRANCH   1   3
BRANCH   1   7
ATOM      7  C   UNL     1      32.262  23.118  29.011  1.00  0.00     0.038 C 
BRANCH   7   8
ATOM      8  C   UNL     1      33.521  23.716  28.435  1.00  0.00    -0.034 C 
ATOM      9  C   UNL     1      34.559  24.055  29.205  1.00  0.00     0.004 C 
ENDBRANCH   7   8
ENDBRANCH   1   7
TORSDOF 4
ENDMDL
MODEL 5
REMARK VINA RESULT:    -2.316     17.845     19.636
REMARK INTER + INTRA:          -2.987
REMARK INTER:                  -2.736
REMARK INTRA:                  -0.251
REMARK UNBOUND:                -0.130
REMARK SMILES C=CC[C@@H](C)C(=O)CC
REMARK SMILES IDX 4 1 5 2 6 3 7 4 8 5 9 6 3 7 2 8 1 9
REMARK H PARENT
REMARK Flexibility Score: inf
ROOT
ATOM      1  C   UNL     1      30.986  23.595  29.392  1.00  0.00     0.057 C 
ATOM      2  C   UNL     1      29.999  23.287  28.258  1.00  0.00     0.016 C 
ENDROOT
BRANCH   1   3
ATOM      3  C   UNL     1      32.414  23.584  28.884  1.00  0.00     0.135 C 
ATOM      4  O   UNL     1      32.698  22.954  27.875  1.00  0.00    -0.299 OA
BRANCH   3   5
ATOM      5  C   UNL     1      33.501  24.337  29.605  1.00  0.00     0.072 C 
ATOM      6  C   UNL     1      34.867  24.020  29.006  1.00  0.00     0.012 C 
ENDBRANCH   3   5
ENDBRANCH   1   3
BRANCH   1   7
ATOM      7  C   UNL     1      30.651  24.909  30.132  1.00  0.00     0.038 C 
BRANCH   7   8
ATOM      8  C   UNL     1      30.318  24.720  31.591  1.00  0.00    -0.034 C 
ATOM      9  C   UNL     1      31.178  25.044  32.559  1.00  0.00     0.004 C 
ENDBRANCH   7   8
ENDBRANCH   1   7
TORSDOF 4
ENDMDL
MODEL 6
REMARK VINA RESULT:    -2.286     17.571     19.674
REMARK INTER + INTRA:          -2.950
REMARK INTER:                  -2.824
REMARK INTRA:                  -0.127
REMARK UNBOUND:                -0.130
REMARK SMILES C=CC[C@@H](C)C(=O)CC
REMARK SMILES IDX 4 1 5 2 6 3 7 4 8 5 9 6 3 7 2 8 1 9
REMARK H PARENT
REMARK Flexibility Score: inf
ROOT
ATOM      1  C   UNL     1      31.244  24.301  30.383  1.00  0.00     0.057 C 
ATOM      2  C   UNL     1      32.583  24.689  29.742  1.00  0.00     0.016 C 
ENDROOT
BRANCH   1   3
ATOM      3  C   UNL     1      31.166  24.795  31.814  1.00  0.00     0.135 C 
ATOM      4  O   UNL     1      30.077  24.935  32.352  1.00  0.00    -0.299 OA
BRANCH   3   5
ATOM      5  C   UNL     1      32.414  25.124  32.591  1.00  0.00     0.072 C 
ATOM      6  C   UNL     1      32.222  24.823  34.074  1.00  0.00     0.012 C 
ENDBRANCH   3   5
ENDBRANCH   1   3
BRANCH   1   7
ATOM      7  C   UNL     1      30.029  24.763  29.550  1.00  0.00     0.038 C 
BRANCH   7   8
ATOM      8  C   UNL     1      29.895  24.059  28.223  1.00  0.00    -0.034 C 
ATOM      9  C   UNL     1      30.060  22.739  28.104  1.00  0.00     0.004 C 
ENDBRANCH   7   8
ENDBRANCH   1   7
TORSDOF 4
ENDMDL
MODEL 7
REMARK VINA RESULT:    -2.252     22.432     23.382
REMARK INTER + INTRA:          -2.908
REMARK INTER:                  -2.969
REMARK INTRA:                   0.061
REMARK UNBOUND:                -0.130
REMARK SMILES C=CC[C@@H](C)C(=O)CC
REMARK SMILES IDX 4 1 5 2 6 3 7 4 8 5 9 6 3 7 2 8 1 9
REMARK H PARENT
REMARK Flexibility Score: inf
ROOT
ATOM      1  C   UNL     1      18.803  23.655  46.673  1.00  0.00     0.057 C 
ATOM      2  C   UNL     1      18.783  24.216  48.101  1.00  0.00     0.016 C 
ENDROOT
BRANCH   1   3
ATOM      3  C   UNL     1      18.040  24.559  45.726  1.00  0.00     0.135 C 
ATOM      4  O   UNL     1      16.878  24.853  45.967  1.00  0.00    -0.299 OA
BRANCH   3   5
ATOM      5  C   UNL     1      18.689  25.105  44.481  1.00  0.00     0.072 C 
ATOM      6  C   UNL     1      17.767  24.949  43.278  1.00  0.00     0.012 C 
ENDBRANCH   3   5
ENDBRANCH   1   3
BRANCH   1   7
ATOM      7  C   UNL     1      20.235  23.370  46.166  1.00  0.00     0.038 C 
BRANCH   7   8
ATOM      8  C   UNL     1      20.802  22.057  46.643  1.00  0.00    -0.034 C 
ATOM      9  C   UNL     1      20.923  21.770  47.942  1.00  0.00     0.004 C 
ENDBRANCH   7   8
ENDBRANCH   1   7
TORSDOF 4
ENDMDL
MODEL 8
REMARK VINA RESULT:    -2.173     19.068     20.617
REMARK INTER + INTRA:          -2.811
REMARK INTER:                  -2.610
REMARK INTRA:                  -0.201
REMARK UNBOUND:                -0.130
REMARK SMILES C=CC[C@@H](C)C(=O)CC
REMARK SMILES IDX 4 1 5 2 6 3 7 4 8 5 9 6 3 7 2 8 1 9
REMARK H PARENT
REMARK Flexibility Score: inf
ROOT
ATOM      1  C   UNL     1      32.096  24.967  30.299  1.00  0.00     0.057 C 
ATOM      2  C   UNL     1      31.329  23.835  29.601  1.00  0.00     0.016 C 
ENDROOT
BRANCH   1   3
ATOM      3  C   UNL     1      31.723  25.048  31.766  1.00  0.00     0.135 C 
ATOM      4  O   UNL     1      30.545  25.057  32.096  1.00  0.00    -0.299 OA
BRANCH   3   5
ATOM      5  C   UNL     1      32.782  25.123  32.834  1.00  0.00     0.072 C 
ATOM      6  C   UNL     1      32.151  25.125  34.222  1.00  0.00     0.012 C 
ENDBRANCH   3   5
ENDBRANCH   1   3
BRANCH   1   7
ATOM      7  C   UNL     1      33.624  24.860  30.101  1.00  0.00     0.038 C 
BRANCH   7   8
ATOM      8  C   UNL     1      34.034  24.521  28.690  1.00  0.00    -0.034 C 
ATOM      9  C   UNL     1      34.956  23.592  28.427  1.00  0.00     0.004 C 
ENDBRANCH   7   8
ENDBRANCH   1   7
TORSDOF 4
ENDMDL
