MODEL 1
REMARK VINA RESULT:    -5.625      0.000      0.000
REMARK INTER + INTRA:         -16.411
REMARK INTER:                 -14.174
REMARK INTRA:                  -2.237
REMARK UNBOUND:                -2.237
REMARK SMILES CCCCCCCCCCCCCCCCCCCCCCCCCCCC(=O)[O-]
REMARK SMILES IDX 15 1 16 2 17 3 18 4 19 5 20 6 21 7 22 8 23 9 24 10 25 11
REMARK SMILES IDX 26 12 27 13 28 14 29 15 30 16 14 17 13 18 12 19 11 20 10 21
REMARK SMILES IDX 9 22 8 23 7 24 6 25 5 26 4 27 3 28 2 29 1 30
REMARK H PARENT
REMARK Flexibility Score: inf
ROOT
ATOM      1  C   UNL     1      10.374  50.853  22.830  1.00  0.00     0.000 C 
ENDROOT
BRANCH   1   2
ATOM      2  C   UNL     1       9.873  51.685  21.639  1.00  0.00     0.000 C 
BRANCH   2   3
ATOM      3  C   UNL     1      10.440  53.116  21.633  1.00  0.00     0.000 C 
BRANCH   3   4
ATOM      4  C   UNL     1      10.578  53.761  23.025  1.00  0.00     0.000 C 
BRANCH   4   5
ATOM      5  C   UNL     1       9.458  54.750  23.407  1.00  0.00     0.000 C 
BRANCH   5   6
ATOM      6  C   UNL     1       8.362  54.181  24.328  1.00  0.00     0.000 C 
BRANCH   6   7
ATOM      7  C   UNL     1       7.262  53.431  23.561  1.00  0.00     0.000 C 
BRANCH   7   8
ATOM      8  C   UNL     1       7.011  54.011  22.159  1.00  0.00     0.000 C 
BRANCH   8   9
ATOM      9  C   UNL     1       5.762  54.913  22.071  1.00  0.00     0.000 C 
BRANCH   9  10
ATOM     10  C   UNL     1       5.968  56.098  21.111  1.00  0.00     0.000 C 
BRANCH  10  11
ATOM     11  C   UNL     1       7.437  56.278  20.697  1.00  0.00     0.000 C 
BRANCH  11  12
ATOM     12  C   UNL     1       7.651  56.092  19.188  1.00  0.00     0.006 C 
BRANCH  12  13
ATOM     13  C   UNL     1       7.433  54.631  18.777  1.00  0.00     0.053 C 
BRANCH  13  14
ATOM     14  C   UNL     1       6.787  54.548  17.428  1.00  0.00     0.041 C 
ATOM     15  O   UNL     1       6.216  53.485  17.060  1.00  0.00    -0.550 OA
ATOM     16  O   UNL     1       6.811  55.645  16.575  1.00  0.00    -0.550 OA
ENDBRANCH  13  14
ENDBRANCH  12  13
ENDBRANCH  11  12
ENDBRANCH  10  11
ENDBRANCH   9  10
ENDBRANCH   8   9
ENDBRANCH   7   8
ENDBRANCH   6   7
ENDBRANCH   5   6
ENDBRANCH   4   5
ENDBRANCH   3   4
ENDBRANCH   2   3
ENDBRANCH   1   2
BRANCH   1  17
ATOM     17  C   UNL     1      10.508  49.373  22.444  1.00  0.00     0.000 C 
BRANCH  17  18
ATOM     18  C   UNL     1      11.591  48.640  23.254  1.00  0.00     0.000 C 
BRANCH  18  19
ATOM     19  C   UNL     1      11.770  47.176  22.812  1.00  0.00     0.000 C 
BRANCH  19  20
ATOM     20  C   UNL     1      10.508  46.334  23.053  1.00  0.00     0.000 C 
BRANCH  20  21
ATOM     21  C   UNL     1      10.051  46.360  24.520  1.00  0.00     0.000 C 
BRANCH  21  22
ATOM     22  C   UNL     1       9.078  45.208  24.811  1.00  0.00    -0.000 C 
BRANCH  22  23
ATOM     23  C   UNL     1       8.257  44.799  23.578  1.00  0.00    -0.000 C 
BRANCH  23  24
ATOM     24  C   UNL     1       6.746  44.770  23.856  1.00  0.00    -0.000 C 
BRANCH  24  25
ATOM     25  C   UNL     1       6.098  46.113  23.500  1.00  0.00    -0.000 C 
BRANCH  25  26
ATOM     26  C   UNL     1       4.583  46.079  23.755  1.00  0.00    -0.000 C 
BRANCH  26  27
ATOM     27  C   UNL     1       3.783  46.783  22.641  1.00  0.00    -0.000 C 
BRANCH  27  28
ATOM     28  C   UNL     1       2.289  46.969  22.965  1.00  0.00    -0.000 C 
BRANCH  28  29
ATOM     29  C   UNL     1       1.352  46.749  21.762  1.00  0.00    -0.003 C 
ATOM     30  C   UNL     1       0.980  45.280  21.567  1.00  0.00     0.004 C 
ENDBRANCH  28  29
ENDBRANCH  27  28
ENDBRANCH  26  27
ENDBRANCH  25  26
ENDBRANCH  24  25
ENDBRANCH  23  24
ENDBRANCH  22  23
ENDBRANCH  21  22
ENDBRANCH  20  21
ENDBRANCH  19  20
ENDBRANCH  18  19
ENDBRANCH  17  18
ENDBRANCH   1  17
TORSDOF 26
ENDMDL
MODEL 2
REMARK VINA RESULT:    -5.432      3.401      5.992
REMARK INTER + INTRA:         -15.927
REMARK INTER:                 -13.381
REMARK INTRA:                  -2.546
REMARK UNBOUND:                -2.237
REMARK SMILES CCCCCCCCCCCCCCCCCCCCCCCCCCCC(=O)[O-]
REMARK SMILES IDX 15 1 16 2 17 3 18 4 19 5 20 6 21 7 22 8 23 9 24 10 25 11
REMARK SMILES IDX 26 12 27 13 28 14 29 15 30 16 14 17 13 18 12 19 11 20 10 21
REMARK SMILES IDX 9 22 8 23 7 24 6 25 5 26 4 27 3 28 2 29 1 30
REMARK H PARENT
REMARK Flexibility Score: inf
ROOT
ATOM      1  C   UNL     1      10.416  51.143  22.703  1.00  0.00     0.000 C 
ENDROOT
BRANCH   1   2
ATOM      2  C   UNL     1       9.880  51.856  21.452  1.00  0.00     0.000 C 
BRANCH   2   3
ATOM      3  C   UNL     1      10.198  53.363  21.443  1.00  0.00     0.000 C 
BRANCH   3   4
ATOM      4  C   UNL     1      10.862  53.889  22.731  1.00  0.00     0.000 C 
BRANCH   4   5
ATOM      5  C   UNL     1       9.959  54.759  23.629  1.00  0.00     0.000 C 
BRANCH   5   6
ATOM      6  C   UNL     1       9.468  54.084  24.923  1.00  0.00     0.000 C 
BRANCH   6   7
ATOM      7  C   UNL     1       7.956  53.807  24.920  1.00  0.00     0.000 C 
BRANCH   7   8
ATOM      8  C   UNL     1       7.459  53.230  23.584  1.00  0.00     0.000 C 
BRANCH   8   9
ATOM      9  C   UNL     1       6.413  54.115  22.872  1.00  0.00     0.000 C 
BRANCH   9  10
ATOM     10  C   UNL     1       6.906  54.604  21.498  1.00  0.00     0.000 C 
BRANCH  10  11
ATOM     11  C   UNL     1       6.291  55.953  21.094  1.00  0.00     0.000 C 
BRANCH  11  12
ATOM     12  C   UNL     1       6.818  56.459  19.743  1.00  0.00     0.006 C 
BRANCH  12  13
ATOM     13  C   UNL     1       7.711  55.409  19.071  1.00  0.00     0.053 C 
BRANCH  13  14
ATOM     14  C   UNL     1       6.985  54.730  17.952  1.00  0.00     0.041 C 
ATOM     15  O   UNL     1       6.133  53.832  18.197  1.00  0.00    -0.550 OA
ATOM     16  O   UNL     1       7.243  55.090  16.634  1.00  0.00    -0.550 OA
ENDBRANCH  13  14
ENDBRANCH  12  13
ENDBRANCH  11  12
ENDBRANCH  10  11
ENDBRANCH   9  10
ENDBRANCH   8   9
ENDBRANCH   7   8
ENDBRANCH   6   7
ENDBRANCH   5   6
ENDBRANCH   4   5
ENDBRANCH   3   4
ENDBRANCH   2   3
ENDBRANCH   1   2
BRANCH   1  17
ATOM     17  C   UNL     1      10.416  49.621  22.505  1.00  0.00     0.000 C 
BRANCH  17  18
ATOM     18  C   UNL     1      11.736  48.963  22.940  1.00  0.00     0.000 C 
BRANCH  18  19
ATOM     19  C   UNL     1      11.661  47.425  22.931  1.00  0.00     0.000 C 
BRANCH  19  20
ATOM     20  C   UNL     1      10.221  46.910  23.077  1.00  0.00     0.000 C 
BRANCH  20  21
ATOM     21  C   UNL     1      10.160  45.408  23.398  1.00  0.00     0.000 C 
BRANCH  21  22
ATOM     22  C   UNL     1       9.888  45.178  24.892  1.00  0.00    -0.000 C 
BRANCH  22  23
ATOM     23  C   UNL     1      10.540  43.893  25.423  1.00  0.00    -0.000 C 
BRANCH  23  24
ATOM     24  C   UNL     1      11.825  44.166  26.221  1.00  0.00    -0.000 C 
BRANCH  24  25
ATOM     25  C   UNL     1      12.036  45.672  26.420  1.00  0.00    -0.000 C 
BRANCH  25  26
ATOM     26  C   UNL     1      13.533  46.020  26.447  1.00  0.00    -0.000 C 
BRANCH  26  27
ATOM     27  C   UNL     1      13.975  46.603  27.804  1.00  0.00    -0.000 C 
BRANCH  27  28
ATOM     28  C   UNL     1      14.978  45.718  28.568  1.00  0.00    -0.000 C 
BRANCH  28  29
ATOM     29  C   UNL     1      15.966  44.958  27.661  1.00  0.00    -0.003 C 
ATOM     30  C   UNL     1      17.375  45.548  27.704  1.00  0.00     0.004 C 
ENDBRANCH  28  29
ENDBRANCH  27  28
ENDBRANCH  26  27
ENDBRANCH  25  26
ENDBRANCH  24  25
ENDBRANCH  23  24
ENDBRANCH  22  23
ENDBRANCH  21  22
ENDBRANCH  20  21
ENDBRANCH  19  20
ENDBRANCH  18  19
ENDBRANCH  17  18
ENDBRANCH   1  17
TORSDOF 26
ENDMDL
MODEL 3
REMARK VINA RESULT:    -5.410      2.982      9.379
REMARK INTER + INTRA:         -15.870
REMARK INTER:                 -13.950
REMARK INTRA:                  -1.920
REMARK UNBOUND:                -2.237
REMARK SMILES CCCCCCCCCCCCCCCCCCCCCCCCCCCC(=O)[O-]
REMARK SMILES IDX 15 1 16 2 17 3 18 4 19 5 20 6 21 7 22 8 23 9 24 10 25 11
REMARK SMILES IDX 26 12 27 13 28 14 29 15 30 16 14 17 13 18 12 19 11 20 10 21
REMARK SMILES IDX 9 22 8 23 7 24 6 25 5 26 4 27 3 28 2 29 1 30
REMARK H PARENT
REMARK Flexibility Score: inf
ROOT
ATOM      1  C   UNL     1      10.275  49.266  22.267  1.00  0.00     0.000 C 
ENDROOT
BRANCH   1   2
ATOM      2  C   UNL     1      10.860  48.254  23.264  1.00  0.00     0.000 C 
BRANCH   2   3
ATOM      3  C   UNL     1       9.906  47.080  23.548  1.00  0.00     0.000 C 
BRANCH   3   4
ATOM      4  C   UNL     1      10.486  45.688  23.230  1.00  0.00     0.000 C 
BRANCH   4   5
ATOM      5  C   UNL     1       9.621  44.494  23.687  1.00  0.00     0.000 C 
BRANCH   5   6
ATOM      6  C   UNL     1       9.318  44.440  25.196  1.00  0.00     0.000 C 
BRANCH   6   7
ATOM      7  C   UNL     1       7.813  44.399  25.505  1.00  0.00     0.000 C 
BRANCH   7   8
ATOM      8  C   UNL     1       6.942  44.619  24.256  1.00  0.00     0.000 C 
BRANCH   8   9
ATOM      9  C   UNL     1       6.065  45.887  24.323  1.00  0.00     0.000 C 
BRANCH   9  10
ATOM     10  C   UNL     1       4.575  45.574  24.098  1.00  0.00     0.000 C 
BRANCH  10  11
ATOM     11  C   UNL     1       3.741  46.833  23.809  1.00  0.00     0.000 C 
BRANCH  11  12
ATOM     12  C   UNL     1       3.147  46.834  22.393  1.00  0.00     0.006 C 
BRANCH  12  13
ATOM     13  C   UNL     1       1.795  46.112  22.363  1.00  0.00     0.053 C 
BRANCH  13  14
ATOM     14  C   UNL     1       0.850  46.707  23.361  1.00  0.00     0.041 C 
ATOM     15  O   UNL     1       0.413  47.881  23.205  1.00  0.00    -0.550 OA
ATOM     16  O   UNL     1       0.446  45.966  24.465  1.00  0.00    -0.550 OA
ENDBRANCH  13  14
ENDBRANCH  12  13
ENDBRANCH  11  12
ENDBRANCH  10  11
ENDBRANCH   9  10
ENDBRANCH   8   9
ENDBRANCH   7   8
ENDBRANCH   6   7
ENDBRANCH   5   6
ENDBRANCH   4   5
ENDBRANCH   3   4
ENDBRANCH   2   3
ENDBRANCH   1   2
BRANCH   1  17
ATOM     17  C   UNL     1      10.551  50.706  22.725  1.00  0.00     0.000 C 
BRANCH  17  18
ATOM     18  C   UNL     1       9.829  51.755  21.863  1.00  0.00     0.000 C 
BRANCH  18  19
ATOM     19  C   UNL     1      10.494  53.141  21.940  1.00  0.00     0.000 C 
BRANCH  19  20
ATOM     20  C   UNL     1       9.631  54.162  22.696  1.00  0.00     0.000 C 
BRANCH  20  21
ATOM     21  C   UNL     1       8.723  53.507  23.748  1.00  0.00     0.000 C 
BRANCH  21  22
ATOM     22  C   UNL     1       7.244  53.786  23.445  1.00  0.00    -0.000 C 
BRANCH  22  23
ATOM     23  C   UNL     1       6.990  54.094  21.961  1.00  0.00    -0.000 C 
BRANCH  23  24
ATOM     24  C   UNL     1       5.785  55.023  21.747  1.00  0.00    -0.000 C 
BRANCH  24  25
ATOM     25  C   UNL     1       6.225  56.361  21.142  1.00  0.00    -0.000 C 
BRANCH  25  26
ATOM     26  C   UNL     1       7.559  56.216  20.393  1.00  0.00    -0.000 C 
BRANCH  26  27
ATOM     27  C   UNL     1       7.360  55.953  18.887  1.00  0.00    -0.000 C 
BRANCH  27  28
ATOM     28  C   UNL     1       7.444  54.466  18.495  1.00  0.00    -0.000 C 
BRANCH  28  29
ATOM     29  C   UNL     1       6.457  54.051  17.386  1.00  0.00    -0.003 C 
ATOM     30  C   UNL     1       6.475  55.007  16.195  1.00  0.00     0.004 C 
ENDBRANCH  28  29
ENDBRANCH  27  28
ENDBRANCH  26  27
ENDBRANCH  25  26
ENDBRANCH  24  25
ENDBRANCH  23  24
ENDBRANCH  22  23
ENDBRANCH  21  22
ENDBRANCH  20  21
ENDBRANCH  19  20
ENDBRANCH  18  19
ENDBRANCH  17  18
ENDBRANCH   1  17
TORSDOF 26
ENDMDL
MODEL 4
REMARK VINA RESULT:    -5.342      5.738     10.672
REMARK INTER + INTRA:         -15.700
REMARK INTER:                 -13.168
REMARK INTRA:                  -2.531
REMARK UNBOUND:                -2.237
REMARK SMILES CCCCCCCCCCCCCCCCCCCCCCCCCCCC(=O)[O-]
REMARK SMILES IDX 15 1 16 2 17 3 18 4 19 5 20 6 21 7 22 8 23 9 24 10 25 11
REMARK SMILES IDX 26 12 27 13 28 14 29 15 30 16 14 17 13 18 12 19 11 20 10 21
REMARK SMILES IDX 9 22 8 23 7 24 6 25 5 26 4 27 3 28 2 29 1 30
REMARK H PARENT
REMARK Flexibility Score: inf
ROOT
ATOM      1  C   UNL     1       2.490  59.870  20.462  1.00  0.00     0.000 C 
ENDROOT
BRANCH   1   2
ATOM      2  C   UNL     1       2.312  59.979  21.984  1.00  0.00     0.000 C 
BRANCH   2   3
ATOM      3  C   UNL     1       0.837  59.892  22.418  1.00  0.00     0.000 C 
BRANCH   3   4
ATOM      4  C   UNL     1       0.250  58.467  22.425  1.00  0.00     0.000 C 
BRANCH   4   5
ATOM      5  C   UNL     1      -1.256  58.374  22.103  1.00  0.00     0.000 C 
BRANCH   5   6
ATOM      6  C   UNL     1      -1.950  59.716  21.803  1.00  0.00     0.000 C 
BRANCH   6   7
ATOM      7  C   UNL     1      -2.110  59.986  20.298  1.00  0.00     0.000 C 
BRANCH   7   8
ATOM      8  C   UNL     1      -1.320  61.219  19.827  1.00  0.00     0.000 C 
BRANCH   8   9
ATOM      9  C   UNL     1      -0.576  61.011  18.491  1.00  0.00     0.000 C 
BRANCH   9  10
ATOM     10  C   UNL     1      -1.520  60.544  17.368  1.00  0.00     0.000 C 
BRANCH  10  11
ATOM     11  C   UNL     1      -0.764  60.001  16.146  1.00  0.00     0.000 C 
BRANCH  11  12
ATOM     12  C   UNL     1       0.758  60.164  16.273  1.00  0.00     0.006 C 
BRANCH  12  13
ATOM     13  C   UNL     1       1.496  59.198  15.339  1.00  0.00     0.053 C 
BRANCH  13  14
ATOM     14  C   UNL     1       2.491  59.931  14.492  1.00  0.00     0.041 C 
ATOM     15  O   UNL     1       2.497  61.192  14.464  1.00  0.00    -0.550 OA
ATOM     16  O   UNL     1       3.416  59.222  13.735  1.00  0.00    -0.550 OA
ENDBRANCH  13  14
ENDBRANCH  12  13
ENDBRANCH  11  12
ENDBRANCH  10  11
ENDBRANCH   9  10
ENDBRANCH   8   9
ENDBRANCH   7   8
ENDBRANCH   6   7
ENDBRANCH   5   6
ENDBRANCH   4   5
ENDBRANCH   3   4
ENDBRANCH   2   3
ENDBRANCH   1   2
BRANCH   1  17
ATOM     17  C   UNL     1       3.395  58.683  20.102  1.00  0.00     0.000 C 
BRANCH  17  18
ATOM     18  C   UNL     1       3.733  57.800  21.315  1.00  0.00     0.000 C 
BRANCH  18  19
ATOM     19  C   UNL     1       5.046  57.019  21.130  1.00  0.00     0.000 C 
BRANCH  19  20
ATOM     20  C   UNL     1       5.752  57.366  19.811  1.00  0.00     0.000 C 
BRANCH  20  21
ATOM     21  C   UNL     1       7.157  56.753  19.712  1.00  0.00     0.000 C 
BRANCH  21  22
ATOM     22  C   UNL     1       7.229  55.731  18.568  1.00  0.00    -0.000 C 
BRANCH  22  23
ATOM     23  C   UNL     1       7.584  54.318  19.057  1.00  0.00    -0.000 C 
BRANCH  23  24
ATOM     24  C   UNL     1       6.791  53.906  20.307  1.00  0.00    -0.000 C 
BRANCH  24  25
ATOM     25  C   UNL     1       7.710  53.804  21.530  1.00  0.00    -0.000 C 
BRANCH  25  26
ATOM     26  C   UNL     1       9.124  54.309  21.202  1.00  0.00    -0.000 C 
BRANCH  26  27
ATOM     27  C   UNL     1      10.217  53.299  21.605  1.00  0.00    -0.000 C 
BRANCH  27  28
ATOM     28  C   UNL     1      10.204  52.928  23.100  1.00  0.00    -0.000 C 
BRANCH  28  29
ATOM     29  C   UNL     1      10.455  54.118  24.047  1.00  0.00    -0.003 C 
ATOM     30  C   UNL     1       9.334  54.303  25.069  1.00  0.00     0.004 C 
ENDBRANCH  28  29
ENDBRANCH  27  28
ENDBRANCH  26  27
ENDBRANCH  25  26
ENDBRANCH  24  25
ENDBRANCH  23  24
ENDBRANCH  22  23
ENDBRANCH  21  22
ENDBRANCH  20  21
ENDBRANCH  19  20
ENDBRANCH  18  19
ENDBRANCH  17  18
ENDBRANCH   1  17
TORSDOF 26
ENDMDL
MODEL 5
REMARK VINA RESULT:    -5.298      2.670      8.840
REMARK INTER + INTRA:         -15.588
REMARK INTER:                 -13.554
REMARK INTRA:                  -2.034
REMARK UNBOUND:                -2.237
REMARK SMILES CCCCCCCCCCCCCCCCCCCCCCCCCCCC(=O)[O-]
REMARK SMILES IDX 15 1 16 2 17 3 18 4 19 5 20 6 21 7 22 8 23 9 24 10 25 11
REMARK SMILES IDX 26 12 27 13 28 14 29 15 30 16 14 17 13 18 12 19 11 20 10 21
REMARK SMILES IDX 9 22 8 23 7 24 6 25 5 26 4 27 3 28 2 29 1 30
REMARK H PARENT
REMARK Flexibility Score: inf
ROOT
ATOM      1  C   UNL     1      11.496  48.286  22.746  1.00  0.00     0.000 C 
ENDROOT
BRANCH   1   2
ATOM      2  C   UNL     1      11.019  46.873  23.111  1.00  0.00     0.000 C 
BRANCH   2   3
ATOM      3  C   UNL     1       9.597  46.858  23.702  1.00  0.00     0.000 C 
BRANCH   3   4
ATOM      4  C   UNL     1       9.009  45.452  23.932  1.00  0.00     0.000 C 
BRANCH   4   5
ATOM      5  C   UNL     1       7.558  45.257  23.445  1.00  0.00     0.000 C 
BRANCH   5   6
ATOM      6  C   UNL     1       6.482  45.986  24.270  1.00  0.00     0.000 C 
BRANCH   6   7
ATOM      7  C   UNL     1       5.132  46.087  23.541  1.00  0.00     0.000 C 
BRANCH   7   8
ATOM      8  C   UNL     1       3.961  46.379  24.494  1.00  0.00     0.000 C 
BRANCH   8   9
ATOM      9  C   UNL     1       2.575  46.312  23.818  1.00  0.00     0.000 C 
BRANCH   9  10
ATOM     10  C   UNL     1       2.634  46.713  22.334  1.00  0.00     0.000 C 
BRANCH  10  11
ATOM     11  C   UNL     1       1.459  47.611  21.915  1.00  0.00     0.000 C 
BRANCH  11  12
ATOM     12  C   UNL     1       0.580  48.025  23.104  1.00  0.00     0.006 C 
BRANCH  12  13
ATOM     13  C   UNL     1       0.165  49.496  22.996  1.00  0.00     0.053 C 
BRANCH  13  14
ATOM     14  C   UNL     1       1.046  50.363  23.841  1.00  0.00     0.041 C 
ATOM     15  O   UNL     1       0.846  51.607  23.903  1.00  0.00    -0.550 OA
ATOM     16  O   UNL     1       2.088  49.798  24.567  1.00  0.00    -0.550 OA
ENDBRANCH  13  14
ENDBRANCH  12  13
ENDBRANCH  11  12
ENDBRANCH  10  11
ENDBRANCH   9  10
ENDBRANCH   8   9
ENDBRANCH   7   8
ENDBRANCH   6   7
ENDBRANCH   5   6
ENDBRANCH   4   5
ENDBRANCH   3   4
ENDBRANCH   2   3
ENDBRANCH   1   2
BRANCH   1  17
ATOM     17  C   UNL     1      10.430  49.332  23.105  1.00  0.00     0.000 C 
BRANCH  17  18
ATOM     18  C   UNL     1      10.244  50.395  22.008  1.00  0.00     0.000 C 
BRANCH  18  19
ATOM     19  C   UNL     1      10.523  51.821  22.515  1.00  0.00     0.000 C 
BRANCH  19  20
ATOM     20  C   UNL     1       9.938  52.896  21.587  1.00  0.00     0.000 C 
BRANCH  20  21
ATOM     21  C   UNL     1       9.162  53.980  22.352  1.00  0.00     0.000 C 
BRANCH  21  22
ATOM     22  C   UNL     1       8.073  53.353  23.235  1.00  0.00    -0.000 C 
BRANCH  22  23
ATOM     23  C   UNL     1       6.680  53.944  22.970  1.00  0.00    -0.000 C 
BRANCH  23  24
ATOM     24  C   UNL     1       6.424  54.211  21.478  1.00  0.00    -0.000 C 
BRANCH  24  25
ATOM     25  C   UNL     1       5.809  55.600  21.267  1.00  0.00    -0.000 C 
BRANCH  25  26
ATOM     26  C   UNL     1       6.871  56.608  20.801  1.00  0.00    -0.000 C 
BRANCH  26  27
ATOM     27  C   UNL     1       7.841  56.003  19.767  1.00  0.00    -0.000 C 
BRANCH  27  28
ATOM     28  C   UNL     1       7.232  55.833  18.362  1.00  0.00    -0.000 C 
BRANCH  28  29
ATOM     29  C   UNL     1       7.347  54.405  17.795  1.00  0.00    -0.003 C 
ATOM     30  C   UNL     1       6.141  54.012  16.943  1.00  0.00     0.004 C 
ENDBRANCH  28  29
ENDBRANCH  27  28
ENDBRANCH  26  27
ENDBRANCH  25  26
ENDBRANCH  24  25
ENDBRANCH  23  24
ENDBRANCH  22  23
ENDBRANCH  21  22
ENDBRANCH  20  21
ENDBRANCH  19  20
ENDBRANCH  18  19
ENDBRANCH  17  18
ENDBRANCH   1  17
TORSDOF 26
ENDMDL
MODEL 6
REMARK VINA RESULT:    -5.244      4.286      7.063
REMARK INTER + INTRA:         -15.452
REMARK INTER:                 -12.756
REMARK INTRA:                  -2.696
REMARK UNBOUND:                -2.237
REMARK SMILES CCCCCCCCCCCCCCCCCCCCCCCCCCCC(=O)[O-]
REMARK SMILES IDX 15 1 16 2 17 3 18 4 19 5 20 6 21 7 22 8 23 9 24 10 25 11
REMARK SMILES IDX 26 12 27 13 28 14 29 15 30 16 14 17 13 18 12 19 11 20 10 21
REMARK SMILES IDX 9 22 8 23 7 24 6 25 5 26 4 27 3 28 2 29 1 30
REMARK H PARENT
REMARK Flexibility Score: inf
ROOT
ATOM      1  C   UNL     1       8.256  53.912  24.499  1.00  0.00     0.000 C 
ENDROOT
BRANCH   1   2
ATOM      2  C   UNL     1       7.263  53.290  23.506  1.00  0.00     0.000 C 
BRANCH   2   3
ATOM      3  C   UNL     1       6.901  54.243  22.352  1.00  0.00     0.000 C 
BRANCH   3   4
ATOM      4  C   UNL     1       7.062  53.638  20.943  1.00  0.00     0.000 C 
BRANCH   4   5
ATOM      5  C   UNL     1       7.174  54.663  19.795  1.00  0.00     0.000 C 
BRANCH   5   6
ATOM      6  C   UNL     1       7.458  56.112  20.231  1.00  0.00     0.000 C 
BRANCH   6   7
ATOM      7  C   UNL     1       6.248  57.043  20.047  1.00  0.00     0.000 C 
BRANCH   7   8
ATOM      8  C   UNL     1       5.281  57.006  21.242  1.00  0.00     0.000 C 
BRANCH   8   9
ATOM      9  C   UNL     1       3.864  57.521  20.914  1.00  0.00     0.000 C 
BRANCH   9  10
ATOM     10  C   UNL     1       3.894  58.846  20.131  1.00  0.00     0.000 C 
BRANCH  10  11
ATOM     11  C   UNL     1       2.778  59.812  20.557  1.00  0.00     0.000 C 
BRANCH  11  12
ATOM     12  C   UNL     1       1.533  59.081  21.082  1.00  0.00     0.006 C 
BRANCH  12  13
ATOM     13  C   UNL     1       0.427  60.075  21.455  1.00  0.00     0.053 C 
BRANCH  13  14
ATOM     14  C   UNL     1       0.142  60.028  22.924  1.00  0.00     0.041 C 
ATOM     15  O   UNL     1      -0.356  61.029  23.509  1.00  0.00    -0.550 OA
ATOM     16  O   UNL     1       0.419  58.876  23.651  1.00  0.00    -0.550 OA
ENDBRANCH  13  14
ENDBRANCH  12  13
ENDBRANCH  11  12
ENDBRANCH  10  11
ENDBRANCH   9  10
ENDBRANCH   8   9
ENDBRANCH   7   8
ENDBRANCH   6   7
ENDBRANCH   5   6
ENDBRANCH   4   5
ENDBRANCH   3   4
ENDBRANCH   2   3
ENDBRANCH   1   2
BRANCH   1  17
ATOM     17  C   UNL     1       9.310  54.752  23.764  1.00  0.00     0.000 C 
BRANCH  17  18
ATOM     18  C   UNL     1      10.522  53.922  23.306  1.00  0.00     0.000 C 
BRANCH  18  19
ATOM     19  C   UNL     1      10.508  53.644  21.792  1.00  0.00     0.000 C 
BRANCH  19  20
ATOM     20  C   UNL     1      10.235  52.166  21.472  1.00  0.00     0.000 C 
BRANCH  20  21
ATOM     21  C   UNL     1      10.251  51.276  22.724  1.00  0.00     0.000 C 
BRANCH  21  22
ATOM     22  C   UNL     1      10.253  49.790  22.339  1.00  0.00    -0.000 C 
BRANCH  22  23
ATOM     23  C   UNL     1      11.333  48.986  23.079  1.00  0.00    -0.000 C 
BRANCH  23  24
ATOM     24  C   UNL     1      11.321  47.495  22.707  1.00  0.00    -0.000 C 
BRANCH  24  25
ATOM     25  C   UNL     1       9.996  46.839  23.113  1.00  0.00    -0.000 C 
BRANCH  25  26
ATOM     26  C   UNL     1      10.080  46.259  24.533  1.00  0.00    -0.000 C 
BRANCH  26  27
ATOM     27  C   UNL     1      11.400  45.502  24.781  1.00  0.00    -0.000 C 
BRANCH  27  28
ATOM     28  C   UNL     1      12.139  45.936  26.062  1.00  0.00    -0.000 C 
BRANCH  28  29
ATOM     29  C   UNL     1      13.279  46.944  25.819  1.00  0.00    -0.003 C 
ATOM     30  C   UNL     1      13.145  48.201  26.678  1.00  0.00     0.004 C 
ENDBRANCH  28  29
ENDBRANCH  27  28
ENDBRANCH  26  27
ENDBRANCH  25  26
ENDBRANCH  24  25
ENDBRANCH  23  24
ENDBRANCH  22  23
ENDBRANCH  21  22
ENDBRANCH  20  21
ENDBRANCH  19  20
ENDBRANCH  18  19
ENDBRANCH  17  18
ENDBRANCH   1  17
TORSDOF 26
ENDMDL
MODEL 7
REMARK VINA RESULT:    -5.137      2.460      4.921
REMARK INTER + INTRA:         -15.183
REMARK INTER:                 -13.753
REMARK INTRA:                  -1.429
REMARK UNBOUND:                -2.237
REMARK SMILES CCCCCCCCCCCCCCCCCCCCCCCCCCCC(=O)[O-]
REMARK SMILES IDX 15 1 16 2 17 3 18 4 19 5 20 6 21 7 22 8 23 9 24 10 25 11
REMARK SMILES IDX 26 12 27 13 28 14 29 15 30 16 14 17 13 18 12 19 11 20 10 21
REMARK SMILES IDX 9 22 8 23 7 24 6 25 5 26 4 27 3 28 2 29 1 30
REMARK H PARENT
REMARK Flexibility Score: inf
ROOT
ATOM      1  C   UNL     1       9.194  46.872  24.185  1.00  0.00     0.000 C 
ENDROOT
BRANCH   1   2
ATOM      2  C   UNL     1      10.691  46.587  23.995  1.00  0.00     0.000 C 
BRANCH   2   3
ATOM      3  C   UNL     1      11.358  47.547  22.994  1.00  0.00     0.000 C 
BRANCH   3   4
ATOM      4  C   UNL     1      10.413  48.600  22.383  1.00  0.00     0.000 C 
BRANCH   4   5
ATOM      5  C   UNL     1      10.720  50.062  22.768  1.00  0.00     0.000 C 
BRANCH   5   6
ATOM      6  C   UNL     1       9.895  51.127  22.021  1.00  0.00     0.000 C 
BRANCH   6   7
ATOM      7  C   UNL     1      10.479  52.543  22.156  1.00  0.00     0.000 C 
BRANCH   7   8
ATOM      8  C   UNL     1       9.452  53.643  21.841  1.00  0.00     0.000 C 
BRANCH   8   9
ATOM      9  C   UNL     1       8.104  53.467  22.569  1.00  0.00     0.000 C 
BRANCH   9  10
ATOM     10  C   UNL     1       6.984  54.309  21.931  1.00  0.00     0.000 C 
BRANCH  10  11
ATOM     11  C   UNL     1       7.510  55.596  21.276  1.00  0.00     0.000 C 
BRANCH  11  12
ATOM     12  C   UNL     1       6.647  56.048  20.089  1.00  0.00     0.006 C 
BRANCH  12  13
ATOM     13  C   UNL     1       7.455  56.042  18.786  1.00  0.00     0.053 C 
BRANCH  13  14
ATOM     14  C   UNL     1       6.997  54.942  17.879  1.00  0.00     0.041 C 
ATOM     15  O   UNL     1       6.953  55.122  16.631  1.00  0.00    -0.550 OA
ATOM     16  O   UNL     1       6.623  53.713  18.409  1.00  0.00    -0.550 OA
ENDBRANCH  13  14
ENDBRANCH  12  13
ENDBRANCH  11  12
ENDBRANCH  10  11
ENDBRANCH   9  10
ENDBRANCH   8   9
ENDBRANCH   7   8
ENDBRANCH   6   7
ENDBRANCH   5   6
ENDBRANCH   4   5
ENDBRANCH   3   4
ENDBRANCH   2   3
ENDBRANCH   1   2
BRANCH   1  17
ATOM     17  C   UNL     1       8.342  45.787  23.511  1.00  0.00     0.000 C 
BRANCH  17  18
ATOM     18  C   UNL     1       7.709  44.813  24.519  1.00  0.00     0.000 C 
BRANCH  18  19
ATOM     19  C   UNL     1       6.172  44.892  24.533  1.00  0.00     0.000 C 
BRANCH  19  20
ATOM     20  C   UNL     1       5.635  45.979  23.590  1.00  0.00     0.000 C 
BRANCH  20  21
ATOM     21  C   UNL     1       4.131  46.234  23.776  1.00  0.00     0.000 C 
BRANCH  21  22
ATOM     22  C   UNL     1       3.539  46.941  22.549  1.00  0.00    -0.000 C 
BRANCH  22  23
ATOM     23  C   UNL     1       2.039  47.237  22.700  1.00  0.00    -0.000 C 
BRANCH  23  24
ATOM     24  C   UNL     1       1.687  47.828  24.074  1.00  0.00    -0.000 C 
BRANCH  24  25
ATOM     25  C   UNL     1       2.242  49.251  24.217  1.00  0.00    -0.000 C 
BRANCH  25  26
ATOM     26  C   UNL     1       1.116  50.293  24.138  1.00  0.00    -0.000 C 
BRANCH  26  27
ATOM     27  C   UNL     1       0.694  50.807  25.529  1.00  0.00    -0.000 C 
BRANCH  27  28
ATOM     28  C   UNL     1       1.231  49.960  26.699  1.00  0.00    -0.000 C 
BRANCH  28  29
ATOM     29  C   UNL     1       1.020  50.597  28.086  1.00  0.00    -0.003 C 
ATOM     30  C   UNL     1       1.250  52.108  28.080  1.00  0.00     0.004 C 
ENDBRANCH  28  29
ENDBRANCH  27  28
ENDBRANCH  26  27
ENDBRANCH  25  26
ENDBRANCH  24  25
ENDBRANCH  23  24
ENDBRANCH  22  23
ENDBRANCH  21  22
ENDBRANCH  20  21
ENDBRANCH  19  20
ENDBRANCH  18  19
ENDBRANCH  17  18
ENDBRANCH   1  17
TORSDOF 26
ENDMDL
MODEL 8
REMARK VINA RESULT:    -5.090      3.884      9.625
REMARK INTER + INTRA:         -15.065
REMARK INTER:                 -12.484
REMARK INTRA:                  -2.581
REMARK UNBOUND:                -2.237
REMARK SMILES CCCCCCCCCCCCCCCCCCCCCCCCCCCC(=O)[O-]
REMARK SMILES IDX 15 1 16 2 17 3 18 4 19 5 20 6 21 7 22 8 23 9 24 10 25 11
REMARK SMILES IDX 26 12 27 13 28 14 29 15 30 16 14 17 13 18 12 19 11 20 10 21
REMARK SMILES IDX 9 22 8 23 7 24 6 25 5 26 4 27 3 28 2 29 1 30
REMARK H PARENT
REMARK Flexibility Score: inf
ROOT
ATOM      1  C   UNL     1      11.750  47.960  25.601  1.00  0.00     0.000 C 
ENDROOT
BRANCH   1   2
ATOM      2  C   UNL     1      12.878  48.003  26.643  1.00  0.00     0.000 C 
BRANCH   2   3
ATOM      3  C   UNL     1      12.627  47.056  27.831  1.00  0.00     0.000 C 
BRANCH   3   4
ATOM      4  C   UNL     1      13.098  45.605  27.608  1.00  0.00     0.000 C 
BRANCH   4   5
ATOM      5  C   UNL     1      12.118  44.514  28.089  1.00  0.00     0.000 C 
BRANCH   5   6
ATOM      6  C   UNL     1      10.827  44.377  27.260  1.00  0.00     0.000 C 
BRANCH   6   7
ATOM      7  C   UNL     1      11.093  44.234  25.753  1.00  0.00     0.000 C 
BRANCH   7   8
ATOM      8  C   UNL     1       9.807  44.011  24.939  1.00  0.00     0.000 C 
BRANCH   8   9
ATOM      9  C   UNL     1       9.576  45.064  23.835  1.00  0.00     0.000 C 
BRANCH   9  10
ATOM     10  C   UNL     1       8.493  46.086  24.225  1.00  0.00     0.000 C 
BRANCH  10  11
ATOM     11  C   UNL     1       7.168  45.860  23.480  1.00  0.00     0.000 C 
BRANCH  11  12
ATOM     12  C   UNL     1       6.080  45.258  24.381  1.00  0.00     0.006 C 
BRANCH  12  13
ATOM     13  C   UNL     1       6.452  45.398  25.861  1.00  0.00     0.053 C 
BRANCH  13  14
ATOM     14  C   UNL     1       5.369  46.103  26.619  1.00  0.00     0.041 C 
ATOM     15  O   UNL     1       5.487  46.305  27.859  1.00  0.00    -0.550 OA
ATOM     16  O   UNL     1       4.229  46.542  25.957  1.00  0.00    -0.550 OA
ENDBRANCH  13  14
ENDBRANCH  12  13
ENDBRANCH  11  12
ENDBRANCH  10  11
ENDBRANCH   9  10
ENDBRANCH   8   9
ENDBRANCH   7   8
ENDBRANCH   6   7
ENDBRANCH   5   6
ENDBRANCH   4   5
ENDBRANCH   3   4
ENDBRANCH   2   3
ENDBRANCH   1   2
BRANCH   1  17
ATOM     17  C   UNL     1      12.267  47.427  24.258  1.00  0.00     0.000 C 
BRANCH  17  18
ATOM     18  C   UNL     1      12.159  48.460  23.124  1.00  0.00     0.000 C 
BRANCH  18  19
ATOM     19  C   UNL     1      10.720  48.966  22.920  1.00  0.00     0.000 C 
BRANCH  19  20
ATOM     20  C   UNL     1      10.675  50.351  22.257  1.00  0.00     0.000 C 
BRANCH  20  21
ATOM     21  C   UNL     1       9.528  51.224  22.788  1.00  0.00     0.000 C 
BRANCH  21  22
ATOM     22  C   UNL     1       9.957  52.695  22.882  1.00  0.00    -0.000 C 
BRANCH  22  23
ATOM     23  C   UNL     1      10.332  53.292  21.517  1.00  0.00    -0.000 C 
BRANCH  23  24
ATOM     24  C   UNL     1       9.163  54.036  20.854  1.00  0.00    -0.000 C 
BRANCH  24  25
ATOM     25  C   UNL     1       8.358  54.828  21.892  1.00  0.00    -0.000 C 
BRANCH  25  26
ATOM     26  C   UNL     1       7.509  55.917  21.218  1.00  0.00    -0.000 C 
BRANCH  26  27
ATOM     27  C   UNL     1       6.647  55.362  20.066  1.00  0.00    -0.000 C 
BRANCH  27  28
ATOM     28  C   UNL     1       7.199  55.677  18.663  1.00  0.00    -0.000 C 
BRANCH  28  29
ATOM     29  C   UNL     1       7.315  54.449  17.741  1.00  0.00    -0.003 C 
ATOM     30  C   UNL     1       6.054  54.218  16.908  1.00  0.00     0.004 C 
ENDBRANCH  28  29
ENDBRANCH  27  28
ENDBRANCH  26  27
ENDBRANCH  25  26
ENDBRANCH  24  25
ENDBRANCH  23  24
ENDBRANCH  22  23
ENDBRANCH  21  22
ENDBRANCH  20  21
ENDBRANCH  19  20
ENDBRANCH  18  19
ENDBRANCH  17  18
ENDBRANCH   1  17
TORSDOF 26
ENDMDL
MODEL 9
REMARK VINA RESULT:    -5.065      6.946      9.250
REMARK INTER + INTRA:         -15.000
REMARK INTER:                 -11.191
REMARK INTRA:                  -3.808
REMARK UNBOUND:                -2.237
REMARK SMILES CCCCCCCCCCCCCCCCCCCCCCCCCCCC(=O)[O-]
REMARK SMILES IDX 15 1 16 2 17 3 18 4 19 5 20 6 21 7 22 8 23 9 24 10 25 11
REMARK SMILES IDX 26 12 27 13 28 14 29 15 30 16 14 17 13 18 12 19 11 20 10 21
REMARK SMILES IDX 9 22 8 23 7 24 6 25 5 26 4 27 3 28 2 29 1 30
REMARK H PARENT
REMARK Flexibility Score: inf
ROOT
ATOM      1  C   UNL     1       1.250  50.421  23.903  1.00  0.00     0.000 C 
ENDROOT
BRANCH   1   2
ATOM      2  C   UNL     1       0.460  51.734  24.009  1.00  0.00     0.000 C 
BRANCH   2   3
ATOM      3  C   UNL     1       0.098  52.095  25.462  1.00  0.00     0.000 C 
BRANCH   3   4
ATOM      4  C   UNL     1       0.151  50.914  26.451  1.00  0.00     0.000 C 
BRANCH   4   5
ATOM      5  C   UNL     1       0.905  51.193  27.768  1.00  0.00     0.000 C 
BRANCH   5   6
ATOM      6  C   UNL     1       1.040  52.680  28.148  1.00  0.00     0.000 C 
BRANCH   6   7
ATOM      7  C   UNL     1       0.375  53.019  29.491  1.00  0.00     0.000 C 
BRANCH   7   8
ATOM      8  C   UNL     1      -1.098  53.435  29.338  1.00  0.00     0.000 C 
BRANCH   8   9
ATOM      9  C   UNL     1      -1.290  54.888  28.858  1.00  0.00     0.000 C 
BRANCH   9  10
ATOM     10  C   UNL     1      -1.662  54.962  27.366  1.00  0.00     0.000 C 
BRANCH  10  11
ATOM     11  C   UNL     1      -0.581  55.650  26.518  1.00  0.00     0.000 C 
BRANCH  11  12
ATOM     12  C   UNL     1      -1.108  56.892  25.784  1.00  0.00     0.006 C 
BRANCH  12  13
ATOM     13  C   UNL     1       0.028  57.876  25.482  1.00  0.00     0.053 C 
BRANCH  13  14
ATOM     14  C   UNL     1      -0.283  58.691  24.264  1.00  0.00     0.041 C 
ATOM     15  O   UNL     1       0.593  58.866  23.373  1.00  0.00    -0.550 OA
ATOM     16  O   UNL     1      -1.543  59.255  24.107  1.00  0.00    -0.550 OA
ENDBRANCH  13  14
ENDBRANCH  12  13
ENDBRANCH  11  12
ENDBRANCH  10  11
ENDBRANCH   9  10
ENDBRANCH   8   9
ENDBRANCH   7   8
ENDBRANCH   6   7
ENDBRANCH   5   6
ENDBRANCH   4   5
ENDBRANCH   3   4
ENDBRANCH   2   3
ENDBRANCH   1   2
BRANCH   1  17
ATOM     17  C   UNL     1       0.611  49.481  22.870  1.00  0.00     0.000 C 
BRANCH  17  18
ATOM     18  C   UNL     1      -0.731  48.898  23.344  1.00  0.00     0.000 C 
BRANCH  18  19
ATOM     19  C   UNL     1      -1.204  47.721  22.472  1.00  0.00     0.000 C 
BRANCH  19  20
ATOM     20  C   UNL     1      -1.017  46.365  23.169  1.00  0.00     0.000 C 
BRANCH  20  21
ATOM     21  C   UNL     1      -0.404  45.303  22.243  1.00  0.00     0.000 C 
BRANCH  21  22
ATOM     22  C   UNL     1       0.963  45.761  21.714  1.00  0.00    -0.000 C 
BRANCH  22  23
ATOM     23  C   UNL     1       2.043  45.789  22.807  1.00  0.00    -0.000 C 
BRANCH  23  24
ATOM     24  C   UNL     1       3.152  46.812  22.517  1.00  0.00    -0.000 C 
BRANCH  24  25
ATOM     25  C   UNL     1       4.440  46.452  23.267  1.00  0.00    -0.000 C 
BRANCH  25  26
ATOM     26  C   UNL     1       4.153  45.477  24.420  1.00  0.00    -0.000 C 
BRANCH  26  27
ATOM     27  C   UNL     1       4.676  45.998  25.773  1.00  0.00    -0.000 C 
BRANCH  27  28
ATOM     28  C   UNL     1       3.564  46.376  26.770  1.00  0.00    -0.000 C 
BRANCH  28  29
ATOM     29  C   UNL     1       2.814  47.674  26.415  1.00  0.00    -0.003 C 
ATOM     30  C   UNL     1       1.356  47.424  26.029  1.00  0.00     0.004 C 
ENDBRANCH  28  29
ENDBRANCH  27  28
ENDBRANCH  26  27
ENDBRANCH  25  26
ENDBRANCH  24  25
ENDBRANCH  23  24
ENDBRANCH  22  23
ENDBRANCH  21  22
ENDBRANCH  20  21
ENDBRANCH  19  20
ENDBRANCH  18  19
ENDBRANCH  17  18
ENDBRANCH   1  17
TORSDOF 26
ENDMDL
