MODEL 1
REMARK VINA RESULT:    -2.402      0.000      0.000
REMARK INTER + INTRA:          -2.402
REMARK INTER:                  -2.402
REMARK INTRA:                   0.000
REMARK UNBOUND:                 0.000
REMARK SMILES CC(=O)[O-]
REMARK SMILES IDX 1 1 2 2 3 3 4 4
REMARK H PARENT
REMARK Flexibility Score: inf
ROOT
ATOM      1  C   UNL     1    -105.498 -84.357  39.519  1.00  0.00     0.063 C 
ATOM      2  C   UNL     1    -104.758 -85.605  39.177  1.00  0.00     0.038 C 
ATOM      3  O   UNL     1    -103.805 -85.994  39.903  1.00  0.00    -0.550 OA
ATOM      4  O   UNL     1    -105.079 -86.312  38.026  1.00  0.00    -0.550 OA
ENDROOT
TORSDOF 0
ENDMDL
MODEL 2
REMARK VINA RESULT:    -2.392      0.317      1.624
REMARK INTER + INTRA:          -2.392
REMARK INTER:                  -2.392
REMARK INTRA:                   0.000
REMARK UNBOUND:                 0.000
REMARK SMILES CC(=O)[O-]
REMARK SMILES IDX 1 1 2 2 3 3 4 4
REMARK H PARENT
REMARK Flexibility Score: inf
ROOT
ATOM      1  C   UNL     1    -105.466 -84.421  39.573  1.00  0.00     0.063 C 
ATOM      2  C   UNL     1    -104.806 -85.591  38.925  1.00  0.00     0.038 C 
ATOM      3  O   UNL     1    -105.224 -86.018  37.817  1.00  0.00    -0.550 OA
ATOM      4  O   UNL     1    -103.765 -86.247  39.568  1.00  0.00    -0.550 OA
ENDROOT
TORSDOF 0
ENDMDL
MODEL 3
REMARK VINA RESULT:    -2.301      1.478      2.048
REMARK INTER + INTRA:          -2.301
REMARK INTER:                  -2.301
REMARK INTRA:                   0.000
REMARK UNBOUND:                 0.000
REMARK SMILES CC(=O)[O-]
REMARK SMILES IDX 1 1 2 2 3 3 4 4
REMARK H PARENT
REMARK Flexibility Score: inf
ROOT
ATOM      1  C   UNL     1    -105.043 -85.653  37.755  1.00  0.00     0.063 C 
ATOM      2  C   UNL     1    -104.979 -85.279  39.197  1.00  0.00     0.038 C 
ATOM      3  O   UNL     1    -105.717 -84.362  39.644  1.00  0.00    -0.550 OA
ATOM      4  O   UNL     1    -104.066 -85.900  40.038  1.00  0.00    -0.550 OA
ENDROOT
TORSDOF 0
ENDMDL
MODEL 4
REMARK VINA RESULT:    -2.279      1.468      1.769
REMARK INTER + INTRA:          -2.279
REMARK INTER:                  -2.279
REMARK INTRA:                   0.000
REMARK UNBOUND:                 0.000
REMARK SMILES CC(=O)[O-]
REMARK SMILES IDX 1 1 2 2 3 3 4 4
REMARK H PARENT
REMARK Flexibility Score: inf
ROOT
ATOM      1  C   UNL     1    -105.042 -85.699  37.779  1.00  0.00     0.063 C 
ATOM      2  C   UNL     1    -104.892 -85.315  39.212  1.00  0.00     0.038 C 
ATOM      3  O   UNL     1    -104.058 -85.912  39.942  1.00  0.00    -0.550 OA
ATOM      4  O   UNL     1    -105.712 -84.337  39.759  1.00  0.00    -0.550 OA
ENDROOT
TORSDOF 0
ENDMDL
MODEL 5
REMARK VINA RESULT:    -2.254      2.079      2.547
REMARK INTER + INTRA:          -2.254
REMARK INTER:                  -2.254
REMARK INTRA:                   0.000
REMARK UNBOUND:                 0.000
REMARK SMILES CC(=O)[O-]
REMARK SMILES IDX 1 1 2 2 3 3 4 4
REMARK H PARENT
REMARK Flexibility Score: inf
ROOT
ATOM      1  C   UNL     1    -103.228 -87.035  39.120  1.00  0.00     0.063 C 
ATOM      2  C   UNL     1    -104.390 -86.886  38.198  1.00  0.00     0.038 C 
ATOM      3  O   UNL     1    -104.692 -87.818  37.407  1.00  0.00    -0.550 OA
ATOM      4  O   UNL     1    -105.108 -85.699  38.169  1.00  0.00    -0.550 OA
ENDROOT
TORSDOF 0
ENDMDL
MODEL 6
REMARK VINA RESULT:    -2.253      1.281      1.904
REMARK INTER + INTRA:          -2.253
REMARK INTER:                  -2.253
REMARK INTRA:                   0.000
REMARK UNBOUND:                 0.000
REMARK SMILES CC(=O)[O-]
REMARK SMILES IDX 1 1 2 2 3 3 4 4
REMARK H PARENT
REMARK Flexibility Score: inf
ROOT
ATOM      1  C   UNL     1    -105.179 -84.907  39.532  1.00  0.00     0.063 C 
ATOM      2  C   UNL     1    -103.767 -85.377  39.616  1.00  0.00     0.038 C 
ATOM      3  O   UNL     1    -103.502 -86.602  39.499  1.00  0.00    -0.550 OA
ATOM      4  O   UNL     1    -102.747 -84.473  39.878  1.00  0.00    -0.550 OA
ENDROOT
TORSDOF 0
ENDMDL
MODEL 7
REMARK VINA RESULT:    -2.112      4.222      4.860
REMARK INTER + INTRA:          -2.112
REMARK INTER:                  -2.112
REMARK INTRA:                   0.000
REMARK UNBOUND:                 0.000
REMARK SMILES CC(=O)[O-]
REMARK SMILES IDX 1 1 2 2 3 3 4 4
REMARK H PARENT
REMARK Flexibility Score: inf
ROOT
ATOM      1  C   UNL     1    -105.460 -85.837  34.636  1.00  0.00     0.063 C 
ATOM      2  C   UNL     1    -105.852 -87.213  35.057  1.00  0.00     0.038 C 
ATOM      3  O   UNL     1    -106.709 -87.855  34.395  1.00  0.00    -0.550 OA
ATOM      4  O   UNL     1    -105.314 -87.767  36.211  1.00  0.00    -0.550 OA
ENDROOT
TORSDOF 0
ENDMDL
MODEL 8
REMARK VINA RESULT:    -2.082      2.547      3.072
REMARK INTER + INTRA:          -2.082
REMARK INTER:                  -2.082
REMARK INTRA:                   0.000
REMARK UNBOUND:                 0.000
REMARK SMILES CC(=O)[O-]
REMARK SMILES IDX 1 1 2 2 3 3 4 4
REMARK H PARENT
REMARK Flexibility Score: inf
ROOT
ATOM      1  C   UNL     1    -105.381 -86.932  35.606  1.00  0.00     0.063 C 
ATOM      2  C   UNL     1    -105.024 -86.849  37.051  1.00  0.00     0.038 C 
ATOM      3  O   UNL     1    -104.563 -87.858  37.646  1.00  0.00    -0.550 OA
ATOM      4  O   UNL     1    -105.249 -85.675  37.757  1.00  0.00    -0.550 OA
ENDROOT
TORSDOF 0
ENDMDL
MODEL 9
REMARK VINA RESULT:    -2.015      2.677      2.873
REMARK INTER + INTRA:          -2.015
REMARK INTER:                  -2.015
REMARK INTRA:                   0.000
REMARK UNBOUND:                 0.000
REMARK SMILES CC(=O)[O-]
REMARK SMILES IDX 1 1 2 2 3 3 4 4
REMARK H PARENT
REMARK Flexibility Score: inf
ROOT
ATOM      1  C   UNL     1    -102.258 -83.214  39.958  1.00  0.00     0.063 C 
ATOM      2  C   UNL     1    -102.495 -84.456  39.167  1.00  0.00     0.038 C 
ATOM      3  O   UNL     1    -103.352 -85.295  39.549  1.00  0.00    -0.550 OA
ATOM      4  O   UNL     1    -101.731 -84.718  38.037  1.00  0.00    -0.550 OA
ENDROOT
TORSDOF 0
ENDMDL
