MODEL 1
REMARK VINA RESULT:    -2.662      0.000      0.000
REMARK INTER + INTRA:          -2.662
REMARK INTER:                  -2.662
REMARK INTRA:                   0.000
REMARK UNBOUND:                 0.000
REMARK SMILES CC(=O)[O-]
REMARK SMILES IDX 1 1 2 2 3 3 4 4
REMARK H PARENT
REMARK Flexibility Score: inf
ROOT
ATOM      1  C   UNL     1     -55.076 120.407  -9.882  1.00  0.00     0.063 C 
ATOM      2  C   UNL     1     -56.002 121.565  -9.719  1.00  0.00     0.038 C 
ATOM      3  O   UNL     1     -56.390 122.210 -10.729  1.00  0.00    -0.550 OA
ATOM      4  O   UNL     1     -56.482 121.901  -8.461  1.00  0.00    -0.550 OA
ENDROOT
TORSDOF 0
ENDMDL
MODEL 2
REMARK VINA RESULT:    -2.652      0.462      1.684
REMARK INTER + INTRA:          -2.652
REMARK INTER:                  -2.652
REMARK INTRA:                   0.000
REMARK UNBOUND:                 0.000
REMARK SMILES CC(=O)[O-]
REMARK SMILES IDX 1 1 2 2 3 3 4 4
REMARK H PARENT
REMARK Flexibility Score: inf
ROOT
ATOM      1  C   UNL     1     -54.608 120.908  -9.389  1.00  0.00     0.063 C 
ATOM      2  C   UNL     1     -55.903 121.646  -9.424  1.00  0.00     0.038 C 
ATOM      3  O   UNL     1     -56.510 121.908  -8.352  1.00  0.00    -0.550 OA
ATOM      4  O   UNL     1     -56.417 122.094 -10.634  1.00  0.00    -0.550 OA
ENDROOT
TORSDOF 0
ENDMDL
MODEL 3
REMARK VINA RESULT:    -2.598      2.313      2.572
REMARK INTER + INTRA:          -2.598
REMARK INTER:                  -2.598
REMARK INTRA:                   0.000
REMARK UNBOUND:                 0.000
REMARK SMILES CC(=O)[O-]
REMARK SMILES IDX 1 1 2 2 3 3 4 4
REMARK H PARENT
REMARK Flexibility Score: inf
ROOT
ATOM      1  C   UNL     1     -56.356 121.039  -9.621  1.00  0.00     0.063 C 
ATOM      2  C   UNL     1     -57.056 120.135 -10.577  1.00  0.00     0.038 C 
ATOM      3  O   UNL     1     -58.039 120.557 -11.241  1.00  0.00    -0.550 OA
ATOM      4  O   UNL     1     -56.592 118.842 -10.779  1.00  0.00    -0.550 OA
ENDROOT
TORSDOF 0
ENDMDL
MODEL 4
REMARK VINA RESULT:    -2.569      1.029      1.849
REMARK INTER + INTRA:          -2.569
REMARK INTER:                  -2.569
REMARK INTRA:                   0.000
REMARK UNBOUND:                 0.000
REMARK SMILES CC(=O)[O-]
REMARK SMILES IDX 1 1 2 2 3 3 4 4
REMARK H PARENT
REMARK Flexibility Score: inf
ROOT
ATOM      1  C   UNL     1     -55.115 120.565 -10.779  1.00  0.00     0.063 C 
ATOM      2  C   UNL     1     -56.029 121.732 -10.617  1.00  0.00     0.038 C 
ATOM      3  O   UNL     1     -56.795 121.800  -9.619  1.00  0.00    -0.550 OA
ATOM      4  O   UNL     1     -55.999 122.772 -11.536  1.00  0.00    -0.550 OA
ENDROOT
TORSDOF 0
ENDMDL
MODEL 5
REMARK VINA RESULT:    -2.563      2.369      2.701
REMARK INTER + INTRA:          -2.563
REMARK INTER:                  -2.563
REMARK INTRA:                   0.000
REMARK UNBOUND:                 0.000
REMARK SMILES CC(=O)[O-]
REMARK SMILES IDX 1 1 2 2 3 3 4 4
REMARK H PARENT
REMARK Flexibility Score: inf
ROOT
ATOM      1  C   UNL     1     -56.244 120.880  -9.580  1.00  0.00     0.063 C 
ATOM      2  C   UNL     1     -56.967 119.995 -10.537  1.00  0.00     0.038 C 
ATOM      3  O   UNL     1     -56.532 118.839 -10.781  1.00  0.00    -0.550 OA
ATOM      4  O   UNL     1     -58.152 120.422 -11.121  1.00  0.00    -0.550 OA
ENDROOT
TORSDOF 0
ENDMDL
MODEL 6
REMARK VINA RESULT:    -2.430      1.359      1.359
REMARK INTER + INTRA:          -2.430
REMARK INTER:                  -2.430
REMARK INTRA:                   0.000
REMARK UNBOUND:                 0.000
REMARK SMILES CC(=O)[O-]
REMARK SMILES IDX 1 1 2 2 3 3 4 4
REMARK H PARENT
REMARK Flexibility Score: inf
ROOT
ATOM      1  C   UNL     1     -54.488 121.575  -9.098  1.00  0.00     0.063 C 
ATOM      2  C   UNL     1     -55.920 121.287  -9.399  1.00  0.00     0.038 C 
ATOM      3  O   UNL     1     -56.236 120.240 -10.025  1.00  0.00    -0.550 OA
ATOM      4  O   UNL     1     -56.913 122.143  -8.942  1.00  0.00    -0.550 OA
ENDROOT
TORSDOF 0
ENDMDL
MODEL 7
REMARK VINA RESULT:    -2.423      1.765      1.781
REMARK INTER + INTRA:          -2.423
REMARK INTER:                  -2.423
REMARK INTRA:                   0.000
REMARK UNBOUND:                 0.000
REMARK SMILES CC(=O)[O-]
REMARK SMILES IDX 1 1 2 2 3 3 4 4
REMARK H PARENT
REMARK Flexibility Score: inf
ROOT
ATOM      1  C   UNL     1     -57.116 119.868 -10.803  1.00  0.00     0.063 C 
ATOM      2  C   UNL     1     -56.327 120.804  -9.952  1.00  0.00     0.038 C 
ATOM      3  O   UNL     1     -55.118 120.559  -9.696  1.00  0.00    -0.550 OA
ATOM      4  O   UNL     1     -56.907 121.976  -9.484  1.00  0.00    -0.550 OA
ENDROOT
TORSDOF 0
ENDMDL
MODEL 8
REMARK VINA RESULT:    -2.356      3.005      3.214
REMARK INTER + INTRA:          -2.356
REMARK INTER:                  -2.356
REMARK INTRA:                   0.000
REMARK UNBOUND:                 0.000
REMARK SMILES CC(=O)[O-]
REMARK SMILES IDX 1 1 2 2 3 3 4 4
REMARK H PARENT
REMARK Flexibility Score: inf
ROOT
ATOM      1  C   UNL     1     -57.496 120.407 -12.125  1.00  0.00     0.063 C 
ATOM      2  C   UNL     1     -56.429 119.564 -11.511  1.00  0.00     0.038 C 
ATOM      3  O   UNL     1     -55.266 119.567 -11.995  1.00  0.00    -0.550 OA
ATOM      4  O   UNL     1     -56.701 118.818 -10.372  1.00  0.00    -0.550 OA
ENDROOT
TORSDOF 0
ENDMDL
MODEL 9
REMARK VINA RESULT:    -2.340      2.695      3.125
REMARK INTER + INTRA:          -2.340
REMARK INTER:                  -2.340
REMARK INTRA:                   0.000
REMARK UNBOUND:                 0.000
REMARK SMILES CC(=O)[O-]
REMARK SMILES IDX 1 1 2 2 3 3 4 4
REMARK H PARENT
REMARK Flexibility Score: inf
ROOT
ATOM      1  C   UNL     1     -56.081 121.362 -10.955  1.00  0.00     0.063 C 
ATOM      2  C   UNL     1     -55.695 119.953 -11.255  1.00  0.00     0.038 C 
ATOM      3  O   UNL     1     -56.484 119.010 -10.981  1.00  0.00    -0.550 OA
ATOM      4  O   UNL     1     -54.489 119.681 -11.888  1.00  0.00    -0.550 OA
ENDROOT
TORSDOF 0
ENDMDL
