MODEL 1
REMARK VINA RESULT:    -4.739      0.000      0.000
REMARK INTER + INTRA:          -4.878
REMARK INTER:                  -4.878
REMARK INTRA:                   0.000
REMARK UNBOUND:                 0.000
REMARK SMILES Cc1cccc(O)c1C
REMARK SMILES IDX 1 1 2 2 8 3 6 4 5 5 4 6 3 7 9 8 7 9
REMARK H PARENT 7 10
REMARK Flexibility Score: inf
ROOT
ATOM      1  C   UNL     1      18.165  23.936  35.593  1.00  0.00     0.045 C 
ATOM      2  C   UNL     1      18.422  25.366  35.993  1.00  0.00    -0.045 A 
ATOM      3  C   UNL     1      19.695  25.965  35.822  1.00  0.00    -0.006 A 
ATOM      4  C   UNL     1      19.879  27.317  36.193  1.00  0.00     0.118 A 
ATOM      5  C   UNL     1      18.820  28.037  36.762  1.00  0.00     0.046 A 
ATOM      6  C   UNL     1      17.580  27.433  36.956  1.00  0.00     0.004 A 
ATOM      7  C   UNL     1      17.381  26.107  36.576  1.00  0.00     0.004 A 
ATOM      8  C   UNL     1      20.834  25.194  35.197  1.00  0.00     0.048 C 
ENDROOT
BRANCH   4   9
ATOM      9  O   UNL     1      21.109  27.944  35.996  1.00  0.00    -0.508 OA
ATOM     10  H   UNL     1      21.558  27.961  35.089  1.00  0.00     0.293 HD
ENDBRANCH   4   9
TORSDOF 1
ENDMDL
MODEL 2
REMARK VINA RESULT:    -4.738     16.011     17.204
REMARK INTER + INTRA:          -4.876
REMARK INTER:                  -4.876
REMARK INTRA:                   0.000
REMARK UNBOUND:                 0.000
REMARK SMILES Cc1cccc(O)c1C
REMARK SMILES IDX 1 1 2 2 8 3 6 4 5 5 4 6 3 7 9 8 7 9
REMARK H PARENT 7 10
REMARK Flexibility Score: inf
ROOT
ATOM      1  C   UNL     1      22.070  22.247  21.383  1.00  0.00     0.045 C 
ATOM      2  C   UNL     1      21.404  22.806  20.152  1.00  0.00    -0.045 A 
ATOM      3  C   UNL     1      20.143  23.451  20.220  1.00  0.00    -0.006 A 
ATOM      4  C   UNL     1      19.571  23.978  19.040  1.00  0.00     0.118 A 
ATOM      5  C   UNL     1      20.229  23.824  17.813  1.00  0.00     0.046 A 
ATOM      6  C   UNL     1      21.454  23.162  17.748  1.00  0.00     0.004 A 
ATOM      7  C   UNL     1      22.038  22.656  18.907  1.00  0.00     0.004 A 
ATOM      8  C   UNL     1      19.438  23.630  21.544  1.00  0.00     0.048 C 
ENDROOT
BRANCH   4   9
ATOM      9  O   UNL     1      18.352  24.655  19.086  1.00  0.00    -0.508 OA
ATOM     10  H   UNL     1      18.303  25.665  19.051  1.00  0.00     0.293 HD
ENDBRANCH   4   9
TORSDOF 1
ENDMDL
MODEL 3
REMARK VINA RESULT:    -4.700     15.768     16.826
REMARK INTER + INTRA:          -4.837
REMARK INTER:                  -4.837
REMARK INTRA:                   0.000
REMARK UNBOUND:                 0.000
REMARK SMILES Cc1cccc(O)c1C
REMARK SMILES IDX 1 1 2 2 8 3 6 4 5 5 4 6 3 7 9 8 7 9
REMARK H PARENT 7 10
REMARK Flexibility Score: inf
ROOT
ATOM      1  C   UNL     1      22.828  22.002  19.624  1.00  0.00     0.045 C 
ATOM      2  C   UNL     1      21.638  22.851  19.988  1.00  0.00    -0.045 A 
ATOM      3  C   UNL     1      20.946  23.613  19.013  1.00  0.00    -0.006 A 
ATOM      4  C   UNL     1      19.821  24.376  19.402  1.00  0.00     0.118 A 
ATOM      5  C   UNL     1      19.426  24.407  20.745  1.00  0.00     0.046 A 
ATOM      6  C   UNL     1      20.129  23.680  21.704  1.00  0.00     0.004 A 
ATOM      7  C   UNL     1      21.227  22.908  21.330  1.00  0.00     0.004 A 
ATOM      8  C   UNL     1      21.363  23.571  17.561  1.00  0.00     0.048 C 
ENDROOT
BRANCH   4   9
ATOM      9  O   UNL     1      19.097  25.101  18.455  1.00  0.00    -0.508 OA
ATOM     10  H   UNL     1      18.372  25.754  18.726  1.00  0.00     0.293 HD
ENDBRANCH   4   9
TORSDOF 1
ENDMDL
MODEL 4
REMARK VINA RESULT:    -4.568     16.107     17.159
REMARK INTER + INTRA:          -4.701
REMARK INTER:                  -4.701
REMARK INTRA:                   0.000
REMARK UNBOUND:                 0.000
REMARK SMILES Cc1cccc(O)c1C
REMARK SMILES IDX 1 1 2 2 8 3 6 4 5 5 4 6 3 7 9 8 7 9
REMARK H PARENT 7 10
REMARK Flexibility Score: inf
ROOT
ATOM      1  C   UNL     1      19.851  23.893  21.913  1.00  0.00     0.045 C 
ATOM      2  C   UNL     1      20.202  23.843  20.449  1.00  0.00    -0.045 A 
ATOM      3  C   UNL     1      21.240  23.008  19.964  1.00  0.00    -0.006 A 
ATOM      4  C   UNL     1      21.516  22.982  18.578  1.00  0.00     0.118 A 
ATOM      5  C   UNL     1      20.795  23.805  17.704  1.00  0.00     0.046 A 
ATOM      6  C   UNL     1      19.797  24.647  18.191  1.00  0.00     0.004 A 
ATOM      7  C   UNL     1      19.502  24.668  19.553  1.00  0.00     0.004 A 
ATOM      8  C   UNL     1      22.010  22.110  20.903  1.00  0.00     0.048 C 
ENDROOT
BRANCH   4   9
ATOM      9  O   UNL     1      22.503  22.137  18.069  1.00  0.00    -0.508 OA
ATOM     10  H   UNL     1      23.356  21.947  18.581  1.00  0.00     0.293 HD
ENDBRANCH   4   9
TORSDOF 1
ENDMDL
MODEL 5
REMARK VINA RESULT:    -4.376      6.499      7.731
REMARK INTER + INTRA:          -4.504
REMARK INTER:                  -4.504
REMARK INTRA:                   0.000
REMARK UNBOUND:                 0.000
REMARK SMILES Cc1cccc(O)c1C
REMARK SMILES IDX 1 1 2 2 8 3 6 4 5 5 4 6 3 7 9 8 7 9
REMARK H PARENT 7 10
REMARK Flexibility Score: inf
ROOT
ATOM      1  C   UNL     1      18.533  33.237  36.921  1.00  0.00     0.045 C 
ATOM      2  C   UNL     1      19.905  33.087  36.316  1.00  0.00    -0.045 A 
ATOM      3  C   UNL     1      20.373  33.973  35.312  1.00  0.00    -0.006 A 
ATOM      4  C   UNL     1      21.676  33.802  34.792  1.00  0.00     0.118 A 
ATOM      5  C   UNL     1      22.476  32.743  35.239  1.00  0.00     0.046 A 
ATOM      6  C   UNL     1      21.998  31.857  36.203  1.00  0.00     0.004 A 
ATOM      7  C   UNL     1      20.723  32.026  36.738  1.00  0.00     0.004 A 
ATOM      8  C   UNL     1      19.517  35.124  34.838  1.00  0.00     0.048 C 
ENDROOT
BRANCH   4   9
ATOM      9  O   UNL     1      22.177  34.685  33.835  1.00  0.00    -0.508 OA
ATOM     10  H   UNL     1      22.526  35.601  34.088  1.00  0.00     0.293 HD
ENDBRANCH   4   9
TORSDOF 1
ENDMDL
MODEL 6
REMARK VINA RESULT:    -4.355     16.322     17.337
REMARK INTER + INTRA:          -4.483
REMARK INTER:                  -4.483
REMARK INTRA:                   0.000
REMARK UNBOUND:                 0.000
REMARK SMILES Cc1cccc(O)c1C
REMARK SMILES IDX 1 1 2 2 8 3 6 4 5 5 4 6 3 7 9 8 7 9
REMARK H PARENT 7 10
REMARK Flexibility Score: inf
ROOT
ATOM      1  C   UNL     1      18.851  21.101  18.809  1.00  0.00     0.045 C 
ATOM      2  C   UNL     1      19.556  22.432  18.770  1.00  0.00    -0.045 A 
ATOM      3  C   UNL     1      19.440  23.364  19.832  1.00  0.00    -0.006 A 
ATOM      4  C   UNL     1      20.139  24.590  19.756  1.00  0.00     0.118 A 
ATOM      5  C   UNL     1      20.904  24.891  18.622  1.00  0.00     0.046 A 
ATOM      6  C   UNL     1      20.989  23.985  17.567  1.00  0.00     0.004 A 
ATOM      7  C   UNL     1      20.320  22.764  17.639  1.00  0.00     0.004 A 
ATOM      8  C   UNL     1      18.626  23.035  21.062  1.00  0.00     0.048 C 
ENDROOT
BRANCH   4   9
ATOM      9  O   UNL     1      20.077  25.506  20.806  1.00  0.00    -0.508 OA
ATOM     10  H   UNL     1      19.256  26.076  20.967  1.00  0.00     0.293 HD
ENDBRANCH   4   9
TORSDOF 1
ENDMDL
MODEL 7
REMARK VINA RESULT:    -4.328      7.228      7.962
REMARK INTER + INTRA:          -4.455
REMARK INTER:                  -4.455
REMARK INTRA:                   0.000
REMARK UNBOUND:                 0.000
REMARK SMILES Cc1cccc(O)c1C
REMARK SMILES IDX 1 1 2 2 8 3 6 4 5 5 4 6 3 7 9 8 7 9
REMARK H PARENT 7 10
REMARK Flexibility Score: inf
ROOT
ATOM      1  C   UNL     1      20.751  34.799  32.739  1.00  0.00     0.045 C 
ATOM      2  C   UNL     1      20.271  34.381  34.104  1.00  0.00    -0.045 A 
ATOM      3  C   UNL     1      21.077  33.591  34.963  1.00  0.00    -0.006 A 
ATOM      4  C   UNL     1      20.588  33.245  36.244  1.00  0.00     0.118 A 
ATOM      5  C   UNL     1      19.305  33.646  36.637  1.00  0.00     0.046 A 
ATOM      6  C   UNL     1      18.506  34.395  35.776  1.00  0.00     0.004 A 
ATOM      7  C   UNL     1      18.983  34.761  34.519  1.00  0.00     0.004 A 
ATOM      8  C   UNL     1      22.466  33.169  34.547  1.00  0.00     0.048 C 
ENDROOT
BRANCH   4   9
ATOM      9  O   UNL     1      21.377  32.505  37.125  1.00  0.00    -0.508 OA
ATOM     10  H   UNL     1      21.641  31.547  36.928  1.00  0.00     0.293 HD
ENDBRANCH   4   9
TORSDOF 1
ENDMDL
MODEL 8
REMARK VINA RESULT:    -4.328     15.935     17.037
REMARK INTER + INTRA:          -4.454
REMARK INTER:                  -4.454
REMARK INTRA:                   0.000
REMARK UNBOUND:                 0.000
REMARK SMILES Cc1cccc(O)c1C
REMARK SMILES IDX 1 1 2 2 8 3 6 4 5 5 4 6 3 7 9 8 7 9
REMARK H PARENT 7 10
REMARK Flexibility Score: inf
ROOT
ATOM      1  C   UNL     1      19.222  24.625  18.757  1.00  0.00     0.045 C 
ATOM      2  C   UNL     1      20.227  23.839  19.558  1.00  0.00    -0.045 A 
ATOM      3  C   UNL     1      21.245  23.078  18.929  1.00  0.00    -0.006 A 
ATOM      4  C   UNL     1      22.176  22.375  19.726  1.00  0.00     0.118 A 
ATOM      5  C   UNL     1      22.064  22.401  21.122  1.00  0.00     0.046 A 
ATOM      6  C   UNL     1      21.043  23.125  21.735  1.00  0.00     0.004 A 
ATOM      7  C   UNL     1      20.130  23.839  20.960  1.00  0.00     0.004 A 
ATOM      8  C   UNL     1      21.375  23.059  17.424  1.00  0.00     0.048 C 
ENDROOT
BRANCH   4   9
ATOM      9  O   UNL     1      23.213  21.654  19.133  1.00  0.00    -0.508 OA
ATOM     10  H   UNL     1      23.581  21.902  18.223  1.00  0.00     0.293 HD
ENDBRANCH   4   9
TORSDOF 1
ENDMDL
MODEL 9
REMARK VINA RESULT:    -4.300     16.083     17.204
REMARK INTER + INTRA:          -4.426
REMARK INTER:                  -4.426
REMARK INTRA:                   0.000
REMARK UNBOUND:                 0.000
REMARK SMILES Cc1cccc(O)c1C
REMARK SMILES IDX 1 1 2 2 8 3 6 4 5 5 4 6 3 7 9 8 7 9
REMARK H PARENT 7 10
REMARK Flexibility Score: inf
ROOT
ATOM      1  C   UNL     1      18.394  22.757  20.893  1.00  0.00     0.045 C 
ATOM      2  C   UNL     1      19.824  22.680  20.425  1.00  0.00    -0.045 A 
ATOM      3  C   UNL     1      20.163  22.820  19.055  1.00  0.00    -0.006 A 
ATOM      4  C   UNL     1      21.522  22.762  18.670  1.00  0.00     0.118 A 
ATOM      5  C   UNL     1      22.513  22.528  19.631  1.00  0.00     0.046 A 
ATOM      6  C   UNL     1      22.171  22.360  20.972  1.00  0.00     0.004 A 
ATOM      7  C   UNL     1      20.837  22.436  21.367  1.00  0.00     0.004 A 
ATOM      8  C   UNL     1      19.097  23.085  18.019  1.00  0.00     0.048 C 
ENDROOT
BRANCH   4   9
ATOM      9  O   UNL     1      21.887  22.938  17.335  1.00  0.00    -0.508 OA
ATOM     10  H   UNL     1      21.424  22.439  16.586  1.00  0.00     0.293 HD
ENDBRANCH   4   9
TORSDOF 1
ENDMDL
