MODEL 1
REMARK VINA RESULT:    -3.145      0.000      0.000
REMARK INTER + INTRA:          -3.546
REMARK INTER:                  -3.512
REMARK INTRA:                  -0.034
REMARK UNBOUND:                -0.034
REMARK SMILES CCCC(=O)[O-]
REMARK SMILES IDX 3 1 4 2 5 3 6 4 2 5 1 6
REMARK H PARENT
REMARK Flexibility Score: inf
ROOT
ATOM      1  C   UNL     1      13.358 -10.941  49.893  1.00  0.00     0.052 C 
ENDROOT
BRANCH   1   2
ATOM      2  C   UNL     1      12.078 -10.171  49.995  1.00  0.00     0.041 C 
ATOM      3  O   UNL     1      11.961  -9.246  50.843  1.00  0.00    -0.550 OA
ATOM      4  O   UNL     1      11.001 -10.497  49.180  1.00  0.00    -0.550 OA
ENDBRANCH   1   2
BRANCH   1   5
ATOM      5  C   UNL     1      13.160 -12.281  49.173  1.00  0.00     0.003 C 
ATOM      6  C   UNL     1      13.698 -12.256  47.742  1.00  0.00     0.004 C 
ENDBRANCH   1   5
TORSDOF 2
ENDMDL
MODEL 2
REMARK VINA RESULT:    -3.081      2.345      3.506
REMARK INTER + INTRA:          -3.475
REMARK INTER:                  -3.436
REMARK INTRA:                  -0.039
REMARK UNBOUND:                -0.034
REMARK SMILES CCCC(=O)[O-]
REMARK SMILES IDX 3 1 4 2 5 3 6 4 2 5 1 6
REMARK H PARENT
REMARK Flexibility Score: inf
ROOT
ATOM      1  C   UNL     1      13.810 -12.271  47.855  1.00  0.00     0.052 C 
ENDROOT
BRANCH   1   2
ATOM      2  C   UNL     1      12.797 -12.066  46.771  1.00  0.00     0.041 C 
ATOM      3  O   UNL     1      12.367 -13.050  46.112  1.00  0.00    -0.550 OA
ATOM      4  O   UNL     1      12.354 -10.785  46.463  1.00  0.00    -0.550 OA
ENDBRANCH   1   2
BRANCH   1   5
ATOM      5  C   UNL     1      13.167 -12.246  49.247  1.00  0.00     0.003 C 
ATOM      6  C   UNL     1      13.278 -10.875  49.915  1.00  0.00     0.004 C 
ENDBRANCH   1   5
TORSDOF 2
ENDMDL
MODEL 3
REMARK VINA RESULT:    -3.056     18.732     19.092
REMARK INTER + INTRA:          -3.447
REMARK INTER:                  -3.382
REMARK INTRA:                  -0.065
REMARK UNBOUND:                -0.034
REMARK SMILES CCCC(=O)[O-]
REMARK SMILES IDX 3 1 4 2 5 3 6 4 2 5 1 6
REMARK H PARENT
REMARK Flexibility Score: inf
ROOT
ATOM      1  C   UNL     1       9.028   1.583  34.462  1.00  0.00     0.052 C 
ENDROOT
BRANCH   1   2
ATOM      2  C   UNL     1       9.768   1.869  35.732  1.00  0.00     0.041 C 
ATOM      3  O   UNL     1       9.307   1.475  36.836  1.00  0.00    -0.550 OA
ATOM      4  O   UNL     1      10.949   2.600  35.702  1.00  0.00    -0.550 OA
ENDBRANCH   1   2
BRANCH   1   5
ATOM      5  C   UNL     1       9.122   0.103  34.068  1.00  0.00     0.003 C 
ATOM      6  C   UNL     1      10.543  -0.306  33.682  1.00  0.00     0.004 C 
ENDBRANCH   1   5
TORSDOF 2
ENDMDL
MODEL 4
REMARK VINA RESULT:    -3.032      0.724      1.415
REMARK INTER + INTRA:          -3.420
REMARK INTER:                  -3.382
REMARK INTRA:                  -0.038
REMARK UNBOUND:                -0.034
REMARK SMILES CCCC(=O)[O-]
REMARK SMILES IDX 3 1 4 2 5 3 6 4 2 5 1 6
REMARK H PARENT
REMARK Flexibility Score: inf
ROOT
ATOM      1  C   UNL     1      13.209 -11.269  49.493  1.00  0.00     0.052 C 
ENDROOT
BRANCH   1   2
ATOM      2  C   UNL     1      12.254 -10.116  49.491  1.00  0.00     0.041 C 
ATOM      3  O   UNL     1      11.704  -9.751  48.418  1.00  0.00    -0.550 OA
ATOM      4  O   UNL     1      11.997  -9.421  50.667  1.00  0.00    -0.550 OA
ENDBRANCH   1   2
BRANCH   1   5
ATOM      5  C   UNL     1      12.835 -12.320  48.441  1.00  0.00     0.003 C 
ATOM      6  C   UNL     1      13.849 -12.386  47.299  1.00  0.00     0.004 C 
ENDBRANCH   1   5
TORSDOF 2
ENDMDL
MODEL 5
REMARK VINA RESULT:    -3.027     18.194     18.605
REMARK INTER + INTRA:          -3.414
REMARK INTER:                  -3.374
REMARK INTRA:                  -0.040
REMARK UNBOUND:                -0.034
REMARK SMILES CCCC(=O)[O-]
REMARK SMILES IDX 3 1 4 2 5 3 6 4 2 5 1 6
REMARK H PARENT
REMARK Flexibility Score: inf
ROOT
ATOM      1  C   UNL     1      10.566   2.155  35.859  1.00  0.00     0.052 C 
ENDROOT
BRANCH   1   2
ATOM      2  C   UNL     1      11.636   1.181  35.474  1.00  0.00     0.041 C 
ATOM      3  O   UNL     1      12.739   1.179  36.082  1.00  0.00    -0.550 OA
ATOM      4  O   UNL     1      11.429   0.298  34.421  1.00  0.00    -0.550 OA
ENDBRANCH   1   2
BRANCH   1   5
ATOM      5  C   UNL     1       9.532   1.523  36.800  1.00  0.00     0.003 C 
ATOM      6  C   UNL     1       8.297   1.020  36.053  1.00  0.00     0.004 C 
ENDBRANCH   1   5
TORSDOF 2
ENDMDL
MODEL 6
REMARK VINA RESULT:    -3.021     19.068     19.408
REMARK INTER + INTRA:          -3.408
REMARK INTER:                  -3.342
REMARK INTRA:                  -0.066
REMARK UNBOUND:                -0.034
REMARK SMILES CCCC(=O)[O-]
REMARK SMILES IDX 3 1 4 2 5 3 6 4 2 5 1 6
REMARK H PARENT
REMARK Flexibility Score: inf
ROOT
ATOM      1  C   UNL     1      13.085   1.330  35.682  1.00  0.00     0.052 C 
ENDROOT
BRANCH   1   2
ATOM      2  C   UNL     1      12.751   2.726  35.257  1.00  0.00     0.041 C 
ATOM      3  O   UNL     1      11.779   3.333  35.782  1.00  0.00    -0.550 OA
ATOM      4  O   UNL     1      13.489   3.346  34.256  1.00  0.00    -0.550 OA
ENDBRANCH   1   2
BRANCH   1   5
ATOM      5  C   UNL     1      12.871   0.322  34.545  1.00  0.00     0.003 C 
ATOM      6  C   UNL     1      11.399   0.192  34.153  1.00  0.00     0.004 C 
ENDBRANCH   1   5
TORSDOF 2
ENDMDL
MODEL 7
REMARK VINA RESULT:    -3.003     18.300     18.675
REMARK INTER + INTRA:          -3.388
REMARK INTER:                  -3.328
REMARK INTRA:                  -0.060
REMARK UNBOUND:                -0.034
REMARK SMILES CCCC(=O)[O-]
REMARK SMILES IDX 3 1 4 2 5 3 6 4 2 5 1 6
REMARK H PARENT
REMARK Flexibility Score: inf
ROOT
ATOM      1  C   UNL     1       9.391   1.509  36.743  1.00  0.00     0.052 C 
ENDROOT
BRANCH   1   2
ATOM      2  C   UNL     1      10.505   1.643  35.751  1.00  0.00     0.041 C 
ATOM      3  O   UNL     1      11.658   1.222  36.033  1.00  0.00    -0.550 OA
ATOM      4  O   UNL     1      10.280   2.265  34.529  1.00  0.00    -0.550 OA
ENDBRANCH   1   2
BRANCH   1   5
ATOM      5  C   UNL     1       8.078   1.088  36.071  1.00  0.00     0.003 C 
ATOM      6  C   UNL     1       8.114  -0.359  35.579  1.00  0.00     0.004 C 
ENDBRANCH   1   5
TORSDOF 2
ENDMDL
MODEL 8
REMARK VINA RESULT:    -3.003     18.433     18.804
REMARK INTER + INTRA:          -3.388
REMARK INTER:                  -3.361
REMARK INTRA:                  -0.026
REMARK UNBOUND:                -0.034
REMARK SMILES CCCC(=O)[O-]
REMARK SMILES IDX 3 1 4 2 5 3 6 4 2 5 1 6
REMARK H PARENT
REMARK Flexibility Score: inf
ROOT
ATOM      1  C   UNL     1      11.135   2.294  35.387  1.00  0.00     0.052 C 
ENDROOT
BRANCH   1   2
ATOM      2  C   UNL     1       9.753   1.918  35.823  1.00  0.00     0.041 C 
ATOM      3  O   UNL     1       8.861   1.677  34.966  1.00  0.00    -0.550 OA
ATOM      4  O   UNL     1       9.438   1.869  37.176  1.00  0.00    -0.550 OA
ENDBRANCH   1   2
BRANCH   1   5
ATOM      5  C   UNL     1      12.162   1.218  35.759  1.00  0.00     0.003 C 
ATOM      6  C   UNL     1      12.590   0.381  34.553  1.00  0.00     0.004 C 
ENDBRANCH   1   5
TORSDOF 2
ENDMDL
MODEL 9
REMARK VINA RESULT:    -2.983      1.911      2.524
REMARK INTER + INTRA:          -3.366
REMARK INTER:                  -3.306
REMARK INTRA:                  -0.060
REMARK UNBOUND:                -0.034
REMARK SMILES CCCC(=O)[O-]
REMARK SMILES IDX 3 1 4 2 5 3 6 4 2 5 1 6
REMARK H PARENT
REMARK Flexibility Score: inf
ROOT
ATOM      1  C   UNL     1      13.712 -12.371  47.728  1.00  0.00     0.052 C 
ENDROOT
BRANCH   1   2
ATOM      2  C   UNL     1      13.104 -11.956  49.033  1.00  0.00     0.041 C 
ATOM      3  O   UNL     1      13.483 -10.897  49.599  1.00  0.00    -0.550 OA
ATOM      4  O   UNL     1      12.145 -12.757  49.641  1.00  0.00    -0.550 OA
ENDBRANCH   1   2
BRANCH   1   5
ATOM      5  C   UNL     1      12.648 -12.561  46.639  1.00  0.00     0.003 C 
ATOM      6  C   UNL     1      11.754 -11.331  46.480  1.00  0.00     0.004 C 
ENDBRANCH   1   5
TORSDOF 2
ENDMDL
