MODEL 1
REMARK VINA RESULT:    -4.865      0.000      0.000
REMARK INTER + INTRA:          -5.898
REMARK INTER:                  -6.855
REMARK INTRA:                   0.958
REMARK UNBOUND:                 0.958
REMARK SMILES CC1=CCC(=C(C)C)C(=O)CC(C)=CCC1
REMARK SMILES IDX 12 1 14 2 13 3 15 4 16 5 2 6 1 7 3 8 11 10 9 11 10 12 5 13
REMARK SMILES IDX 6 14 7 15 8 16 4 17
REMARK H PARENT
REMARK Flexibility Score: 60.00
ROOT
ATOM      1  C   UNL     1     -13.001 -19.985  30.883  1.00  0.00    -0.070 C 
ATOM      2  C   UNL     1     -12.989 -20.040  29.530  1.00  0.00    -0.027 C 
ATOM      3  C   UNL     1     -12.413 -21.145  31.645  1.00  0.00     0.039 C 
ENDROOT
BRANCH   2   4
ATOM      4  C   UNL     1     -13.478 -18.945  28.611  1.00  0.00     0.032 C 
BRANCH   4   5
ATOM      5  C   UNL     1     -12.404 -17.871  28.388  1.00  0.00     0.034 C 
BRANCH   5   6
ATOM      6  C   UNL     1     -12.975 -16.493  28.085  1.00  0.00    -0.077 C 
ATOM      7  C   UNL     1     -13.635 -16.257  26.749  1.00  0.00     0.039 C 
ATOM      8  C   UNL     1     -12.942 -15.463  28.962  1.00  0.00    -0.023 CG0
ATOM      9  G   UNL     1     -12.267 -15.487  30.314  1.00  0.00     0.000 G0
ENDBRANCH   5   6
ENDBRANCH   4   5
ENDBRANCH   2   4
BRANCH   1  10
ATOM     10  C   UNL     1     -13.578 -18.816  31.657  1.00  0.00     0.111 C 
BRANCH  10  11
ATOM     11  C   UNL     1     -12.612 -17.665  31.702  1.00  0.00     0.163 C 
ATOM     12  O   UNL     1     -11.409 -17.880  32.008  1.00  0.00    -0.294 OA
BRANCH  11  13
ATOM     13  C   UNL     1     -13.042 -16.283  31.368  1.00  0.00    -0.002 C 
ATOM     14  C   UNL     1     -14.113 -15.727  31.998  1.00  0.00    -0.069 C 
ATOM     15  C   UNL     1     -14.830 -16.456  33.112  1.00  0.00     0.039 C 
ATOM     16  C   UNL     1     -14.598 -14.342  31.635  1.00  0.00     0.039 C 
BRANCH  13  17
ATOM     17  C   UNL     1     -12.269 -15.499  30.313  1.00  0.00     0.066 CG0
ATOM     18  G   UNL     1     -12.959 -15.442  28.970  1.00  0.00     0.000 G0
ENDBRANCH  13  17
ENDBRANCH  11  13
ENDBRANCH  10  11
ENDBRANCH   1  10
TORSDOF 0
ENDMDL
MODEL 2
REMARK VINA RESULT:    -4.663      1.565      3.673
REMARK INTER + INTRA:          -5.613
REMARK INTER:                  -6.445
REMARK INTRA:                   0.832
REMARK UNBOUND:                 0.958
REMARK SMILES CC1=CCC(=C(C)C)C(=O)CC(C)=CCC1
REMARK SMILES IDX 12 1 14 2 13 3 15 4 16 5 2 6 1 7 3 8 11 10 9 11 10 12 5 13
REMARK SMILES IDX 6 14 7 15 8 16 4 17
REMARK H PARENT
REMARK Flexibility Score: 60.00
ROOT
ATOM      1  C   UNL     1     -12.818 -19.082  29.505  1.00  0.00    -0.070 C 
ATOM      2  C   UNL     1     -13.185 -19.378  30.774  1.00  0.00    -0.027 C 
ATOM      3  C   UNL     1     -13.828 -19.297  28.407  1.00  0.00     0.039 C 
ENDROOT
BRANCH   2   4
ATOM      4  C   UNL     1     -12.326 -19.167  32.000  1.00  0.00     0.032 C 
BRANCH   4   5
ATOM      5  C   UNL     1     -11.965 -17.687  32.191  1.00  0.00     0.034 C 
BRANCH   5   6
ATOM      6  C   UNL     1     -13.140 -16.743  31.980  1.00  0.00    -0.077 C 
ATOM      7  C   UNL     1     -14.350 -16.877  32.871  1.00  0.00     0.039 C 
ATOM      8  C   UNL     1     -13.154 -15.768  31.042  1.00  0.00    -0.023 CG0
ATOM      9  G   UNL     1     -12.070 -15.525  30.017  1.00  0.00     0.000 G0
ENDBRANCH   5   6
ENDBRANCH   4   5
ENDBRANCH   2   4
BRANCH   1  10
ATOM     10  C   UNL     1     -11.445 -18.550  29.145  1.00  0.00     0.111 C 
BRANCH  10  11
ATOM     11  C   UNL     1     -11.546 -17.345  28.252  1.00  0.00     0.163 C 
ATOM     12  O   UNL     1     -10.981 -17.362  27.126  1.00  0.00    -0.294 OA
BRANCH  11  13
ATOM     13  C   UNL     1     -12.321 -16.145  28.660  1.00  0.00    -0.002 C 
ATOM     14  C   UNL     1     -13.251 -15.611  27.822  1.00  0.00    -0.069 C 
ATOM     15  C   UNL     1     -13.587 -16.271  26.503  1.00  0.00     0.039 C 
ATOM     16  C   UNL     1     -14.012 -14.361  28.198  1.00  0.00     0.039 C 
BRANCH  13  17
ATOM     17  C   UNL     1     -12.062 -15.524  30.028  1.00  0.00     0.066 CG0
ATOM     18  G   UNL     1     -13.166 -15.775  31.029  1.00  0.00     0.000 G0
ENDBRANCH  13  17
ENDBRANCH  11  13
ENDBRANCH  10  11
ENDBRANCH   1  10
TORSDOF 0
ENDMDL
MODEL 3
REMARK VINA RESULT:    -4.573      1.680      3.768
REMARK INTER + INTRA:          -5.487
REMARK INTER:                  -5.891
REMARK INTRA:                   0.404
REMARK UNBOUND:                 0.958
REMARK SMILES CC1=CCC(=C(C)C)C(=O)CC(C)=CCC1
REMARK SMILES IDX 12 1 14 2 13 3 15 4 16 5 2 6 1 7 3 8 11 10 9 11 10 12 5 13
REMARK SMILES IDX 6 14 7 15 8 16 4 17
REMARK H PARENT
REMARK Flexibility Score: 60.00
ROOT
ATOM      1  C   UNL     1     -12.444 -16.646  32.185  1.00  0.00    -0.070 C 
ATOM      2  C   UNL     1     -12.421 -17.984  32.389  1.00  0.00    -0.027 C 
ATOM      3  C   UNL     1     -11.687 -15.769  33.150  1.00  0.00     0.039 C 
ENDROOT
BRANCH   2   4
ATOM      4  C   UNL     1     -13.069 -19.013  31.491  1.00  0.00     0.032 C 
BRANCH   4   5
ATOM      5  C   UNL     1     -12.238 -19.262  30.224  1.00  0.00     0.034 C 
BRANCH   5   6
ATOM      6  C   UNL     1     -13.081 -19.438  28.969  1.00  0.00    -0.077 C 
ATOM      7  C   UNL     1     -14.000 -20.630  28.872  1.00  0.00     0.039 C 
ATOM      8  C   UNL     1     -13.066 -18.568  27.934  1.00  0.00    -0.023 CG0
ATOM      9  G   UNL     1     -12.165 -17.360  27.818  1.00  0.00     0.000 G0
ENDBRANCH   5   6
ENDBRANCH   4   5
ENDBRANCH   2   4
BRANCH   1  10
ATOM     10  C   UNL     1     -13.195 -15.999  31.038  1.00  0.00     0.111 C 
BRANCH  10  11
ATOM     11  C   UNL     1     -12.291 -15.768  29.859  1.00  0.00     0.163 C 
ATOM     12  O   UNL     1     -11.135 -15.303  30.049  1.00  0.00    -0.294 OA
BRANCH  11  13
ATOM     13  C   UNL     1     -12.724 -16.101  28.478  1.00  0.00    -0.002 C 
ATOM     14  C   UNL     1     -13.602 -15.295  27.822  1.00  0.00    -0.069 C 
ATOM     15  C   UNL     1     -14.086 -14.000  28.436  1.00  0.00     0.039 C 
ATOM     16  C   UNL     1     -14.095 -15.644  26.436  1.00  0.00     0.039 C 
BRANCH  13  17
ATOM     17  C   UNL     1     -12.171 -17.353  27.808  1.00  0.00     0.066 CG0
ATOM     18  G   UNL     1     -13.069 -18.562  27.941  1.00  0.00     0.000 G0
ENDBRANCH  13  17
ENDBRANCH  11  13
ENDBRANCH  10  11
ENDBRANCH   1  10
TORSDOF 0
ENDMDL
MODEL 4
REMARK VINA RESULT:    -4.505      1.984      3.817
REMARK INTER + INTRA:          -5.391
REMARK INTER:                  -6.142
REMARK INTRA:                   0.751
REMARK UNBOUND:                 0.958
REMARK SMILES CC1=CCC(=C(C)C)C(=O)CC(C)=CCC1
REMARK SMILES IDX 12 1 14 2 13 3 15 4 16 5 2 6 1 7 3 8 11 10 9 11 10 12 5 13
REMARK SMILES IDX 6 14 7 15 8 16 4 17
REMARK H PARENT
REMARK Flexibility Score: 60.00
ROOT
ATOM      1  C   UNL     1     -10.947 -16.796  28.778  1.00  0.00    -0.070 C 
ATOM      2  C   UNL     1     -10.287 -17.666  29.578  1.00  0.00    -0.027 C 
ATOM      3  C   UNL     1     -11.077 -17.137  27.316  1.00  0.00     0.039 C 
ENDROOT
BRANCH   2   4
ATOM      4  C   UNL     1     -10.115 -17.516  31.072  1.00  0.00     0.032 C 
BRANCH   4   5
ATOM      5  C   UNL     1     -10.773 -18.674  31.837  1.00  0.00     0.034 C 
BRANCH   5   6
ATOM      6  C   UNL     1     -12.190 -18.981  31.375  1.00  0.00    -0.077 C 
ATOM      7  C   UNL     1     -12.492 -20.347  30.812  1.00  0.00     0.039 C 
ATOM      8  C   UNL     1     -13.209 -18.094  31.458  1.00  0.00    -0.023 CG0
ATOM      9  G   UNL     1     -13.088 -16.662  31.925  1.00  0.00     0.000 G0
ENDBRANCH   5   6
ENDBRANCH   4   5
ENDBRANCH   2   4
BRANCH   1  10
ATOM     10  C   UNL     1     -11.553 -15.503  29.288  1.00  0.00     0.111 C 
BRANCH  10  11
ATOM     11  C   UNL     1     -13.031 -15.652  29.521  1.00  0.00     0.163 C 
ATOM     12  O   UNL     1     -13.800 -15.803  28.535  1.00  0.00    -0.294 OA
BRANCH  11  13
ATOM     13  C   UNL     1     -13.598 -15.650  30.894  1.00  0.00    -0.002 C 
ATOM     14  C   UNL     1     -14.561 -14.751  31.237  1.00  0.00    -0.069 C 
ATOM     15  C   UNL     1     -15.142 -13.798  30.216  1.00  0.00     0.039 C 
ATOM     16  C   UNL     1     -15.113 -14.699  32.643  1.00  0.00     0.039 C 
BRANCH  13  17
ATOM     17  C   UNL     1     -13.090 -16.668  31.909  1.00  0.00     0.066 CG0
ATOM     18  G   UNL     1     -13.217 -18.102  31.448  1.00  0.00     0.000 G0
ENDBRANCH  13  17
ENDBRANCH  11  13
ENDBRANCH  10  11
ENDBRANCH   1  10
TORSDOF 0
ENDMDL
MODEL 5
REMARK VINA RESULT:    -4.496      1.724      3.742
REMARK INTER + INTRA:          -5.379
REMARK INTER:                  -5.952
REMARK INTRA:                   0.573
REMARK UNBOUND:                 0.958
REMARK SMILES CC1=CCC(=C(C)C)C(=O)CC(C)=CCC1
REMARK SMILES IDX 12 1 14 2 13 3 15 4 16 5 2 6 1 7 3 8 11 10 9 11 10 12 5 13
REMARK SMILES IDX 6 14 7 15 8 16 4 17
REMARK H PARENT
REMARK Flexibility Score: 60.00
ROOT
ATOM      1  C   UNL     1     -13.002 -15.798  30.870  1.00  0.00    -0.070 C 
ATOM      2  C   UNL     1     -13.641 -15.319  29.776  1.00  0.00    -0.027 C 
ATOM      3  C   UNL     1     -13.836 -16.183  32.065  1.00  0.00     0.039 C 
ENDROOT
BRANCH   2   4
ATOM      4  C   UNL     1     -12.973 -14.943  28.474  1.00  0.00     0.032 C 
BRANCH   4   5
ATOM      5  C   UNL     1     -13.424 -15.854  27.323  1.00  0.00     0.034 C 
BRANCH   5   6
ATOM      6  C   UNL     1     -12.352 -16.835  26.868  1.00  0.00    -0.077 C 
ATOM      7  C   UNL     1     -11.563 -16.523  25.621  1.00  0.00     0.039 C 
ATOM      8  C   UNL     1     -12.051 -17.972  27.537  1.00  0.00    -0.023 CG0
ATOM      9  G   UNL     1     -12.774 -18.485  28.760  1.00  0.00     0.000 G0
ENDBRANCH   5   6
ENDBRANCH   4   5
ENDBRANCH   2   4
BRANCH   1  10
ATOM     10  C   UNL     1     -11.497 -15.958  30.943  1.00  0.00     0.111 C 
BRANCH  10  11
ATOM     11  C   UNL     1     -11.046 -17.187  30.203  1.00  0.00     0.163 C 
ATOM     12  O   UNL     1      -9.879 -17.229  29.730  1.00  0.00    -0.294 OA
BRANCH  11  13
ATOM     13  C   UNL     1     -11.940 -18.361  30.041  1.00  0.00    -0.002 C 
ATOM     14  C   UNL     1     -12.030 -19.296  31.027  1.00  0.00    -0.069 C 
ATOM     15  C   UNL     1     -11.302 -19.120  32.341  1.00  0.00     0.039 C 
ATOM     16  C   UNL     1     -12.895 -20.524  30.860  1.00  0.00     0.039 C 
BRANCH  13  17
ATOM     17  C   UNL     1     -12.755 -18.504  28.761  1.00  0.00     0.066 CG0
ATOM     18  G   UNL     1     -12.052 -17.977  27.531  1.00  0.00     0.000 G0
ENDBRANCH  13  17
ENDBRANCH  11  13
ENDBRANCH  10  11
ENDBRANCH   1  10
TORSDOF 0
ENDMDL
MODEL 6
REMARK VINA RESULT:    -4.483      2.070      4.808
REMARK INTER + INTRA:          -5.359
REMARK INTER:                  -6.663
REMARK INTRA:                   1.304
REMARK UNBOUND:                 0.958
REMARK SMILES CC1=CCC(=C(C)C)C(=O)CC(C)=CCC1
REMARK SMILES IDX 12 1 14 2 13 3 15 4 16 5 2 6 1 7 3 8 11 10 9 11 10 12 5 13
REMARK SMILES IDX 6 14 7 15 8 16 4 17
REMARK H PARENT
REMARK Flexibility Score: 60.00
ROOT
ATOM      1  C   UNL     1     -13.103 -15.263  29.422  1.00  0.00    -0.070 C 
ATOM      2  C   UNL     1     -13.951 -15.217  30.476  1.00  0.00    -0.027 C 
ATOM      3  C   UNL     1     -13.673 -15.042  28.044  1.00  0.00     0.039 C 
ENDROOT
BRANCH   2   4
ATOM      4  C   UNL     1     -13.546 -15.354  31.926  1.00  0.00     0.032 C 
BRANCH   4   5
ATOM      5  C   UNL     1     -12.860 -16.701  32.197  1.00  0.00     0.034 C 
BRANCH   5   6
ATOM      6  C   UNL     1     -11.395 -16.570  32.588  1.00  0.00    -0.077 C 
ATOM      7  C   UNL     1     -11.000 -15.502  33.577  1.00  0.00     0.039 C 
ATOM      8  C   UNL     1     -10.421 -17.377  32.109  1.00  0.00    -0.023 CG0
ATOM      9  G   UNL     1     -10.610 -18.452  31.064  1.00  0.00     0.000 G0
ENDBRANCH   5   6
ENDBRANCH   4   5
ENDBRANCH   2   4
BRANCH   1  10
ATOM     10  C   UNL     1     -11.618 -15.527  29.569  1.00  0.00     0.111 C 
BRANCH  10  11
ATOM     11  C   UNL     1     -11.264 -16.912  29.103  1.00  0.00     0.163 C 
ATOM     12  O   UNL     1     -10.689 -17.062  27.992  1.00  0.00    -0.294 OA
BRANCH  11  13
ATOM     13  C   UNL     1     -11.557 -18.105  29.939  1.00  0.00    -0.002 C 
ATOM     14  C   UNL     1     -12.660 -18.863  29.690  1.00  0.00    -0.069 C 
ATOM     15  C   UNL     1     -13.560 -18.571  28.511  1.00  0.00     0.039 C 
ATOM     16  C   UNL     1     -13.002 -20.049  30.562  1.00  0.00     0.039 C 
BRANCH  13  17
ATOM     17  C   UNL     1     -10.606 -18.468  31.074  1.00  0.00     0.066 CG0
ATOM     18  G   UNL     1     -10.435 -17.370  32.099  1.00  0.00     0.000 G0
ENDBRANCH  13  17
ENDBRANCH  11  13
ENDBRANCH  10  11
ENDBRANCH   1  10
TORSDOF 0
ENDMDL
MODEL 7
REMARK VINA RESULT:    -4.422      2.190      4.591
REMARK INTER + INTRA:          -5.274
REMARK INTER:                  -6.242
REMARK INTRA:                   0.968
REMARK UNBOUND:                 0.958
REMARK SMILES CC1=CCC(=C(C)C)C(=O)CC(C)=CCC1
REMARK SMILES IDX 12 1 14 2 13 3 15 4 16 5 2 6 1 7 3 8 11 10 9 11 10 12 5 13
REMARK SMILES IDX 6 14 7 15 8 16 4 17
REMARK H PARENT
REMARK Flexibility Score: 60.00
ROOT
ATOM      1  C   UNL     1     -13.288 -16.554  31.518  1.00  0.00    -0.070 C 
ATOM      2  C   UNL     1     -12.396 -17.145  32.349  1.00  0.00    -0.027 C 
ATOM      3  C   UNL     1     -14.120 -15.421  32.062  1.00  0.00     0.039 C 
ENDROOT
BRANCH   2   4
ATOM      4  C   UNL     1     -11.442 -18.249  31.957  1.00  0.00     0.032 C 
BRANCH   4   5
ATOM      5  C   UNL     1     -10.031 -17.708  31.685  1.00  0.00     0.034 C 
BRANCH   5   6
ATOM      6  C   UNL     1     -10.005 -16.228  31.331  1.00  0.00    -0.077 C 
ATOM      7  C   UNL     1      -9.876 -15.217  32.442  1.00  0.00     0.039 C 
ATOM      8  C   UNL     1     -10.073 -15.765  30.061  1.00  0.00    -0.023 CG0
ATOM      9  G   UNL     1     -10.274 -16.615  28.828  1.00  0.00     0.000 G0
ENDBRANCH   5   6
ENDBRANCH   4   5
ENDBRANCH   2   4
BRANCH   1  10
ATOM     10  C   UNL     1     -13.486 -16.985  30.079  1.00  0.00     0.111 C 
BRANCH  10  11
ATOM     11  C   UNL     1     -12.800 -16.039  29.131  1.00  0.00     0.163 C 
ATOM     12  O   UNL     1     -13.152 -14.829  29.104  1.00  0.00    -0.294 OA
BRANCH  11  13
ATOM     13  C   UNL     1     -11.700 -16.497  28.245  1.00  0.00    -0.002 C 
ATOM     14  C   UNL     1     -11.954 -16.817  26.946  1.00  0.00    -0.069 C 
ATOM     15  C   UNL     1     -13.330 -16.628  26.348  1.00  0.00     0.039 C 
ATOM     16  C   UNL     1     -10.858 -17.335  26.043  1.00  0.00     0.039 C 
BRANCH  13  17
ATOM     17  C   UNL     1     -10.287 -16.603  28.808  1.00  0.00     0.066 CG0
ATOM     18  G   UNL     1     -10.065 -15.773  30.052  1.00  0.00     0.000 G0
ENDBRANCH  13  17
ENDBRANCH  11  13
ENDBRANCH  10  11
ENDBRANCH   1  10
TORSDOF 0
ENDMDL
MODEL 8
REMARK VINA RESULT:    -4.355      2.389      4.093
REMARK INTER + INTRA:          -5.180
REMARK INTER:                  -6.753
REMARK INTRA:                   1.573
REMARK UNBOUND:                 0.958
REMARK SMILES CC1=CCC(=C(C)C)C(=O)CC(C)=CCC1
REMARK SMILES IDX 12 1 14 2 13 3 15 4 16 5 2 6 1 7 3 8 11 10 9 11 10 12 5 13
REMARK SMILES IDX 6 14 7 15 8 16 4 17
REMARK H PARENT
REMARK Flexibility Score: 60.00
ROOT
ATOM      1  C   UNL     1     -11.289 -17.319  28.558  1.00  0.00    -0.070 C 
ATOM      2  C   UNL     1     -10.204 -17.299  29.367  1.00  0.00    -0.027 C 
ATOM      3  C   UNL     1     -11.060 -17.374  27.069  1.00  0.00     0.039 C 
ENDROOT
BRANCH   2   4
ATOM      4  C   UNL     1     -10.246 -17.306  30.878  1.00  0.00     0.032 C 
BRANCH   4   5
ATOM      5  C   UNL     1     -10.092 -15.891  31.456  1.00  0.00     0.034 C 
BRANCH   5   6
ATOM      6  C   UNL     1     -10.736 -15.720  32.824  1.00  0.00    -0.077 C 
ATOM      7  C   UNL     1      -9.918 -15.121  33.942  1.00  0.00     0.039 C 
ATOM      8  C   UNL     1     -12.017 -16.060  33.093  1.00  0.00    -0.023 CG0
ATOM      9  G   UNL     1     -12.965 -16.733  32.127  1.00  0.00     0.000 G0
ENDBRANCH   5   6
ENDBRANCH   4   5
ENDBRANCH   2   4
BRANCH   1  10
ATOM     10  C   UNL     1     -12.711 -17.285  29.081  1.00  0.00     0.111 C 
BRANCH  10  11
ATOM     11  C   UNL     1     -13.040 -15.942  29.671  1.00  0.00     0.163 C 
ATOM     12  O   UNL     1     -12.907 -14.908  28.963  1.00  0.00    -0.294 OA
BRANCH  11  13
ATOM     13  C   UNL     1     -13.544 -15.813  31.062  1.00  0.00    -0.002 C 
ATOM     14  C   UNL     1     -14.490 -14.882  31.366  1.00  0.00    -0.069 C 
ATOM     15  C   UNL     1     -15.118 -14.025  30.290  1.00  0.00     0.039 C 
ATOM     16  C   UNL     1     -14.977 -14.700  32.785  1.00  0.00     0.039 C 
BRANCH  13  17
ATOM     17  C   UNL     1     -12.989 -16.735  32.142  1.00  0.00     0.066 CG0
ATOM     18  G   UNL     1     -12.028 -16.054  33.088  1.00  0.00     0.000 G0
ENDBRANCH  13  17
ENDBRANCH  11  13
ENDBRANCH  10  11
ENDBRANCH   1  10
TORSDOF 0
ENDMDL
MODEL 9
REMARK VINA RESULT:    -4.072      2.123      4.671
REMARK INTER + INTRA:          -4.780
REMARK INTER:                  -6.087
REMARK INTRA:                   1.307
REMARK UNBOUND:                 0.958
REMARK SMILES CC1=CCC(=C(C)C)C(=O)CC(C)=CCC1
REMARK SMILES IDX 12 1 14 2 13 3 15 4 16 5 2 6 1 7 3 8 11 10 9 11 10 12 5 13
REMARK SMILES IDX 6 14 7 15 8 16 4 17
REMARK H PARENT
REMARK Flexibility Score: 60.00
ROOT
ATOM      1  C   UNL     1     -11.099 -16.330  28.446  1.00  0.00    -0.070 C 
ATOM      2  C   UNL     1     -10.042 -16.060  29.249  1.00  0.00    -0.027 C 
ATOM      3  C   UNL     1     -10.872 -17.224  27.254  1.00  0.00     0.039 C 
ENDROOT
BRANCH   2   4
ATOM      4  C   UNL     1     -10.100 -15.238  30.516  1.00  0.00     0.032 C 
BRANCH   4   5
ATOM      5  C   UNL     1      -9.883 -16.105  31.764  1.00  0.00     0.034 C 
BRANCH   5   6
ATOM      6  C   UNL     1     -11.085 -16.139  32.697  1.00  0.00    -0.077 C 
ATOM      7  C   UNL     1     -11.175 -15.121  33.806  1.00  0.00     0.039 C 
ATOM      8  C   UNL     1     -12.098 -17.027  32.573  1.00  0.00    -0.023 CG0
ATOM      9  G   UNL     1     -12.154 -18.159  31.573  1.00  0.00     0.000 G0
ENDBRANCH   5   6
ENDBRANCH   4   5
ENDBRANCH   2   4
BRANCH   1  10
ATOM     10  C   UNL     1     -12.486 -15.773  28.693  1.00  0.00     0.111 C 
BRANCH  10  11
ATOM     11  C   UNL     1     -13.103 -16.378  29.923  1.00  0.00     0.163 C 
ATOM     12  O   UNL     1     -13.839 -15.668  30.658  1.00  0.00    -0.294 OA
BRANCH  11  13
ATOM     13  C   UNL     1     -12.881 -17.804  30.275  1.00  0.00    -0.002 C 
ATOM     14  C   UNL     1     -13.331 -18.791  29.453  1.00  0.00    -0.069 C 
ATOM     15  C   UNL     1     -13.979 -18.469  28.125  1.00  0.00     0.039 C 
ATOM     16  C   UNL     1     -13.161 -20.248  29.819  1.00  0.00     0.039 C 
BRANCH  13  17
ATOM     17  C   UNL     1     -12.144 -18.145  31.565  1.00  0.00     0.066 CG0
ATOM     18  G   UNL     1     -12.105 -17.010  32.562  1.00  0.00     0.000 G0
ENDBRANCH  13  17
ENDBRANCH  11  13
ENDBRANCH  10  11
ENDBRANCH   1  10
TORSDOF 0
ENDMDL
