MODEL 1
REMARK VINA RESULT:    -7.182      0.000      0.000
REMARK INTER + INTRA:          -8.965
REMARK INTER:                  -8.651
REMARK INTRA:                  -0.314
REMARK UNBOUND:                -0.314
REMARK SMILES Oc1cc(O)c2c(c1)O[C@H](c1ccc(O)c(O)c1)[C@@H](O)C2
REMARK SMILES IDX 21 1 19 2 10 3 9 4 7 5 8 6 2 7 3 8 4 9 6 10 20 11 11 13
REMARK SMILES IDX 18 14 12 15 16 16 13 17 14 18 17 19 15 21 5 23 1 25
REMARK H PARENT 20 12 17 20 15 22 5 24 1 26
REMARK Flexibility Score: inf
ROOT
ATOM      1  C   UNL     1       7.138 -36.783  44.139  1.00  0.00     0.079 C 
ATOM      2  C   UNL     1       5.738 -37.341  43.816  1.00  0.00     0.164 C 
ATOM      3  C   UNL     1       4.945 -36.316  42.987  1.00  0.00     0.232 C 
ATOM      4  O   UNL     1       4.871 -35.077  43.693  1.00  0.00    -0.482 OA
ATOM      5  C   UNL     1       5.949 -34.572  44.429  1.00  0.00     0.131 A 
ATOM      6  C   UNL     1       5.873 -33.271  44.935  1.00  0.00     0.093 A 
ATOM      7  C   UNL     1       6.939 -32.734  45.659  1.00  0.00     0.122 A 
ATOM      8  C   UNL     1       8.092 -33.499  45.871  1.00  0.00     0.092 A 
ATOM      9  C   UNL     1       8.184 -34.803  45.371  1.00  0.00     0.126 A 
ATOM     10  C   UNL     1       7.089 -35.367  44.675  1.00  0.00     0.039 A 
ENDROOT
BRANCH   2  11
ATOM     11  O   UNL     1       5.860 -38.540  43.095  1.00  0.00    -0.389 OA
ATOM     12  H   UNL     1       5.070 -38.595  42.497  1.00  0.00     0.211 HD
ENDBRANCH   2  11
BRANCH   3  13
ATOM     13  C   UNL     1       3.550 -36.816  42.693  1.00  0.00    -0.001 A 
ATOM     14  C   UNL     1       2.542 -36.716  43.666  1.00  0.00     0.057 A 
ATOM     15  C   UNL     1       3.231 -37.340  41.428  1.00  0.00     0.012 A 
ATOM     16  C   UNL     1       1.238 -37.153  43.389  1.00  0.00     0.157 A 
ATOM     17  C   UNL     1       1.934 -37.777  41.151  1.00  0.00     0.050 A 
ATOM     18  C   UNL     1       0.935 -37.688  42.125  1.00  0.00     0.157 A 
BRANCH  16  19
ATOM     19  O   UNL     1       0.245 -37.057  44.363  1.00  0.00    -0.504 OA
ATOM     20  H   UNL     1       0.364 -36.478  45.187  1.00  0.00     0.293 HD
ENDBRANCH  16  19
BRANCH  18  21
ATOM     21  O   UNL     1      -0.351 -38.132  41.819  1.00  0.00    -0.504 OA
ATOM     22  H   UNL     1      -0.515 -38.977  41.285  1.00  0.00     0.293 HD
ENDBRANCH  18  21
ENDBRANCH   3  13
BRANCH   9  23
ATOM     23  O   UNL     1       9.376 -35.501  45.576  1.00  0.00    -0.507 OA
ATOM     24  H   UNL     1      10.291 -35.091  45.440  1.00  0.00     0.293 HD
ENDBRANCH   9  23
BRANCH   7  25
ATOM     25  O   UNL     1       6.845 -31.436  46.158  1.00  0.00    -0.508 OA
ATOM     26  H   UNL     1       7.545 -31.058  46.785  1.00  0.00     0.293 HD
ENDBRANCH   7  25
TORSDOF 6
ENDMDL
MODEL 2
REMARK VINA RESULT:    -6.990      1.709      7.116
REMARK INTER + INTRA:          -8.734
REMARK INTER:                  -8.444
REMARK INTRA:                  -0.290
REMARK UNBOUND:                -0.314
REMARK SMILES Oc1cc(O)c2c(c1)O[C@H](c1ccc(O)c(O)c1)[C@@H](O)C2
REMARK SMILES IDX 21 1 19 2 10 3 9 4 7 5 8 6 2 7 3 8 4 9 6 10 20 11 11 13
REMARK SMILES IDX 18 14 12 15 16 16 13 17 14 18 17 19 15 21 5 23 1 25
REMARK H PARENT 20 12 17 20 15 22 5 24 1 26
REMARK Flexibility Score: inf
ROOT
ATOM      1  C   UNL     1       1.473 -37.021  43.875  1.00  0.00     0.079 C 
ATOM      2  C   UNL     1       2.910 -36.930  44.425  1.00  0.00     0.164 C 
ATOM      3  C   UNL     1       3.690 -35.840  43.670  1.00  0.00     0.232 C 
ATOM      4  O   UNL     1       3.675 -36.117  42.269  1.00  0.00    -0.482 OA
ATOM      5  C   UNL     1       2.544 -36.625  41.621  1.00  0.00     0.131 A 
ATOM      6  C   UNL     1       2.537 -36.693  40.225  1.00  0.00     0.093 A 
ATOM      7  C   UNL     1       1.418 -37.180  39.549  1.00  0.00     0.122 A 
ATOM      8  C   UNL     1       0.293 -37.593  40.272  1.00  0.00     0.092 A 
ATOM      9  C   UNL     1       0.283 -37.532  41.671  1.00  0.00     0.126 A 
ATOM     10  C   UNL     1       1.432 -37.080  42.362  1.00  0.00     0.039 A 
ENDROOT
BRANCH   2  11
ATOM     11  O   UNL     1       2.875 -36.625  45.795  1.00  0.00    -0.389 OA
ATOM     12  H   UNL     1       3.055 -37.472  46.281  1.00  0.00     0.211 HD
ENDBRANCH   2  11
BRANCH   3  13
ATOM     13  C   UNL     1       5.118 -35.757  44.156  1.00  0.00    -0.001 A 
ATOM     14  C   UNL     1       5.864 -36.929  44.364  1.00  0.00     0.057 A 
ATOM     15  C   UNL     1       5.732 -34.509  44.358  1.00  0.00     0.012 A 
ATOM     16  C   UNL     1       7.199 -36.858  44.789  1.00  0.00     0.157 A 
ATOM     17  C   UNL     1       7.062 -34.436  44.782  1.00  0.00     0.050 A 
ATOM     18  C   UNL     1       7.799 -35.604  45.000  1.00  0.00     0.157 A 
BRANCH  16  19
ATOM     19  O   UNL     1       7.931 -38.025  45.000  1.00  0.00    -0.504 OA
ATOM     20  H   UNL     1       8.883 -37.999  45.346  1.00  0.00     0.293 HD
ENDBRANCH  16  19
BRANCH  18  21
ATOM     21  O   UNL     1       9.123 -35.500  45.423  1.00  0.00    -0.504 OA
ATOM     22  H   UNL     1       9.474 -34.673  45.892  1.00  0.00     0.293 HD
ENDBRANCH  18  21
ENDBRANCH   3  13
BRANCH   9  23
ATOM     23  O   UNL     1      -0.883 -37.916  42.336  1.00  0.00    -0.507 OA
ATOM     24  H   UNL     1      -0.908 -38.162  43.317  1.00  0.00     0.293 HD
ENDBRANCH   9  23
BRANCH   7  25
ATOM     25  O   UNL     1       1.429 -37.243  38.157  1.00  0.00    -0.508 OA
ATOM     26  H   UNL     1       2.268 -37.484  37.644  1.00  0.00     0.293 HD
ENDBRANCH   7  25
TORSDOF 6
ENDMDL
MODEL 3
REMARK VINA RESULT:    -6.916      1.658      2.492
REMARK INTER + INTRA:          -8.645
REMARK INTER:                  -8.299
REMARK INTRA:                  -0.345
REMARK UNBOUND:                -0.314
REMARK SMILES Oc1cc(O)c2c(c1)O[C@H](c1ccc(O)c(O)c1)[C@@H](O)C2
REMARK SMILES IDX 21 1 19 2 10 3 9 4 7 5 8 6 2 7 3 8 4 9 6 10 20 11 11 13
REMARK SMILES IDX 18 14 12 15 16 16 13 17 14 18 17 19 15 21 5 23 1 25
REMARK H PARENT 20 12 17 20 15 22 5 24 1 26
REMARK Flexibility Score: inf
ROOT
ATOM      1  C   UNL     1       5.456 -38.489  43.863  1.00  0.00     0.079 C 
ATOM      2  C   UNL     1       3.940 -38.612  43.613  1.00  0.00     0.164 C 
ATOM      3  C   UNL     1       3.494 -37.562  42.582  1.00  0.00     0.232 C 
ATOM      4  O   UNL     1       3.851 -36.256  43.036  1.00  0.00    -0.482 OA
ATOM      5  C   UNL     1       5.059 -35.999  43.693  1.00  0.00     0.131 A 
ATOM      6  C   UNL     1       5.428 -34.674  43.939  1.00  0.00     0.093 A 
ATOM      7  C   UNL     1       6.635 -34.385  44.577  1.00  0.00     0.122 A 
ATOM      8  C   UNL     1       7.484 -35.427  44.965  1.00  0.00     0.092 A 
ATOM      9  C   UNL     1       7.131 -36.761  44.726  1.00  0.00     0.126 A 
ATOM     10  C   UNL     1       5.888 -37.060  44.118  1.00  0.00     0.039 A 
ENDROOT
BRANCH   2  11
ATOM     11  O   UNL     1       3.642 -39.900  43.138  1.00  0.00    -0.389 OA
ATOM     12  H   UNL     1       2.702 -40.089  43.398  1.00  0.00     0.211 HD
ENDBRANCH   2  11
BRANCH   3  13
ATOM     13  C   UNL     1       2.003 -37.627  42.348  1.00  0.00    -0.001 A 
ATOM     14  C   UNL     1       1.497 -37.789  41.047  1.00  0.00     0.057 A 
ATOM     15  C   UNL     1       1.107 -37.576  43.430  1.00  0.00     0.012 A 
ATOM     16  C   UNL     1       0.114 -37.878  40.827  1.00  0.00     0.157 A 
ATOM     17  C   UNL     1      -0.270 -37.663  43.212  1.00  0.00     0.050 A 
ATOM     18  C   UNL     1      -0.772 -37.812  41.915  1.00  0.00     0.157 A 
BRANCH  16  19
ATOM     19  O   UNL     1      -0.380 -38.031  39.533  1.00  0.00    -0.504 OA
ATOM     20  H   UNL     1      -0.117 -38.821  38.955  1.00  0.00     0.293 HD
ENDBRANCH  16  19
BRANCH  18  21
ATOM     21  O   UNL     1      -2.151 -37.897  41.729  1.00  0.00    -0.504 OA
ATOM     22  H   UNL     1      -2.747 -38.427  42.355  1.00  0.00     0.293 HD
ENDBRANCH  18  21
ENDBRANCH   3  13
BRANCH   9  23
ATOM     23  O   UNL     1       8.039 -37.756  45.094  1.00  0.00    -0.507 OA
ATOM     24  H   UNL     1       7.767 -38.709  45.298  1.00  0.00     0.293 HD
ENDBRANCH   9  23
BRANCH   7  25
ATOM     25  O   UNL     1       6.985 -33.057  44.817  1.00  0.00    -0.508 OA
ATOM     26  H   UNL     1       7.623 -32.559  44.207  1.00  0.00     0.293 HD
ENDBRANCH   7  25
TORSDOF 6
ENDMDL
MODEL 4
REMARK VINA RESULT:    -6.832      2.052      6.929
REMARK INTER + INTRA:          -8.544
REMARK INTER:                  -8.290
REMARK INTRA:                  -0.253
REMARK UNBOUND:                -0.314
REMARK SMILES Oc1cc(O)c2c(c1)O[C@H](c1ccc(O)c(O)c1)[C@@H](O)C2
REMARK SMILES IDX 21 1 19 2 10 3 9 4 7 5 8 6 2 7 3 8 4 9 6 10 20 11 11 13
REMARK SMILES IDX 18 14 12 15 16 16 13 17 14 18 17 19 15 21 5 23 1 25
REMARK H PARENT 20 12 17 20 15 22 5 24 1 26
REMARK Flexibility Score: inf
ROOT
ATOM      1  C   UNL     1       7.214 -36.552  44.941  1.00  0.00     0.079 C 
ATOM      2  C   UNL     1       7.784 -35.160  44.603  1.00  0.00     0.164 C 
ATOM      3  C   UNL     1       7.004 -34.077  45.366  1.00  0.00     0.232 C 
ATOM      4  O   UNL     1       5.614 -34.170  45.054  1.00  0.00    -0.482 OA
ATOM      5  C   UNL     1       4.965 -35.399  44.897  1.00  0.00     0.131 A 
ATOM      6  C   UNL     1       3.573 -35.420  44.781  1.00  0.00     0.093 A 
ATOM      7  C   UNL     1       2.895 -36.632  44.640  1.00  0.00     0.122 A 
ATOM      8  C   UNL     1       3.614 -37.833  44.624  1.00  0.00     0.092 A 
ATOM      9  C   UNL     1       5.009 -37.830  44.740  1.00  0.00     0.126 A 
ATOM     10  C   UNL     1       5.703 -36.601  44.839  1.00  0.00     0.039 A 
ENDROOT
BRANCH   2  11
ATOM     11  O   UNL     1       9.142 -35.106  44.956  1.00  0.00    -0.389 OA
ATOM     12  H   UNL     1       9.544 -34.366  44.431  1.00  0.00     0.211 HD
ENDBRANCH   2  11
BRANCH   3  13
ATOM     13  C   UNL     1       7.510 -32.695  45.020  1.00  0.00    -0.001 A 
ATOM     14  C   UNL     1       7.673 -31.729  46.027  1.00  0.00     0.057 A 
ATOM     15  C   UNL     1       7.870 -32.377  43.700  1.00  0.00     0.012 A 
ATOM     16  C   UNL     1       8.168 -30.454  45.716  1.00  0.00     0.157 A 
ATOM     17  C   UNL     1       8.363 -31.107  43.388  1.00  0.00     0.050 A 
ATOM     18  C   UNL     1       8.513 -30.143  44.390  1.00  0.00     0.157 A 
BRANCH  16  19
ATOM     19  O   UNL     1       8.320 -29.498  46.719  1.00  0.00    -0.504 OA
ATOM     20  H   UNL     1       8.621 -29.752  47.653  1.00  0.00     0.293 HD
ENDBRANCH  16  19
BRANCH  18  21
ATOM     21  O   UNL     1       9.007 -28.884  44.048  1.00  0.00    -0.504 OA
ATOM     22  H   UNL     1       9.951 -28.596  44.278  1.00  0.00     0.293 HD
ENDBRANCH  18  21
ENDBRANCH   3  13
BRANCH   9  23
ATOM     23  O   UNL     1       5.668 -39.062  44.763  1.00  0.00    -0.507 OA
ATOM     24  H   UNL     1       6.567 -39.219  44.328  1.00  0.00     0.293 HD
ENDBRANCH   9  23
BRANCH   7  25
ATOM     25  O   UNL     1       1.507 -36.635  44.523  1.00  0.00    -0.508 OA
ATOM     26  H   UNL     1       1.005 -35.837  44.151  1.00  0.00     0.293 HD
ENDBRANCH   7  25
TORSDOF 6
ENDMDL
MODEL 5
REMARK VINA RESULT:    -6.527      1.444      7.051
REMARK INTER + INTRA:          -8.176
REMARK INTER:                  -7.822
REMARK INTRA:                  -0.355
REMARK UNBOUND:                -0.314
REMARK SMILES Oc1cc(O)c2c(c1)O[C@H](c1ccc(O)c(O)c1)[C@@H](O)C2
REMARK SMILES IDX 21 1 19 2 10 3 9 4 7 5 8 6 2 7 3 8 4 9 6 10 20 11 11 13
REMARK SMILES IDX 18 14 12 15 16 16 13 17 14 18 17 19 15 21 5 23 1 25
REMARK H PARENT 20 12 17 20 15 22 5 24 1 26
REMARK Flexibility Score: inf
ROOT
ATOM      1  C   UNL     1       4.005 -35.835  40.755  1.00  0.00     0.079 C 
ATOM      2  C   UNL     1       4.905 -35.065  41.741  1.00  0.00     0.164 C 
ATOM      3  C   UNL     1       5.275 -35.971  42.928  1.00  0.00     0.232 C 
ATOM      4  O   UNL     1       4.088 -36.451  43.559  1.00  0.00    -0.482 OA
ATOM      5  C   UNL     1       2.954 -36.825  42.829  1.00  0.00     0.131 A 
ATOM      6  C   UNL     1       1.901 -37.461  43.493  1.00  0.00     0.093 A 
ATOM      7  C   UNL     1       0.764 -37.861  42.789  1.00  0.00     0.122 A 
ATOM      8  C   UNL     1       0.682 -37.631  41.411  1.00  0.00     0.092 A 
ATOM      9  C   UNL     1       1.727 -36.995  40.731  1.00  0.00     0.126 A 
ATOM     10  C   UNL     1       2.863 -36.549  41.448  1.00  0.00     0.039 A 
ENDROOT
BRANCH   2  11
ATOM     11  O   UNL     1       6.073 -34.642  41.085  1.00  0.00    -0.389 OA
ATOM     12  H   UNL     1       6.620 -34.161  41.760  1.00  0.00     0.211 HD
ENDBRANCH   2  11
BRANCH   3  13
ATOM     13  C   UNL     1       6.122 -35.229  43.936  1.00  0.00    -0.001 A 
ATOM     14  C   UNL     1       7.389 -35.719  44.294  1.00  0.00     0.057 A 
ATOM     15  C   UNL     1       5.674 -34.019  44.491  1.00  0.00     0.012 A 
ATOM     16  C   UNL     1       8.190 -35.021  45.208  1.00  0.00     0.157 A 
ATOM     17  C   UNL     1       6.470 -33.322  45.404  1.00  0.00     0.050 A 
ATOM     18  C   UNL     1       7.727 -33.817  45.767  1.00  0.00     0.157 A 
BRANCH  16  19
ATOM     19  O   UNL     1       9.444 -35.517  45.563  1.00  0.00    -0.504 OA
ATOM     20  H   UNL     1      10.163 -35.685  44.869  1.00  0.00     0.293 HD
ENDBRANCH  16  19
BRANCH  18  21
ATOM     21  O   UNL     1       8.499 -33.100  46.679  1.00  0.00    -0.504 OA
ATOM     22  H   UNL     1       8.141 -32.822  47.586  1.00  0.00     0.293 HD
ENDBRANCH  18  21
ENDBRANCH   3  13
BRANCH   9  23
ATOM     23  O   UNL     1       1.608 -36.834  39.348  1.00  0.00    -0.507 OA
ATOM     24  H   UNL     1       2.360 -36.499  38.761  1.00  0.00     0.293 HD
ENDBRANCH   9  23
BRANCH   7  25
ATOM     25  O   UNL     1      -0.277 -38.492  43.467  1.00  0.00    -0.508 OA
ATOM     26  H   UNL     1      -0.566 -38.193  44.391  1.00  0.00     0.293 HD
ENDBRANCH   7  25
TORSDOF 6
ENDMDL
MODEL 6
REMARK VINA RESULT:    -6.489      2.322      6.845
REMARK INTER + INTRA:          -8.131
REMARK INTER:                  -7.767
REMARK INTRA:                  -0.364
REMARK UNBOUND:                -0.314
REMARK SMILES Oc1cc(O)c2c(c1)O[C@H](c1ccc(O)c(O)c1)[C@@H](O)C2
REMARK SMILES IDX 21 1 19 2 10 3 9 4 7 5 8 6 2 7 3 8 4 9 6 10 20 11 11 13
REMARK SMILES IDX 18 14 12 15 16 16 13 17 14 18 17 19 15 21 5 23 1 25
REMARK H PARENT 20 12 17 20 15 22 5 24 1 26
REMARK Flexibility Score: inf
ROOT
ATOM      1  C   UNL     1       4.588 -35.972  42.041  1.00  0.00     0.079 C 
ATOM      2  C   UNL     1       5.181 -34.659  42.587  1.00  0.00     0.164 C 
ATOM      3  C   UNL     1       6.659 -34.868  42.960  1.00  0.00     0.232 C 
ATOM      4  O   UNL     1       6.773 -35.933  43.903  1.00  0.00    -0.482 OA
ATOM      5  C   UNL     1       5.990 -37.090  43.822  1.00  0.00     0.131 A 
ATOM      6  C   UNL     1       6.285 -38.168  44.660  1.00  0.00     0.093 A 
ATOM      7  C   UNL     1       5.532 -39.341  44.591  1.00  0.00     0.122 A 
ATOM      8  C   UNL     1       4.481 -39.440  43.672  1.00  0.00     0.092 A 
ATOM      9  C   UNL     1       4.172 -38.370  42.825  1.00  0.00     0.126 A 
ATOM     10  C   UNL     1       4.905 -37.163  42.921  1.00  0.00     0.039 A 
ENDROOT
BRANCH   2  11
ATOM     11  O   UNL     1       5.075 -33.651  41.616  1.00  0.00    -0.389 OA
ATOM     12  H   UNL     1       4.699 -32.853  42.072  1.00  0.00     0.211 HD
ENDBRANCH   2  11
BRANCH   3  13
ATOM     13  C   UNL     1       7.257 -33.608  43.542  1.00  0.00    -0.001 A 
ATOM     14  C   UNL     1       6.676 -33.004  44.669  1.00  0.00     0.057 A 
ATOM     15  C   UNL     1       8.427 -33.055  42.994  1.00  0.00     0.012 A 
ATOM     16  C   UNL     1       7.243 -31.850  45.230  1.00  0.00     0.157 A 
ATOM     17  C   UNL     1       8.993 -31.905  43.551  1.00  0.00     0.050 A 
ATOM     18  C   UNL     1       8.406 -31.299  44.666  1.00  0.00     0.157 A 
BRANCH  16  19
ATOM     19  O   UNL     1       6.657 -31.252  46.345  1.00  0.00    -0.504 OA
ATOM     20  H   UNL     1       7.210 -30.957  47.141  1.00  0.00     0.293 HD
ENDBRANCH  16  19
BRANCH  18  21
ATOM     21  O   UNL     1       8.993 -30.152  45.200  1.00  0.00    -0.504 OA
ATOM     22  H   UNL     1       9.153 -29.320  44.644  1.00  0.00     0.293 HD
ENDBRANCH  18  21
ENDBRANCH   3  13
BRANCH   9  23
ATOM     23  O   UNL     1       3.142 -38.543  41.897  1.00  0.00    -0.507 OA
ATOM     24  H   UNL     1       3.216 -38.268  40.927  1.00  0.00     0.293 HD
ENDBRANCH   9  23
BRANCH   7  25
ATOM     25  O   UNL     1       5.839 -40.406  45.436  1.00  0.00    -0.508 OA
ATOM     26  H   UNL     1       6.600 -40.351  46.102  1.00  0.00     0.293 HD
ENDBRANCH   7  25
TORSDOF 6
ENDMDL
MODEL 7
REMARK VINA RESULT:    -6.410      1.886      7.282
REMARK INTER + INTRA:          -8.035
REMARK INTER:                  -7.669
REMARK INTRA:                  -0.366
REMARK UNBOUND:                -0.314
REMARK SMILES Oc1cc(O)c2c(c1)O[C@H](c1ccc(O)c(O)c1)[C@@H](O)C2
REMARK SMILES IDX 21 1 19 2 10 3 9 4 7 5 8 6 2 7 3 8 4 9 6 10 20 11 11 13
REMARK SMILES IDX 18 14 12 15 16 16 13 17 14 18 17 19 15 21 5 23 1 25
REMARK H PARENT 20 12 17 20 15 22 5 24 1 26
REMARK Flexibility Score: inf
ROOT
ATOM      1  C   UNL     1       3.025 -37.121  39.827  1.00  0.00     0.079 C 
ATOM      2  C   UNL     1       3.999 -36.425  40.796  1.00  0.00     0.164 C 
ATOM      3  C   UNL     1       4.014 -37.166  42.144  1.00  0.00     0.232 C 
ATOM      4  O   UNL     1       2.691 -37.228  42.677  1.00  0.00    -0.482 OA
ATOM      5  C   UNL     1       1.570 -37.445  41.868  1.00  0.00     0.131 A 
ATOM      6  C   UNL     1       0.333 -37.683  42.474  1.00  0.00     0.093 A 
ATOM      7  C   UNL     1      -0.800 -37.918  41.694  1.00  0.00     0.122 A 
ATOM      8  C   UNL     1      -0.694 -37.925  40.298  1.00  0.00     0.092 A 
ATOM      9  C   UNL     1       0.537 -37.689  39.675  1.00  0.00     0.126 A 
ATOM     10  C   UNL     1       1.679 -37.407  40.461  1.00  0.00     0.039 A 
ENDROOT
BRANCH   2  11
ATOM     11  O   UNL     1       5.291 -36.417  40.245  1.00  0.00    -0.389 OA
ATOM     12  H   UNL     1       5.291 -35.729  39.529  1.00  0.00     0.211 HD
ENDBRANCH   2  11
BRANCH   3  13
ATOM     13  C   UNL     1       4.928 -36.480  43.133  1.00  0.00    -0.001 A 
ATOM     14  C   UNL     1       6.073 -37.137  43.612  1.00  0.00     0.057 A 
ATOM     15  C   UNL     1       4.670 -35.162  43.548  1.00  0.00     0.012 A 
ATOM     16  C   UNL     1       6.939 -36.495  44.509  1.00  0.00     0.157 A 
ATOM     17  C   UNL     1       5.531 -34.521  44.442  1.00  0.00     0.050 A 
ATOM     18  C   UNL     1       6.665 -35.182  44.927  1.00  0.00     0.157 A 
BRANCH  16  19
ATOM     19  O   UNL     1       8.070 -37.157  44.985  1.00  0.00    -0.504 OA
ATOM     20  H   UNL     1       8.763 -36.682  45.553  1.00  0.00     0.293 HD
ENDBRANCH  16  19
BRANCH  18  21
ATOM     21  O   UNL     1       7.506 -34.517  45.818  1.00  0.00    -0.504 OA
ATOM     22  H   UNL     1       8.141 -35.014  46.431  1.00  0.00     0.293 HD
ENDBRANCH  18  21
ENDBRANCH   3  13
BRANCH   9  23
ATOM     23  O   UNL     1       0.589 -37.754  38.280  1.00  0.00    -0.507 OA
ATOM     24  H   UNL     1       1.232 -38.349  37.775  1.00  0.00     0.293 HD
ENDBRANCH   9  23
BRANCH   7  25
ATOM     25  O   UNL     1      -2.026 -38.151  42.314  1.00  0.00    -0.508 OA
ATOM     26  H   UNL     1      -2.861 -37.648  42.042  1.00  0.00     0.293 HD
ENDBRANCH   7  25
TORSDOF 6
ENDMDL
MODEL 8
REMARK VINA RESULT:    -6.372      1.685      6.682
REMARK INTER + INTRA:          -7.990
REMARK INTER:                  -7.637
REMARK INTRA:                  -0.352
REMARK UNBOUND:                -0.314
REMARK SMILES Oc1cc(O)c2c(c1)O[C@H](c1ccc(O)c(O)c1)[C@@H](O)C2
REMARK SMILES IDX 21 1 19 2 10 3 9 4 7 5 8 6 2 7 3 8 4 9 6 10 20 11 11 13
REMARK SMILES IDX 18 14 12 15 16 16 13 17 14 18 17 19 15 21 5 23 1 25
REMARK H PARENT 20 12 17 20 15 22 5 24 1 26
REMARK Flexibility Score: inf
ROOT
ATOM      1  C   UNL     1       6.876 -37.276  44.873  1.00  0.00     0.079 C 
ATOM      2  C   UNL     1       7.465 -35.876  44.613  1.00  0.00     0.164 C 
ATOM      3  C   UNL     1       6.437 -34.797  44.995  1.00  0.00     0.232 C 
ATOM      4  O   UNL     1       5.225 -35.005  44.268  1.00  0.00    -0.482 OA
ATOM      5  C   UNL     1       4.713 -36.284  44.022  1.00  0.00     0.131 A 
ATOM      6  C   UNL     1       3.433 -36.407  43.474  1.00  0.00     0.093 A 
ATOM      7  C   UNL     1       2.889 -37.669  43.232  1.00  0.00     0.122 A 
ATOM      8  C   UNL     1       3.625 -38.816  43.548  1.00  0.00     0.092 A 
ATOM      9  C   UNL     1       4.908 -38.711  44.097  1.00  0.00     0.126 A 
ATOM     10  C   UNL     1       5.481 -37.434  44.304  1.00  0.00     0.039 A 
ENDROOT
BRANCH   2  11
ATOM     11  O   UNL     1       8.635 -35.705  45.371  1.00  0.00    -0.389 OA
ATOM     12  H   UNL     1       8.444 -36.069  46.275  1.00  0.00     0.211 HD
ENDBRANCH   2  11
BRANCH   3  13
ATOM     13  C   UNL     1       6.968 -33.412  44.709  1.00  0.00    -0.001 A 
ATOM     14  C   UNL     1       7.036 -32.454  45.734  1.00  0.00     0.057 A 
ATOM     15  C   UNL     1       7.445 -33.080  43.429  1.00  0.00     0.012 A 
ATOM     16  C   UNL     1       7.554 -31.175  45.481  1.00  0.00     0.157 A 
ATOM     17  C   UNL     1       7.961 -31.807  43.174  1.00  0.00     0.050 A 
ATOM     18  C   UNL     1       8.016 -30.851  44.194  1.00  0.00     0.157 A 
BRANCH  16  19
ATOM     19  O   UNL     1       7.612 -30.228  46.502  1.00  0.00    -0.504 OA
ATOM     20  H   UNL     1       7.449 -30.482  47.470  1.00  0.00     0.293 HD
ENDBRANCH  16  19
BRANCH  18  21
ATOM     21  O   UNL     1       8.536 -29.589  43.910  1.00  0.00    -0.504 OA
ATOM     22  H   UNL     1       7.952 -28.828  43.584  1.00  0.00     0.293 HD
ENDBRANCH  18  21
ENDBRANCH   3  13
BRANCH   9  23
ATOM     23  O   UNL     1       5.576 -39.891  44.433  1.00  0.00    -0.507 OA
ATOM     24  H   UNL     1       5.270 -40.808  44.136  1.00  0.00     0.293 HD
ENDBRANCH   9  23
BRANCH   7  25
ATOM     25  O   UNL     1       1.612 -37.773  42.683  1.00  0.00    -0.508 OA
ATOM     26  H   UNL     1       1.432 -37.541  41.713  1.00  0.00     0.293 HD
ENDBRANCH   7  25
TORSDOF 6
ENDMDL
MODEL 9
REMARK VINA RESULT:    -6.260      7.101     12.260
REMARK INTER + INTRA:          -7.855
REMARK INTER:                  -7.480
REMARK INTRA:                  -0.375
REMARK UNBOUND:                -0.314
REMARK SMILES Oc1cc(O)c2c(c1)O[C@H](c1ccc(O)c(O)c1)[C@@H](O)C2
REMARK SMILES IDX 21 1 19 2 10 3 9 4 7 5 8 6 2 7 3 8 4 9 6 10 20 11 11 13
REMARK SMILES IDX 18 14 12 15 16 16 13 17 14 18 17 19 15 21 5 23 1 25
REMARK H PARENT 20 12 17 20 15 22 5 24 1 26
REMARK Flexibility Score: inf
ROOT
ATOM      1  C   UNL     1       8.682 -28.416  45.806  1.00  0.00     0.079 C 
ATOM      2  C   UNL     1       9.801 -27.361  45.901  1.00  0.00     0.164 C 
ATOM      3  C   UNL     1      10.274 -26.973  44.489  1.00  0.00     0.232 C 
ATOM      4  O   UNL     1      10.702 -28.139  43.785  1.00  0.00    -0.482 OA
ATOM      5  C   UNL     1      10.037 -29.365  43.895  1.00  0.00     0.131 A 
ATOM      6  C   UNL     1      10.392 -30.409  43.037  1.00  0.00     0.093 A 
ATOM      7  C   UNL     1       9.736 -31.638  43.113  1.00  0.00     0.122 A 
ATOM      8  C   UNL     1       8.709 -31.822  44.046  1.00  0.00     0.092 A 
ATOM      9  C   UNL     1       8.340 -30.787  44.913  1.00  0.00     0.126 A 
ATOM     10  C   UNL     1       9.033 -29.554  44.870  1.00  0.00     0.039 A 
ENDROOT
BRANCH   2  11
ATOM     11  O   UNL     1       9.325 -26.223  46.571  1.00  0.00    -0.389 OA
ATOM     12  H   UNL     1       8.438 -26.463  46.946  1.00  0.00     0.211 HD
ENDBRANCH   2  11
BRANCH   3  13
ATOM     13  C   UNL     1      11.404 -25.972  44.549  1.00  0.00    -0.001 A 
ATOM     14  C   UNL     1      12.650 -26.342  45.082  1.00  0.00     0.057 A 
ATOM     15  C   UNL     1      11.239 -24.677  44.028  1.00  0.00     0.012 A 
ATOM     16  C   UNL     1      13.711 -25.426  45.115  1.00  0.00     0.157 A 
ATOM     17  C   UNL     1      12.295 -23.763  44.061  1.00  0.00     0.050 A 
ATOM     18  C   UNL     1      13.531 -24.130  44.604  1.00  0.00     0.157 A 
BRANCH  16  19
ATOM     19  O   UNL     1      14.942 -25.799  45.653  1.00  0.00    -0.504 OA
ATOM     20  H   UNL     1      15.554 -26.450  45.174  1.00  0.00     0.293 HD
ENDBRANCH  16  19
BRANCH  18  21
ATOM     21  O   UNL     1      14.566 -23.196  44.623  1.00  0.00    -0.504 OA
ATOM     22  H   UNL     1      15.344 -23.268  45.268  1.00  0.00     0.293 HD
ENDBRANCH  18  21
ENDBRANCH   3  13
BRANCH   9  23
ATOM     23  O   UNL     1       7.279 -31.015  45.793  1.00  0.00    -0.507 OA
ATOM     24  H   UNL     1       6.326 -30.737  45.598  1.00  0.00     0.293 HD
ENDBRANCH   9  23
BRANCH   7  25
ATOM     25  O   UNL     1      10.105 -32.669  42.251  1.00  0.00    -0.508 OA
ATOM     26  H   UNL     1       9.780 -32.699  41.292  1.00  0.00     0.293 HD
ENDBRANCH   7  25
TORSDOF 6
ENDMDL
