MODEL 1
REMARK VINA RESULT:    -5.363      0.000      0.000
REMARK INTER + INTRA:          -6.773
REMARK INTER:                  -6.461
REMARK INTRA:                  -0.312
REMARK UNBOUND:                -0.312
REMARK SMILES O=c1c(O)c(-c2ccc(O)c(O)c2)oc2cc(O)cc(O)c12
REMARK SMILES IDX 5 1 3 2 2 3 1 4 22 5 20 6 19 7 17 8 16 9 15 10 14 11 6 12
REMARK SMILES IDX 7 13 8 14 9 15 13 16 11 17 10 18 12 20 4 22 21 24 18 26
REMARK H PARENT 10 19 12 21 4 23 21 25 18 27
REMARK Flexibility Score: inf
ROOT
ATOM      1  C   UNL     1      75.752  89.766  11.857  1.00  0.00     0.180 A 
ATOM      2  C   UNL     1      76.015  90.997  12.483  1.00  0.00     0.208 A 
ATOM      3  C   UNL     1      74.979  91.939  12.596  1.00  0.00     0.238 A 
ATOM      4  O   UNL     1      75.205  93.016  13.206  1.00  0.00    -0.285 OA
ATOM      5  C   UNL     1      73.699  91.645  12.066  1.00  0.00     0.111 A 
ATOM      6  C   UNL     1      72.588  92.540  12.087  1.00  0.00     0.134 A 
ATOM      7  C   UNL     1      71.334  92.097  11.652  1.00  0.00     0.093 A 
ATOM      8  C   UNL     1      71.166  90.809  11.133  1.00  0.00     0.123 A 
ATOM      9  C   UNL     1      72.257  89.949  11.053  1.00  0.00     0.094 A 
ATOM     10  C   UNL     1      73.513  90.351  11.514  1.00  0.00     0.146 A 
ATOM     11  O   UNL     1      74.525  89.495  11.429  1.00  0.00    -0.452 OA
ENDROOT
BRANCH   1  12
ATOM     12  C   UNL     1      76.798  88.734  11.678  1.00  0.00     0.025 A 
ATOM     13  C   UNL     1      77.109  87.823  12.703  1.00  0.00     0.016 A 
ATOM     14  C   UNL     1      78.117  86.872  12.521  1.00  0.00     0.051 A 
ATOM     15  C   UNL     1      78.837  86.825  11.321  1.00  0.00     0.157 A 
ATOM     16  C   UNL     1      77.537  88.697  10.485  1.00  0.00     0.062 A 
ATOM     17  C   UNL     1      78.547  87.745  10.299  1.00  0.00     0.158 A 
BRANCH  15  18
ATOM     18  O   UNL     1      79.841  85.875  11.141  1.00  0.00    -0.504 OA
ATOM     19  H   UNL     1      80.623  85.802  11.783  1.00  0.00     0.293 HD
ENDBRANCH  15  18
BRANCH  17  20
ATOM     20  O   UNL     1      79.251  87.730   9.094  1.00  0.00    -0.504 OA
ATOM     21  H   UNL     1      79.907  88.461   8.847  1.00  0.00     0.293 HD
ENDBRANCH  17  20
ENDBRANCH   1  12
BRANCH   2  22
ATOM     22  O   UNL     1      77.280  91.258  13.018  1.00  0.00    -0.502 OA
ATOM     23  H   UNL     1      77.430  91.943  13.748  1.00  0.00     0.293 HD
ENDBRANCH   2  22
BRANCH   6  24
ATOM     24  O   UNL     1      72.669  93.875  12.499  1.00  0.00    -0.507 OA
ATOM     25  H   UNL     1      72.606  94.670  11.882  1.00  0.00     0.293 HD
ENDBRANCH   6  24
BRANCH   8  26
ATOM     26  O   UNL     1      69.919  90.380  10.688  1.00  0.00    -0.508 OA
ATOM     27  H   UNL     1      69.066  90.629  11.176  1.00  0.00     0.293 HD
ENDBRANCH   8  26
TORSDOF 6
ENDMDL
MODEL 2
REMARK VINA RESULT:    -5.312      2.824      7.448
REMARK INTER + INTRA:          -6.711
REMARK INTER:                  -6.469
REMARK INTRA:                  -0.242
REMARK UNBOUND:                -0.312
REMARK SMILES O=c1c(O)c(-c2ccc(O)c(O)c2)oc2cc(O)cc(O)c12
REMARK SMILES IDX 5 1 3 2 2 3 1 4 22 5 20 6 19 7 17 8 16 9 15 10 14 11 6 12
REMARK SMILES IDX 7 13 8 14 9 15 13 16 11 17 10 18 12 20 4 22 21 24 18 26
REMARK H PARENT 10 19 12 21 4 23 21 25 18 27
REMARK Flexibility Score: inf
ROOT
ATOM      1  C   UNL     1      77.359  88.485  10.721  1.00  0.00     0.180 A 
ATOM      2  C   UNL     1      76.462  88.009   9.749  1.00  0.00     0.208 A 
ATOM      3  C   UNL     1      76.959  87.255   8.673  1.00  0.00     0.238 A 
ATOM      4  O   UNL     1      76.145  86.785   7.837  1.00  0.00    -0.285 OA
ATOM      5  C   UNL     1      78.348  87.001   8.575  1.00  0.00     0.111 A 
ATOM      6  C   UNL     1      78.967  86.285   7.506  1.00  0.00     0.134 A 
ATOM      7  C   UNL     1      80.332  85.980   7.577  1.00  0.00     0.093 A 
ATOM      8  C   UNL     1      81.114  86.425   8.647  1.00  0.00     0.123 A 
ATOM      9  C   UNL     1      80.531  87.176   9.664  1.00  0.00     0.094 A 
ATOM     10  C   UNL     1      79.164  87.464   9.639  1.00  0.00     0.146 A 
ATOM     11  O   UNL     1      78.647  88.174  10.634  1.00  0.00    -0.452 OA
ENDROOT
BRANCH   1  12
ATOM     12  C   UNL     1      76.914  89.306  11.869  1.00  0.00     0.025 A 
ATOM     13  C   UNL     1      76.834  88.769  13.166  1.00  0.00     0.016 A 
ATOM     14  C   UNL     1      76.387  89.556  14.231  1.00  0.00     0.051 A 
ATOM     15  C   UNL     1      76.004  90.886  14.015  1.00  0.00     0.157 A 
ATOM     16  C   UNL     1      76.507  90.633  11.654  1.00  0.00     0.062 A 
ATOM     17  C   UNL     1      76.061  91.425  12.719  1.00  0.00     0.158 A 
BRANCH  15  18
ATOM     18  O   UNL     1      75.561  91.670  15.079  1.00  0.00    -0.504 OA
ATOM     19  H   UNL     1      76.207  92.200  15.652  1.00  0.00     0.293 HD
ENDBRANCH  15  18
BRANCH  17  20
ATOM     20  O   UNL     1      75.679  92.743  12.469  1.00  0.00    -0.504 OA
ATOM     21  H   UNL     1      76.218  93.354  11.867  1.00  0.00     0.293 HD
ENDBRANCH  17  20
ENDBRANCH   1  12
BRANCH   2  22
ATOM     22  O   UNL     1      75.091  88.252   9.878  1.00  0.00    -0.502 OA
ATOM     23  H   UNL     1      74.513  87.762  10.550  1.00  0.00     0.293 HD
ENDBRANCH   2  22
BRANCH   6  24
ATOM     24  O   UNL     1      78.296  85.875   6.349  1.00  0.00    -0.507 OA
ATOM     25  H   UNL     1      77.593  86.417   5.871  1.00  0.00     0.293 HD
ENDBRANCH   6  24
BRANCH   8  26
ATOM     26  O   UNL     1      82.474  86.132   8.703  1.00  0.00    -0.508 OA
ATOM     27  H   UNL     1      82.987  86.156   9.577  1.00  0.00     0.293 HD
ENDBRANCH   8  26
TORSDOF 6
ENDMDL
MODEL 3
REMARK VINA RESULT:    -5.308      1.212      1.261
REMARK INTER + INTRA:          -6.706
REMARK INTER:                  -6.743
REMARK INTRA:                   0.037
REMARK UNBOUND:                -0.312
REMARK SMILES O=c1c(O)c(-c2ccc(O)c(O)c2)oc2cc(O)cc(O)c12
REMARK SMILES IDX 5 1 3 2 2 3 1 4 22 5 20 6 19 7 17 8 16 9 15 10 14 11 6 12
REMARK SMILES IDX 7 13 8 14 9 15 13 16 11 17 10 18 12 20 4 22 21 24 18 26
REMARK H PARENT 10 19 12 21 4 23 21 25 18 27
REMARK Flexibility Score: inf
ROOT
ATOM      1  C   UNL     1      75.528  90.023  11.568  1.00  0.00     0.180 A 
ATOM      2  C   UNL     1      75.939  90.839  12.637  1.00  0.00     0.208 A 
ATOM      3  C   UNL     1      75.087  91.865  13.076  1.00  0.00     0.238 A 
ATOM      4  O   UNL     1      75.435  92.557  14.068  1.00  0.00    -0.285 OA
ATOM      5  C   UNL     1      73.844  92.073  12.430  1.00  0.00     0.111 A 
ATOM      6  C   UNL     1      72.920  93.108  12.765  1.00  0.00     0.134 A 
ATOM      7  C   UNL     1      71.663  93.140  12.149  1.00  0.00     0.093 A 
ATOM      8  C   UNL     1      71.323  92.211  11.160  1.00  0.00     0.123 A 
ATOM      9  C   UNL     1      72.241  91.234  10.785  1.00  0.00     0.094 A 
ATOM     10  C   UNL     1      73.488  91.156  11.408  1.00  0.00     0.146 A 
ATOM     11  O   UNL     1      74.329  90.201  11.027  1.00  0.00    -0.452 OA
ENDROOT
BRANCH   1  12
ATOM     12  C   UNL     1      76.382  88.937  11.033  1.00  0.00     0.025 A 
ATOM     13  C   UNL     1      75.887  87.632  10.868  1.00  0.00     0.016 A 
ATOM     14  C   UNL     1      76.718  86.617  10.385  1.00  0.00     0.051 A 
ATOM     15  C   UNL     1      78.056  86.888  10.070  1.00  0.00     0.157 A 
ATOM     16  C   UNL     1      77.729  89.199  10.737  1.00  0.00     0.062 A 
ATOM     17  C   UNL     1      78.564  88.186  10.251  1.00  0.00     0.158 A 
BRANCH  15  18
ATOM     18  O   UNL     1      78.881  85.875   9.586  1.00  0.00    -0.504 OA
ATOM     19  H   UNL     1      78.991  85.710   8.592  1.00  0.00     0.293 HD
ENDBRANCH  15  18
BRANCH  17  20
ATOM     20  O   UNL     1      79.893  88.487   9.954  1.00  0.00    -0.504 OA
ATOM     21  H   UNL     1      80.422  87.964   9.268  1.00  0.00     0.293 HD
ENDBRANCH  17  20
ENDBRANCH   1  12
BRANCH   2  22
ATOM     22  O   UNL     1      77.161  90.602  13.273  1.00  0.00    -0.502 OA
ATOM     23  H   UNL     1      77.475  89.671  13.517  1.00  0.00     0.293 HD
ENDBRANCH   2  22
BRANCH   6  24
ATOM     24  O   UNL     1      73.196  94.138  13.671  1.00  0.00    -0.507 OA
ATOM     25  H   UNL     1      73.810  94.916  13.486  1.00  0.00     0.293 HD
ENDBRANCH   6  24
BRANCH   8  26
ATOM     26  O   UNL     1      70.077  92.258  10.540  1.00  0.00    -0.508 OA
ATOM     27  H   UNL     1      69.274  92.677  10.995  1.00  0.00     0.293 HD
ENDBRANCH   8  26
TORSDOF 6
ENDMDL
MODEL 4
REMARK VINA RESULT:    -4.869      2.000      3.414
REMARK INTER + INTRA:          -6.177
REMARK INTER:                  -5.847
REMARK INTRA:                  -0.330
REMARK UNBOUND:                -0.312
REMARK SMILES O=c1c(O)c(-c2ccc(O)c(O)c2)oc2cc(O)cc(O)c12
REMARK SMILES IDX 5 1 3 2 2 3 1 4 22 5 20 6 19 7 17 8 16 9 15 10 14 11 6 12
REMARK SMILES IDX 7 13 8 14 9 15 13 16 11 17 10 18 12 20 4 22 21 24 18 26
REMARK H PARENT 10 19 12 21 4 23 21 25 18 27
REMARK Flexibility Score: inf
ROOT
ATOM      1  C   UNL     1      75.756  88.360  10.695  1.00  0.00     0.180 A 
ATOM      2  C   UNL     1      74.680  87.566  11.126  1.00  0.00     0.208 A 
ATOM      3  C   UNL     1      73.625  88.170  11.829  1.00  0.00     0.238 A 
ATOM      4  O   UNL     1      72.639  87.465  12.164  1.00  0.00    -0.285 OA
ATOM      5  C   UNL     1      73.670  89.558  12.107  1.00  0.00     0.111 A 
ATOM      6  C   UNL     1      72.677  90.268  12.848  1.00  0.00     0.134 A 
ATOM      7  C   UNL     1      72.756  91.662  12.950  1.00  0.00     0.093 A 
ATOM      8  C   UNL     1      73.830  92.365  12.395  1.00  0.00     0.123 A 
ATOM      9  C   UNL     1      74.834  91.674  11.722  1.00  0.00     0.094 A 
ATOM     10  C   UNL     1      74.763  90.287  11.573  1.00  0.00     0.146 A 
ATOM     11  O   UNL     1      75.737  89.669  10.915  1.00  0.00    -0.452 OA
ENDROOT
BRANCH   1  12
ATOM     12  C   UNL     1      76.915  87.791   9.971  1.00  0.00     0.025 A 
ATOM     13  C   UNL     1      78.056  87.338  10.656  1.00  0.00     0.016 A 
ATOM     14  C   UNL     1      79.149  86.827   9.950  1.00  0.00     0.051 A 
ATOM     15  C   UNL     1      79.123  86.771   8.551  1.00  0.00     0.157 A 
ATOM     16  C   UNL     1      76.903  87.752   8.567  1.00  0.00     0.062 A 
ATOM     17  C   UNL     1      77.994  87.239   7.856  1.00  0.00     0.158 A 
BRANCH  15  18
ATOM     18  O   UNL     1      80.212  86.259   7.849  1.00  0.00    -0.504 OA
ATOM     19  H   UNL     1      80.301  85.267   7.657  1.00  0.00     0.293 HD
ENDBRANCH  15  18
BRANCH  17  20
ATOM     20  O   UNL     1      77.939  87.204   6.463  1.00  0.00    -0.504 OA
ATOM     21  H   UNL     1      77.410  86.500   5.963  1.00  0.00     0.293 HD
ENDBRANCH  17  20
ENDBRANCH   1  12
BRANCH   2  22
ATOM     22  O   UNL     1      74.646  86.202  10.822  1.00  0.00    -0.502 OA
ATOM     23  H   UNL     1      75.322  85.545  11.194  1.00  0.00     0.293 HD
ENDBRANCH   2  22
BRANCH   6  24
ATOM     24  O   UNL     1      71.615  89.653  13.519  1.00  0.00    -0.507 OA
ATOM     25  H   UNL     1      70.940  90.137  14.091  1.00  0.00     0.293 HD
ENDBRANCH   6  24
BRANCH   8  26
ATOM     26  O   UNL     1      73.910  93.750  12.515  1.00  0.00    -0.508 OA
ATOM     27  H   UNL     1      73.450  94.367  11.855  1.00  0.00     0.293 HD
ENDBRANCH   8  26
TORSDOF 6
ENDMDL
MODEL 5
REMARK VINA RESULT:    -4.860     10.083     14.407
REMARK INTER + INTRA:          -6.167
REMARK INTER:                  -5.940
REMARK INTRA:                  -0.227
REMARK UNBOUND:                -0.312
REMARK SMILES O=c1c(O)c(-c2ccc(O)c(O)c2)oc2cc(O)cc(O)c12
REMARK SMILES IDX 5 1 3 2 2 3 1 4 22 5 20 6 19 7 17 8 16 9 15 10 14 11 6 12
REMARK SMILES IDX 7 13 8 14 9 15 13 16 11 17 10 18 12 20 4 22 21 24 18 26
REMARK H PARENT 10 19 12 21 4 23 21 25 18 27
REMARK Flexibility Score: inf
ROOT
ATOM      1  C   UNL     1      68.167 100.644   7.438  1.00  0.00     0.180 A 
ATOM      2  C   UNL     1      68.741 101.413   8.465  1.00  0.00     0.208 A 
ATOM      3  C   UNL     1      69.481 100.766   9.468  1.00  0.00     0.238 A 
ATOM      4  O   UNL     1      70.039 101.464  10.354  1.00  0.00    -0.285 OA
ATOM      5  C   UNL     1      69.623  99.357   9.440  1.00  0.00     0.111 A 
ATOM      6  C   UNL     1      70.316  98.593  10.426  1.00  0.00     0.134 A 
ATOM      7  C   UNL     1      70.506  97.220  10.230  1.00  0.00     0.093 A 
ATOM      8  C   UNL     1      69.968  96.572   9.113  1.00  0.00     0.123 A 
ATOM      9  C   UNL     1      69.240  97.299   8.176  1.00  0.00     0.094 A 
ATOM     10  C   UNL     1      69.065  98.676   8.327  1.00  0.00     0.146 A 
ATOM     11  O   UNL     1      68.373  99.333   7.404  1.00  0.00    -0.452 OA
ENDROOT
BRANCH   1  12
ATOM     12  C   UNL     1      67.353 101.252   6.361  1.00  0.00     0.025 A 
ATOM     13  C   UNL     1      65.964 101.047   6.289  1.00  0.00     0.016 A 
ATOM     14  C   UNL     1      65.219 101.610   5.249  1.00  0.00     0.051 A 
ATOM     15  C   UNL     1      65.851 102.375   4.260  1.00  0.00     0.157 A 
ATOM     16  C   UNL     1      67.985 102.001   5.355  1.00  0.00     0.062 A 
ATOM     17  C   UNL     1      67.242 102.568   4.313  1.00  0.00     0.158 A 
BRANCH  15  18
ATOM     18  O   UNL     1      65.106 102.937   3.225  1.00  0.00    -0.504 OA
ATOM     19  H   UNL     1      64.734 102.371   2.472  1.00  0.00     0.293 HD
ENDBRANCH  15  18
BRANCH  17  20
ATOM     20  O   UNL     1      67.903 103.318   3.340  1.00  0.00    -0.504 OA
ATOM     21  H   UNL     1      68.054 104.314   3.440  1.00  0.00     0.293 HD
ENDBRANCH  17  20
ENDBRANCH   1  12
BRANCH   2  22
ATOM     22  O   UNL     1      68.607 102.804   8.461  1.00  0.00    -0.502 OA
ATOM     23  H   UNL     1      67.783 103.270   8.100  1.00  0.00     0.293 HD
ENDBRANCH   2  22
BRANCH   6  24
ATOM     24  O   UNL     1      70.811  99.125  11.621  1.00  0.00    -0.507 OA
ATOM     25  H   UNL     1      71.168  98.578  12.389  1.00  0.00     0.293 HD
ENDBRANCH   6  24
BRANCH   8  26
ATOM     26  O   UNL     1      70.148  95.203   8.932  1.00  0.00    -0.508 OA
ATOM     27  H   UNL     1      71.017  94.824   8.573  1.00  0.00     0.293 HD
ENDBRANCH   8  26
TORSDOF 6
ENDMDL
MODEL 6
REMARK VINA RESULT:    -4.783      9.747     13.241
REMARK INTER + INTRA:          -6.073
REMARK INTER:                  -5.806
REMARK INTRA:                  -0.267
REMARK UNBOUND:                -0.312
REMARK SMILES O=c1c(O)c(-c2ccc(O)c(O)c2)oc2cc(O)cc(O)c12
REMARK SMILES IDX 5 1 3 2 2 3 1 4 22 5 20 6 19 7 17 8 16 9 15 10 14 11 6 12
REMARK SMILES IDX 7 13 8 14 9 15 13 16 11 17 10 18 12 20 4 22 21 24 18 26
REMARK H PARENT 10 19 12 21 4 23 21 25 18 27
REMARK Flexibility Score: inf
ROOT
ATOM      1  C   UNL     1      81.569  87.184   0.861  1.00  0.00     0.180 A 
ATOM      2  C   UNL     1      82.847  87.323   1.429  1.00  0.00     0.208 A 
ATOM      3  C   UNL     1      82.991  87.203   2.821  1.00  0.00     0.238 A 
ATOM      4  O   UNL     1      84.144  87.274   3.318  1.00  0.00    -0.285 OA
ATOM      5  C   UNL     1      81.852  86.962   3.627  1.00  0.00     0.111 A 
ATOM      6  C   UNL     1      81.874  86.863   5.051  1.00  0.00     0.134 A 
ATOM      7  C   UNL     1      80.712  86.493   5.737  1.00  0.00     0.093 A 
ATOM      8  C   UNL     1      79.510  86.283   5.054  1.00  0.00     0.123 A 
ATOM      9  C   UNL     1      79.465  86.435   3.671  1.00  0.00     0.094 A 
ATOM     10  C   UNL     1      80.617  86.769   2.957  1.00  0.00     0.146 A 
ATOM     11  O   UNL     1      80.532  86.893   1.637  1.00  0.00    -0.452 OA
ENDROOT
BRANCH   1  12
ATOM     12  C   UNL     1      81.335  87.322  -0.595  1.00  0.00     0.025 A 
ATOM     13  C   UNL     1      81.151  86.196  -1.416  1.00  0.00     0.016 A 
ATOM     14  C   UNL     1      80.956  86.349  -2.792  1.00  0.00     0.051 A 
ATOM     15  C   UNL     1      80.953  87.625  -3.368  1.00  0.00     0.157 A 
ATOM     16  C   UNL     1      81.353  88.598  -1.181  1.00  0.00     0.062 A 
ATOM     17  C   UNL     1      81.156  88.755  -2.558  1.00  0.00     0.158 A 
BRANCH  15  18
ATOM     18  O   UNL     1      80.756  87.775  -4.740  1.00  0.00    -0.504 OA
ATOM     19  H   UNL     1      80.655  86.973  -5.352  1.00  0.00     0.293 HD
ENDBRANCH  15  18
BRANCH  17  20
ATOM     20  O   UNL     1      81.167  90.040  -3.101  1.00  0.00    -0.504 OA
ATOM     21  H   UNL     1      81.279  90.202  -4.095  1.00  0.00     0.293 HD
ENDBRANCH  17  20
ENDBRANCH   1  12
BRANCH   2  22
ATOM     22  O   UNL     1      83.960  87.539   0.611  1.00  0.00    -0.502 OA
ATOM     23  H   UNL     1      84.133  88.425   0.152  1.00  0.00     0.293 HD
ENDBRANCH   2  22
BRANCH   6  24
ATOM     24  O   UNL     1      82.998  87.143   5.836  1.00  0.00    -0.507 OA
ATOM     25  H   UNL     1      83.866  87.518   5.483  1.00  0.00     0.293 HD
ENDBRANCH   6  24
BRANCH   8  26
ATOM     26  O   UNL     1      78.353  85.930   5.745  1.00  0.00    -0.508 OA
ATOM     27  H   UNL     1      78.314  85.945   6.757  1.00  0.00     0.293 HD
ENDBRANCH   8  26
TORSDOF 6
ENDMDL
MODEL 7
REMARK VINA RESULT:    -4.746      1.636      6.849
REMARK INTER + INTRA:          -6.029
REMARK INTER:                  -5.827
REMARK INTRA:                  -0.201
REMARK UNBOUND:                -0.312
REMARK SMILES O=c1c(O)c(-c2ccc(O)c(O)c2)oc2cc(O)cc(O)c12
REMARK SMILES IDX 5 1 3 2 2 3 1 4 22 5 20 6 19 7 17 8 16 9 15 10 14 11 6 12
REMARK SMILES IDX 7 13 8 14 9 15 13 16 11 17 10 18 12 20 4 22 21 24 18 26
REMARK H PARENT 10 19 12 21 4 23 21 25 18 27
REMARK Flexibility Score: inf
ROOT
ATOM      1  C   UNL     1      75.140  89.282  11.437  1.00  0.00     0.180 A 
ATOM      2  C   UNL     1      75.931  88.836  12.510  1.00  0.00     0.208 A 
ATOM      3  C   UNL     1      76.990  87.950  12.253  1.00  0.00     0.238 A 
ATOM      4  O   UNL     1      77.728  87.597  13.208  1.00  0.00    -0.285 OA
ATOM      5  C   UNL     1      77.232  87.508  10.930  1.00  0.00     0.111 A 
ATOM      6  C   UNL     1      78.251  86.579  10.560  1.00  0.00     0.134 A 
ATOM      7  C   UNL     1      78.486  86.314   9.205  1.00  0.00     0.093 A 
ATOM      8  C   UNL     1      77.693  86.894   8.210  1.00  0.00     0.123 A 
ATOM      9  C   UNL     1      76.659  87.755   8.565  1.00  0.00     0.094 A 
ATOM     10  C   UNL     1      76.424  88.066   9.906  1.00  0.00     0.146 A 
ATOM     11  O   UNL     1      75.434  88.901  10.200  1.00  0.00    -0.452 OA
ENDROOT
BRANCH   1  12
ATOM     12  C   UNL     1      73.992  90.197  11.632  1.00  0.00     0.025 A 
ATOM     13  C   UNL     1      72.670  89.769  11.417  1.00  0.00     0.016 A 
ATOM     14  C   UNL     1      71.603  90.656  11.583  1.00  0.00     0.051 A 
ATOM     15  C   UNL     1      71.841  91.985  11.956  1.00  0.00     0.157 A 
ATOM     16  C   UNL     1      74.226  91.536  11.984  1.00  0.00     0.062 A 
ATOM     17  C   UNL     1      73.160  92.427  12.154  1.00  0.00     0.158 A 
BRANCH  15  18
ATOM     18  O   UNL     1      70.776  92.868  12.123  1.00  0.00    -0.504 OA
ATOM     19  H   UNL     1      69.936  92.598  12.623  1.00  0.00     0.293 HD
ENDBRANCH  15  18
BRANCH  17  20
ATOM     20  O   UNL     1      73.432  93.747  12.517  1.00  0.00    -0.504 OA
ATOM     21  H   UNL     1      72.714  94.461  12.522  1.00  0.00     0.293 HD
ENDBRANCH  17  20
ENDBRANCH   1  12
BRANCH   2  22
ATOM     22  O   UNL     1      75.687  89.302  13.805  1.00  0.00    -0.502 OA
ATOM     23  H   UNL     1      76.159  90.111  14.189  1.00  0.00     0.293 HD
ENDBRANCH   2  22
BRANCH   6  24
ATOM     24  O   UNL     1      79.037  85.875  11.478  1.00  0.00    -0.507 OA
ATOM     25  H   UNL     1      78.678  85.381  12.281  1.00  0.00     0.293 HD
ENDBRANCH   6  24
BRANCH   8  26
ATOM     26  O   UNL     1      77.923  86.612   6.866  1.00  0.00    -0.508 OA
ATOM     27  H   UNL     1      77.160  86.417   6.227  1.00  0.00     0.293 HD
ENDBRANCH   8  26
TORSDOF 6
ENDMDL
MODEL 8
REMARK VINA RESULT:    -4.726      2.396      7.239
REMARK INTER + INTRA:          -6.005
REMARK INTER:                  -5.671
REMARK INTRA:                  -0.334
REMARK UNBOUND:                -0.312
REMARK SMILES O=c1c(O)c(-c2ccc(O)c(O)c2)oc2cc(O)cc(O)c12
REMARK SMILES IDX 5 1 3 2 2 3 1 4 22 5 20 6 19 7 17 8 16 9 15 10 14 11 6 12
REMARK SMILES IDX 7 13 8 14 9 15 13 16 11 17 10 18 12 20 4 22 21 24 18 26
REMARK H PARENT 10 19 12 21 4 23 21 25 18 27
REMARK Flexibility Score: inf
ROOT
ATOM      1  C   UNL     1      76.562  88.033  10.437  1.00  0.00     0.180 A 
ATOM      2  C   UNL     1      77.664  87.736  11.258  1.00  0.00     0.208 A 
ATOM      3  C   UNL     1      78.827  87.211  10.673  1.00  0.00     0.238 A 
ATOM      4  O   UNL     1      79.828  86.998  11.405  1.00  0.00    -0.285 OA
ATOM      5  C   UNL     1      78.868  86.975   9.277  1.00  0.00     0.111 A 
ATOM      6  C   UNL     1      79.980  86.408   8.584  1.00  0.00     0.134 A 
ATOM      7  C   UNL     1      79.961  86.340   7.186  1.00  0.00     0.093 A 
ATOM      8  C   UNL     1      78.842  86.758   6.460  1.00  0.00     0.123 A 
ATOM      9  C   UNL     1      77.730  87.257   7.132  1.00  0.00     0.094 A 
ATOM     10  C   UNL     1      77.733  87.370   8.524  1.00  0.00     0.146 A 
ATOM     11  O   UNL     1      76.656  87.862   9.124  1.00  0.00    -0.452 OA
ENDROOT
BRANCH   1  12
ATOM     12  C   UNL     1      75.293  88.566  10.983  1.00  0.00     0.025 A 
ATOM     13  C   UNL     1      74.273  87.709  11.432  1.00  0.00     0.016 A 
ATOM     14  C   UNL     1      73.073  88.233  11.922  1.00  0.00     0.051 A 
ATOM     15  C   UNL     1      72.870  89.618  11.959  1.00  0.00     0.157 A 
ATOM     16  C   UNL     1      75.076  89.953  11.002  1.00  0.00     0.062 A 
ATOM     17  C   UNL     1      73.877  90.482  11.493  1.00  0.00     0.158 A 
BRANCH  15  18
ATOM     18  O   UNL     1      71.674  90.139  12.449  1.00  0.00    -0.504 OA
ATOM     19  H   UNL     1      71.244  89.776  13.292  1.00  0.00     0.293 HD
ENDBRANCH  15  18
BRANCH  17  20
ATOM     20  O   UNL     1      73.703  91.866  11.510  1.00  0.00    -0.504 OA
ATOM     21  H   UNL     1      74.031  92.458  10.756  1.00  0.00     0.293 HD
ENDBRANCH  17  20
ENDBRANCH   1  12
BRANCH   2  22
ATOM     22  O   UNL     1      77.609  87.998  12.630  1.00  0.00    -0.502 OA
ATOM     23  H   UNL     1      77.247  88.867  13.003  1.00  0.00     0.293 HD
ENDBRANCH   2  22
BRANCH   6  24
ATOM     24  O   UNL     1      81.107  85.876   9.219  1.00  0.00    -0.507 OA
ATOM     25  H   UNL     1      81.079  85.241  10.002  1.00  0.00     0.293 HD
ENDBRANCH   6  24
BRANCH   8  26
ATOM     26  O   UNL     1      78.825  86.673   5.070  1.00  0.00    -0.508 OA
ATOM     27  H   UNL     1      79.681  86.667   4.529  1.00  0.00     0.293 HD
ENDBRANCH   8  26
TORSDOF 6
ENDMDL
MODEL 9
REMARK VINA RESULT:    -4.650      3.495      5.121
REMARK INTER + INTRA:          -5.913
REMARK INTER:                  -5.591
REMARK INTRA:                  -0.322
REMARK UNBOUND:                -0.312
REMARK SMILES O=c1c(O)c(-c2ccc(O)c(O)c2)oc2cc(O)cc(O)c12
REMARK SMILES IDX 5 1 3 2 2 3 1 4 22 5 20 6 19 7 17 8 16 9 15 10 14 11 6 12
REMARK SMILES IDX 7 13 8 14 9 15 13 16 11 17 10 18 12 20 4 22 21 24 18 26
REMARK H PARENT 10 19 12 21 4 23 21 25 18 27
REMARK Flexibility Score: inf
ROOT
ATOM      1  C   UNL     1      72.082  93.091  12.620  1.00  0.00     0.180 A 
ATOM      2  C   UNL     1      71.770  94.425  12.935  1.00  0.00     0.208 A 
ATOM      3  C   UNL     1      70.484  94.910  12.648  1.00  0.00     0.238 A 
ATOM      4  O   UNL     1      70.193  96.087  12.982  1.00  0.00    -0.285 OA
ATOM      5  C   UNL     1      69.531  94.059  12.036  1.00  0.00     0.111 A 
ATOM      6  C   UNL     1      68.212  94.456  11.663  1.00  0.00     0.134 A 
ATOM      7  C   UNL     1      67.311  93.498  11.184  1.00  0.00     0.093 A 
ATOM      8  C   UNL     1      67.704  92.169  11.000  1.00  0.00     0.123 A 
ATOM      9  C   UNL     1      69.007  91.785  11.305  1.00  0.00     0.094 A 
ATOM     10  C   UNL     1      69.917  92.711  11.819  1.00  0.00     0.146 A 
ATOM     11  O   UNL     1      71.147  92.301  12.106  1.00  0.00    -0.452 OA
ENDROOT
BRANCH   1  12
ATOM     12  C   UNL     1      73.423  92.516  12.869  1.00  0.00     0.025 A 
ATOM     13  C   UNL     1      73.731  91.876  14.082  1.00  0.00     0.016 A 
ATOM     14  C   UNL     1      75.012  91.362  14.305  1.00  0.00     0.051 A 
ATOM     15  C   UNL     1      76.005  91.489  13.326  1.00  0.00     0.157 A 
ATOM     16  C   UNL     1      74.429  92.661  11.900  1.00  0.00     0.062 A 
ATOM     17  C   UNL     1      75.712  92.146  12.118  1.00  0.00     0.158 A 
BRANCH  15  18
ATOM     18  O   UNL     1      77.281  90.974  13.550  1.00  0.00    -0.504 OA
ATOM     19  H   UNL     1      78.045  91.565  13.859  1.00  0.00     0.293 HD
ENDBRANCH  15  18
BRANCH  17  20
ATOM     20  O   UNL     1      76.681  92.296  11.126  1.00  0.00    -0.504 OA
ATOM     21  H   UNL     1      76.748  93.135  10.563  1.00  0.00     0.293 HD
ENDBRANCH  17  20
ENDBRANCH   1  12
BRANCH   2  22
ATOM     22  O   UNL     1      72.718  95.241  13.559  1.00  0.00    -0.502 OA
ATOM     23  H   UNL     1      73.308  94.909  14.313  1.00  0.00     0.293 HD
ENDBRANCH   2  22
BRANCH   6  24
ATOM     24  O   UNL     1      67.748  95.775  11.719  1.00  0.00    -0.507 OA
ATOM     25  H   UNL     1      66.810  96.064  11.488  1.00  0.00     0.293 HD
ENDBRANCH   6  24
BRANCH   8  26
ATOM     26  O   UNL     1      66.807  91.224  10.508  1.00  0.00    -0.508 OA
ATOM     27  H   UNL     1      66.772  90.282  10.879  1.00  0.00     0.293 HD
ENDBRANCH   8  26
TORSDOF 6
ENDMDL
