MODEL 1
REMARK VINA RESULT:    -3.086      0.000      0.000
REMARK INTER + INTRA:          -4.018
REMARK INTER:                  -3.898
REMARK INTRA:                  -0.119
REMARK UNBOUND:                -0.119
REMARK SMILES CSCC[C@@H]([NH3+])C(=O)[O-]
REMARK SMILES IDX 4 1 5 2 6 3 7 7 8 8 9 9 3 10 2 11 1 12
REMARK H PARENT 6 4 6 5 6 6
REMARK Flexibility Score: inf
ROOT
ATOM      1  C   UNL     1      30.148  17.481  17.951  1.00  0.00     0.082 C 
ENDROOT
BRANCH   1   2
ATOM      2  C   UNL     1      30.974  17.343  19.247  1.00  0.00     0.228 C 
BRANCH   2   3
ATOM      3  N   UNL     1      31.276  18.666  19.805  1.00  0.00    -0.350 N 
ATOM      4  H   UNL     1      31.405  18.592  20.841  1.00  0.00     0.345 HD
ATOM      5  H   UNL     1      30.478  19.318  19.623  1.00  0.00     0.345 HD
ATOM      6  H   UNL     1      32.146  19.058  19.378  1.00  0.00     0.345 HD
ENDBRANCH   2   3
BRANCH   2   7
ATOM      7  C   UNL     1      30.245  16.507  20.267  1.00  0.00     0.099 C 
ATOM      8  O   UNL     1      29.024  16.712  20.497  1.00  0.00    -0.544 OA
ATOM      9  O   UNL     1      30.916  15.510  20.965  1.00  0.00    -0.544 OA
ENDBRANCH   2   7
ENDBRANCH   1   2
BRANCH   1  10
ATOM     10  C   UNL     1      30.796  16.756  16.768  1.00  0.00     0.076 C 
BRANCH  10  11
ATOM     11  S   UNL     1      32.480  16.217  17.220  1.00  0.00    -0.165 SA
ATOM     12  C   UNL     1      32.935  15.717  15.530  1.00  0.00     0.085 C 
ENDBRANCH  10  11
ENDBRANCH   1  10
TORSDOF 5
ENDMDL
MODEL 2
REMARK VINA RESULT:    -2.945      2.833      4.257
REMARK INTER + INTRA:          -3.839
REMARK INTER:                  -3.729
REMARK INTRA:                  -0.110
REMARK UNBOUND:                -0.119
REMARK SMILES CSCC[C@@H]([NH3+])C(=O)[O-]
REMARK SMILES IDX 4 1 5 2 6 3 7 7 8 8 9 9 3 10 2 11 1 12
REMARK H PARENT 6 4 6 5 6 6
REMARK Flexibility Score: inf
ROOT
ATOM      1  C   UNL     1      31.636  16.208  20.265  1.00  0.00     0.082 C 
ENDROOT
BRANCH   1   2
ATOM      2  C   UNL     1      30.804  17.240  19.477  1.00  0.00     0.228 C 
BRANCH   2   3
ATOM      3  N   UNL     1      31.202  18.605  19.840  1.00  0.00    -0.350 N 
ATOM      4  H   UNL     1      30.414  19.086  20.331  1.00  0.00     0.345 HD
ATOM      5  H   UNL     1      31.429  19.150  18.977  1.00  0.00     0.345 HD
ATOM      6  H   UNL     1      32.039  18.591  20.468  1.00  0.00     0.345 HD
ENDBRANCH   2   3
BRANCH   2   7
ATOM      7  C   UNL     1      30.957  17.038  17.991  1.00  0.00     0.099 C 
ATOM      8  O   UNL     1      30.053  17.422  17.203  1.00  0.00    -0.544 OA
ATOM      9  O   UNL     1      32.095  16.423  17.481  1.00  0.00    -0.544 OA
ENDBRANCH   2   7
ENDBRANCH   1   2
BRANCH   1  10
ATOM     10  C   UNL     1      30.756  15.216  21.033  1.00  0.00     0.076 C 
BRANCH  10  11
ATOM     11  S   UNL     1      29.146  15.984  21.414  1.00  0.00    -0.165 SA
ATOM     12  C   UNL     1      28.871  15.012  22.928  1.00  0.00     0.085 C 
ENDBRANCH  10  11
ENDBRANCH   1  10
TORSDOF 5
ENDMDL
MODEL 3
REMARK VINA RESULT:    -2.660      2.386      3.199
REMARK INTER + INTRA:          -3.480
REMARK INTER:                  -3.384
REMARK INTRA:                  -0.095
REMARK UNBOUND:                -0.119
REMARK SMILES CSCC[C@@H]([NH3+])C(=O)[O-]
REMARK SMILES IDX 4 1 5 2 6 3 7 7 8 8 9 9 3 10 2 11 1 12
REMARK H PARENT 6 4 6 5 6 6
REMARK Flexibility Score: inf
ROOT
ATOM      1  C   UNL     1      32.504  16.893  18.849  1.00  0.00     0.082 C 
ENDROOT
BRANCH   1   2
ATOM      2  C   UNL     1      31.292  17.579  19.514  1.00  0.00     0.228 C 
BRANCH   2   3
ATOM      3  N   UNL     1      31.615  18.968  19.859  1.00  0.00    -0.350 N 
ATOM      4  H   UNL     1      32.436  19.291  19.296  1.00  0.00     0.345 HD
ATOM      5  H   UNL     1      31.870  19.033  20.872  1.00  0.00     0.345 HD
ATOM      6  H   UNL     1      30.801  19.596  19.667  1.00  0.00     0.345 HD
ENDBRANCH   2   3
BRANCH   2   7
ATOM      7  C   UNL     1      30.085  17.540  18.611  1.00  0.00     0.099 C 
ATOM      8  O   UNL     1      28.927  17.557  19.103  1.00  0.00    -0.544 OA
ATOM      9  O   UNL     1      30.244  17.481  17.232  1.00  0.00    -0.544 OA
ENDBRANCH   2   7
ENDBRANCH   1   2
BRANCH   1  10
ATOM     10  C   UNL     1      32.464  15.369  19.000  1.00  0.00     0.076 C 
BRANCH  10  11
ATOM     11  S   UNL     1      31.607  14.923  20.548  1.00  0.00    -0.165 SA
ATOM     12  C   UNL     1      33.124  14.882  21.552  1.00  0.00     0.085 C 
ENDBRANCH  10  11
ENDBRANCH   1  10
TORSDOF 5
ENDMDL
MODEL 4
REMARK VINA RESULT:    -2.597      2.714      3.748
REMARK INTER + INTRA:          -3.400
REMARK INTER:                  -3.320
REMARK INTRA:                  -0.080
REMARK UNBOUND:                -0.119
REMARK SMILES CSCC[C@@H]([NH3+])C(=O)[O-]
REMARK SMILES IDX 4 1 5 2 6 3 7 7 8 8 9 9 3 10 2 11 1 12
REMARK H PARENT 6 4 6 5 6 6
REMARK Flexibility Score: inf
ROOT
ATOM      1  C   UNL     1      32.145  17.501  19.213  1.00  0.00     0.082 C 
ENDROOT
BRANCH   1   2
ATOM      2  C   UNL     1      30.828  17.011  18.576  1.00  0.00     0.228 C 
BRANCH   2   3
ATOM      3  N   UNL     1      29.754  17.983  18.809  1.00  0.00    -0.350 N 
ATOM      4  H   UNL     1      28.894  17.488  19.139  1.00  0.00     0.345 HD
ATOM      5  H   UNL     1      29.522  18.476  17.915  1.00  0.00     0.345 HD
ATOM      6  H   UNL     1      30.041  18.688  19.526  1.00  0.00     0.345 HD
ENDBRANCH   2   3
BRANCH   2   7
ATOM      7  C   UNL     1      30.997  16.775  17.097  1.00  0.00     0.099 C 
ATOM      8  O   UNL     1      30.040  16.992  16.308  1.00  0.00    -0.544 OA
ATOM      9  O   UNL     1      32.207  16.311  16.596  1.00  0.00    -0.544 OA
ENDBRANCH   2   7
ENDBRANCH   1   2
BRANCH   1  10
ATOM     10  C   UNL     1      32.634  16.572  20.328  1.00  0.00     0.076 C 
BRANCH  10  11
ATOM     11  S   UNL     1      32.033  14.875  20.026  1.00  0.00    -0.165 SA
ATOM     12  C   UNL     1      30.874  14.876  21.429  1.00  0.00     0.085 C 
ENDBRANCH  10  11
ENDBRANCH   1  10
TORSDOF 5
ENDMDL
MODEL 5
REMARK VINA RESULT:    -2.560      3.409      4.283
REMARK INTER + INTRA:          -3.353
REMARK INTER:                  -3.195
REMARK INTRA:                  -0.158
REMARK UNBOUND:                -0.119
REMARK SMILES CSCC[C@@H]([NH3+])C(=O)[O-]
REMARK SMILES IDX 4 1 5 2 6 3 7 7 8 8 9 9 3 10 2 11 1 12
REMARK H PARENT 6 4 6 5 6 6
REMARK Flexibility Score: inf
ROOT
ATOM      1  C   UNL     1      31.412  17.090  18.565  1.00  0.00     0.082 C 
ENDROOT
BRANCH   1   2
ATOM      2  C   UNL     1      32.214  16.344  17.478  1.00  0.00     0.228 C 
BRANCH   2   3
ATOM      3  N   UNL     1      32.517  14.976  17.913  1.00  0.00    -0.350 N 
ATOM      4  H   UNL     1      32.054  14.785  18.832  1.00  0.00     0.345 HD
ATOM      5  H   UNL     1      33.550  14.865  18.041  1.00  0.00     0.345 HD
ATOM      6  H   UNL     1      32.180  14.280  17.209  1.00  0.00     0.345 HD
ENDBRANCH   2   3
BRANCH   2   7
ATOM      7  C   UNL     1      31.459  16.313  16.173  1.00  0.00     0.099 C 
ATOM      8  O   UNL     1      30.252  16.670  16.132  1.00  0.00    -0.544 OA
ATOM      9  O   UNL     1      32.088  15.887  15.010  1.00  0.00    -0.544 OA
ENDBRANCH   2   7
ENDBRANCH   1   2
BRANCH   1  10
ATOM     10  C   UNL     1      31.449  16.366  19.914  1.00  0.00     0.076 C 
BRANCH  10  11
ATOM     11  S   UNL     1      29.795  16.410  20.685  1.00  0.00    -0.165 SA
ATOM     12  C   UNL     1      29.057  17.460  19.395  1.00  0.00     0.085 C 
ENDBRANCH  10  11
ENDBRANCH   1  10
TORSDOF 5
ENDMDL
MODEL 6
REMARK VINA RESULT:    -2.222      3.054      3.787
REMARK INTER + INTRA:          -2.926
REMARK INTER:                  -2.873
REMARK INTRA:                  -0.053
REMARK UNBOUND:                -0.119
REMARK SMILES CSCC[C@@H]([NH3+])C(=O)[O-]
REMARK SMILES IDX 4 1 5 2 6 3 7 7 8 8 9 9 3 10 2 11 1 12
REMARK H PARENT 6 4 6 5 6 6
REMARK Flexibility Score: inf
ROOT
ATOM      1  C   UNL     1      31.801  16.005  14.933  1.00  0.00     0.082 C 
ENDROOT
BRANCH   1   2
ATOM      2  C   UNL     1      31.812  16.009  16.476  1.00  0.00     0.228 C 
BRANCH   2   3
ATOM      3  N   UNL     1      33.124  16.432  16.978  1.00  0.00    -0.350 N 
ATOM      4  H   UNL     1      33.410  17.324  16.514  1.00  0.00     0.345 HD
ATOM      5  H   UNL     1      33.841  15.704  16.753  1.00  0.00     0.345 HD
ATOM      6  H   UNL     1      33.094  16.578  18.013  1.00  0.00     0.345 HD
ENDBRANCH   2   3
BRANCH   2   7
ATOM      7  C   UNL     1      30.736  16.914  17.022  1.00  0.00     0.099 C 
ATOM      8  O   UNL     1      29.903  17.448  16.243  1.00  0.00    -0.544 OA
ATOM      9  O   UNL     1      30.660  17.167  18.386  1.00  0.00    -0.544 OA
ENDBRANCH   2   7
ENDBRANCH   1   2
BRANCH   1  10
ATOM     10  C   UNL     1      33.125  15.507  14.344  1.00  0.00     0.076 C 
BRANCH  10  11
ATOM     11  S   UNL     1      32.861  14.924  12.635  1.00  0.00    -0.165 SA
ATOM     12  C   UNL     1      31.763  16.301  12.175  1.00  0.00     0.085 C 
ENDBRANCH  10  11
ENDBRANCH   1  10
TORSDOF 5
ENDMDL
MODEL 7
REMARK VINA RESULT:    -2.220      1.920      2.366
REMARK INTER + INTRA:          -2.923
REMARK INTER:                  -2.952
REMARK INTRA:                   0.029
REMARK UNBOUND:                -0.119
REMARK SMILES CSCC[C@@H]([NH3+])C(=O)[O-]
REMARK SMILES IDX 4 1 5 2 6 3 7 7 8 8 9 9 3 10 2 11 1 12
REMARK H PARENT 6 4 6 5 6 6
REMARK Flexibility Score: inf
ROOT
ATOM      1  C   UNL     1      30.023  16.960  19.932  1.00  0.00     0.082 C 
ENDROOT
BRANCH   1   2
ATOM      2  C   UNL     1      30.496  15.706  20.697  1.00  0.00     0.228 C 
BRANCH   2   3
ATOM      3  N   UNL     1      31.911  15.833  21.065  1.00  0.00    -0.350 N 
ATOM      4  H   UNL     1      32.188  15.040  21.688  1.00  0.00     0.345 HD
ATOM      5  H   UNL     1      32.062  16.726  21.589  1.00  0.00     0.345 HD
ATOM      6  H   UNL     1      32.517  15.827  20.212  1.00  0.00     0.345 HD
ENDBRANCH   2   3
BRANCH   2   7
ATOM      7  C   UNL     1      29.662  15.479  21.932  1.00  0.00     0.099 C 
ATOM      8  O   UNL     1      28.456  15.839  21.955  1.00  0.00    -0.544 OA
ATOM      9  O   UNL     1      30.219  14.876  23.053  1.00  0.00    -0.544 OA
ENDBRANCH   2   7
ENDBRANCH   1   2
BRANCH   1  10
ATOM     10  C   UNL     1      31.157  17.618  19.139  1.00  0.00     0.076 C 
BRANCH  10  11
ATOM     11  S   UNL     1      31.602  16.573  17.712  1.00  0.00    -0.165 SA
ATOM     12  C   UNL     1      30.171  17.077  16.705  1.00  0.00     0.085 C 
ENDBRANCH  10  11
ENDBRANCH   1  10
TORSDOF 5
ENDMDL
MODEL 8
REMARK VINA RESULT:    -2.192      2.029      2.470
REMARK INTER + INTRA:          -2.888
REMARK INTER:                  -2.823
REMARK INTRA:                  -0.065
REMARK UNBOUND:                -0.119
REMARK SMILES CSCC[C@@H]([NH3+])C(=O)[O-]
REMARK SMILES IDX 4 1 5 2 6 3 7 7 8 8 9 9 3 10 2 11 1 12
REMARK H PARENT 6 4 6 5 6 6
REMARK Flexibility Score: inf
ROOT
ATOM      1  C   UNL     1      31.439  16.391  16.727  1.00  0.00     0.082 C 
ENDROOT
BRANCH   1   2
ATOM      2  C   UNL     1      31.719  16.432  18.245  1.00  0.00     0.228 C 
BRANCH   2   3
ATOM      3  N   UNL     1      33.125  16.766  18.498  1.00  0.00    -0.350 N 
ATOM      4  H   UNL     1      33.310  16.762  19.527  1.00  0.00     0.345 HD
ATOM      5  H   UNL     1      33.332  17.725  18.134  1.00  0.00     0.345 HD
ATOM      6  H   UNL     1      33.758  16.077  18.032  1.00  0.00     0.345 HD
ENDBRANCH   2   3
BRANCH   2   7
ATOM      7  C   UNL     1      30.821  17.428  18.934  1.00  0.00     0.099 C 
ATOM      8  O   UNL     1      31.283  18.184  19.828  1.00  0.00    -0.544 OA
ATOM      9  O   UNL     1      29.477  17.514  18.590  1.00  0.00    -0.544 OA
ENDBRANCH   2   7
ENDBRANCH   1   2
BRANCH   1  10
ATOM     10  C   UNL     1      32.728  16.385  15.899  1.00  0.00     0.076 C 
BRANCH  10  11
ATOM     11  S   UNL     1      32.799  14.875  14.877  1.00  0.00    -0.165 SA
ATOM     12  C   UNL     1      32.837  15.769  13.292  1.00  0.00     0.085 C 
ENDBRANCH  10  11
ENDBRANCH   1  10
TORSDOF 5
ENDMDL
