MODEL 1
REMARK VINA RESULT:    -4.298      0.000      0.000
REMARK INTER + INTRA:          -4.298
REMARK INTER:                  -4.298
REMARK INTRA:                   0.000
REMARK UNBOUND:                 0.000
REMARK SMILES CC1=CC(=O)[C@H]2C[C@@H]1C2(C)C
REMARK SMILES IDX 1 1 2 2 3 3 4 4 5 5 6 6 7 7 8 8 9 9 10 10 11 11
REMARK H PARENT
REMARK Flexibility Score: inf
ROOT
ATOM      1  C   UNL     1       9.254  30.404  16.274  1.00  0.00     0.040 C 
ATOM      2  C   UNL     1       7.936  29.819  16.668  1.00  0.00    -0.066 C 
ATOM      3  C   UNL     1       7.770  28.474  16.806  1.00  0.00     0.047 C 
ATOM      4  C   UNL     1       6.393  28.010  17.176  1.00  0.00     0.159 C 
ATOM      5  O   UNL     1       6.103  26.792  17.294  1.00  0.00    -0.295 OA
ATOM      6  C   UNL     1       5.366  29.121  17.397  1.00  0.00     0.067 C 
ATOM      7  C   UNL     1       6.109  30.155  18.271  1.00  0.00     0.021 C 
ATOM      8  C   UNL     1       6.706  30.707  16.957  1.00  0.00     0.022 C 
ATOM      9  C   UNL     1       5.465  30.130  16.217  1.00  0.00    -0.019 C 
ATOM     10  C   UNL     1       5.661  29.568  14.781  1.00  0.00     0.012 C 
ATOM     11  C   UNL     1       4.277  31.124  16.191  1.00  0.00     0.012 C 
ENDROOT
TORSDOF 0
ENDMDL
MODEL 2
REMARK VINA RESULT:    -4.128     16.805     18.531
REMARK INTER + INTRA:          -4.128
REMARK INTER:                  -4.128
REMARK INTRA:                   0.000
REMARK UNBOUND:                 0.000
REMARK SMILES CC1=CC(=O)[C@H]2C[C@@H]1C2(C)C
REMARK SMILES IDX 1 1 2 2 3 3 4 4 5 5 6 6 7 7 8 8 9 9 10 10 11 11
REMARK H PARENT
REMARK Flexibility Score: inf
ROOT
ATOM      1  C   UNL     1      11.684  13.041  15.070  1.00  0.00     0.040 C 
ATOM      2  C   UNL     1      13.121  13.328  15.370  1.00  0.00    -0.066 C 
ATOM      3  C   UNL     1      13.603  14.602  15.377  1.00  0.00     0.047 C 
ATOM      4  C   UNL     1      15.066  14.755  15.663  1.00  0.00     0.159 C 
ATOM      5  O   UNL     1      15.638  15.876  15.659  1.00  0.00    -0.295 OA
ATOM      6  C   UNL     1      15.816  13.456  15.957  1.00  0.00     0.067 C 
ATOM      7  C   UNL     1      14.896  12.704  16.944  1.00  0.00     0.021 C 
ATOM      8  C   UNL     1      14.122  12.201  15.704  1.00  0.00     0.022 C 
ATOM      9  C   UNL     1      15.426  12.404  14.879  1.00  0.00    -0.019 C 
ATOM     10  C   UNL     1      15.294  12.874  13.403  1.00  0.00     0.012 C 
ATOM     11  C   UNL     1      16.345  11.158  14.911  1.00  0.00     0.012 C 
ENDROOT
TORSDOF 0
ENDMDL
MODEL 3
REMARK VINA RESULT:    -4.067      1.850      3.010
REMARK INTER + INTRA:          -4.067
REMARK INTER:                  -4.067
REMARK INTRA:                   0.000
REMARK UNBOUND:                 0.000
REMARK SMILES CC1=CC(=O)[C@H]2C[C@@H]1C2(C)C
REMARK SMILES IDX 1 1 2 2 3 3 4 4 5 5 6 6 7 7 8 8 9 9 10 10 11 11
REMARK H PARENT
REMARK Flexibility Score: inf
ROOT
ATOM      1  C   UNL     1       7.001  26.835  17.375  1.00  0.00     0.040 C 
ATOM      2  C   UNL     1       6.992  28.136  16.637  1.00  0.00    -0.066 C 
ATOM      3  C   UNL     1       8.147  28.714  16.205  1.00  0.00     0.047 C 
ATOM      4  C   UNL     1       8.008  30.032  15.505  1.00  0.00     0.159 C 
ATOM      5  O   UNL     1       9.002  30.684  15.094  1.00  0.00    -0.295 OA
ATOM      6  C   UNL     1       6.573  30.530  15.327  1.00  0.00     0.067 C 
ATOM      7  C   UNL     1       5.801  29.289  14.829  1.00  0.00     0.021 C 
ATOM      8  C   UNL     1       5.677  28.877  16.313  1.00  0.00     0.022 C 
ATOM      9  C   UNL     1       5.825  30.382  16.683  1.00  0.00    -0.019 C 
ATOM     10  C   UNL     1       6.586  30.745  17.989  1.00  0.00     0.012 C 
ATOM     11  C   UNL     1       4.466  31.125  16.690  1.00  0.00     0.012 C 
ENDROOT
TORSDOF 0
ENDMDL
MODEL 4
REMARK VINA RESULT:    -3.897     17.670     18.646
REMARK INTER + INTRA:          -3.897
REMARK INTER:                  -3.897
REMARK INTRA:                   0.000
REMARK UNBOUND:                 0.000
REMARK SMILES CC1=CC(=O)[C@H]2C[C@@H]1C2(C)C
REMARK SMILES IDX 1 1 2 2 3 3 4 4 5 5 6 6 7 7 8 8 9 9 10 10 11 11
REMARK H PARENT
REMARK Flexibility Score: inf
ROOT
ATOM      1  C   UNL     1      16.704  15.719  15.429  1.00  0.00     0.040 C 
ATOM      2  C   UNL     1      16.135  14.337  15.480  1.00  0.00    -0.066 C 
ATOM      3  C   UNL     1      16.839  13.263  15.027  1.00  0.00     0.047 C 
ATOM      4  C   UNL     1      16.147  11.935  15.105  1.00  0.00     0.159 C 
ATOM      5  O   UNL     1      16.677  10.875  14.682  1.00  0.00    -0.295 OA
ATOM      6  C   UNL     1      14.753  11.960  15.732  1.00  0.00     0.067 C 
ATOM      7  C   UNL     1      14.920  12.835  16.993  1.00  0.00     0.021 C 
ATOM      8  C   UNL     1      14.733  14.057  16.065  1.00  0.00     0.022 C 
ATOM      9  C   UNL     1      13.945  13.127  15.097  1.00  0.00    -0.019 C 
ATOM     10  C   UNL     1      14.082  13.374  13.567  1.00  0.00     0.012 C 
ATOM     11  C   UNL     1      12.436  13.057  15.443  1.00  0.00     0.012 C 
ENDROOT
TORSDOF 0
ENDMDL
MODEL 5
REMARK VINA RESULT:    -3.875     16.344     17.568
REMARK INTER + INTRA:          -3.875
REMARK INTER:                  -3.875
REMARK INTRA:                   0.000
REMARK UNBOUND:                 0.000
REMARK SMILES CC1=CC(=O)[C@H]2C[C@@H]1C2(C)C
REMARK SMILES IDX 1 1 2 2 3 3 4 4 5 5 6 6 7 7 8 8 9 9 10 10 11 11
REMARK H PARENT
REMARK Flexibility Score: inf
ROOT
ATOM      1  C   UNL     1      17.340  14.731  15.413  1.00  0.00     0.040 C 
ATOM      2  C   UNL     1      15.930  14.287  15.642  1.00  0.00    -0.066 C 
ATOM      3  C   UNL     1      15.650  13.110  16.269  1.00  0.00     0.047 C 
ATOM      4  C   UNL     1      14.199  12.763  16.411  1.00  0.00     0.159 C 
ATOM      5  O   UNL     1      13.813  11.687  16.936  1.00  0.00    -0.295 OA
ATOM      6  C   UNL     1      13.221  13.807  15.871  1.00  0.00     0.067 C 
ATOM      7  C   UNL     1      13.765  15.149  16.407  1.00  0.00     0.021 C 
ATOM      8  C   UNL     1      14.726  15.144  15.197  1.00  0.00     0.022 C 
ATOM      9  C   UNL     1      13.695  14.245  14.456  1.00  0.00    -0.019 C 
ATOM     10  C   UNL     1      14.234  13.154  13.487  1.00  0.00     0.012 C 
ATOM     11  C   UNL     1      12.621  15.072  13.705  1.00  0.00     0.012 C 
ENDROOT
TORSDOF 0
ENDMDL
MODEL 6
REMARK VINA RESULT:    -3.859      1.632      2.449
REMARK INTER + INTRA:          -3.859
REMARK INTER:                  -3.859
REMARK INTRA:                   0.000
REMARK UNBOUND:                 0.000
REMARK SMILES CC1=CC(=O)[C@H]2C[C@@H]1C2(C)C
REMARK SMILES IDX 1 1 2 2 3 3 4 4 5 5 6 6 7 7 8 8 9 9 10 10 11 11
REMARK H PARENT
REMARK Flexibility Score: inf
ROOT
ATOM      1  C   UNL     1       6.047  31.056  13.482  1.00  0.00     0.040 C 
ATOM      2  C   UNL     1       6.200  30.571  14.888  1.00  0.00    -0.066 C 
ATOM      3  C   UNL     1       7.412  30.188  15.378  1.00  0.00     0.047 C 
ATOM      4  C   UNL     1       7.429  29.693  16.793  1.00  0.00     0.159 C 
ATOM      5  O   UNL     1       8.478  29.274  17.346  1.00  0.00    -0.295 OA
ATOM      6  C   UNL     1       6.082  29.730  17.516  1.00  0.00     0.067 C 
ATOM      7  C   UNL     1       5.509  31.123  17.176  1.00  0.00     0.021 C 
ATOM      8  C   UNL     1       5.000  30.498  15.858  1.00  0.00     0.022 C 
ATOM      9  C   UNL     1       5.000  29.119  16.579  1.00  0.00    -0.019 C 
ATOM     10  C   UNL     1       5.369  27.857  15.750  1.00  0.00     0.012 C 
ATOM     11  C   UNL     1       3.668  28.841  17.321  1.00  0.00     0.012 C 
ENDROOT
TORSDOF 0
ENDMDL
MODEL 7
REMARK VINA RESULT:    -3.833      1.926      3.321
REMARK INTER + INTRA:          -3.833
REMARK INTER:                  -3.833
REMARK INTRA:                   0.000
REMARK UNBOUND:                 0.000
REMARK SMILES CC1=CC(=O)[C@H]2C[C@@H]1C2(C)C
REMARK SMILES IDX 1 1 2 2 3 3 4 4 5 5 6 6 7 7 8 8 9 9 10 10 11 11
REMARK H PARENT
REMARK Flexibility Score: inf
ROOT
ATOM      1  C   UNL     1       5.252  26.543  16.644  1.00  0.00     0.040 C 
ATOM      2  C   UNL     1       5.396  28.030  16.593  1.00  0.00    -0.066 C 
ATOM      3  C   UNL     1       4.498  28.807  15.926  1.00  0.00     0.047 C 
ATOM      4  C   UNL     1       4.769  30.281  15.924  1.00  0.00     0.159 C 
ATOM      5  O   UNL     1       4.036  31.099  15.310  1.00  0.00    -0.295 OA
ATOM      6  C   UNL     1       6.000  30.721  16.716  1.00  0.00     0.067 C 
ATOM      7  C   UNL     1       5.892  29.944  18.045  1.00  0.00     0.021 C 
ATOM      8  C   UNL     1       6.555  28.759  17.307  1.00  0.00     0.022 C 
ATOM      9  C   UNL     1       7.191  29.796  16.336  1.00  0.00    -0.019 C 
ATOM     10  C   UNL     1       7.367  29.393  14.844  1.00  0.00     0.012 C 
ATOM     11  C   UNL     1       8.547  30.336  16.855  1.00  0.00     0.012 C 
ENDROOT
TORSDOF 0
ENDMDL
MODEL 8
REMARK VINA RESULT:    -3.812      1.659      2.954
REMARK INTER + INTRA:          -3.812
REMARK INTER:                  -3.812
REMARK INTRA:                   0.000
REMARK UNBOUND:                 0.000
REMARK SMILES CC1=CC(=O)[C@H]2C[C@@H]1C2(C)C
REMARK SMILES IDX 1 1 2 2 3 3 4 4 5 5 6 6 7 7 8 8 9 9 10 10 11 11
REMARK H PARENT
REMARK Flexibility Score: inf
ROOT
ATOM      1  C   UNL     1       6.993  26.589  17.415  1.00  0.00     0.040 C 
ATOM      2  C   UNL     1       6.786  28.035  17.093  1.00  0.00    -0.066 C 
ATOM      3  C   UNL     1       5.592  28.648  17.323  1.00  0.00     0.047 C 
ATOM      4  C   UNL     1       5.502  30.092  16.930  1.00  0.00     0.159 C 
ATOM      5  O   UNL     1       4.442  30.758  17.054  1.00  0.00    -0.295 OA
ATOM      6  C   UNL     1       6.787  30.698  16.365  1.00  0.00     0.067 C 
ATOM      7  C   UNL     1       7.890  30.212  17.330  1.00  0.00     0.021 C 
ATOM      8  C   UNL     1       7.917  28.906  16.505  1.00  0.00     0.022 C 
ATOM      9  C   UNL     1       7.368  29.724  15.300  1.00  0.00    -0.019 C 
ATOM     10  C   UNL     1       6.381  29.022  14.325  1.00  0.00     0.012 C 
ATOM     11  C   UNL     1       8.498  30.372  14.462  1.00  0.00     0.012 C 
ENDROOT
TORSDOF 0
ENDMDL
MODEL 9
REMARK VINA RESULT:    -3.806      1.856      3.548
REMARK INTER + INTRA:          -3.806
REMARK INTER:                  -3.806
REMARK INTRA:                   0.000
REMARK UNBOUND:                 0.000
REMARK SMILES CC1=CC(=O)[C@H]2C[C@@H]1C2(C)C
REMARK SMILES IDX 1 1 2 2 3 3 4 4 5 5 6 6 7 7 8 8 9 9 10 10 11 11
REMARK H PARENT
REMARK Flexibility Score: inf
ROOT
ATOM      1  C   UNL     1       3.442  28.078  16.633  1.00  0.00     0.040 C 
ATOM      2  C   UNL     1       4.851  28.549  16.805  1.00  0.00    -0.066 C 
ATOM      3  C   UNL     1       5.138  29.691  17.490  1.00  0.00     0.047 C 
ATOM      4  C   UNL     1       6.586  30.072  17.566  1.00  0.00     0.159 C 
ATOM      5  O   UNL     1       6.975  31.124  18.136  1.00  0.00    -0.295 OA
ATOM      6  C   UNL     1       7.556  29.095  16.901  1.00  0.00     0.067 C 
ATOM      7  C   UNL     1       7.082  27.706  17.380  1.00  0.00     0.021 C 
ATOM      8  C   UNL     1       6.048  27.759  16.233  1.00  0.00     0.022 C 
ATOM      9  C   UNL     1       7.007  28.735  15.491  1.00  0.00    -0.019 C 
ATOM     10  C   UNL     1       6.379  29.868  14.631  1.00  0.00     0.012 C 
ATOM     11  C   UNL     1       8.052  27.990  14.624  1.00  0.00     0.012 C 
ENDROOT
TORSDOF 0
ENDMDL
