MODEL 1
REMARK VINA RESULT:    -2.715      0.000      0.000
REMARK INTER + INTRA:          -3.207
REMARK INTER:                  -3.191
REMARK INTRA:                  -0.016
REMARK UNBOUND:                -0.016
REMARK SMILES CCCCC(=O)[O-]
REMARK SMILES IDX 4 1 5 2 6 3 7 4 3 5 2 6 1 7
REMARK H PARENT
REMARK Flexibility Score: inf
ROOT
ATOM      1  C   UNL     1      -1.329 -10.741  40.850  1.00  0.00     0.053 C 
ENDROOT
BRANCH   1   2
ATOM      2  C   UNL     1      -1.554 -11.616  42.043  1.00  0.00     0.041 C 
ATOM      3  O   UNL     1      -0.576 -12.013  42.731  1.00  0.00    -0.550 OA
ATOM      4  O   UNL     1      -2.846 -11.952  42.425  1.00  0.00    -0.550 OA
ENDBRANCH   1   2
BRANCH   1   5
ATOM      5  C   UNL     1      -1.949  -9.356  41.077  1.00  0.00     0.006 C 
BRANCH   5   6
ATOM      6  C   UNL     1      -1.307  -8.271  40.198  1.00  0.00    -0.003 C 
ATOM      7  C   UNL     1      -2.217  -7.827  39.052  1.00  0.00     0.004 C 
ENDBRANCH   5   6
ENDBRANCH   1   5
TORSDOF 3
ENDMDL
MODEL 2
REMARK VINA RESULT:    -2.695      1.526      2.039
REMARK INTER + INTRA:          -3.184
REMARK INTER:                  -3.086
REMARK INTRA:                  -0.098
REMARK UNBOUND:                -0.016
REMARK SMILES CCCCC(=O)[O-]
REMARK SMILES IDX 4 1 5 2 6 3 7 4 3 5 2 6 1 7
REMARK H PARENT
REMARK Flexibility Score: inf
ROOT
ATOM      1  C   UNL     1      -2.058  -9.428  40.699  1.00  0.00     0.053 C 
ENDROOT
BRANCH   1   2
ATOM      2  C   UNL     1      -1.119 -10.592  40.660  1.00  0.00     0.041 C 
ATOM      3  O   UNL     1      -0.305 -10.718  39.706  1.00  0.00    -0.550 OA
ATOM      4  O   UNL     1      -1.106 -11.511  41.701  1.00  0.00    -0.550 OA
ENDBRANCH   1   2
BRANCH   1   5
ATOM      5  C   UNL     1      -1.405  -8.192  40.066  1.00  0.00     0.006 C 
BRANCH   5   6
ATOM      6  C   UNL     1      -2.085  -7.773  38.753  1.00  0.00    -0.003 C 
ATOM      7  C   UNL     1      -1.133  -7.810  37.558  1.00  0.00     0.004 C 
ENDBRANCH   5   6
ENDBRANCH   1   5
TORSDOF 3
ENDMDL
MODEL 3
REMARK VINA RESULT:    -2.695      3.089      5.609
REMARK INTER + INTRA:          -3.183
REMARK INTER:                  -3.155
REMARK INTRA:                  -0.028
REMARK UNBOUND:                -0.016
REMARK SMILES CCCCC(=O)[O-]
REMARK SMILES IDX 4 1 5 2 6 3 7 4 3 5 2 6 1 7
REMARK H PARENT
REMARK Flexibility Score: inf
ROOT
ATOM      1  C   UNL     1      -2.663 -13.336  42.158  1.00  0.00     0.053 C 
ENDROOT
BRANCH   1   2
ATOM      2  C   UNL     1      -1.722 -12.173  42.203  1.00  0.00     0.041 C 
ATOM      3  O   UNL     1      -2.004 -11.106  41.596  1.00  0.00    -0.550 OA
ATOM      4  O   UNL     1      -0.558 -12.249  42.957  1.00  0.00    -0.550 OA
ENDBRANCH   1   2
BRANCH   1   5
ATOM      5  C   UNL     1      -2.097 -14.514  42.961  1.00  0.00     0.006 C 
BRANCH   5   6
ATOM      6  C   UNL     1      -3.184 -15.280  43.731  1.00  0.00    -0.003 C 
ATOM      7  C   UNL     1      -2.750 -16.695  44.115  1.00  0.00     0.004 C 
ENDBRANCH   5   6
ENDBRANCH   1   5
TORSDOF 3
ENDMDL
MODEL 4
REMARK VINA RESULT:    -2.672      1.454      2.296
REMARK INTER + INTRA:          -3.156
REMARK INTER:                  -3.050
REMARK INTRA:                  -0.106
REMARK UNBOUND:                -0.016
REMARK SMILES CCCCC(=O)[O-]
REMARK SMILES IDX 4 1 5 2 6 3 7 4 3 5 2 6 1 7
REMARK H PARENT
REMARK Flexibility Score: inf
ROOT
ATOM      1  C   UNL     1      -1.378 -10.896  41.099  1.00  0.00     0.053 C 
ENDROOT
BRANCH   1   2
ATOM      2  C   UNL     1      -1.431 -11.924  42.185  1.00  0.00     0.041 C 
ATOM      3  O   UNL     1      -2.335 -12.801  42.185  1.00  0.00    -0.550 OA
ATOM      4  O   UNL     1      -0.453 -11.944  43.172  1.00  0.00    -0.550 OA
ENDBRANCH   1   2
BRANCH   1   5
ATOM      5  C   UNL     1      -2.157  -9.640  41.511  1.00  0.00     0.006 C 
BRANCH   5   6
ATOM      6  C   UNL     1      -3.586  -9.621  40.948  1.00  0.00    -0.003 C 
ATOM      7  C   UNL     1      -4.652  -9.738  42.038  1.00  0.00     0.004 C 
ENDBRANCH   5   6
ENDBRANCH   1   5
TORSDOF 3
ENDMDL
MODEL 5
REMARK VINA RESULT:    -2.501      8.120      9.697
REMARK INTER + INTRA:          -2.955
REMARK INTER:                  -2.847
REMARK INTRA:                  -0.108
REMARK UNBOUND:                -0.016
REMARK SMILES CCCCC(=O)[O-]
REMARK SMILES IDX 4 1 5 2 6 3 7 4 3 5 2 6 1 7
REMARK H PARENT
REMARK Flexibility Score: inf
ROOT
ATOM      1  C   UNL     1      -4.597  -5.065  33.310  1.00  0.00     0.053 C 
ENDROOT
BRANCH   1   2
ATOM      2  C   UNL     1      -3.289  -5.496  32.725  1.00  0.00     0.041 C 
ATOM      3  O   UNL     1      -2.302  -5.719  33.476  1.00  0.00    -0.550 OA
ATOM      4  O   UNL     1      -3.173  -5.700  31.356  1.00  0.00    -0.550 OA
ENDBRANCH   1   2
BRANCH   1   5
ATOM      5  C   UNL     1      -4.370  -4.061  34.448  1.00  0.00     0.006 C 
BRANCH   5   6
ATOM      6  C   UNL     1      -5.036  -4.499  35.762  1.00  0.00    -0.003 C 
ATOM      7  C   UNL     1      -4.173  -5.473  36.564  1.00  0.00     0.004 C 
ENDBRANCH   5   6
ENDBRANCH   1   5
TORSDOF 3
ENDMDL
MODEL 6
REMARK VINA RESULT:    -2.487      2.970      4.343
REMARK INTER + INTRA:          -2.939
REMARK INTER:                  -2.891
REMARK INTRA:                  -0.048
REMARK UNBOUND:                -0.016
REMARK SMILES CCCCC(=O)[O-]
REMARK SMILES IDX 4 1 5 2 6 3 7 4 3 5 2 6 1 7
REMARK H PARENT
REMARK Flexibility Score: inf
ROOT
ATOM      1  C   UNL     1      -3.266  -9.370  40.546  1.00  0.00     0.053 C 
ENDROOT
BRANCH   1   2
ATOM      2  C   UNL     1      -2.884  -8.330  39.541  1.00  0.00     0.041 C 
ATOM      3  O   UNL     1      -3.747  -7.868  38.747  1.00  0.00    -0.550 OA
ATOM      4  O   UNL     1      -1.587  -7.834  39.513  1.00  0.00    -0.550 OA
ENDBRANCH   1   2
BRANCH   1   5
ATOM      5  C   UNL     1      -2.088  -9.668  41.483  1.00  0.00     0.006 C 
BRANCH   5   6
ATOM      6  C   UNL     1      -1.400 -11.003  41.158  1.00  0.00    -0.003 C 
ATOM      7  C   UNL     1      -1.229 -11.893  42.390  1.00  0.00     0.004 C 
ENDBRANCH   5   6
ENDBRANCH   1   5
TORSDOF 3
ENDMDL
MODEL 7
REMARK VINA RESULT:    -2.486      2.680      3.847
REMARK INTER + INTRA:          -2.937
REMARK INTER:                  -2.827
REMARK INTRA:                  -0.111
REMARK UNBOUND:                -0.016
REMARK SMILES CCCCC(=O)[O-]
REMARK SMILES IDX 4 1 5 2 6 3 7 4 3 5 2 6 1 7
REMARK H PARENT
REMARK Flexibility Score: inf
ROOT
ATOM      1  C   UNL     1      -2.505  -7.893  38.966  1.00  0.00     0.053 C 
ENDROOT
BRANCH   1   2
ATOM      2  C   UNL     1      -3.738  -8.424  39.628  1.00  0.00     0.041 C 
ATOM      3  O   UNL     1      -3.642  -9.198  40.618  1.00  0.00    -0.550 OA
ATOM      4  O   UNL     1      -4.992  -8.025  39.185  1.00  0.00    -0.550 OA
ENDBRANCH   1   2
BRANCH   1   5
ATOM      5  C   UNL     1      -1.271  -8.165  39.836  1.00  0.00     0.006 C 
BRANCH   5   6
ATOM      6  C   UNL     1      -0.285  -9.139  39.172  1.00  0.00    -0.003 C 
ATOM      7  C   UNL     1      -0.417 -10.566  39.705  1.00  0.00     0.004 C 
ENDBRANCH   5   6
ENDBRANCH   1   5
TORSDOF 3
ENDMDL
MODEL 8
REMARK VINA RESULT:    -2.470      4.861      6.878
REMARK INTER + INTRA:          -2.919
REMARK INTER:                  -2.816
REMARK INTRA:                  -0.103
REMARK UNBOUND:                -0.016
REMARK SMILES CCCCC(=O)[O-]
REMARK SMILES IDX 4 1 5 2 6 3 7 4 3 5 2 6 1 7
REMARK H PARENT
REMARK Flexibility Score: inf
ROOT
ATOM      1  C   UNL     1      -2.900 -15.402  43.670  1.00  0.00     0.053 C 
ENDROOT
BRANCH   1   2
ATOM      2  C   UNL     1      -2.474 -14.431  42.614  1.00  0.00     0.041 C 
ATOM      3  O   UNL     1      -1.511 -13.646  42.826  1.00  0.00    -0.550 OA
ATOM      4  O   UNL     1      -3.106 -14.426  41.377  1.00  0.00    -0.550 OA
ENDBRANCH   1   2
BRANCH   1   5
ATOM      5  C   UNL     1      -1.963 -16.616  43.690  1.00  0.00     0.006 C 
BRANCH   5   6
ATOM      6  C   UNL     1      -2.468 -17.765  42.802  1.00  0.00    -0.003 C 
ATOM      7  C   UNL     1      -3.976 -17.984  42.922  1.00  0.00     0.004 C 
ENDBRANCH   5   6
ENDBRANCH   1   5
TORSDOF 3
ENDMDL
MODEL 9
REMARK VINA RESULT:    -2.440      3.778      4.736
REMARK INTER + INTRA:          -2.884
REMARK INTER:                  -2.847
REMARK INTRA:                  -0.037
REMARK UNBOUND:                -0.016
REMARK SMILES CCCCC(=O)[O-]
REMARK SMILES IDX 4 1 5 2 6 3 7 4 3 5 2 6 1 7
REMARK H PARENT
REMARK Flexibility Score: inf
ROOT
ATOM      1  C   UNL     1      -1.968 -14.353  43.051  1.00  0.00     0.053 C 
ENDROOT
BRANCH   1   2
ATOM      2  C   UNL     1      -2.392 -15.787  43.102  1.00  0.00     0.041 C 
ATOM      3  O   UNL     1      -3.418 -16.167  42.477  1.00  0.00    -0.550 OA
ATOM      4  O   UNL     1      -1.628 -16.714  43.799  1.00  0.00    -0.550 OA
ENDBRANCH   1   2
BRANCH   1   5
ATOM      5  C   UNL     1      -2.819 -13.579  42.036  1.00  0.00     0.006 C 
BRANCH   5   6
ATOM      6  C   UNL     1      -2.221 -12.205  41.691  1.00  0.00    -0.003 C 
ATOM      7  C   UNL     1      -0.995 -11.867  42.538  1.00  0.00     0.004 C 
ENDBRANCH   5   6
ENDBRANCH   1   5
TORSDOF 3
ENDMDL
