MODEL 1
REMARK VINA RESULT:    -4.569      0.000      0.000
REMARK INTER + INTRA:         -16.099
REMARK INTER:                 -12.047
REMARK INTRA:                  -4.052
REMARK UNBOUND:                -4.052
REMARK SMILES CCCCCCCCCCCCCCCCCCCCCCCCCCCCCC(=O)[O-]
REMARK SMILES IDX 16 1 17 2 18 3 19 4 20 5 21 6 22 7 23 8 24 9 25 10 26 11
REMARK SMILES IDX 27 12 28 13 29 14 30 15 31 16 32 17 15 18 14 19 13 20 12 21
REMARK SMILES IDX 11 22 10 23 9 24 8 25 7 26 6 27 5 28 4 29 3 30 2 31 1 32
REMARK H PARENT
REMARK Flexibility Score: inf
ROOT
ATOM      1  C   UNL     1    -108.753 -43.255 -64.256  1.00  0.00     0.000 C 
ENDROOT
BRANCH   1   2
ATOM      2  C   UNL     1    -108.568 -43.056 -62.740  1.00  0.00     0.000 C 
BRANCH   2   3
ATOM      3  C   UNL     1    -107.259 -43.627 -62.160  1.00  0.00     0.000 C 
BRANCH   3   4
ATOM      4  C   UNL     1    -106.632 -42.757 -61.050  1.00  0.00     0.000 C 
BRANCH   4   5
ATOM      5  C   UNL     1    -105.860 -43.584 -60.007  1.00  0.00     0.000 C 
BRANCH   5   6
ATOM      6  C   UNL     1    -105.910 -42.958 -58.604  1.00  0.00     0.000 C 
BRANCH   6   7
ATOM      7  C   UNL     1    -104.510 -42.699 -58.023  1.00  0.00     0.000 C 
BRANCH   7   8
ATOM      8  C   UNL     1    -104.539 -41.765 -56.803  1.00  0.00     0.000 C 
BRANCH   8   9
ATOM      9  C   UNL     1    -104.519 -40.279 -57.197  1.00  0.00     0.000 C 
BRANCH   9  10
ATOM     10  C   UNL     1    -103.419 -39.995 -58.227  1.00  0.00     0.000 C 
BRANCH  10  11
ATOM     11  C   UNL     1    -103.958 -39.134 -59.381  1.00  0.00     0.000 C 
BRANCH  11  12
ATOM     12  C   UNL     1    -104.536 -39.969 -60.538  1.00  0.00     0.000 C 
BRANCH  12  13
ATOM     13  C   UNL     1    -104.894 -39.168 -61.803  1.00  0.00     0.006 C 
BRANCH  13  14
ATOM     14  C   UNL     1    -106.188 -39.652 -62.474  1.00  0.00     0.053 C 
BRANCH  14  15
ATOM     15  C   UNL     1    -105.977 -39.858 -63.940  1.00  0.00     0.041 C 
ATOM     16  O   UNL     1    -105.798 -41.019 -64.396  1.00  0.00    -0.550 OA
ATOM     17  O   UNL     1    -106.004 -38.773 -64.808  1.00  0.00    -0.550 OA
ENDBRANCH  14  15
ENDBRANCH  13  14
ENDBRANCH  12  13
ENDBRANCH  11  12
ENDBRANCH  10  11
ENDBRANCH   9  10
ENDBRANCH   8   9
ENDBRANCH   7   8
ENDBRANCH   6   7
ENDBRANCH   5   6
ENDBRANCH   4   5
ENDBRANCH   3   4
ENDBRANCH   2   3
ENDBRANCH   1   2
BRANCH   1  18
ATOM     18  C   UNL     1    -110.211 -43.433 -64.727  1.00  0.00     0.000 C 
BRANCH  18  19
ATOM     19  C   UNL     1    -111.244 -43.664 -63.609  1.00  0.00     0.000 C 
BRANCH  19  20
ATOM     20  C   UNL     1    -112.557 -42.894 -63.829  1.00  0.00     0.000 C 
BRANCH  20  21
ATOM     21  C   UNL     1    -112.446 -41.837 -64.945  1.00  0.00     0.000 C 
BRANCH  21  22
ATOM     22  C   UNL     1    -113.788 -41.245 -65.420  1.00  0.00     0.000 C 
BRANCH  22  23
ATOM     23  C   UNL     1    -114.197 -41.624 -66.858  1.00  0.00     0.000 C 
BRANCH  23  24
ATOM     24  C   UNL     1    -113.648 -42.974 -67.357  1.00  0.00    -0.000 C 
BRANCH  24  25
ATOM     25  C   UNL     1    -113.463 -43.011 -68.884  1.00  0.00    -0.000 C 
BRANCH  25  26
ATOM     26  C   UNL     1    -112.143 -43.677 -69.315  1.00  0.00    -0.000 C 
BRANCH  26  27
ATOM     27  C   UNL     1    -110.996 -43.594 -68.286  1.00  0.00    -0.000 C 
BRANCH  27  28
ATOM     28  C   UNL     1    -110.019 -42.417 -68.484  1.00  0.00    -0.000 C 
BRANCH  28  29
ATOM     29  C   UNL     1    -110.453 -41.097 -67.821  1.00  0.00    -0.000 C 
BRANCH  29  30
ATOM     30  C   UNL     1    -109.412 -40.559 -66.829  1.00  0.00    -0.000 C 
BRANCH  30  31
ATOM     31  C   UNL     1    -108.010 -41.077 -67.171  1.00  0.00    -0.003 C 
ATOM     32  C   UNL     1    -107.171 -39.996 -67.846  1.00  0.00     0.004 C 
ENDBRANCH  30  31
ENDBRANCH  29  30
ENDBRANCH  28  29
ENDBRANCH  27  28
ENDBRANCH  26  27
ENDBRANCH  25  26
ENDBRANCH  24  25
ENDBRANCH  23  24
ENDBRANCH  22  23
ENDBRANCH  21  22
ENDBRANCH  20  21
ENDBRANCH  19  20
ENDBRANCH  18  19
ENDBRANCH   1  18
TORSDOF 28
ENDMDL
MODEL 2
REMARK VINA RESULT:    -4.558      1.423      6.954
REMARK INTER + INTRA:         -16.070
REMARK INTER:                 -11.198
REMARK INTRA:                  -4.873
REMARK UNBOUND:                -4.052
REMARK SMILES CCCCCCCCCCCCCCCCCCCCCCCCCCCCCC(=O)[O-]
REMARK SMILES IDX 16 1 17 2 18 3 19 4 20 5 21 6 22 7 23 8 24 9 25 10 26 11
REMARK SMILES IDX 27 12 28 13 29 14 30 15 31 16 32 17 15 18 14 19 13 20 12 21
REMARK SMILES IDX 11 22 10 23 9 24 8 25 7 26 6 27 5 28 4 29 3 30 2 31 1 32
REMARK H PARENT
REMARK Flexibility Score: inf
ROOT
ATOM      1  C   UNL     1    -112.808 -41.728 -68.586  1.00  0.00     0.000 C 
ENDROOT
BRANCH   1   2
ATOM      2  C   UNL     1    -112.716 -43.265 -68.539  1.00  0.00     0.000 C 
BRANCH   2   3
ATOM      3  C   UNL     1    -111.433 -43.863 -69.149  1.00  0.00     0.000 C 
BRANCH   3   4
ATOM      4  C   UNL     1    -110.225 -43.869 -68.189  1.00  0.00     0.000 C 
BRANCH   4   5
ATOM      5  C   UNL     1    -109.148 -42.840 -68.579  1.00  0.00     0.000 C 
BRANCH   5   6
ATOM      6  C   UNL     1    -108.680 -41.997 -67.382  1.00  0.00     0.000 C 
BRANCH   6   7
ATOM      7  C   UNL     1    -109.430 -40.657 -67.276  1.00  0.00     0.000 C 
BRANCH   7   8
ATOM      8  C   UNL     1    -109.482 -40.121 -65.836  1.00  0.00     0.000 C 
BRANCH   8   9
ATOM      9  C   UNL     1    -108.257 -39.263 -65.482  1.00  0.00     0.000 C 
BRANCH   9  10
ATOM     10  C   UNL     1    -107.263 -40.047 -64.617  1.00  0.00     0.000 C 
BRANCH  10  11
ATOM     11  C   UNL     1    -107.350 -39.609 -63.147  1.00  0.00     0.000 C 
BRANCH  11  12
ATOM     12  C   UNL     1    -105.980 -39.251 -62.542  1.00  0.00     0.000 C 
BRANCH  12  13
ATOM     13  C   UNL     1    -104.867 -38.973 -63.569  1.00  0.00     0.006 C 
BRANCH  13  14
ATOM     14  C   UNL     1    -104.435 -37.500 -63.602  1.00  0.00     0.053 C 
BRANCH  14  15
ATOM     15  C   UNL     1    -104.749 -36.888 -64.930  1.00  0.00     0.041 C 
ATOM     16  O   UNL     1    -104.754 -35.635 -65.065  1.00  0.00    -0.550 OA
ATOM     17  O   UNL     1    -105.010 -37.700 -66.027  1.00  0.00    -0.550 OA
ENDBRANCH  14  15
ENDBRANCH  13  14
ENDBRANCH  12  13
ENDBRANCH  11  12
ENDBRANCH  10  11
ENDBRANCH   9  10
ENDBRANCH   8   9
ENDBRANCH   7   8
ENDBRANCH   6   7
ENDBRANCH   5   6
ENDBRANCH   4   5
ENDBRANCH   3   4
ENDBRANCH   2   3
ENDBRANCH   1   2
BRANCH   1  18
ATOM     18  C   UNL     1    -113.701 -41.085 -67.505  1.00  0.00     0.000 C 
BRANCH  18  19
ATOM     19  C   UNL     1    -113.002 -40.773 -66.169  1.00  0.00     0.000 C 
BRANCH  19  20
ATOM     20  C   UNL     1    -113.762 -41.317 -64.947  1.00  0.00     0.000 C 
BRANCH  20  21
ATOM     21  C   UNL     1    -113.012 -42.464 -64.244  1.00  0.00     0.000 C 
BRANCH  21  22
ATOM     22  C   UNL     1    -111.657 -42.843 -64.874  1.00  0.00     0.000 C 
BRANCH  22  23
ATOM     23  C   UNL     1    -110.678 -43.570 -63.931  1.00  0.00     0.000 C 
BRANCH  23  24
ATOM     24  C   UNL     1    -109.186 -43.320 -64.221  1.00  0.00    -0.000 C 
BRANCH  24  25
ATOM     25  C   UNL     1    -108.348 -43.176 -62.940  1.00  0.00    -0.000 C 
BRANCH  25  26
ATOM     26  C   UNL     1    -106.845 -43.418 -63.172  1.00  0.00    -0.000 C 
BRANCH  26  27
ATOM     27  C   UNL     1    -105.926 -43.033 -61.993  1.00  0.00    -0.000 C 
BRANCH  27  28
ATOM     28  C   UNL     1    -106.649 -42.475 -60.750  1.00  0.00    -0.000 C 
BRANCH  28  29
ATOM     29  C   UNL     1    -105.729 -42.130 -59.566  1.00  0.00    -0.000 C 
BRANCH  29  30
ATOM     30  C   UNL     1    -104.529 -41.263 -59.978  1.00  0.00    -0.000 C 
BRANCH  30  31
ATOM     31  C   UNL     1    -104.195 -40.238 -58.888  1.00  0.00    -0.003 C 
ATOM     32  C   UNL     1    -103.819 -38.889 -59.494  1.00  0.00     0.004 C 
ENDBRANCH  30  31
ENDBRANCH  29  30
ENDBRANCH  28  29
ENDBRANCH  27  28
ENDBRANCH  26  27
ENDBRANCH  25  26
ENDBRANCH  24  25
ENDBRANCH  23  24
ENDBRANCH  22  23
ENDBRANCH  21  22
ENDBRANCH  20  21
ENDBRANCH  19  20
ENDBRANCH  18  19
ENDBRANCH   1  18
TORSDOF 28
ENDMDL
MODEL 3
REMARK VINA RESULT:    -4.514      2.441      6.122
REMARK INTER + INTRA:         -15.954
REMARK INTER:                 -10.866
REMARK INTRA:                  -5.088
REMARK UNBOUND:                -4.052
REMARK SMILES CCCCCCCCCCCCCCCCCCCCCCCCCCCCCC(=O)[O-]
REMARK SMILES IDX 16 1 17 2 18 3 19 4 20 5 21 6 22 7 23 8 24 9 25 10 26 11
REMARK SMILES IDX 27 12 28 13 29 14 30 15 31 16 32 17 15 18 14 19 13 20 12 21
REMARK SMILES IDX 11 22 10 23 9 24 8 25 7 26 6 27 5 28 4 29 3 30 2 31 1 32
REMARK H PARENT
REMARK Flexibility Score: inf
ROOT
ATOM      1  C   UNL     1    -113.705 -40.868 -67.011  1.00  0.00     0.000 C 
ENDROOT
BRANCH   1   2
ATOM      2  C   UNL     1    -112.865 -40.834 -65.720  1.00  0.00     0.000 C 
BRANCH   2   3
ATOM      3  C   UNL     1    -113.074 -42.030 -64.771  1.00  0.00     0.000 C 
BRANCH   3   4
ATOM      4  C   UNL     1    -111.857 -42.974 -64.673  1.00  0.00     0.000 C 
BRANCH   4   5
ATOM      5  C   UNL     1    -110.536 -42.289 -65.070  1.00  0.00     0.000 C 
BRANCH   5   6
ATOM      6  C   UNL     1    -109.376 -43.287 -65.211  1.00  0.00     0.000 C 
BRANCH   6   7
ATOM      7  C   UNL     1    -108.066 -42.757 -64.603  1.00  0.00     0.000 C 
BRANCH   7   8
ATOM      8  C   UNL     1    -107.415 -43.760 -63.636  1.00  0.00     0.000 C 
BRANCH   8   9
ATOM      9  C   UNL     1    -107.857 -43.548 -62.180  1.00  0.00     0.000 C 
BRANCH   9  10
ATOM     10  C   UNL     1    -107.242 -42.271 -61.595  1.00  0.00     0.000 C 
BRANCH  10  11
ATOM     11  C   UNL     1    -106.032 -42.602 -60.707  1.00  0.00     0.000 C 
BRANCH  11  12
ATOM     12  C   UNL     1    -105.304 -41.349 -60.187  1.00  0.00     0.000 C 
BRANCH  12  13
ATOM     13  C   UNL     1    -104.263 -41.611 -59.083  1.00  0.00     0.006 C 
BRANCH  13  14
ATOM     14  C   UNL     1    -104.846 -42.355 -57.873  1.00  0.00     0.053 C 
BRANCH  14  15
ATOM     15  C   UNL     1    -104.519 -41.633 -56.604  1.00  0.00     0.041 C 
ATOM     16  O   UNL     1    -103.912 -42.230 -55.675  1.00  0.00    -0.550 OA
ATOM     17  O   UNL     1    -104.859 -40.294 -56.456  1.00  0.00    -0.550 OA
ENDBRANCH  14  15
ENDBRANCH  13  14
ENDBRANCH  12  13
ENDBRANCH  11  12
ENDBRANCH  10  11
ENDBRANCH   9  10
ENDBRANCH   8   9
ENDBRANCH   7   8
ENDBRANCH   6   7
ENDBRANCH   5   6
ENDBRANCH   4   5
ENDBRANCH   3   4
ENDBRANCH   2   3
ENDBRANCH   1   2
BRANCH   1  18
ATOM     18  C   UNL     1    -113.844 -42.255 -67.673  1.00  0.00     0.000 C 
BRANCH  18  19
ATOM     19  C   UNL     1    -112.942 -42.497 -68.897  1.00  0.00     0.000 C 
BRANCH  19  20
ATOM     20  C   UNL     1    -111.821 -43.517 -68.631  1.00  0.00     0.000 C 
BRANCH  20  21
ATOM     21  C   UNL     1    -110.415 -42.904 -68.768  1.00  0.00     0.000 C 
BRANCH  21  22
ATOM     22  C   UNL     1    -110.377 -41.364 -68.839  1.00  0.00     0.000 C 
BRANCH  22  23
ATOM     23  C   UNL     1    -109.319 -40.694 -67.939  1.00  0.00     0.000 C 
BRANCH  23  24
ATOM     24  C   UNL     1    -107.861 -41.078 -68.249  1.00  0.00    -0.000 C 
BRANCH  24  25
ATOM     25  C   UNL     1    -106.881 -40.622 -67.154  1.00  0.00    -0.000 C 
BRANCH  25  26
ATOM     26  C   UNL     1    -106.656 -39.098 -67.142  1.00  0.00    -0.000 C 
BRANCH  26  27
ATOM     27  C   UNL     1    -107.212 -38.360 -65.906  1.00  0.00    -0.000 C 
BRANCH  27  28
ATOM     28  C   UNL     1    -107.824 -39.267 -64.819  1.00  0.00    -0.000 C 
BRANCH  28  29
ATOM     29  C   UNL     1    -107.153 -39.166 -63.437  1.00  0.00    -0.000 C 
BRANCH  29  30
ATOM     30  C   UNL     1    -105.619 -39.207 -63.517  1.00  0.00    -0.000 C 
BRANCH  30  31
ATOM     31  C   UNL     1    -105.128 -40.606 -63.906  1.00  0.00    -0.003 C 
ATOM     32  C   UNL     1    -103.934 -40.530 -64.852  1.00  0.00     0.004 C 
ENDBRANCH  30  31
ENDBRANCH  29  30
ENDBRANCH  28  29
ENDBRANCH  27  28
ENDBRANCH  26  27
ENDBRANCH  25  26
ENDBRANCH  24  25
ENDBRANCH  23  24
ENDBRANCH  22  23
ENDBRANCH  21  22
ENDBRANCH  20  21
ENDBRANCH  19  20
ENDBRANCH  18  19
ENDBRANCH   1  18
TORSDOF 28
ENDMDL
MODEL 4
REMARK VINA RESULT:    -4.443      2.684      7.651
REMARK INTER + INTRA:         -15.768
REMARK INTER:                 -10.365
REMARK INTRA:                  -5.403
REMARK UNBOUND:                -4.052
REMARK SMILES CCCCCCCCCCCCCCCCCCCCCCCCCCCCCC(=O)[O-]
REMARK SMILES IDX 16 1 17 2 18 3 19 4 20 5 21 6 22 7 23 8 24 9 25 10 26 11
REMARK SMILES IDX 27 12 28 13 29 14 30 15 31 16 32 17 15 18 14 19 13 20 12 21
REMARK SMILES IDX 11 22 10 23 9 24 8 25 7 26 6 27 5 28 4 29 3 30 2 31 1 32
REMARK H PARENT
REMARK Flexibility Score: inf
ROOT
ATOM      1  C   UNL     1    -111.779 -40.161 -71.517  1.00  0.00     0.000 C 
ENDROOT
BRANCH   1   2
ATOM      2  C   UNL     1    -112.883 -41.124 -71.992  1.00  0.00     0.000 C 
BRANCH   2   3
ATOM      3  C   UNL     1    -112.595 -42.619 -71.755  1.00  0.00     0.000 C 
BRANCH   3   4
ATOM      4  C   UNL     1    -113.587 -43.306 -70.793  1.00  0.00     0.000 C 
BRANCH   4   5
ATOM      5  C   UNL     1    -112.926 -43.764 -69.480  1.00  0.00     0.000 C 
BRANCH   5   6
ATOM      6  C   UNL     1    -111.391 -43.759 -69.562  1.00  0.00     0.000 C 
BRANCH   6   7
ATOM      7  C   UNL     1    -110.728 -43.643 -68.178  1.00  0.00     0.000 C 
BRANCH   7   8
ATOM      8  C   UNL     1    -109.192 -43.663 -68.255  1.00  0.00     0.000 C 
BRANCH   8   9
ATOM      9  C   UNL     1    -108.597 -42.275 -68.538  1.00  0.00     0.000 C 
BRANCH   9  10
ATOM     10  C   UNL     1    -109.171 -41.221 -67.583  1.00  0.00     0.000 C 
BRANCH  10  11
ATOM     11  C   UNL     1    -108.068 -40.633 -66.689  1.00  0.00     0.000 C 
BRANCH  11  12
ATOM     12  C   UNL     1    -108.618 -39.744 -65.559  1.00  0.00     0.000 C 
BRANCH  12  13
ATOM     13  C   UNL     1    -107.761 -38.509 -65.226  1.00  0.00     0.006 C 
BRANCH  13  14
ATOM     14  C   UNL     1    -106.329 -38.606 -65.773  1.00  0.00     0.053 C 
BRANCH  14  15
ATOM     15  C   UNL     1    -106.075 -37.528 -66.780  1.00  0.00     0.041 C 
ATOM     16  O   UNL     1    -105.822 -36.354 -66.400  1.00  0.00    -0.550 OA
ATOM     17  O   UNL     1    -106.091 -37.825 -68.137  1.00  0.00    -0.550 OA
ENDBRANCH  14  15
ENDBRANCH  13  14
ENDBRANCH  12  13
ENDBRANCH  11  12
ENDBRANCH  10  11
ENDBRANCH   9  10
ENDBRANCH   8   9
ENDBRANCH   7   8
ENDBRANCH   6   7
ENDBRANCH   5   6
ENDBRANCH   4   5
ENDBRANCH   3   4
ENDBRANCH   2   3
ENDBRANCH   1   2
BRANCH   1  18
ATOM     18  C   UNL     1    -111.548 -40.121 -69.991  1.00  0.00     0.000 C 
BRANCH  18  19
ATOM     19  C   UNL     1    -112.822 -40.042 -69.131  1.00  0.00     0.000 C 
BRANCH  19  20
ATOM     20  C   UNL     1    -112.645 -40.651 -67.730  1.00  0.00     0.000 C 
BRANCH  20  21
ATOM     21  C   UNL     1    -113.952 -41.245 -67.171  1.00  0.00     0.000 C 
BRANCH  21  22
ATOM     22  C   UNL     1    -113.767 -42.340 -66.102  1.00  0.00     0.000 C 
BRANCH  22  23
ATOM     23  C   UNL     1    -112.613 -42.098 -65.109  1.00  0.00     0.000 C 
BRANCH  23  24
ATOM     24  C   UNL     1    -112.615 -43.011 -63.869  1.00  0.00    -0.000 C 
BRANCH  24  25
ATOM     25  C   UNL     1    -111.211 -43.524 -63.507  1.00  0.00    -0.000 C 
BRANCH  25  26
ATOM     26  C   UNL     1    -110.158 -43.211 -64.586  1.00  0.00    -0.000 C 
BRANCH  26  27
ATOM     27  C   UNL     1    -108.698 -43.162 -64.087  1.00  0.00    -0.000 C 
BRANCH  27  28
ATOM     28  C   UNL     1    -108.505 -43.467 -62.587  1.00  0.00    -0.000 C 
BRANCH  28  29
ATOM     29  C   UNL     1    -107.440 -42.607 -61.884  1.00  0.00    -0.000 C 
BRANCH  29  30
ATOM     30  C   UNL     1    -107.250 -41.235 -62.547  1.00  0.00    -0.000 C 
BRANCH  30  31
ATOM     31  C   UNL     1    -105.787 -41.017 -62.949  1.00  0.00    -0.003 C 
ATOM     32  C   UNL     1    -105.431 -41.820 -64.196  1.00  0.00     0.004 C 
ENDBRANCH  30  31
ENDBRANCH  29  30
ENDBRANCH  28  29
ENDBRANCH  27  28
ENDBRANCH  26  27
ENDBRANCH  25  26
ENDBRANCH  24  25
ENDBRANCH  23  24
ENDBRANCH  22  23
ENDBRANCH  21  22
ENDBRANCH  20  21
ENDBRANCH  19  20
ENDBRANCH  18  19
ENDBRANCH   1  18
TORSDOF 28
ENDMDL
MODEL 5
REMARK VINA RESULT:    -4.432      2.647      7.146
REMARK INTER + INTRA:         -15.739
REMARK INTER:                 -10.120
REMARK INTRA:                  -5.619
REMARK UNBOUND:                -4.052
REMARK SMILES CCCCCCCCCCCCCCCCCCCCCCCCCCCCCC(=O)[O-]
REMARK SMILES IDX 16 1 17 2 18 3 19 4 20 5 21 6 22 7 23 8 24 9 25 10 26 11
REMARK SMILES IDX 27 12 28 13 29 14 30 15 31 16 32 17 15 18 14 19 13 20 12 21
REMARK SMILES IDX 11 22 10 23 9 24 8 25 7 26 6 27 5 28 4 29 3 30 2 31 1 32
REMARK H PARENT
REMARK Flexibility Score: inf
ROOT
ATOM      1  C   UNL     1    -112.632 -40.846 -68.310  1.00  0.00     0.000 C 
ENDROOT
BRANCH   1   2
ATOM      2  C   UNL     1    -112.540 -42.034 -69.285  1.00  0.00     0.000 C 
BRANCH   2   3
ATOM      3  C   UNL     1    -112.243 -43.397 -68.629  1.00  0.00     0.000 C 
BRANCH   3   4
ATOM      4  C   UNL     1    -110.879 -44.000 -69.023  1.00  0.00     0.000 C 
BRANCH   4   5
ATOM      5  C   UNL     1    -110.262 -43.325 -70.262  1.00  0.00     0.000 C 
BRANCH   5   6
ATOM      6  C   UNL     1    -108.818 -42.858 -70.020  1.00  0.00     0.000 C 
BRANCH   6   7
ATOM      7  C   UNL     1    -108.590 -42.370 -68.578  1.00  0.00     0.000 C 
BRANCH   7   8
ATOM      8  C   UNL     1    -108.805 -40.855 -68.426  1.00  0.00     0.000 C 
BRANCH   8   9
ATOM      9  C   UNL     1    -109.017 -40.433 -66.963  1.00  0.00     0.000 C 
BRANCH   9  10
ATOM     10  C   UNL     1    -107.850 -39.573 -66.461  1.00  0.00     0.000 C 
BRANCH  10  11
ATOM     11  C   UNL     1    -108.079 -39.134 -65.006  1.00  0.00     0.000 C 
BRANCH  11  12
ATOM     12  C   UNL     1    -106.984 -38.188 -64.482  1.00  0.00     0.000 C 
BRANCH  12  13
ATOM     13  C   UNL     1    -105.864 -37.867 -65.488  1.00  0.00     0.006 C 
BRANCH  13  14
ATOM     14  C   UNL     1    -105.842 -36.392 -65.912  1.00  0.00     0.053 C 
BRANCH  14  15
ATOM     15  C   UNL     1    -105.464 -36.264 -67.354  1.00  0.00     0.041 C 
ATOM     16  O   UNL     1    -105.573 -37.253 -68.127  1.00  0.00    -0.550 OA
ATOM     17  O   UNL     1    -105.016 -35.046 -67.852  1.00  0.00    -0.550 OA
ENDBRANCH  14  15
ENDBRANCH  13  14
ENDBRANCH  12  13
ENDBRANCH  11  12
ENDBRANCH  10  11
ENDBRANCH   9  10
ENDBRANCH   8   9
ENDBRANCH   7   8
ENDBRANCH   6   7
ENDBRANCH   5   6
ENDBRANCH   4   5
ENDBRANCH   3   4
ENDBRANCH   2   3
ENDBRANCH   1   2
BRANCH   1  18
ATOM     18  C   UNL     1    -113.616 -41.028 -67.134  1.00  0.00     0.000 C 
BRANCH  18  19
ATOM     19  C   UNL     1    -113.025 -40.781 -65.734  1.00  0.00     0.000 C 
BRANCH  19  20
ATOM     20  C   UNL     1    -113.422 -41.858 -64.711  1.00  0.00     0.000 C 
BRANCH  20  21
ATOM     21  C   UNL     1    -112.270 -42.831 -64.395  1.00  0.00     0.000 C 
BRANCH  21  22
ATOM     22  C   UNL     1    -110.947 -42.539 -65.131  1.00  0.00     0.000 C 
BRANCH  22  23
ATOM     23  C   UNL     1    -110.090 -43.779 -65.452  1.00  0.00     0.000 C 
BRANCH  23  24
ATOM     24  C   UNL     1    -108.610 -43.675 -65.037  1.00  0.00    -0.000 C 
BRANCH  24  25
ATOM     25  C   UNL     1    -108.368 -42.591 -63.973  1.00  0.00    -0.000 C 
BRANCH  25  26
ATOM     26  C   UNL     1    -108.140 -43.170 -62.564  1.00  0.00    -0.000 C 
BRANCH  26  27
ATOM     27  C   UNL     1    -107.345 -42.264 -61.600  1.00  0.00    -0.000 C 
BRANCH  27  28
ATOM     28  C   UNL     1    -106.573 -41.108 -62.270  1.00  0.00    -0.000 C 
BRANCH  28  29
ATOM     29  C   UNL     1    -105.084 -41.392 -62.535  1.00  0.00    -0.000 C 
BRANCH  29  30
ATOM     30  C   UNL     1    -104.656 -41.035 -63.967  1.00  0.00    -0.000 C 
BRANCH  30  31
ATOM     31  C   UNL     1    -104.571 -42.291 -64.842  1.00  0.00    -0.003 C 
ATOM     32  C   UNL     1    -105.406 -42.139 -66.109  1.00  0.00     0.004 C 
ENDBRANCH  30  31
ENDBRANCH  29  30
ENDBRANCH  28  29
ENDBRANCH  27  28
ENDBRANCH  26  27
ENDBRANCH  25  26
ENDBRANCH  24  25
ENDBRANCH  23  24
ENDBRANCH  22  23
ENDBRANCH  21  22
ENDBRANCH  20  21
ENDBRANCH  19  20
ENDBRANCH  18  19
ENDBRANCH   1  18
TORSDOF 28
ENDMDL
MODEL 6
REMARK VINA RESULT:    -4.425      2.002      3.062
REMARK INTER + INTRA:         -15.719
REMARK INTER:                 -10.245
REMARK INTRA:                  -5.474
REMARK UNBOUND:                -4.052
REMARK SMILES CCCCCCCCCCCCCCCCCCCCCCCCCCCCCC(=O)[O-]
REMARK SMILES IDX 16 1 17 2 18 3 19 4 20 5 21 6 22 7 23 8 24 9 25 10 26 11
REMARK SMILES IDX 27 12 28 13 29 14 30 15 31 16 32 17 15 18 14 19 13 20 12 21
REMARK SMILES IDX 11 22 10 23 9 24 8 25 7 26 6 27 5 28 4 29 3 30 2 31 1 32
REMARK H PARENT
REMARK Flexibility Score: inf
ROOT
ATOM      1  C   UNL     1    -108.899 -40.089 -65.717  1.00  0.00     0.000 C 
ENDROOT
BRANCH   1   2
ATOM      2  C   UNL     1    -108.074 -40.764 -64.605  1.00  0.00     0.000 C 
BRANCH   2   3
ATOM      3  C   UNL     1    -106.884 -41.612 -65.095  1.00  0.00     0.000 C 
BRANCH   3   4
ATOM      4  C   UNL     1    -106.925 -43.081 -64.626  1.00  0.00     0.000 C 
BRANCH   4   5
ATOM      5  C   UNL     1    -107.679 -43.264 -63.296  1.00  0.00     0.000 C 
BRANCH   5   6
ATOM      6  C   UNL     1    -106.857 -44.041 -62.256  1.00  0.00     0.000 C 
BRANCH   6   7
ATOM      7  C   UNL     1    -106.539 -43.201 -61.007  1.00  0.00     0.000 C 
BRANCH   7   8
ATOM      8  C   UNL     1    -106.315 -41.716 -61.335  1.00  0.00     0.000 C 
BRANCH   8   9
ATOM      9  C   UNL     1    -105.101 -41.126 -60.599  1.00  0.00     0.000 C 
BRANCH   9  10
ATOM     10  C   UNL     1    -104.678 -39.787 -61.215  1.00  0.00     0.000 C 
BRANCH  10  11
ATOM     11  C   UNL     1    -105.622 -39.387 -62.361  1.00  0.00     0.000 C 
BRANCH  11  12
ATOM     12  C   UNL     1    -105.146 -38.139 -63.127  1.00  0.00     0.000 C 
BRANCH  12  13
ATOM     13  C   UNL     1    -105.323 -38.207 -64.655  1.00  0.00     0.006 C 
BRANCH  13  14
ATOM     14  C   UNL     1    -106.509 -37.372 -65.160  1.00  0.00     0.053 C 
BRANCH  14  15
ATOM     15  C   UNL     1    -106.105 -36.542 -66.337  1.00  0.00     0.041 C 
ATOM     16  O   UNL     1    -106.287 -35.295 -66.324  1.00  0.00    -0.550 OA
ATOM     17  O   UNL     1    -105.504 -37.139 -67.439  1.00  0.00    -0.550 OA
ENDBRANCH  14  15
ENDBRANCH  13  14
ENDBRANCH  12  13
ENDBRANCH  11  12
ENDBRANCH  10  11
ENDBRANCH   9  10
ENDBRANCH   8   9
ENDBRANCH   7   8
ENDBRANCH   6   7
ENDBRANCH   5   6
ENDBRANCH   4   5
ENDBRANCH   3   4
ENDBRANCH   2   3
ENDBRANCH   1   2
BRANCH   1  18
ATOM     18  C   UNL     1    -110.261 -40.746 -66.022  1.00  0.00     0.000 C 
BRANCH  18  19
ATOM     19  C   UNL     1    -110.410 -42.206 -65.557  1.00  0.00     0.000 C 
BRANCH  19  20
ATOM     20  C   UNL     1    -111.874 -42.628 -65.346  1.00  0.00     0.000 C 
BRANCH  20  21
ATOM     21  C   UNL     1    -112.806 -41.430 -65.082  1.00  0.00     0.000 C 
BRANCH  21  22
ATOM     22  C   UNL     1    -114.178 -41.502 -65.782  1.00  0.00     0.000 C 
BRANCH  22  23
ATOM     23  C   UNL     1    -114.125 -41.792 -67.296  1.00  0.00     0.000 C 
BRANCH  23  24
ATOM     24  C   UNL     1    -113.329 -40.771 -68.129  1.00  0.00    -0.000 C 
BRANCH  24  25
ATOM     25  C   UNL     1    -112.302 -41.437 -69.061  1.00  0.00    -0.000 C 
BRANCH  25  26
ATOM     26  C   UNL     1    -112.479 -42.963 -69.159  1.00  0.00    -0.000 C 
BRANCH  26  27
ATOM     27  C   UNL     1    -111.209 -43.793 -68.871  1.00  0.00    -0.000 C 
BRANCH  27  28
ATOM     28  C   UNL     1    -109.912 -43.254 -69.509  1.00  0.00    -0.000 C 
BRANCH  28  29
ATOM     29  C   UNL     1    -108.668 -43.326 -68.606  1.00  0.00    -0.000 C 
BRANCH  29  30
ATOM     30  C   UNL     1    -107.810 -42.054 -68.674  1.00  0.00    -0.000 C 
BRANCH  30  31
ATOM     31  C   UNL     1    -108.571 -40.915 -69.363  1.00  0.00    -0.003 C 
ATOM     32  C   UNL     1    -107.815 -39.596 -69.247  1.00  0.00     0.004 C 
ENDBRANCH  30  31
ENDBRANCH  29  30
ENDBRANCH  28  29
ENDBRANCH  27  28
ENDBRANCH  26  27
ENDBRANCH  25  26
ENDBRANCH  24  25
ENDBRANCH  23  24
ENDBRANCH  22  23
ENDBRANCH  21  22
ENDBRANCH  20  21
ENDBRANCH  19  20
ENDBRANCH  18  19
ENDBRANCH   1  18
TORSDOF 28
ENDMDL
MODEL 7
REMARK VINA RESULT:    -4.390      1.744      3.553
REMARK INTER + INTRA:         -15.628
REMARK INTER:                 -10.485
REMARK INTRA:                  -5.143
REMARK UNBOUND:                -4.052
REMARK SMILES CCCCCCCCCCCCCCCCCCCCCCCCCCCCCC(=O)[O-]
REMARK SMILES IDX 16 1 17 2 18 3 19 4 20 5 21 6 22 7 23 8 24 9 25 10 26 11
REMARK SMILES IDX 27 12 28 13 29 14 30 15 31 16 32 17 15 18 14 19 13 20 12 21
REMARK SMILES IDX 11 22 10 23 9 24 8 25 7 26 6 27 5 28 4 29 3 30 2 31 1 32
REMARK H PARENT
REMARK Flexibility Score: inf
ROOT
ATOM      1  C   UNL     1    -108.786 -39.983 -65.943  1.00  0.00     0.000 C 
ENDROOT
BRANCH   1   2
ATOM      2  C   UNL     1    -108.193 -40.674 -64.701  1.00  0.00     0.000 C 
BRANCH   2   3
ATOM      3  C   UNL     1    -106.836 -41.368 -64.924  1.00  0.00     0.000 C 
BRANCH   3   4
ATOM      4  C   UNL     1    -106.721 -42.753 -64.253  1.00  0.00     0.000 C 
BRANCH   4   5
ATOM      5  C   UNL     1    -107.507 -42.844 -62.932  1.00  0.00     0.000 C 
BRANCH   5   6
ATOM      6  C   UNL     1    -107.011 -43.984 -62.029  1.00  0.00     0.000 C 
BRANCH   6   7
ATOM      7  C   UNL     1    -106.198 -43.472 -60.827  1.00  0.00     0.000 C 
BRANCH   7   8
ATOM      8  C   UNL     1    -106.256 -41.943 -60.682  1.00  0.00     0.000 C 
BRANCH   8   9
ATOM      9  C   UNL     1    -105.118 -41.391 -59.808  1.00  0.00     0.000 C 
BRANCH   9  10
ATOM     10  C   UNL     1    -104.464 -40.166 -60.460  1.00  0.00     0.000 C 
BRANCH  10  11
ATOM     11  C   UNL     1    -104.972 -39.974 -61.898  1.00  0.00     0.000 C 
BRANCH  11  12
ATOM     12  C   UNL     1    -104.887 -38.513 -62.378  1.00  0.00     0.000 C 
BRANCH  12  13
ATOM     13  C   UNL     1    -105.809 -38.161 -63.559  1.00  0.00     0.006 C 
BRANCH  13  14
ATOM     14  C   UNL     1    -105.059 -38.053 -64.895  1.00  0.00     0.053 C 
BRANCH  14  15
ATOM     15  C   UNL     1    -105.957 -37.512 -65.962  1.00  0.00     0.041 C 
ATOM     16  O   UNL     1    -106.594 -36.442 -65.770  1.00  0.00    -0.550 OA
ATOM     17  O   UNL     1    -106.071 -38.173 -67.179  1.00  0.00    -0.550 OA
ENDBRANCH  14  15
ENDBRANCH  13  14
ENDBRANCH  12  13
ENDBRANCH  11  12
ENDBRANCH  10  11
ENDBRANCH   9  10
ENDBRANCH   8   9
ENDBRANCH   7   8
ENDBRANCH   6   7
ENDBRANCH   5   6
ENDBRANCH   4   5
ENDBRANCH   3   4
ENDBRANCH   2   3
ENDBRANCH   1   2
BRANCH   1  18
ATOM     18  C   UNL     1    -109.901 -40.766 -66.668  1.00  0.00     0.000 C 
BRANCH  18  19
ATOM     19  C   UNL     1    -109.482 -42.131 -67.245  1.00  0.00     0.000 C 
BRANCH  19  20
ATOM     20  C   UNL     1    -110.408 -43.280 -66.813  1.00  0.00     0.000 C 
BRANCH  20  21
ATOM     21  C   UNL     1    -110.032 -43.861 -65.436  1.00  0.00     0.000 C 
BRANCH  21  22
ATOM     22  C   UNL     1    -110.849 -43.313 -64.250  1.00  0.00     0.000 C 
BRANCH  22  23
ATOM     23  C   UNL     1    -112.351 -43.104 -64.531  1.00  0.00     0.000 C 
BRANCH  23  24
ATOM     24  C   UNL     1    -112.803 -41.633 -64.600  1.00  0.00    -0.000 C 
BRANCH  24  25
ATOM     25  C   UNL     1    -114.006 -41.426 -65.536  1.00  0.00    -0.000 C 
BRANCH  25  26
ATOM     26  C   UNL     1    -114.142 -42.532 -66.599  1.00  0.00    -0.000 C 
BRANCH  26  27
ATOM     27  C   UNL     1    -113.580 -42.178 -67.992  1.00  0.00    -0.000 C 
BRANCH  27  28
ATOM     28  C   UNL     1    -113.269 -40.685 -68.217  1.00  0.00    -0.000 C 
BRANCH  28  29
ATOM     29  C   UNL     1    -112.475 -40.374 -69.498  1.00  0.00    -0.000 C 
BRANCH  29  30
ATOM     30  C   UNL     1    -112.226 -41.621 -70.361  1.00  0.00    -0.000 C 
BRANCH  30  31
ATOM     31  C   UNL     1    -110.726 -41.835 -70.594  1.00  0.00    -0.003 C 
ATOM     32  C   UNL     1    -110.469 -42.552 -71.916  1.00  0.00     0.004 C 
ENDBRANCH  30  31
ENDBRANCH  29  30
ENDBRANCH  28  29
ENDBRANCH  27  28
ENDBRANCH  26  27
ENDBRANCH  25  26
ENDBRANCH  24  25
ENDBRANCH  23  24
ENDBRANCH  22  23
ENDBRANCH  21  22
ENDBRANCH  20  21
ENDBRANCH  19  20
ENDBRANCH  18  19
ENDBRANCH   1  18
TORSDOF 28
ENDMDL
MODEL 8
REMARK VINA RESULT:    -4.387      2.309      7.008
REMARK INTER + INTRA:         -15.619
REMARK INTER:                 -10.553
REMARK INTRA:                  -5.066
REMARK UNBOUND:                -4.052
REMARK SMILES CCCCCCCCCCCCCCCCCCCCCCCCCCCCCC(=O)[O-]
REMARK SMILES IDX 16 1 17 2 18 3 19 4 20 5 21 6 22 7 23 8 24 9 25 10 26 11
REMARK SMILES IDX 27 12 28 13 29 14 30 15 31 16 32 17 15 18 14 19 13 20 12 21
REMARK SMILES IDX 11 22 10 23 9 24 8 25 7 26 6 27 5 28 4 29 3 30 2 31 1 32
REMARK H PARENT
REMARK Flexibility Score: inf
ROOT
ATOM      1  C   UNL     1    -112.524 -41.639 -68.909  1.00  0.00     0.000 C 
ENDROOT
BRANCH   1   2
ATOM      2  C   UNL     1    -113.407 -40.757 -68.007  1.00  0.00     0.000 C 
BRANCH   2   3
ATOM      3  C   UNL     1    -114.137 -41.504 -66.874  1.00  0.00     0.000 C 
BRANCH   3   4
ATOM      4  C   UNL     1    -113.686 -41.091 -65.457  1.00  0.00     0.000 C 
BRANCH   4   5
ATOM      5  C   UNL     1    -113.033 -42.247 -64.678  1.00  0.00     0.000 C 
BRANCH   5   6
ATOM      6  C   UNL     1    -111.692 -42.684 -65.288  1.00  0.00     0.000 C 
BRANCH   6   7
ATOM      7  C   UNL     1    -110.740 -41.500 -65.529  1.00  0.00     0.000 C 
BRANCH   7   8
ATOM      8  C   UNL     1    -109.259 -41.906 -65.451  1.00  0.00     0.000 C 
BRANCH   8   9
ATOM      9  C   UNL     1    -109.072 -43.392 -65.105  1.00  0.00     0.000 C 
BRANCH   9  10
ATOM     10  C   UNL     1    -107.936 -43.586 -64.094  1.00  0.00     0.000 C 
BRANCH  10  11
ATOM     11  C   UNL     1    -108.381 -43.173 -62.682  1.00  0.00     0.000 C 
BRANCH  11  12
ATOM     12  C   UNL     1    -107.493 -42.077 -62.065  1.00  0.00     0.000 C 
BRANCH  12  13
ATOM     13  C   UNL     1    -106.274 -42.593 -61.278  1.00  0.00     0.006 C 
BRANCH  13  14
ATOM     14  C   UNL     1    -105.612 -41.508 -60.417  1.00  0.00     0.053 C 
BRANCH  14  15
ATOM     15  C   UNL     1    -105.253 -42.050 -59.070  1.00  0.00     0.041 C 
ATOM     16  O   UNL     1    -104.298 -41.548 -58.420  1.00  0.00    -0.550 OA
ATOM     17  O   UNL     1    -105.989 -43.093 -58.520  1.00  0.00    -0.550 OA
ENDBRANCH  14  15
ENDBRANCH  13  14
ENDBRANCH  12  13
ENDBRANCH  11  12
ENDBRANCH  10  11
ENDBRANCH   9  10
ENDBRANCH   8   9
ENDBRANCH   7   8
ENDBRANCH   6   7
ENDBRANCH   5   6
ENDBRANCH   4   5
ENDBRANCH   3   4
ENDBRANCH   2   3
ENDBRANCH   1   2
BRANCH   1  18
ATOM     18  C   UNL     1    -112.749 -43.160 -68.774  1.00  0.00     0.000 C 
BRANCH  18  19
ATOM     19  C   UNL     1    -111.489 -44.031 -68.928  1.00  0.00     0.000 C 
BRANCH  19  20
ATOM     20  C   UNL     1    -110.346 -43.316 -69.668  1.00  0.00     0.000 C 
BRANCH  20  21
ATOM     21  C   UNL     1    -109.018 -43.354 -68.888  1.00  0.00     0.000 C 
BRANCH  21  22
ATOM     22  C   UNL     1    -108.250 -42.017 -68.840  1.00  0.00     0.000 C 
BRANCH  22  23
ATOM     23  C   UNL     1    -106.736 -42.143 -68.575  1.00  0.00     0.000 C 
BRANCH  23  24
ATOM     24  C   UNL     1    -106.329 -43.309 -67.655  1.00  0.00    -0.000 C 
BRANCH  24  25
ATOM     25  C   UNL     1    -105.373 -42.872 -66.532  1.00  0.00    -0.000 C 
BRANCH  25  26
ATOM     26  C   UNL     1    -105.217 -41.343 -66.432  1.00  0.00    -0.000 C 
BRANCH  26  27
ATOM     27  C   UNL     1    -105.739 -40.712 -65.124  1.00  0.00    -0.000 C 
BRANCH  27  28
ATOM     28  C   UNL     1    -106.807 -39.614 -65.303  1.00  0.00    -0.000 C 
BRANCH  28  29
ATOM     29  C   UNL     1    -106.772 -38.498 -64.244  1.00  0.00    -0.000 C 
BRANCH  29  30
ATOM     30  C   UNL     1    -105.977 -38.893 -62.990  1.00  0.00    -0.000 C 
BRANCH  30  31
ATOM     31  C   UNL     1    -104.693 -38.064 -62.871  1.00  0.00    -0.003 C 
ATOM     32  C   UNL     1    -104.552 -37.093 -64.039  1.00  0.00     0.004 C 
ENDBRANCH  30  31
ENDBRANCH  29  30
ENDBRANCH  28  29
ENDBRANCH  27  28
ENDBRANCH  26  27
ENDBRANCH  25  26
ENDBRANCH  24  25
ENDBRANCH  23  24
ENDBRANCH  22  23
ENDBRANCH  21  22
ENDBRANCH  20  21
ENDBRANCH  19  20
ENDBRANCH  18  19
ENDBRANCH   1  18
TORSDOF 28
ENDMDL
MODEL 9
REMARK VINA RESULT:    -4.290      2.529      5.570
REMARK INTER + INTRA:         -15.364
REMARK INTER:                 -10.319
REMARK INTRA:                  -5.045
REMARK UNBOUND:                -4.052
REMARK SMILES CCCCCCCCCCCCCCCCCCCCCCCCCCCCCC(=O)[O-]
REMARK SMILES IDX 16 1 17 2 18 3 19 4 20 5 21 6 22 7 23 8 24 9 25 10 26 11
REMARK SMILES IDX 27 12 28 13 29 14 30 15 31 16 32 17 15 18 14 19 13 20 12 21
REMARK SMILES IDX 11 22 10 23 9 24 8 25 7 26 6 27 5 28 4 29 3 30 2 31 1 32
REMARK H PARENT
REMARK Flexibility Score: inf
ROOT
ATOM      1  C   UNL     1    -113.771 -41.150 -66.903  1.00  0.00     0.000 C 
ENDROOT
BRANCH   1   2
ATOM      2  C   UNL     1    -112.830 -40.950 -65.700  1.00  0.00     0.000 C 
BRANCH   2   3
ATOM      3  C   UNL     1    -112.148 -42.231 -65.182  1.00  0.00     0.000 C 
BRANCH   3   4
ATOM      4  C   UNL     1    -110.610 -42.217 -65.306  1.00  0.00     0.000 C 
BRANCH   4   5
ATOM      5  C   UNL     1    -110.010 -43.627 -65.460  1.00  0.00     0.000 C 
BRANCH   5   6
ATOM      6  C   UNL     1    -108.603 -43.737 -64.853  1.00  0.00     0.000 C 
BRANCH   6   7
ATOM      7  C   UNL     1    -108.348 -42.684 -63.760  1.00  0.00     0.000 C 
BRANCH   7   8
ATOM      8  C   UNL     1    -108.052 -43.314 -62.390  1.00  0.00     0.000 C 
BRANCH   8   9
ATOM      9  C   UNL     1    -107.051 -42.488 -61.565  1.00  0.00     0.000 C 
BRANCH   9  10
ATOM     10  C   UNL     1    -106.736 -41.154 -62.252  1.00  0.00     0.000 C 
BRANCH  10  11
ATOM     11  C   UNL     1    -105.608 -40.412 -61.517  1.00  0.00     0.000 C 
BRANCH  11  12
ATOM     12  C   UNL     1    -104.547 -41.358 -60.928  1.00  0.00     0.000 C 
BRANCH  12  13
ATOM     13  C   UNL     1    -103.886 -40.867 -59.626  1.00  0.00     0.006 C 
BRANCH  13  14
ATOM     14  C   UNL     1    -104.862 -40.808 -58.442  1.00  0.00     0.053 C 
BRANCH  14  15
ATOM     15  C   UNL     1    -104.151 -40.396 -57.192  1.00  0.00     0.041 C 
ATOM     16  O   UNL     1    -103.769 -39.204 -57.045  1.00  0.00    -0.550 OA
ATOM     17  O   UNL     1    -103.933 -41.320 -56.178  1.00  0.00    -0.550 OA
ENDBRANCH  14  15
ENDBRANCH  13  14
ENDBRANCH  12  13
ENDBRANCH  11  12
ENDBRANCH  10  11
ENDBRANCH   9  10
ENDBRANCH   8   9
ENDBRANCH   7   8
ENDBRANCH   6   7
ENDBRANCH   5   6
ENDBRANCH   4   5
ENDBRANCH   3   4
ENDBRANCH   2   3
ENDBRANCH   1   2
BRANCH   1  18
ATOM     18  C   UNL     1    -113.893 -42.602 -67.413  1.00  0.00     0.000 C 
BRANCH  18  19
ATOM     19  C   UNL     1    -113.327 -42.857 -68.822  1.00  0.00     0.000 C 
BRANCH  19  20
ATOM     20  C   UNL     1    -111.954 -43.550 -68.807  1.00  0.00     0.000 C 
BRANCH  20  21
ATOM     21  C   UNL     1    -110.855 -42.707 -69.481  1.00  0.00     0.000 C 
BRANCH  21  22
ATOM     22  C   UNL     1    -110.696 -41.277 -68.928  1.00  0.00     0.000 C 
BRANCH  22  23
ATOM     23  C   UNL     1    -109.298 -40.945 -68.367  1.00  0.00     0.000 C 
BRANCH  23  24
ATOM     24  C   UNL     1    -108.189 -40.797 -69.425  1.00  0.00    -0.000 C 
BRANCH  24  25
ATOM     25  C   UNL     1    -106.948 -41.647 -69.107  1.00  0.00    -0.000 C 
BRANCH  25  26
ATOM     26  C   UNL     1    -107.150 -42.580 -67.898  1.00  0.00    -0.000 C 
BRANCH  26  27
ATOM     27  C   UNL     1    -105.862 -42.954 -67.133  1.00  0.00    -0.000 C 
BRANCH  27  28
ATOM     28  C   UNL     1    -105.139 -41.777 -66.448  1.00  0.00    -0.000 C 
BRANCH  28  29
ATOM     29  C   UNL     1    -106.065 -40.766 -65.749  1.00  0.00    -0.000 C 
BRANCH  29  30
ATOM     30  C   UNL     1    -105.938 -39.347 -66.323  1.00  0.00    -0.000 C 
BRANCH  30  31
ATOM     31  C   UNL     1    -107.102 -38.463 -65.861  1.00  0.00    -0.003 C 
ATOM     32  C   UNL     1    -108.247 -39.303 -65.305  1.00  0.00     0.004 C 
ENDBRANCH  30  31
ENDBRANCH  29  30
ENDBRANCH  28  29
ENDBRANCH  27  28
ENDBRANCH  26  27
ENDBRANCH  25  26
ENDBRANCH  24  25
ENDBRANCH  23  24
ENDBRANCH  22  23
ENDBRANCH  21  22
ENDBRANCH  20  21
ENDBRANCH  19  20
ENDBRANCH  18  19
ENDBRANCH   1  18
TORSDOF 28
ENDMDL
