MODEL 1
REMARK VINA RESULT:    -2.129      0.000      0.000
REMARK INTER + INTRA:          -2.129
REMARK INTER:                  -2.129
REMARK INTRA:                   0.000
REMARK UNBOUND:                 0.000
REMARK SMILES CC(=O)[O-]
REMARK SMILES IDX 1 1 2 2 3 3 4 4
REMARK H PARENT
REMARK Flexibility Score: inf
ROOT
ATOM      1  C   UNL     1       9.822 -14.659  24.225  1.00  0.00     0.063 C 
ATOM      2  C   UNL     1       8.483 -14.575  24.876  1.00  0.00     0.038 C 
ATOM      3  O   UNL     1       7.482 -14.187  24.217  1.00  0.00    -0.550 OA
ATOM      4  O   UNL     1       8.325 -14.977  26.197  1.00  0.00    -0.550 OA
ENDROOT
TORSDOF 0
ENDMDL
MODEL 2
REMARK VINA RESULT:    -2.087      2.600      3.144
REMARK INTER + INTRA:          -2.087
REMARK INTER:                  -2.087
REMARK INTRA:                   0.000
REMARK UNBOUND:                 0.000
REMARK SMILES CC(=O)[O-]
REMARK SMILES IDX 1 1 2 2 3 3 4 4
REMARK H PARENT
REMARK Flexibility Score: inf
ROOT
ATOM      1  C   UNL     1       5.999 -13.961  21.898  1.00  0.00     0.063 C 
ATOM      2  C   UNL     1       6.535 -14.520  23.172  1.00  0.00     0.038 C 
ATOM      3  O   UNL     1       7.640 -14.118  23.623  1.00  0.00    -0.550 OA
ATOM      4  O   UNL     1       5.792 -15.447  23.893  1.00  0.00    -0.550 OA
ENDROOT
TORSDOF 0
ENDMDL
MODEL 3
REMARK VINA RESULT:    -2.066      1.280      1.668
REMARK INTER + INTRA:          -2.066
REMARK INTER:                  -2.066
REMARK INTRA:                   0.000
REMARK UNBOUND:                 0.000
REMARK SMILES CC(=O)[O-]
REMARK SMILES IDX 1 1 2 2 3 3 4 4
REMARK H PARENT
REMARK Flexibility Score: inf
ROOT
ATOM      1  C   UNL     1       7.163 -14.767  23.992  1.00  0.00     0.063 C 
ATOM      2  C   UNL     1       8.383 -14.665  24.844  1.00  0.00     0.038 C 
ATOM      3  O   UNL     1       9.471 -14.274  24.345  1.00  0.00    -0.550 OA
ATOM      4  O   UNL     1       8.309 -14.948  26.202  1.00  0.00    -0.550 OA
ENDROOT
TORSDOF 0
ENDMDL
MODEL 4
REMARK VINA RESULT:    -2.063      1.387      1.752
REMARK INTER + INTRA:          -2.063
REMARK INTER:                  -2.063
REMARK INTRA:                   0.000
REMARK UNBOUND:                 0.000
REMARK SMILES CC(=O)[O-]
REMARK SMILES IDX 1 1 2 2 3 3 4 4
REMARK H PARENT
REMARK Flexibility Score: inf
ROOT
ATOM      1  C   UNL     1       8.318 -15.251  26.142  1.00  0.00     0.063 C 
ATOM      2  C   UNL     1       8.438 -14.575  24.818  1.00  0.00     0.038 C 
ATOM      3  O   UNL     1       7.406 -14.183  24.212  1.00  0.00    -0.550 OA
ATOM      4  O   UNL     1       9.692 -14.326  24.275  1.00  0.00    -0.550 OA
ENDROOT
TORSDOF 0
ENDMDL
MODEL 5
REMARK VINA RESULT:    -1.957      1.821      2.801
REMARK INTER + INTRA:          -1.957
REMARK INTER:                  -1.957
REMARK INTRA:                   0.000
REMARK UNBOUND:                 0.000
REMARK SMILES CC(=O)[O-]
REMARK SMILES IDX 1 1 2 2 3 3 4 4
REMARK H PARENT
REMARK Flexibility Score: inf
ROOT
ATOM      1  C   UNL     1       6.336 -15.849  24.246  1.00  0.00     0.063 C 
ATOM      2  C   UNL     1       7.115 -14.601  23.998  1.00  0.00     0.038 C 
ATOM      3  O   UNL     1       8.058 -14.281  24.769  1.00  0.00    -0.550 OA
ATOM      4  O   UNL     1       6.838 -13.817  22.885  1.00  0.00    -0.550 OA
ENDROOT
TORSDOF 0
ENDMDL
MODEL 6
REMARK VINA RESULT:    -1.947      2.806      3.244
REMARK INTER + INTRA:          -1.947
REMARK INTER:                  -1.947
REMARK INTRA:                   0.000
REMARK UNBOUND:                 0.000
REMARK SMILES CC(=O)[O-]
REMARK SMILES IDX 1 1 2 2 3 3 4 4
REMARK H PARENT
REMARK Flexibility Score: inf
ROOT
ATOM      1  C   UNL     1       6.388 -16.364  24.711  1.00  0.00     0.063 C 
ATOM      2  C   UNL     1       7.076 -16.668  25.998  1.00  0.00     0.038 C 
ATOM      3  O   UNL     1       7.028 -17.829  26.482  1.00  0.00    -0.550 OA
ATOM      4  O   UNL     1       7.819 -15.685  26.640  1.00  0.00    -0.550 OA
ENDROOT
TORSDOF 0
ENDMDL
MODEL 7
REMARK VINA RESULT:    -1.918      4.973      5.602
REMARK INTER + INTRA:          -1.918
REMARK INTER:                  -1.918
REMARK INTRA:                   0.000
REMARK UNBOUND:                 0.000
REMARK SMILES CC(=O)[O-]
REMARK SMILES IDX 1 1 2 2 3 3 4 4
REMARK H PARENT
REMARK Flexibility Score: inf
ROOT
ATOM      1  C   UNL     1       6.960 -15.435  19.888  1.00  0.00     0.063 C 
ATOM      2  C   UNL     1       6.134 -14.223  20.159  1.00  0.00     0.038 C 
ATOM      3  O   UNL     1       5.683 -14.011  21.316  1.00  0.00    -0.550 OA
ATOM      4  O   UNL     1       5.904 -13.297  19.150  1.00  0.00    -0.550 OA
ENDROOT
TORSDOF 0
ENDMDL
MODEL 8
REMARK VINA RESULT:    -1.912      2.963      3.495
REMARK INTER + INTRA:          -1.912
REMARK INTER:                  -1.912
REMARK INTRA:                   0.000
REMARK UNBOUND:                 0.000
REMARK SMILES CC(=O)[O-]
REMARK SMILES IDX 1 1 2 2 3 3 4 4
REMARK H PARENT
REMARK Flexibility Score: inf
ROOT
ATOM      1  C   UNL     1       6.750 -17.763  23.749  1.00  0.00     0.063 C 
ATOM      2  C   UNL     1       6.354 -16.600  24.594  1.00  0.00     0.038 C 
ATOM      3  O   UNL     1       6.672 -16.566  25.812  1.00  0.00    -0.550 OA
ATOM      4  O   UNL     1       5.681 -15.526  24.027  1.00  0.00    -0.550 OA
ENDROOT
TORSDOF 0
ENDMDL
MODEL 9
REMARK VINA RESULT:    -1.862      1.785      1.945
REMARK INTER + INTRA:          -1.862
REMARK INTER:                  -1.862
REMARK INTRA:                   0.000
REMARK UNBOUND:                 0.000
REMARK SMILES CC(=O)[O-]
REMARK SMILES IDX 1 1 2 2 3 3 4 4
REMARK H PARENT
REMARK Flexibility Score: inf
ROOT
ATOM      1  C   UNL     1       9.682 -16.306  26.311  1.00  0.00     0.063 C 
ATOM      2  C   UNL     1       8.378 -15.639  26.036  1.00  0.00     0.038 C 
ATOM      3  O   UNL     1       8.351 -14.496  25.507  1.00  0.00    -0.550 OA
ATOM      4  O   UNL     1       7.187 -16.298  26.313  1.00  0.00    -0.550 OA
ENDROOT
TORSDOF 0
ENDMDL
