MODEL 1
REMARK VINA RESULT:    -3.148      0.000      0.000
REMARK INTER + INTRA:          -4.503
REMARK INTER:                  -4.345
REMARK INTRA:                  -0.158
REMARK UNBOUND:                -0.158
REMARK SMILES CCCCCCCCO
REMARK SMILES IDX 5 1 4 2 3 3 2 4 1 5 6 6 7 7 8 8 9 9
REMARK H PARENT 9 10
REMARK Flexibility Score: inf
ROOT
ATOM      1  C   UNL     1      36.084  -6.171  25.244  1.00  0.00     0.000 C 
ENDROOT
BRANCH   1   2
ATOM      2  C   UNL     1      34.746  -6.777  24.787  1.00  0.00    -0.000 C 
BRANCH   2   3
ATOM      3  C   UNL     1      34.559  -8.226  25.269  1.00  0.00    -0.000 C 
BRANCH   3   4
ATOM      4  C   UNL     1      33.624  -8.331  26.483  1.00  0.00    -0.003 C 
ATOM      5  C   UNL     1      34.420  -8.481  27.777  1.00  0.00     0.004 C 
ENDBRANCH   3   4
ENDBRANCH   2   3
ENDBRANCH   1   2
BRANCH   1   6
ATOM      6  C   UNL     1      36.665  -5.184  24.220  1.00  0.00     0.002 C 
BRANCH   6   7
ATOM      7  C   UNL     1      35.924  -3.837  24.205  1.00  0.00     0.028 C 
BRANCH   7   8
ATOM      8  C   UNL     1      34.972  -3.747  23.009  1.00  0.00     0.156 C 
BRANCH   8   9
ATOM      9  O   UNL     1      33.642  -3.735  23.450  1.00  0.00    -0.396 OA
ATOM     10  H   UNL     1      33.228  -2.911  23.083  1.00  0.00     0.210 HD
ENDBRANCH   8   9
ENDBRANCH   7   8
ENDBRANCH   6   7
ENDBRANCH   1   6
TORSDOF 7
ENDMDL
MODEL 2
REMARK VINA RESULT:    -3.056     18.004     19.801
REMARK INTER + INTRA:          -4.375
REMARK INTER:                  -4.035
REMARK INTRA:                  -0.340
REMARK UNBOUND:                -0.158
REMARK SMILES CCCCCCCCO
REMARK SMILES IDX 5 1 4 2 3 3 2 4 1 5 6 6 7 7 8 8 9 9
REMARK H PARENT 9 10
REMARK Flexibility Score: inf
ROOT
ATOM      1  C   UNL     1      28.629 -21.487  34.584  1.00  0.00     0.000 C 
ENDROOT
BRANCH   1   2
ATOM      2  C   UNL     1      28.958 -20.298  33.665  1.00  0.00    -0.000 C 
BRANCH   2   3
ATOM      3  C   UNL     1      28.649 -18.942  34.321  1.00  0.00    -0.000 C 
BRANCH   3   4
ATOM      4  C   UNL     1      28.239 -19.077  35.796  1.00  0.00    -0.003 C 
ATOM      5  C   UNL     1      28.506 -17.783  36.559  1.00  0.00     0.004 C 
ENDBRANCH   3   4
ENDBRANCH   2   3
ENDBRANCH   1   2
BRANCH   1   6
ATOM      6  C   UNL     1      29.871 -22.317  34.943  1.00  0.00     0.002 C 
BRANCH   6   7
ATOM      7  C   UNL     1      29.889 -22.753  36.417  1.00  0.00     0.028 C 
BRANCH   7   8
ATOM      8  C   UNL     1      28.481 -23.114  36.900  1.00  0.00     0.156 C 
BRANCH   8   9
ATOM      9  O   UNL     1      28.119 -22.304  37.985  1.00  0.00    -0.396 OA
ATOM     10  H   UNL     1      28.427 -21.385  37.768  1.00  0.00     0.210 HD
ENDBRANCH   8   9
ENDBRANCH   7   8
ENDBRANCH   6   7
ENDBRANCH   1   6
TORSDOF 7
ENDMDL
MODEL 3
REMARK VINA RESULT:    -2.909     15.133     16.761
REMARK INTER + INTRA:          -4.173
REMARK INTER:                  -3.684
REMARK INTRA:                  -0.489
REMARK UNBOUND:                -0.158
REMARK SMILES CCCCCCCCO
REMARK SMILES IDX 5 1 4 2 3 3 2 4 1 5 6 6 7 7 8 8 9 9
REMARK H PARENT 9 10
REMARK Flexibility Score: inf
ROOT
ATOM      1  C   UNL     1      27.756 -22.510  23.768  1.00  0.00     0.000 C 
ENDROOT
BRANCH   1   2
ATOM      2  C   UNL     1      28.491 -21.771  22.636  1.00  0.00    -0.000 C 
BRANCH   2   3
ATOM      3  C   UNL     1      29.891 -22.348  22.366  1.00  0.00    -0.000 C 
BRANCH   3   4
ATOM      4  C   UNL     1      30.925 -21.262  22.031  1.00  0.00    -0.003 C 
ATOM      5  C   UNL     1      30.310 -19.869  22.137  1.00  0.00     0.004 C 
ENDBRANCH   3   4
ENDBRANCH   2   3
ENDBRANCH   1   2
BRANCH   1   6
ATOM      6  C   UNL     1      28.252 -22.096  25.162  1.00  0.00     0.002 C 
BRANCH   6   7
ATOM      7  C   UNL     1      28.235 -20.573  25.372  1.00  0.00     0.028 C 
BRANCH   7   8
ATOM      8  C   UNL     1      29.612 -20.062  25.802  1.00  0.00     0.156 C 
BRANCH   8   9
ATOM      9  O   UNL     1      30.152 -20.899  26.789  1.00  0.00    -0.396 OA
ATOM     10  H   UNL     1      30.126 -20.388  27.640  1.00  0.00     0.210 HD
ENDBRANCH   8   9
ENDBRANCH   7   8
ENDBRANCH   6   7
ENDBRANCH   1   6
TORSDOF 7
ENDMDL
MODEL 4
REMARK VINA RESULT:    -2.906     15.081     16.516
REMARK INTER + INTRA:          -4.169
REMARK INTER:                  -3.726
REMARK INTRA:                  -0.442
REMARK UNBOUND:                -0.158
REMARK SMILES CCCCCCCCO
REMARK SMILES IDX 5 1 4 2 3 3 2 4 1 5 6 6 7 7 8 8 9 9
REMARK H PARENT 9 10
REMARK Flexibility Score: inf
ROOT
ATOM      1  C   UNL     1      29.524 -19.297  23.763  1.00  0.00     0.000 C 
ENDROOT
BRANCH   1   2
ATOM      2  C   UNL     1      28.370 -19.891  24.591  1.00  0.00    -0.000 C 
BRANCH   2   3
ATOM      3  C   UNL     1      28.864 -20.841  25.694  1.00  0.00    -0.000 C 
BRANCH   3   4
ATOM      4  C   UNL     1      27.787 -21.843  26.139  1.00  0.00    -0.003 C 
ATOM      5  C   UNL     1      26.976 -22.342  24.945  1.00  0.00     0.004 C 
ENDBRANCH   3   4
ENDBRANCH   2   3
ENDBRANCH   1   2
BRANCH   1   6
ATOM      6  C   UNL     1      29.613 -19.905  22.355  1.00  0.00     0.002 C 
BRANCH   6   7
ATOM      7  C   UNL     1      30.648 -21.037  22.261  1.00  0.00     0.028 C 
BRANCH   7   8
ATOM      8  C   UNL     1      29.970 -22.379  21.970  1.00  0.00     0.156 C 
BRANCH   8   9
ATOM      9  O   UNL     1      29.819 -23.112  23.155  1.00  0.00    -0.396 OA
ATOM     10  H   UNL     1      28.920 -23.532  23.117  1.00  0.00     0.210 HD
ENDBRANCH   8   9
ENDBRANCH   7   8
ENDBRANCH   6   7
ENDBRANCH   1   6
TORSDOF 7
ENDMDL
MODEL 5
REMARK VINA RESULT:    -2.896     17.588     19.703
REMARK INTER + INTRA:          -4.154
REMARK INTER:                  -3.881
REMARK INTRA:                  -0.274
REMARK UNBOUND:                -0.158
REMARK SMILES CCCCCCCCO
REMARK SMILES IDX 5 1 4 2 3 3 2 4 1 5 6 6 7 7 8 8 9 9
REMARK H PARENT 9 10
REMARK Flexibility Score: inf
ROOT
ATOM      1  C   UNL     1      26.911 -19.104  36.650  1.00  0.00     0.000 C 
ENDROOT
BRANCH   1   2
ATOM      2  C   UNL     1      28.165 -18.748  35.833  1.00  0.00    -0.000 C 
BRANCH   2   3
ATOM      3  C   UNL     1      28.959 -17.584  36.448  1.00  0.00    -0.000 C 
BRANCH   3   4
ATOM      4  C   UNL     1      28.056 -16.547  37.133  1.00  0.00    -0.003 C 
ATOM      5  C   UNL     1      28.798 -15.230  37.346  1.00  0.00     0.004 C 
ENDBRANCH   3   4
ENDBRANCH   2   3
ENDBRANCH   1   2
BRANCH   1   6
ATOM      6  C   UNL     1      26.722 -20.621  36.811  1.00  0.00     0.002 C 
BRANCH   6   7
ATOM      7  C   UNL     1      27.608 -21.434  35.854  1.00  0.00     0.028 C 
BRANCH   7   8
ATOM      8  C   UNL     1      28.386 -22.514  36.611  1.00  0.00     0.156 C 
BRANCH   8   9
ATOM      9  O   UNL     1      28.199 -22.367  37.992  1.00  0.00    -0.396 OA
ATOM     10  H   UNL     1      28.807 -21.638  38.285  1.00  0.00     0.210 HD
ENDBRANCH   8   9
ENDBRANCH   7   8
ENDBRANCH   6   7
ENDBRANCH   1   6
TORSDOF 7
ENDMDL
MODEL 6
REMARK VINA RESULT:    -2.890     15.137     16.293
REMARK INTER + INTRA:          -4.146
REMARK INTER:                  -3.798
REMARK INTRA:                  -0.347
REMARK UNBOUND:                -0.158
REMARK SMILES CCCCCCCCO
REMARK SMILES IDX 5 1 4 2 3 3 2 4 1 5 6 6 7 7 8 8 9 9
REMARK H PARENT 9 10
REMARK Flexibility Score: inf
ROOT
ATOM      1  C   UNL     1      28.578 -21.904  23.210  1.00  0.00     0.000 C 
ENDROOT
BRANCH   1   2
ATOM      2  C   UNL     1      28.183 -22.597  24.526  1.00  0.00    -0.000 C 
BRANCH   2   3
ATOM      3  C   UNL     1      28.133 -21.623  25.715  1.00  0.00    -0.000 C 
BRANCH   3   4
ATOM      4  C   UNL     1      29.113 -20.449  25.561  1.00  0.00    -0.003 C 
ATOM      5  C   UNL     1      29.961 -20.275  26.817  1.00  0.00     0.004 C 
ENDBRANCH   3   4
ENDBRANCH   2   3
ENDBRANCH   1   2
BRANCH   1   6
ATOM      6  C   UNL     1      29.815 -22.539  22.557  1.00  0.00     0.002 C 
BRANCH   6   7
ATOM      7  C   UNL     1      30.732 -21.503  21.888  1.00  0.00     0.028 C 
BRANCH   7   8
ATOM      8  C   UNL     1      29.985 -20.189  21.638  1.00  0.00     0.156 C 
BRANCH   8   9
ATOM      9  O   UNL     1      30.763 -19.103  22.063  1.00  0.00    -0.396 OA
ATOM     10  H   UNL     1      30.128 -18.392  22.343  1.00  0.00     0.210 HD
ENDBRANCH   8   9
ENDBRANCH   7   8
ENDBRANCH   6   7
ENDBRANCH   1   6
TORSDOF 7
ENDMDL
MODEL 7
REMARK VINA RESULT:    -2.889     16.438     17.597
REMARK INTER + INTRA:          -4.145
REMARK INTER:                  -3.668
REMARK INTRA:                  -0.476
REMARK UNBOUND:                -0.158
REMARK SMILES CCCCCCCCO
REMARK SMILES IDX 5 1 4 2 3 3 2 4 1 5 6 6 7 7 8 8 9 9
REMARK H PARENT 9 10
REMARK Flexibility Score: inf
ROOT
ATOM      1  C   UNL     1      27.739 -22.815  20.964  1.00  0.00     0.000 C 
ENDROOT
BRANCH   1   2
ATOM      2  C   UNL     1      27.297 -21.537  21.697  1.00  0.00    -0.000 C 
BRANCH   2   3
ATOM      3  C   UNL     1      26.568 -21.835  23.017  1.00  0.00    -0.000 C 
BRANCH   3   4
ATOM      4  C   UNL     1      27.330 -22.833  23.903  1.00  0.00    -0.003 C 
ATOM      5  C   UNL     1      28.493 -22.153  24.619  1.00  0.00     0.004 C 
ENDBRANCH   3   4
ENDBRANCH   2   3
ENDBRANCH   1   2
BRANCH   1   6
ATOM      6  C   UNL     1      29.253 -22.854  20.703  1.00  0.00     0.002 C 
BRANCH   6   7
ATOM      7  C   UNL     1      29.917 -21.476  20.856  1.00  0.00     0.028 C 
BRANCH   7   8
ATOM      8  C   UNL     1      31.009 -21.508  21.928  1.00  0.00     0.156 C 
BRANCH   8   9
ATOM      9  O   UNL     1      32.272 -21.615  21.330  1.00  0.00    -0.396 OA
ATOM     10  H   UNL     1      32.229 -21.099  20.482  1.00  0.00     0.210 HD
ENDBRANCH   8   9
ENDBRANCH   7   8
ENDBRANCH   6   7
ENDBRANCH   1   6
TORSDOF 7
ENDMDL
MODEL 8
REMARK VINA RESULT:    -2.842     15.305     16.275
REMARK INTER + INTRA:          -4.080
REMARK INTER:                  -3.902
REMARK INTRA:                  -0.178
REMARK UNBOUND:                -0.158
REMARK SMILES CCCCCCCCO
REMARK SMILES IDX 5 1 4 2 3 3 2 4 1 5 6 6 7 7 8 8 9 9
REMARK H PARENT 9 10
REMARK Flexibility Score: inf
ROOT
ATOM      1  C   UNL     1      29.909 -19.873  22.864  1.00  0.00     0.000 C 
ENDROOT
BRANCH   1   2
ATOM      2  C   UNL     1      29.188 -20.425  24.106  1.00  0.00    -0.000 C 
BRANCH   2   3
ATOM      3  C   UNL     1      29.608 -19.707  25.400  1.00  0.00    -0.000 C 
BRANCH   3   4
ATOM      4  C   UNL     1      29.541 -20.621  26.633  1.00  0.00    -0.003 C 
ATOM      5  C   UNL     1      30.438 -20.099  27.751  1.00  0.00     0.004 C 
ENDBRANCH   3   4
ENDBRANCH   2   3
ENDBRANCH   1   2
BRANCH   1   6
ATOM      6  C   UNL     1      30.708 -20.953  22.117  1.00  0.00     0.002 C 
BRANCH   6   7
ATOM      7  C   UNL     1      30.024 -22.329  22.153  1.00  0.00     0.028 C 
BRANCH   7   8
ATOM      8  C   UNL     1      29.618 -22.778  20.747  1.00  0.00     0.156 C 
BRANCH   8   9
ATOM      9  O   UNL     1      30.757 -23.073  19.985  1.00  0.00    -0.396 OA
ATOM     10  H   UNL     1      30.659 -22.585  19.126  1.00  0.00     0.210 HD
ENDBRANCH   8   9
ENDBRANCH   7   8
ENDBRANCH   6   7
ENDBRANCH   1   6
TORSDOF 7
ENDMDL
