MODEL 1
REMARK VINA RESULT:    -6.445      0.000      0.000
REMARK INTER + INTRA:         -13.251
REMARK INTER:                 -11.344
REMARK INTRA:                  -1.908
REMARK UNBOUND:                -1.908
REMARK SMILES COc1cc(-c2[o+]c3cc(O)cc(O[C@H]4O[C@@H](CO)[C@H](O)[C@@H](O)[C@H]4O)c3cc2O[C@@H]2O[C@@H](CO)[C@@H](O)[C@@H](O)[C@H]2O)ccc1O
REMARK SMILES IDX 6 1 28 2 27 3 26 4 13 5 12 6 10 7 9 8 8 9 7 10 5 11 3 12
REMARK SMILES IDX 43 13 4 14 42 15 41 16 2 17 1 18 44 19 29 21 30 22 39 23
REMARK SMILES IDX 31 24 37 25 32 26 35 27 40 28 38 30 33 32 34 33 36 35 14 37
REMARK SMILES IDX 15 38 24 39 16 40 22 41 17 42 20 43 25 44 23 46 18 48 19 49
REMARK SMILES IDX 21 51 11 53
REMARK H PARENT 44 20 40 29 38 31 34 34 36 36 25 45 23 47 19 50 21 52 11 54
REMARK Flexibility Score: inf
ROOT
ATOM      1  C   UNL     1      14.737  -0.173   4.059  1.00  0.00     0.402 A 
ATOM      2  C   UNL     1      14.162   0.482   2.910  1.00  0.00     0.229 A 
ATOM      3  C   UNL     1      12.885  -0.213   2.494  1.00  0.00     0.079 A 
ATOM      4  C   UNL     1      11.954  -0.587   3.499  1.00  0.00     0.126 A 
ATOM      5  C   UNL     1      10.421  -0.528   3.716  1.00  0.00     0.143 A 
ATOM      6  C   UNL     1       9.964  -0.654   5.083  1.00  0.00     0.094 A 
ATOM      7  C   UNL     1      10.899  -0.568   6.099  1.00  0.00     0.128 A 
ATOM      8  C   UNL     1      12.152  -1.075   5.894  1.00  0.00     0.162 A 
ATOM      9  C   UNL     1      12.669  -1.117   4.604  1.00  0.00     0.368 A 
ATOM     10  O   UNL     1      13.969  -1.125   4.656  1.00  0.00    -0.202 OA
ENDROOT
BRANCH   1  11
ATOM     11  C   UNL     1      15.781   0.475   5.107  1.00  0.00     0.087 A 
ATOM     12  C   UNL     1      17.621   0.043   6.647  1.00  0.00     0.161 A 
ATOM     13  C   UNL     1      17.647   1.385   7.121  1.00  0.00     0.157 A 
ATOM     14  C   UNL     1      16.776  -0.363   5.675  1.00  0.00     0.068 A 
ATOM     15  C   UNL     1      16.796   2.317   6.475  1.00  0.00     0.051 A 
ATOM     16  C   UNL     1      15.770   1.852   5.607  1.00  0.00     0.022 A 
BRANCH  12  17
ATOM     17  O   UNL     1      18.566  -0.825   7.271  1.00  0.00    -0.493 OA
ATOM     18  C   UNL     1      20.005  -0.731   7.104  1.00  0.00     0.278 C 
ENDBRANCH  12  17
BRANCH  13  19
ATOM     19  O   UNL     1      18.314   1.815   8.220  1.00  0.00    -0.504 OA
ATOM     20  H   UNL     1      18.077   1.436   9.162  1.00  0.00     0.293 HD
ENDBRANCH  13  19
ENDBRANCH   1  11
BRANCH   2  21
ATOM     21  O   UNL     1      14.463   2.004   2.721  1.00  0.00    -0.452 OA
BRANCH  21  22
ATOM     22  C   UNL     1      13.567   3.019   2.042  1.00  0.00     0.339 C 
ATOM     23  C   UNL     1      14.628   3.830   1.634  1.00  0.00     0.214 C 
ATOM     24  O   UNL     1      12.728   3.081   0.753  1.00  0.00    -0.332 OA
ATOM     25  C   UNL     1      15.485   2.584   0.611  1.00  0.00     0.180 C 
ATOM     26  C   UNL     1      13.358   2.866  -0.588  1.00  0.00     0.179 C 
ATOM     27  C   UNL     1      14.420   1.891  -0.361  1.00  0.00     0.177 C 
BRANCH  23  28
ATOM     28  O   UNL     1      14.051   4.866   0.887  1.00  0.00    -0.384 OA
ATOM     29  H   UNL     1      13.577   4.524  -0.012  1.00  0.00     0.211 HD
ENDBRANCH  23  28
BRANCH  25  30
ATOM     30  O   UNL     1      16.574   2.911  -0.310  1.00  0.00    -0.387 OA
ATOM     31  H   UNL     1      17.286   3.109   0.351  1.00  0.00     0.211 HD
ENDBRANCH  25  30
BRANCH  26  32
ATOM     32  C   UNL     1      13.897   3.970  -1.678  1.00  0.00     0.191 C 
BRANCH  32  33
ATOM     33  O   UNL     1      12.902   4.326  -2.620  1.00  0.00    -0.394 OA
ATOM     34  H   UNL     1      12.805   3.554  -3.300  1.00  0.00     0.210 HD
ENDBRANCH  32  33
ENDBRANCH  26  32
BRANCH  27  35
ATOM     35  O   UNL     1      15.138   1.471  -1.418  1.00  0.00    -0.387 OA
ATOM     36  H   UNL     1      15.477   2.129  -2.004  1.00  0.00     0.211 HD
ENDBRANCH  27  35
ENDBRANCH  21  22
ENDBRANCH   2  21
BRANCH   5  37
ATOM     37  O   UNL     1       9.311  -0.195   2.874  1.00  0.00    -0.461 OA
BRANCH  37  38
ATOM     38  C   UNL     1       9.387   0.189   1.481  1.00  0.00     0.339 C 
ATOM     39  C   UNL     1       9.173   1.852   1.278  1.00  0.00     0.214 C 
ATOM     40  O   UNL     1       8.401  -0.383   0.673  1.00  0.00    -0.332 OA
ATOM     41  C   UNL     1       9.439   2.130  -0.279  1.00  0.00     0.180 C 
ATOM     42  C   UNL     1       9.036  -0.438  -0.616  1.00  0.00     0.179 C 
ATOM     43  C   UNL     1       9.927   0.894  -0.994  1.00  0.00     0.177 C 
BRANCH  39  44
ATOM     44  O   UNL     1       8.060   2.763   1.664  1.00  0.00    -0.384 OA
ATOM     45  H   UNL     1       8.147   3.784   2.106  1.00  0.00     0.211 HD
ENDBRANCH  39  44
BRANCH  41  46
ATOM     46  O   UNL     1       8.255   2.548  -0.970  1.00  0.00    -0.387 OA
ATOM     47  H   UNL     1       8.079   2.031  -1.824  1.00  0.00     0.211 HD
ENDBRANCH  41  46
BRANCH  42  48
ATOM     48  C   UNL     1       7.875  -0.660  -1.571  1.00  0.00     0.191 C 
BRANCH  48  49
ATOM     49  O   UNL     1       8.257  -1.057  -2.886  1.00  0.00    -0.394 OA
ATOM     50  H   UNL     1       8.672  -0.261  -3.373  1.00  0.00     0.210 HD
ENDBRANCH  48  49
ENDBRANCH  42  48
BRANCH  43  51
ATOM     51  O   UNL     1      11.238   0.678  -0.660  1.00  0.00    -0.387 OA
ATOM     52  H   UNL     1      11.374   0.812   0.302  1.00  0.00     0.211 HD
ENDBRANCH  43  51
ENDBRANCH  37  38
ENDBRANCH   5  37
BRANCH   7  53
ATOM     53  O   UNL     1      10.606   0.180   7.203  1.00  0.00    -0.507 OA
ATOM     54  H   UNL     1      11.310   0.851   7.581  1.00  0.00     0.293 HD
ENDBRANCH   7  53
TORSDOF 18
ENDMDL
MODEL 2
REMARK VINA RESULT:    -4.173     14.683     19.124
REMARK INTER + INTRA:          -9.251
REMARK INTER:                  -8.038
REMARK INTRA:                  -1.213
REMARK UNBOUND:                -1.908
REMARK SMILES COc1cc(-c2[o+]c3cc(O)cc(O[C@H]4O[C@@H](CO)[C@H](O)[C@@H](O)[C@H]4O)c3cc2O[C@@H]2O[C@@H](CO)[C@@H](O)[C@@H](O)[C@H]2O)ccc1O
REMARK SMILES IDX 6 1 28 2 27 3 26 4 13 5 12 6 10 7 9 8 8 9 7 10 5 11 3 12
REMARK SMILES IDX 43 13 4 14 42 15 41 16 2 17 1 18 44 19 29 21 30 22 39 23
REMARK SMILES IDX 31 24 37 25 32 26 35 27 40 28 38 30 33 32 34 33 36 35 14 37
REMARK SMILES IDX 15 38 24 39 16 40 22 41 17 42 20 43 25 44 23 46 18 48 19 49
REMARK SMILES IDX 21 51 11 53
REMARK H PARENT 44 20 40 29 38 31 34 34 36 36 25 45 23 47 19 50 21 52 11 54
REMARK Flexibility Score: inf
ROOT
ATOM      1  C   UNL     1      27.641  14.379   9.335  1.00  0.00     0.402 A 
ATOM      2  C   UNL     1      27.285  14.150   7.956  1.00  0.00     0.229 A 
ATOM      3  C   UNL     1      27.717  12.767   7.525  1.00  0.00     0.079 A 
ATOM      4  C   UNL     1      27.472  11.673   8.395  1.00  0.00     0.126 A 
ATOM      5  C   UNL     1      26.944  10.221   8.287  1.00  0.00     0.143 A 
ATOM      6  C   UNL     1      26.477   9.617   9.516  1.00  0.00     0.094 A 
ATOM      7  C   UNL     1      26.303  10.428  10.623  1.00  0.00     0.128 A 
ATOM      8  C   UNL     1      27.160  11.476  10.820  1.00  0.00     0.162 A 
ATOM      9  C   UNL     1      27.768  12.077   9.723  1.00  0.00     0.368 A 
ATOM     10  O   UNL     1      28.099  13.298  10.025  1.00  0.00    -0.202 OA
ENDROOT
BRANCH   1  11
ATOM     11  C   UNL     1      26.977  15.466  10.328  1.00  0.00     0.087 A 
ATOM     12  C   UNL     1      25.725  15.811  12.391  1.00  0.00     0.161 A 
ATOM     13  C   UNL     1      25.595  17.211  12.174  1.00  0.00     0.157 A 
ATOM     14  C   UNL     1      26.410  15.010  11.546  1.00  0.00     0.068 A 
ATOM     15  C   UNL     1      26.284  17.762  11.063  1.00  0.00     0.051 A 
ATOM     16  C   UNL     1      26.823  16.900  10.070  1.00  0.00     0.022 A 
BRANCH  12  17
ATOM     17  O   UNL     1      25.088  15.332  13.575  1.00  0.00    -0.493 OA
ATOM     18  C   UNL     1      24.400  14.058  13.680  1.00  0.00     0.278 C 
ENDBRANCH  12  17
BRANCH  13  19
ATOM     19  O   UNL     1      24.764  18.036  12.857  1.00  0.00    -0.504 OA
ATOM     20  H   UNL     1      24.651  17.934  13.889  1.00  0.00     0.293 HD
ENDBRANCH  13  19
ENDBRANCH   1  11
BRANCH   2  21
ATOM     21  O   UNL     1      26.052  14.927   7.392  1.00  0.00    -0.452 OA
BRANCH  21  22
ATOM     22  C   UNL     1      26.093  16.137   6.482  1.00  0.00     0.339 C 
ATOM     23  C   UNL     1      26.022  15.382   5.310  1.00  0.00     0.214 C 
ATOM     24  O   UNL     1      25.127  17.266   6.082  1.00  0.00    -0.332 OA
ATOM     25  C   UNL     1      24.414  14.588   5.649  1.00  0.00     0.180 C 
ATOM     26  C   UNL     1      23.794  16.961   5.472  1.00  0.00     0.179 C 
ATOM     27  C   UNL     1      23.366  15.711   6.095  1.00  0.00     0.177 C 
BRANCH  23  28
ATOM     28  O   UNL     1      25.977  16.311   4.260  1.00  0.00    -0.384 OA
ATOM     29  H   UNL     1      25.963  17.328   4.598  1.00  0.00     0.211 HD
ENDBRANCH  23  28
BRANCH  25  30
ATOM     30  O   UNL     1      23.656  13.843   4.643  1.00  0.00    -0.387 OA
ATOM     31  H   UNL     1      22.847  14.414   4.600  1.00  0.00     0.211 HD
ENDBRANCH  25  30
BRANCH  26  32
ATOM     32  C   UNL     1      23.352  16.926   3.891  1.00  0.00     0.191 C 
BRANCH  32  33
ATOM     33  O   UNL     1      24.121  17.810   3.098  1.00  0.00    -0.394 OA
ATOM     34  H   UNL     1      23.660  17.909   2.179  1.00  0.00     0.210 HD
ENDBRANCH  32  33
ENDBRANCH  26  32
BRANCH  27  35
ATOM     35  O   UNL     1      22.161  15.213   5.762  1.00  0.00    -0.387 OA
ATOM     36  H   UNL     1      21.709  15.614   5.037  1.00  0.00     0.211 HD
ENDBRANCH  27  35
ENDBRANCH  21  22
ENDBRANCH   2  21
BRANCH   5  37
ATOM     37  O   UNL     1      26.634   9.357   7.187  1.00  0.00    -0.461 OA
BRANCH  37  38
ATOM     38  C   UNL     1      26.829   7.924   7.152  1.00  0.00     0.339 C 
ATOM     39  C   UNL     1      25.479   7.123   6.527  1.00  0.00     0.214 C 
ATOM     40  O   UNL     1      27.022   7.339   8.406  1.00  0.00    -0.332 OA
ATOM     41  C   UNL     1      25.912   5.584   6.409  1.00  0.00     0.180 C 
ATOM     42  C   UNL     1      27.823   6.183   8.099  1.00  0.00     0.179 C 
ATOM     43  C   UNL     1      27.371   5.385   6.732  1.00  0.00     0.177 C 
BRANCH  39  44
ATOM     44  O   UNL     1      24.052   7.109   6.951  1.00  0.00    -0.384 OA
ATOM     45  H   UNL     1      23.424   6.214   7.174  1.00  0.00     0.211 HD
ENDBRANCH  39  44
BRANCH  41  46
ATOM     46  O   UNL     1      25.186   4.742   7.314  1.00  0.00    -0.387 OA
ATOM     47  H   UNL     1      24.778   3.926   6.872  1.00  0.00     0.211 HD
ENDBRANCH  41  46
BRANCH  42  48
ATOM     48  C   UNL     1      27.698   5.329   9.349  1.00  0.00     0.191 C 
BRANCH  48  49
ATOM     49  O   UNL     1      27.726   6.061  10.573  1.00  0.00    -0.394 OA
ATOM     50  H   UNL     1      26.789   6.076  10.980  1.00  0.00     0.210 HD
ENDBRANCH  48  49
ENDBRANCH  42  48
BRANCH  43  51
ATOM     51  O   UNL     1      28.123   5.827   5.675  1.00  0.00    -0.387 OA
ATOM     52  H   UNL     1      27.992   6.789   5.539  1.00  0.00     0.211 HD
ENDBRANCH  43  51
ENDBRANCH  37  38
ENDBRANCH   5  37
BRANCH   7  53
ATOM     53  O   UNL     1      25.178  10.278  11.381  1.00  0.00    -0.507 OA
ATOM     54  H   UNL     1      24.369  10.924  11.250  1.00  0.00     0.293 HD
ENDBRANCH   7  53
TORSDOF 18
ENDMDL
