MODEL 1
REMARK VINA RESULT:    -5.354      0.000      0.000
REMARK INTER + INTRA:          -6.556
REMARK INTER:                  -6.293
REMARK INTRA:                  -0.263
REMARK UNBOUND:                -0.263
REMARK SMILES O=c1c(O)c(-c2ccc(O)cc2)oc2cc(O)cc(O)c12
REMARK SMILES IDX 5 1 3 2 2 3 1 4 21 5 19 6 18 7 16 8 15 9 14 10 13 11 6 12
REMARK SMILES IDX 7 13 8 14 9 15 12 16 11 17 10 18 4 20 20 22 17 24
REMARK H PARENT 10 19 4 21 20 23 17 25
REMARK Flexibility Score: inf
ROOT
ATOM      1  C   UNL     1     -17.365  17.095 -15.995  1.00  0.00     0.180 A 
ATOM      2  C   UNL     1     -17.638  16.949 -17.369  1.00  0.00     0.208 A 
ATOM      3  C   UNL     1     -16.743  17.498 -18.300  1.00  0.00     0.238 A 
ATOM      4  O   UNL     1     -16.970  17.365 -19.533  1.00  0.00    -0.285 OA
ATOM      5  C   UNL     1     -15.605  18.198 -17.845  1.00  0.00     0.111 A 
ATOM      6  C   UNL     1     -14.657  18.783 -18.718  1.00  0.00     0.134 A 
ATOM      7  C   UNL     1     -13.556  19.471 -18.187  1.00  0.00     0.093 A 
ATOM      8  C   UNL     1     -13.385  19.586 -16.806  1.00  0.00     0.123 A 
ATOM      9  C   UNL     1     -14.320  19.008 -15.939  1.00  0.00     0.094 A 
ATOM     10  C   UNL     1     -15.422  18.317 -16.448  1.00  0.00     0.146 A 
ATOM     11  O   UNL     1     -16.291  17.774 -15.603  1.00  0.00    -0.452 OA
ENDROOT
BRANCH   1  12
ATOM     12  C   UNL     1     -18.251  16.528 -14.952  1.00  0.00     0.021 A 
ATOM     13  C   UNL     1     -18.164  15.161 -14.640  1.00  0.00     0.016 A 
ATOM     14  C   UNL     1     -19.005  14.600 -13.676  1.00  0.00     0.047 A 
ATOM     15  C   UNL     1     -19.956  15.394 -13.022  1.00  0.00     0.115 A 
ATOM     16  C   UNL     1     -19.222  17.315 -14.306  1.00  0.00     0.016 A 
ATOM     17  C   UNL     1     -20.063  16.751 -13.343  1.00  0.00     0.047 A 
BRANCH  15  18
ATOM     18  O   UNL     1     -20.799  14.847 -12.058  1.00  0.00    -0.508 OA
ATOM     19  H   UNL     1     -21.642  14.348 -12.314  1.00  0.00     0.293 HD
ENDBRANCH  15  18
ENDBRANCH   1  12
BRANCH   2  20
ATOM     20  O   UNL     1     -18.797  16.295 -17.793  1.00  0.00    -0.502 OA
ATOM     21  H   UNL     1     -19.459  16.721 -18.430  1.00  0.00     0.293 HD
ENDBRANCH   2  20
BRANCH   6  22
ATOM     22  O   UNL     1     -14.799  18.687 -20.102  1.00  0.00    -0.507 OA
ATOM     23  H   UNL     1     -14.191  19.191 -20.737  1.00  0.00     0.293 HD
ENDBRANCH   6  22
BRANCH   8  24
ATOM     24  O   UNL     1     -12.283  20.275 -16.304  1.00  0.00    -0.508 OA
ATOM     25  H   UNL     1     -11.532  20.587 -16.909  1.00  0.00     0.293 HD
ENDBRANCH   8  24
TORSDOF 5
ENDMDL
MODEL 2
REMARK VINA RESULT:    -5.198      2.422      3.149
REMARK INTER + INTRA:          -6.373
REMARK INTER:                  -6.078
REMARK INTRA:                  -0.294
REMARK UNBOUND:                -0.263
REMARK SMILES O=c1c(O)c(-c2ccc(O)cc2)oc2cc(O)cc(O)c12
REMARK SMILES IDX 5 1 3 2 2 3 1 4 21 5 19 6 18 7 16 8 15 9 14 10 13 11 6 12
REMARK SMILES IDX 7 13 8 14 9 15 12 16 11 17 10 18 4 20 20 22 17 24
REMARK H PARENT 10 19 4 21 20 23 17 25
REMARK Flexibility Score: inf
ROOT
ATOM      1  C   UNL     1     -16.341  17.516 -14.516  1.00  0.00     0.180 A 
ATOM      2  C   UNL     1     -16.120  18.904 -14.424  1.00  0.00     0.208 A 
ATOM      3  C   UNL     1     -14.961  19.444 -15.002  1.00  0.00     0.238 A 
ATOM      4  O   UNL     1     -14.756  20.687 -14.937  1.00  0.00    -0.285 OA
ATOM      5  C   UNL     1     -14.036  18.592 -15.642  1.00  0.00     0.111 A 
ATOM      6  C   UNL     1     -12.844  19.056 -16.246  1.00  0.00     0.134 A 
ATOM      7  C   UNL     1     -11.971  18.142 -16.854  1.00  0.00     0.093 A 
ATOM      8  C   UNL     1     -12.265  16.778 -16.870  1.00  0.00     0.123 A 
ATOM      9  C   UNL     1     -13.444  16.313 -16.276  1.00  0.00     0.094 A 
ATOM     10  C   UNL     1     -14.327  17.208 -15.666  1.00  0.00     0.146 A 
ATOM     11  O   UNL     1     -15.441  16.741 -15.113  1.00  0.00    -0.452 OA
ENDROOT
BRANCH   1  12
ATOM     12  C   UNL     1     -17.549  16.873 -13.948  1.00  0.00     0.021 A 
ATOM     13  C   UNL     1     -17.524  16.403 -12.625  1.00  0.00     0.016 A 
ATOM     14  C   UNL     1     -18.644  15.773 -12.075  1.00  0.00     0.047 A 
ATOM     15  C   UNL     1     -19.799  15.590 -12.848  1.00  0.00     0.115 A 
ATOM     16  C   UNL     1     -18.705  16.668 -14.724  1.00  0.00     0.016 A 
ATOM     17  C   UNL     1     -19.823  16.037 -14.172  1.00  0.00     0.047 A 
BRANCH  15  18
ATOM     18  O   UNL     1     -20.922  14.965 -12.311  1.00  0.00    -0.508 OA
ATOM     19  H   UNL     1     -21.859  15.247 -12.570  1.00  0.00     0.293 HD
ENDBRANCH  15  18
ENDBRANCH   1  12
BRANCH   2  20
ATOM     20  O   UNL     1     -17.025  19.719 -13.742  1.00  0.00    -0.502 OA
ATOM     21  H   UNL     1     -17.029  19.801 -12.733  1.00  0.00     0.293 HD
ENDBRANCH   2  20
BRANCH   6  22
ATOM     22  O   UNL     1     -12.520  20.414 -16.246  1.00  0.00    -0.507 OA
ATOM     23  H   UNL     1     -11.581  20.738 -16.447  1.00  0.00     0.293 HD
ENDBRANCH   6  22
BRANCH   8  24
ATOM     24  O   UNL     1     -11.382  15.891 -17.481  1.00  0.00    -0.508 OA
ATOM     25  H   UNL     1     -10.526  16.212 -17.920  1.00  0.00     0.293 HD
ENDBRANCH   8  24
TORSDOF 5
ENDMDL
MODEL 3
REMARK VINA RESULT:    -5.188      9.873     11.700
REMARK INTER + INTRA:          -6.361
REMARK INTER:                  -6.297
REMARK INTRA:                  -0.064
REMARK UNBOUND:                -0.263
REMARK SMILES O=c1c(O)c(-c2ccc(O)cc2)oc2cc(O)cc(O)c12
REMARK SMILES IDX 5 1 3 2 2 3 1 4 21 5 19 6 18 7 16 8 15 9 14 10 13 11 6 12
REMARK SMILES IDX 7 13 8 14 9 15 12 16 11 17 10 18 4 20 20 22 17 24
REMARK H PARENT 10 19 4 21 20 23 17 25
REMARK Flexibility Score: inf
ROOT
ATOM      1  C   UNL     1     -11.909   8.657 -15.469  1.00  0.00     0.180 A 
ATOM      2  C   UNL     1     -11.745   8.467 -16.855  1.00  0.00     0.208 A 
ATOM      3  C   UNL     1     -12.708   7.723 -17.555  1.00  0.00     0.238 A 
ATOM      4  O   UNL     1     -12.578   7.554 -18.798  1.00  0.00    -0.285 OA
ATOM      5  C   UNL     1     -13.802   7.166 -16.860  1.00  0.00     0.111 A 
ATOM      6  C   UNL     1     -14.812   6.401 -17.490  1.00  0.00     0.134 A 
ATOM      7  C   UNL     1     -15.863   5.873 -16.726  1.00  0.00     0.093 A 
ATOM      8  C   UNL     1     -15.925   6.094 -15.349  1.00  0.00     0.123 A 
ATOM      9  C   UNL     1     -14.929   6.851 -14.721  1.00  0.00     0.094 A 
ATOM     10  C   UNL     1     -13.874   7.386 -15.465  1.00  0.00     0.146 A 
ATOM     11  O   UNL     1     -12.945   8.105 -14.844  1.00  0.00    -0.452 OA
ENDROOT
BRANCH   1  12
ATOM     12  C   UNL     1     -10.948   9.445 -14.664  1.00  0.00     0.021 A 
ATOM     13  C   UNL     1     -10.381   8.875 -13.512  1.00  0.00     0.016 A 
ATOM     14  C   UNL     1      -9.489   9.609 -12.725  1.00  0.00     0.047 A 
ATOM     15  C   UNL     1      -9.164  10.927 -13.070  1.00  0.00     0.115 A 
ATOM     16  C   UNL     1     -10.633  10.776 -14.993  1.00  0.00     0.016 A 
ATOM     17  C   UNL     1      -9.741  11.508 -14.204  1.00  0.00     0.047 A 
BRANCH  15  18
ATOM     18  O   UNL     1      -8.276  11.667 -12.294  1.00  0.00    -0.508 OA
ATOM     19  H   UNL     1      -8.602  12.318 -11.591  1.00  0.00     0.293 HD
ENDBRANCH  15  18
ENDBRANCH   1  12
BRANCH   2  20
ATOM     20  O   UNL     1     -10.627   8.986 -17.511  1.00  0.00    -0.502 OA
ATOM     21  H   UNL     1     -10.231   8.551 -18.335  1.00  0.00     0.293 HD
ENDBRANCH   2  20
BRANCH   6  22
ATOM     22  O   UNL     1     -14.778   6.162 -18.865  1.00  0.00    -0.507 OA
ATOM     23  H   UNL     1     -14.786   6.919 -19.538  1.00  0.00     0.293 HD
ENDBRANCH   6  22
BRANCH   8  24
ATOM     24  O   UNL     1     -16.980   5.560 -14.614  1.00  0.00    -0.508 OA
ATOM     25  H   UNL     1     -17.049   5.694 -13.611  1.00  0.00     0.293 HD
ENDBRANCH   8  24
TORSDOF 5
ENDMDL
MODEL 4
REMARK VINA RESULT:    -5.168     11.975     15.293
REMARK INTER + INTRA:          -6.338
REMARK INTER:                  -6.240
REMARK INTRA:                  -0.098
REMARK UNBOUND:                -0.263
REMARK SMILES O=c1c(O)c(-c2ccc(O)cc2)oc2cc(O)cc(O)c12
REMARK SMILES IDX 5 1 3 2 2 3 1 4 21 5 19 6 18 7 16 8 15 9 14 10 13 11 6 12
REMARK SMILES IDX 7 13 8 14 9 15 12 16 11 17 10 18 4 20 20 22 17 24
REMARK H PARENT 10 19 4 21 20 23 17 25
REMARK Flexibility Score: inf
ROOT
ATOM      1  C   UNL     1     -10.050  14.465 -28.706  1.00  0.00     0.180 A 
ATOM      2  C   UNL     1      -9.886  14.661 -27.321  1.00  0.00     0.208 A 
ATOM      3  C   UNL     1     -10.543  15.739 -26.707  1.00  0.00     0.238 A 
ATOM      4  O   UNL     1     -10.412  15.919 -25.466  1.00  0.00    -0.285 OA
ATOM      5  C   UNL     1     -11.333  16.610 -27.486  1.00  0.00     0.111 A 
ATOM      6  C   UNL     1     -12.024  17.720 -26.945  1.00  0.00     0.134 A 
ATOM      7  C   UNL     1     -12.783  18.545 -27.788  1.00  0.00     0.093 A 
ATOM      8  C   UNL     1     -12.863  18.284 -29.157  1.00  0.00     0.123 A 
ATOM      9  C   UNL     1     -12.182  17.187 -29.697  1.00  0.00     0.094 A 
ATOM     10  C   UNL     1     -11.423  16.352 -28.873  1.00  0.00     0.146 A 
ATOM     11  O   UNL     1     -10.791  15.315 -29.411  1.00  0.00    -0.452 OA
ENDROOT
BRANCH   1  12
ATOM     12  C   UNL     1      -9.406  13.341 -29.423  1.00  0.00     0.021 A 
ATOM     13  C   UNL     1      -8.576  13.609 -30.525  1.00  0.00     0.016 A 
ATOM     14  C   UNL     1      -7.975  12.562 -31.230  1.00  0.00     0.047 A 
ATOM     15  C   UNL     1      -8.209  11.233 -30.854  1.00  0.00     0.115 A 
ATOM     16  C   UNL     1      -9.652  12.003 -29.064  1.00  0.00     0.016 A 
ATOM     17  C   UNL     1      -9.051  10.958 -29.772  1.00  0.00     0.047 A 
BRANCH  15  18
ATOM     18  O   UNL     1      -7.615  10.182 -31.548  1.00  0.00    -0.508 OA
ATOM     19  H   UNL     1      -8.073   9.744 -32.338  1.00  0.00     0.293 HD
ENDBRANCH  15  18
ENDBRANCH   1  12
BRANCH   2  20
ATOM     20  O   UNL     1      -9.058  13.814 -26.582  1.00  0.00    -0.502 OA
ATOM     21  H   UNL     1      -8.080  14.019 -26.416  1.00  0.00     0.293 HD
ENDBRANCH   2  20
BRANCH   6  22
ATOM     22  O   UNL     1     -11.963  18.009 -25.580  1.00  0.00    -0.507 OA
ATOM     23  H   UNL     1     -12.699  18.523 -25.111  1.00  0.00     0.293 HD
ENDBRANCH   6  22
BRANCH   8  24
ATOM     24  O   UNL     1     -13.623  19.119 -29.973  1.00  0.00    -0.508 OA
ATOM     25  H   UNL     1     -14.067  19.955 -29.610  1.00  0.00     0.293 HD
ENDBRANCH   8  24
TORSDOF 5
ENDMDL
MODEL 5
REMARK VINA RESULT:    -5.117     13.110     15.892
REMARK INTER + INTRA:          -6.278
REMARK INTER:                  -5.981
REMARK INTRA:                  -0.297
REMARK UNBOUND:                -0.263
REMARK SMILES O=c1c(O)c(-c2ccc(O)cc2)oc2cc(O)cc(O)c12
REMARK SMILES IDX 5 1 3 2 2 3 1 4 21 5 19 6 18 7 16 8 15 9 14 10 13 11 6 12
REMARK SMILES IDX 7 13 8 14 9 15 12 16 11 17 10 18 4 20 20 22 17 24
REMARK H PARENT 10 19 4 21 20 23 17 25
REMARK Flexibility Score: inf
ROOT
ATOM      1  C   UNL     1     -10.773  15.934 -29.895  1.00  0.00     0.180 A 
ATOM      2  C   UNL     1      -9.729  16.180 -30.808  1.00  0.00     0.208 A 
ATOM      3  C   UNL     1      -8.854  15.132 -31.134  1.00  0.00     0.238 A 
ATOM      4  O   UNL     1      -7.920  15.336 -31.958  1.00  0.00    -0.285 OA
ATOM      5  C   UNL     1      -9.023  13.867 -30.531  1.00  0.00     0.111 A 
ATOM      6  C   UNL     1      -8.183  12.761 -30.803  1.00  0.00     0.134 A 
ATOM      7  C   UNL     1      -8.412  11.538 -30.155  1.00  0.00     0.093 A 
ATOM      8  C   UNL     1      -9.460  11.400 -29.243  1.00  0.00     0.123 A 
ATOM      9  C   UNL     1     -10.295  12.491 -28.971  1.00  0.00     0.094 A 
ATOM     10  C   UNL     1     -10.084  13.717 -29.608  1.00  0.00     0.146 A 
ATOM     11  O   UNL     1     -10.893  14.734 -29.336  1.00  0.00    -0.452 OA
ENDROOT
BRANCH   1  12
ATOM     12  C   UNL     1     -11.748  16.982 -29.515  1.00  0.00     0.021 A 
ATOM     13  C   UNL     1     -11.497  17.783 -28.389  1.00  0.00     0.016 A 
ATOM     14  C   UNL     1     -12.414  18.764 -27.999  1.00  0.00     0.047 A 
ATOM     15  C   UNL     1     -13.601  18.945 -28.720  1.00  0.00     0.115 A 
ATOM     16  C   UNL     1     -12.951  17.157 -30.223  1.00  0.00     0.016 A 
ATOM     17  C   UNL     1     -13.867  18.137 -29.830  1.00  0.00     0.047 A 
BRANCH  15  18
ATOM     18  O   UNL     1     -14.522  19.919 -28.342  1.00  0.00    -0.508 OA
ATOM     19  H   UNL     1     -14.932  20.551 -29.018  1.00  0.00     0.293 HD
ENDBRANCH  15  18
ENDBRANCH   1  12
BRANCH   2  20
ATOM     20  O   UNL     1      -9.552  17.453 -31.352  1.00  0.00    -0.502 OA
ATOM     21  H   UNL     1      -8.767  18.045 -31.106  1.00  0.00     0.293 HD
ENDBRANCH   2  20
BRANCH   6  22
ATOM     22  O   UNL     1      -7.127  12.867 -31.708  1.00  0.00    -0.507 OA
ATOM     23  H   UNL     1      -7.126  12.364 -32.588  1.00  0.00     0.293 HD
ENDBRANCH   6  22
BRANCH   8  24
ATOM     24  O   UNL     1      -9.667  10.176 -28.613  1.00  0.00    -0.508 OA
ATOM     25  H   UNL     1      -8.955   9.754 -28.027  1.00  0.00     0.293 HD
ENDBRANCH   8  24
TORSDOF 5
ENDMDL
MODEL 6
REMARK VINA RESULT:    -5.088      2.619      6.566
REMARK INTER + INTRA:          -6.244
REMARK INTER:                  -5.994
REMARK INTRA:                  -0.250
REMARK UNBOUND:                -0.263
REMARK SMILES O=c1c(O)c(-c2ccc(O)cc2)oc2cc(O)cc(O)c12
REMARK SMILES IDX 5 1 3 2 2 3 1 4 21 5 19 6 18 7 16 8 15 9 14 10 13 11 6 12
REMARK SMILES IDX 7 13 8 14 9 15 12 16 11 17 10 18 4 20 20 22 17 24
REMARK H PARENT 10 19 4 21 20 23 17 25
REMARK Flexibility Score: inf
ROOT
ATOM      1  C   UNL     1     -18.382  15.825 -17.610  1.00  0.00     0.180 A 
ATOM      2  C   UNL     1     -17.495  16.869 -17.286  1.00  0.00     0.208 A 
ATOM      3  C   UNL     1     -17.413  17.299 -15.952  1.00  0.00     0.238 A 
ATOM      4  O   UNL     1     -16.614  18.227 -15.647  1.00  0.00    -0.285 OA
ATOM      5  C   UNL     1     -18.228  16.696 -14.972  1.00  0.00     0.111 A 
ATOM      6  C   UNL     1     -18.208  17.073 -13.608  1.00  0.00     0.134 A 
ATOM      7  C   UNL     1     -19.058  16.430 -12.696  1.00  0.00     0.093 A 
ATOM      8  C   UNL     1     -19.925  15.420 -13.120  1.00  0.00     0.123 A 
ATOM      9  C   UNL     1     -19.948  15.043 -14.467  1.00  0.00     0.094 A 
ATOM     10  C   UNL     1     -19.108  15.670 -15.390  1.00  0.00     0.146 A 
ATOM     11  O   UNL     1     -19.146  15.289 -16.662  1.00  0.00    -0.452 OA
ENDROOT
BRANCH   1  12
ATOM     12  C   UNL     1     -18.512  15.303 -18.989  1.00  0.00     0.021 A 
ATOM     13  C   UNL     1     -19.283  16.010 -19.926  1.00  0.00     0.016 A 
ATOM     14  C   UNL     1     -19.438  15.525 -21.228  1.00  0.00     0.047 A 
ATOM     15  C   UNL     1     -18.837  14.317 -21.605  1.00  0.00     0.115 A 
ATOM     16  C   UNL     1     -17.928  14.080 -19.369  1.00  0.00     0.016 A 
ATOM     17  C   UNL     1     -18.086  13.596 -20.671  1.00  0.00     0.047 A 
BRANCH  15  18
ATOM     18  O   UNL     1     -18.983  13.824 -22.899  1.00  0.00    -0.508 OA
ATOM     19  H   UNL     1     -19.787  14.060 -23.468  1.00  0.00     0.293 HD
ENDBRANCH  15  18
ENDBRANCH   1  12
BRANCH   2  20
ATOM     20  O   UNL     1     -16.735  17.485 -18.283  1.00  0.00    -0.502 OA
ATOM     21  H   UNL     1     -15.812  17.863 -18.106  1.00  0.00     0.293 HD
ENDBRANCH   2  20
BRANCH   6  22
ATOM     22  O   UNL     1     -17.354  18.079 -13.154  1.00  0.00    -0.507 OA
ATOM     23  H   UNL     1     -17.352  18.380 -12.186  1.00  0.00     0.293 HD
ENDBRANCH   6  22
BRANCH   8  24
ATOM     24  O   UNL     1     -20.759  14.797 -12.194  1.00  0.00    -0.508 OA
ATOM     25  H   UNL     1     -21.740  14.634 -12.389  1.00  0.00     0.293 HD
ENDBRANCH   8  24
TORSDOF 5
ENDMDL
MODEL 7
REMARK VINA RESULT:    -5.038     12.167     14.801
REMARK INTER + INTRA:          -6.185
REMARK INTER:                  -5.927
REMARK INTRA:                  -0.258
REMARK UNBOUND:                -0.263
REMARK SMILES O=c1c(O)c(-c2ccc(O)cc2)oc2cc(O)cc(O)c12
REMARK SMILES IDX 5 1 3 2 2 3 1 4 21 5 19 6 18 7 16 8 15 9 14 10 13 11 6 12
REMARK SMILES IDX 7 13 8 14 9 15 12 16 11 17 10 18 4 20 20 22 17 24
REMARK H PARENT 10 19 4 21 20 23 17 25
REMARK Flexibility Score: inf
ROOT
ATOM      1  C   UNL     1      -9.684  13.196 -27.171  1.00  0.00     0.180 A 
ATOM      2  C   UNL     1     -10.065  14.428 -27.738  1.00  0.00     0.208 A 
ATOM      3  C   UNL     1      -9.958  14.597 -29.127  1.00  0.00     0.238 A 
ATOM      4  O   UNL     1     -10.306  15.691 -29.648  1.00  0.00    -0.285 OA
ATOM      5  C   UNL     1      -9.456  13.544 -29.921  1.00  0.00     0.111 A 
ATOM      6  C   UNL     1      -9.313  13.635 -31.326  1.00  0.00     0.134 A 
ATOM      7  C   UNL     1      -8.796  12.546 -32.045  1.00  0.00     0.093 A 
ATOM      8  C   UNL     1      -8.420  11.373 -31.388  1.00  0.00     0.123 A 
ATOM      9  C   UNL     1      -8.560  11.278 -29.999  1.00  0.00     0.094 A 
ATOM     10  C   UNL     1      -9.074  12.351 -29.266  1.00  0.00     0.146 A 
ATOM     11  O   UNL     1      -9.201  12.232 -27.949  1.00  0.00    -0.452 OA
ENDROOT
BRANCH   1  12
ATOM     12  C   UNL     1      -9.786  12.935 -25.717  1.00  0.00     0.021 A 
ATOM     13  C   UNL     1      -8.785  13.417 -24.857  1.00  0.00     0.016 A 
ATOM     14  C   UNL     1      -8.849  13.163 -23.483  1.00  0.00     0.047 A 
ATOM     15  C   UNL     1      -9.905  12.410 -22.955  1.00  0.00     0.115 A 
ATOM     16  C   UNL     1     -10.832  12.162 -25.181  1.00  0.00     0.016 A 
ATOM     17  C   UNL     1     -10.893  11.909 -23.808  1.00  0.00     0.047 A 
BRANCH  15  18
ATOM     18  O   UNL     1      -9.979  12.151 -21.588  1.00  0.00    -0.508 OA
ATOM     19  H   UNL     1     -10.772  12.452 -21.035  1.00  0.00     0.293 HD
ENDBRANCH  15  18
ENDBRANCH   1  12
BRANCH   2  20
ATOM     20  O   UNL     1     -10.512  15.471 -26.924  1.00  0.00    -0.502 OA
ATOM     21  H   UNL     1     -10.836  15.320 -25.976  1.00  0.00     0.293 HD
ENDBRANCH   2  20
BRANCH   6  22
ATOM     22  O   UNL     1      -9.679  14.794 -32.012  1.00  0.00    -0.507 OA
ATOM     23  H   UNL     1     -10.601  14.905 -32.417  1.00  0.00     0.293 HD
ENDBRANCH   6  22
BRANCH   8  24
ATOM     24  O   UNL     1      -7.910  10.307 -32.124  1.00  0.00    -0.508 OA
ATOM     25  H   UNL     1      -7.025   9.873 -31.886  1.00  0.00     0.293 HD
ENDBRANCH   8  24
TORSDOF 5
ENDMDL
MODEL 8
REMARK VINA RESULT:    -4.995      8.872     11.385
REMARK INTER + INTRA:          -6.134
REMARK INTER:                  -5.838
REMARK INTRA:                  -0.297
REMARK UNBOUND:                -0.263
REMARK SMILES O=c1c(O)c(-c2ccc(O)cc2)oc2cc(O)cc(O)c12
REMARK SMILES IDX 5 1 3 2 2 3 1 4 21 5 19 6 18 7 16 8 15 9 14 10 13 11 6 12
REMARK SMILES IDX 7 13 8 14 9 15 12 16 11 17 10 18 4 20 20 22 17 24
REMARK H PARENT 10 19 4 21 20 23 17 25
REMARK Flexibility Score: inf
ROOT
ATOM      1  C   UNL     1     -13.061   8.743 -13.713  1.00  0.00     0.180 A 
ATOM      2  C   UNL     1     -13.317   7.433 -13.266  1.00  0.00     0.208 A 
ATOM      3  C   UNL     1     -14.497   6.794 -13.680  1.00  0.00     0.238 A 
ATOM      4  O   UNL     1     -14.733   5.616 -13.294  1.00  0.00    -0.285 OA
ATOM      5  C   UNL     1     -15.406   7.478 -14.513  1.00  0.00     0.111 A 
ATOM      6  C   UNL     1     -16.617   6.907 -14.972  1.00  0.00     0.134 A 
ATOM      7  C   UNL     1     -17.473   7.658 -15.791  1.00  0.00     0.093 A 
ATOM      8  C   UNL     1     -17.143   8.963 -16.160  1.00  0.00     0.123 A 
ATOM      9  C   UNL     1     -15.946   9.532 -15.711  1.00  0.00     0.094 A 
ATOM     10  C   UNL     1     -15.080   8.801 -14.895  1.00  0.00     0.146 A 
ATOM     11  O   UNL     1     -13.948   9.363 -14.486  1.00  0.00    -0.452 OA
ENDROOT
BRANCH   1  12
ATOM     12  C   UNL     1     -11.831   9.477 -13.336  1.00  0.00     0.021 A 
ATOM     13  C   UNL     1     -11.856  10.349 -12.236  1.00  0.00     0.016 A 
ATOM     14  C   UNL     1     -10.713  11.068 -11.875  1.00  0.00     0.047 A 
ATOM     15  C   UNL     1      -9.534  10.937 -12.621  1.00  0.00     0.115 A 
ATOM     16  C   UNL     1     -10.649   9.365 -14.092  1.00  0.00     0.016 A 
ATOM     17  C   UNL     1      -9.508  10.087 -13.730  1.00  0.00     0.047 A 
BRANCH  15  18
ATOM     18  O   UNL     1      -8.389  11.648 -12.270  1.00  0.00    -0.508 OA
ATOM     19  H   UNL     1      -8.357  12.659 -12.321  1.00  0.00     0.293 HD
ENDBRANCH  15  18
ENDBRANCH   1  12
BRANCH   2  20
ATOM     20  O   UNL     1     -12.426   6.795 -12.401  1.00  0.00    -0.502 OA
ATOM     21  H   UNL     1     -12.532   6.824 -11.394  1.00  0.00     0.293 HD
ENDBRANCH   2  20
BRANCH   6  22
ATOM     22  O   UNL     1     -16.975   5.605 -14.619  1.00  0.00    -0.507 OA
ATOM     23  H   UNL     1     -16.761   4.814 -15.215  1.00  0.00     0.293 HD
ENDBRANCH   6  22
BRANCH   8  24
ATOM     24  O   UNL     1     -18.011   9.687 -16.975  1.00  0.00    -0.508 OA
ATOM     25  H   UNL     1     -17.941  10.694 -17.062  1.00  0.00     0.293 HD
ENDBRANCH   8  24
TORSDOF 5
ENDMDL
MODEL 9
REMARK VINA RESULT:    -4.984      2.235      6.934
REMARK INTER + INTRA:          -6.121
REMARK INTER:                  -6.038
REMARK INTRA:                  -0.083
REMARK UNBOUND:                -0.263
REMARK SMILES O=c1c(O)c(-c2ccc(O)cc2)oc2cc(O)cc(O)c12
REMARK SMILES IDX 5 1 3 2 2 3 1 4 21 5 19 6 18 7 16 8 15 9 14 10 13 11 6 12
REMARK SMILES IDX 7 13 8 14 9 15 12 16 11 17 10 18 4 20 20 22 17 24
REMARK H PARENT 10 19 4 21 20 23 17 25
REMARK Flexibility Score: inf
ROOT
ATOM      1  C   UNL     1     -15.829  18.121 -15.258  1.00  0.00     0.180 A 
ATOM      2  C   UNL     1     -16.575  19.073 -14.536  1.00  0.00     0.208 A 
ATOM      3  C   UNL     1     -17.837  18.710 -14.040  1.00  0.00     0.238 A 
ATOM      4  O   UNL     1     -18.510  19.551 -13.382  1.00  0.00    -0.285 OA
ATOM      5  C   UNL     1     -18.340  17.416 -14.289  1.00  0.00     0.111 A 
ATOM      6  C   UNL     1     -19.603  16.974 -13.828  1.00  0.00     0.134 A 
ATOM      7  C   UNL     1     -20.036  15.674 -14.126  1.00  0.00     0.093 A 
ATOM      8  C   UNL     1     -19.234  14.809 -14.874  1.00  0.00     0.123 A 
ATOM      9  C   UNL     1     -17.984  15.241 -15.332  1.00  0.00     0.094 A 
ATOM     10  C   UNL     1     -17.534  16.532 -15.044  1.00  0.00     0.146 A 
ATOM     11  O   UNL     1     -16.342  16.915 -15.486  1.00  0.00    -0.452 OA
ENDROOT
BRANCH   1  12
ATOM     12  C   UNL     1     -14.483  18.420 -15.797  1.00  0.00     0.021 A 
ATOM     13  C   UNL     1     -13.375  17.690 -15.333  1.00  0.00     0.016 A 
ATOM     14  C   UNL     1     -12.092  17.971 -15.811  1.00  0.00     0.047 A 
ATOM     15  C   UNL     1     -11.897  18.996 -16.746  1.00  0.00     0.115 A 
ATOM     16  C   UNL     1     -14.277  19.461 -16.721  1.00  0.00     0.016 A 
ATOM     17  C   UNL     1     -12.992  19.740 -17.196  1.00  0.00     0.047 A 
BRANCH  15  18
ATOM     18  O   UNL     1     -10.623  19.283 -17.231  1.00  0.00    -0.508 OA
ATOM     19  H   UNL     1      -9.811  19.267 -16.626  1.00  0.00     0.293 HD
ENDBRANCH  15  18
ENDBRANCH   1  12
BRANCH   2  20
ATOM     20  O   UNL     1     -16.076  20.363 -14.345  1.00  0.00    -0.502 OA
ATOM     21  H   UNL     1     -16.680  21.170 -14.251  1.00  0.00     0.293 HD
ENDBRANCH   2  20
BRANCH   6  22
ATOM     22  O   UNL     1     -20.428  17.814 -13.079  1.00  0.00    -0.507 OA
ATOM     23  H   UNL     1     -21.353  17.526 -12.782  1.00  0.00     0.293 HD
ENDBRANCH   6  22
BRANCH   8  24
ATOM     24  O   UNL     1     -19.687  13.523 -15.156  1.00  0.00    -0.508 OA
ATOM     25  H   UNL     1     -19.560  12.760 -14.501  1.00  0.00     0.293 HD
ENDBRANCH   8  24
TORSDOF 5
ENDMDL
