MODEL 1
REMARK VINA RESULT:    30.520      0.000      0.000
REMARK INTER + INTRA:          79.620
REMARK INTER:                  80.476
REMARK INTRA:                  -0.856
REMARK UNBOUND:                -0.856
REMARK SMILES CCCCCCCCCCCCCCCCCCCCCCCCCCCCCC(=O)[O-]
REMARK SMILES IDX 16 1 17 2 18 3 19 4 20 5 21 6 22 7 23 8 24 9 25 10 26 11
REMARK SMILES IDX 27 12 28 13 29 14 30 15 31 16 32 17 15 18 14 19 13 20 12 21
REMARK SMILES IDX 11 22 10 23 9 24 8 25 7 26 6 27 5 28 4 29 3 30 2 31 1 32
REMARK H PARENT
REMARK Flexibility Score: inf
ROOT
ATOM      1  C   UNL     1     -10.199 -17.951  17.776  1.00  0.00     0.000 C 
ENDROOT
BRANCH   1   2
ATOM      2  C   UNL     1      -9.266 -16.813  18.224  1.00  0.00     0.000 C 
BRANCH   2   3
ATOM      3  C   UNL     1      -9.801 -15.421  17.846  1.00  0.00     0.000 C 
BRANCH   3   4
ATOM      4  C   UNL     1      -8.762 -14.311  18.076  1.00  0.00     0.000 C 
BRANCH   4   5
ATOM      5  C   UNL     1      -9.110 -13.420  19.282  1.00  0.00     0.000 C 
BRANCH   5   6
ATOM      6  C   UNL     1      -8.441 -13.895  20.590  1.00  0.00     0.000 C 
BRANCH   6   7
ATOM      7  C   UNL     1      -8.438 -12.843  21.716  1.00  0.00     0.000 C 
BRANCH   7   8
ATOM      8  C   UNL     1      -7.086 -12.630  22.425  1.00  0.00     0.000 C 
BRANCH   8   9
ATOM      9  C   UNL     1      -7.170 -12.316  23.935  1.00  0.00     0.000 C 
BRANCH   9  10
ATOM     10  C   UNL     1      -5.917 -12.707  24.740  1.00  0.00     0.000 C 
BRANCH  10  11
ATOM     11  C   UNL     1      -6.116 -13.981  25.594  1.00  0.00     0.000 C 
BRANCH  11  12
ATOM     12  C   UNL     1      -4.834 -14.439  26.306  1.00  0.00     0.000 C 
BRANCH  12  13
ATOM     13  C   UNL     1      -4.295 -15.765  25.741  1.00  0.00     0.006 C 
BRANCH  13  14
ATOM     14  C   UNL     1      -5.311 -16.907  25.879  1.00  0.00     0.053 C 
BRANCH  14  15
ATOM     15  C   UNL     1      -5.192 -17.895  24.759  1.00  0.00     0.041 C 
ATOM     16  O   UNL     1      -4.572 -17.587  23.704  1.00  0.00    -0.550 OA
ATOM     17  O   UNL     1      -5.749 -19.163  24.885  1.00  0.00    -0.550 OA
ENDBRANCH  14  15
ENDBRANCH  13  14
ENDBRANCH  12  13
ENDBRANCH  11  12
ENDBRANCH  10  11
ENDBRANCH   9  10
ENDBRANCH   8   9
ENDBRANCH   7   8
ENDBRANCH   6   7
ENDBRANCH   5   6
ENDBRANCH   4   5
ENDBRANCH   3   4
ENDBRANCH   2   3
ENDBRANCH   1   2
BRANCH   1  18
ATOM     18  C   UNL     1      -9.491 -19.030  16.929  1.00  0.00     0.000 C 
BRANCH  18  19
ATOM     19  C   UNL     1      -7.958 -18.950  17.048  1.00  0.00     0.000 C 
BRANCH  19  20
ATOM     20  C   UNL     1      -7.256 -19.108  15.690  1.00  0.00     0.000 C 
BRANCH  20  21
ATOM     21  C   UNL     1      -6.488 -20.437  15.575  1.00  0.00     0.000 C 
BRANCH  21  22
ATOM     22  C   UNL     1      -6.026 -20.734  14.132  1.00  0.00     0.000 C 
BRANCH  22  23
ATOM     23  C   UNL     1      -5.734 -19.475  13.293  1.00  0.00     0.000 C 
BRANCH  23  24
ATOM     24  C   UNL     1      -6.974 -18.677  12.846  1.00  0.00    -0.000 C 
BRANCH  24  25
ATOM     25  C   UNL     1      -6.768 -17.154  12.718  1.00  0.00    -0.000 C 
BRANCH  25  26
ATOM     26  C   UNL     1      -8.063 -16.398  12.377  1.00  0.00    -0.000 C 
BRANCH  26  27
ATOM     27  C   UNL     1      -8.114 -14.985  12.989  1.00  0.00    -0.000 C 
BRANCH  27  28
ATOM     28  C   UNL     1      -8.519 -13.857  12.021  1.00  0.00    -0.000 C 
BRANCH  28  29
ATOM     29  C   UNL     1      -9.992 -13.440  12.167  1.00  0.00    -0.000 C 
BRANCH  29  30
ATOM     30  C   UNL     1     -10.182 -11.912  12.205  1.00  0.00    -0.000 C 
BRANCH  30  31
ATOM     31  C   UNL     1      -9.530 -11.205  13.407  1.00  0.00    -0.003 C 
ATOM     32  C   UNL     1      -9.967  -9.748  13.553  1.00  0.00     0.004 C 
ENDBRANCH  30  31
ENDBRANCH  29  30
ENDBRANCH  28  29
ENDBRANCH  27  28
ENDBRANCH  26  27
ENDBRANCH  25  26
ENDBRANCH  24  25
ENDBRANCH  23  24
ENDBRANCH  22  23
ENDBRANCH  21  22
ENDBRANCH  20  21
ENDBRANCH  19  20
ENDBRANCH  18  19
ENDBRANCH   1  18
TORSDOF 28
ENDMDL
MODEL 2
REMARK VINA RESULT:    31.702      2.639      5.124
REMARK INTER + INTRA:          82.738
REMARK INTER:                  83.973
REMARK INTRA:                  -1.234
REMARK UNBOUND:                -0.856
REMARK SMILES CCCCCCCCCCCCCCCCCCCCCCCCCCCCCC(=O)[O-]
REMARK SMILES IDX 16 1 17 2 18 3 19 4 20 5 21 6 22 7 23 8 24 9 25 10 26 11
REMARK SMILES IDX 27 12 28 13 29 14 30 15 31 16 32 17 15 18 14 19 13 20 12 21
REMARK SMILES IDX 11 22 10 23 9 24 8 25 7 26 6 27 5 28 4 29 3 30 2 31 1 32
REMARK H PARENT
REMARK Flexibility Score: inf
ROOT
ATOM      1  C   UNL     1      -9.862 -14.169  17.549  1.00  0.00     0.000 C 
ENDROOT
BRANCH   1   2
ATOM      2  C   UNL     1      -8.388 -14.063  17.973  1.00  0.00     0.000 C 
BRANCH   2   3
ATOM      3  C   UNL     1      -8.168 -14.405  19.456  1.00  0.00     0.000 C 
BRANCH   3   4
ATOM      4  C   UNL     1      -9.303 -13.886  20.354  1.00  0.00     0.000 C 
BRANCH   4   5
ATOM      5  C   UNL     1      -8.894 -12.640  21.160  1.00  0.00     0.000 C 
BRANCH   5   6
ATOM      6  C   UNL     1      -7.598 -12.851  21.973  1.00  0.00     0.000 C 
BRANCH   6   7
ATOM      7  C   UNL     1      -7.606 -12.179  23.359  1.00  0.00     0.000 C 
BRANCH   7   8
ATOM      8  C   UNL     1      -6.250 -12.151  24.093  1.00  0.00     0.000 C 
BRANCH   8   9
ATOM      9  C   UNL     1      -6.306 -12.475  25.602  1.00  0.00     0.000 C 
BRANCH   9  10
ATOM     10  C   UNL     1      -6.250 -13.978  25.936  1.00  0.00     0.000 C 
BRANCH  10  11
ATOM     11  C   UNL     1      -4.929 -14.400  26.618  1.00  0.00     0.000 C 
BRANCH  11  12
ATOM     12  C   UNL     1      -4.220 -15.560  25.900  1.00  0.00     0.000 C 
BRANCH  12  13
ATOM     13  C   UNL     1      -5.000 -16.044  24.665  1.00  0.00     0.006 C 
BRANCH  13  14
ATOM     14  C   UNL     1      -4.549 -17.437  24.206  1.00  0.00     0.053 C 
BRANCH  14  15
ATOM     15  C   UNL     1      -5.448 -18.514  24.733  1.00  0.00     0.041 C 
ATOM     16  O   UNL     1      -6.115 -19.229  23.936  1.00  0.00    -0.550 OA
ATOM     17  O   UNL     1      -5.537 -18.741  26.102  1.00  0.00    -0.550 OA
ENDBRANCH  14  15
ENDBRANCH  13  14
ENDBRANCH  12  13
ENDBRANCH  11  12
ENDBRANCH  10  11
ENDBRANCH   9  10
ENDBRANCH   8   9
ENDBRANCH   7   8
ENDBRANCH   6   7
ENDBRANCH   5   6
ENDBRANCH   4   5
ENDBRANCH   3   4
ENDBRANCH   2   3
ENDBRANCH   1   2
BRANCH   1  18
ATOM     18  C   UNL     1     -10.278 -15.590  17.116  1.00  0.00     0.000 C 
BRANCH  18  19
ATOM     19  C   UNL     1      -9.643 -16.678  18.000  1.00  0.00     0.000 C 
BRANCH  19  20
ATOM     20  C   UNL     1     -10.189 -18.081  17.687  1.00  0.00     0.000 C 
BRANCH  20  21
ATOM     21  C   UNL     1      -9.068 -19.112  17.461  1.00  0.00     0.000 C 
BRANCH  21  22
ATOM     22  C   UNL     1      -7.868 -18.524  16.689  1.00  0.00     0.000 C 
BRANCH  22  23
ATOM     23  C   UNL     1      -6.781 -19.556  16.333  1.00  0.00     0.000 C 
BRANCH  23  24
ATOM     24  C   UNL     1      -6.534 -19.764  14.826  1.00  0.00    -0.000 C 
BRANCH  24  25
ATOM     25  C   UNL     1      -7.749 -19.496  13.915  1.00  0.00    -0.000 C 
BRANCH  25  26
ATOM     26  C   UNL     1      -8.973 -20.356  14.274  1.00  0.00    -0.000 C 
BRANCH  26  27
ATOM     27  C   UNL     1     -10.110 -20.245  13.242  1.00  0.00    -0.000 C 
BRANCH  27  28
ATOM     28  C   UNL     1     -10.943 -21.524  13.032  1.00  0.00    -0.000 C 
BRANCH  28  29
ATOM     29  C   UNL     1     -11.645 -21.567  11.664  1.00  0.00    -0.000 C 
BRANCH  29  30
ATOM     30  C   UNL     1     -10.853 -22.361  10.608  1.00  0.00    -0.000 C 
BRANCH  30  31
ATOM     31  C   UNL     1     -10.366 -23.747  11.066  1.00  0.00    -0.003 C 
ATOM     32  C   UNL     1      -9.051 -24.166  10.411  1.00  0.00     0.004 C 
ENDBRANCH  30  31
ENDBRANCH  29  30
ENDBRANCH  28  29
ENDBRANCH  27  28
ENDBRANCH  26  27
ENDBRANCH  25  26
ENDBRANCH  24  25
ENDBRANCH  23  24
ENDBRANCH  22  23
ENDBRANCH  21  22
ENDBRANCH  20  21
ENDBRANCH  19  20
ENDBRANCH  18  19
ENDBRANCH   1  18
TORSDOF 28
ENDMDL
MODEL 3
REMARK VINA RESULT:    31.743      3.945     11.607
REMARK INTER + INTRA:          82.845
REMARK INTER:                  84.583
REMARK INTRA:                  -1.738
REMARK UNBOUND:                -0.856
REMARK SMILES CCCCCCCCCCCCCCCCCCCCCCCCCCCCCC(=O)[O-]
REMARK SMILES IDX 16 1 17 2 18 3 19 4 20 5 21 6 22 7 23 8 24 9 25 10 26 11
REMARK SMILES IDX 27 12 28 13 29 14 30 15 31 16 32 17 15 18 14 19 13 20 12 21
REMARK SMILES IDX 11 22 10 23 9 24 8 25 7 26 6 27 5 28 4 29 3 30 2 31 1 32
REMARK H PARENT
REMARK Flexibility Score: inf
ROOT
ATOM      1  C   UNL     1      -8.254 -13.808  18.892  1.00  0.00     0.000 C 
ENDROOT
BRANCH   1   2
ATOM      2  C   UNL     1      -9.466 -13.355  18.060  1.00  0.00     0.000 C 
BRANCH   2   3
ATOM      3  C   UNL     1      -9.928 -14.419  17.051  1.00  0.00     0.000 C 
BRANCH   3   4
ATOM      4  C   UNL     1     -10.266 -15.760  17.724  1.00  0.00     0.000 C 
BRANCH   4   5
ATOM      5  C   UNL     1      -9.166 -16.817  17.516  1.00  0.00     0.000 C 
BRANCH   5   6
ATOM      6  C   UNL     1      -9.705 -18.263  17.579  1.00  0.00     0.000 C 
BRANCH   6   7
ATOM      7  C   UNL     1      -8.699 -19.332  17.110  1.00  0.00     0.000 C 
BRANCH   7   8
ATOM      8  C   UNL     1      -7.568 -18.825  16.193  1.00  0.00     0.000 C 
BRANCH   8   9
ATOM      9  C   UNL     1      -6.587 -19.906  15.689  1.00  0.00     0.000 C 
BRANCH   9  10
ATOM     10  C   UNL     1      -6.338 -19.885  14.169  1.00  0.00     0.000 C 
BRANCH  10  11
ATOM     11  C   UNL     1      -6.772 -18.560  13.501  1.00  0.00     0.000 C 
BRANCH  11  12
ATOM     12  C   UNL     1      -7.832 -18.754  12.405  1.00  0.00     0.000 C 
BRANCH  12  13
ATOM     13  C   UNL     1      -9.245 -18.934  12.986  1.00  0.00     0.006 C 
BRANCH  13  14
ATOM     14  C   UNL     1      -9.448 -20.329  13.591  1.00  0.00     0.053 C 
BRANCH  14  15
ATOM     15  C   UNL     1     -10.756 -20.930  13.174  1.00  0.00     0.041 C 
ATOM     16  O   UNL     1     -11.222 -21.926  13.792  1.00  0.00    -0.550 OA
ATOM     17  O   UNL     1     -11.470 -20.382  12.114  1.00  0.00    -0.550 OA
ENDBRANCH  14  15
ENDBRANCH  13  14
ENDBRANCH  12  13
ENDBRANCH  11  12
ENDBRANCH  10  11
ENDBRANCH   9  10
ENDBRANCH   8   9
ENDBRANCH   7   8
ENDBRANCH   6   7
ENDBRANCH   5   6
ENDBRANCH   4   5
ENDBRANCH   3   4
ENDBRANCH   2   3
ENDBRANCH   1   2
BRANCH   1  18
ATOM     18  C   UNL     1      -8.605 -14.154  20.354  1.00  0.00     0.000 C 
BRANCH  18  19
ATOM     19  C   UNL     1      -9.188 -12.949  21.114  1.00  0.00     0.000 C 
BRANCH  19  20
ATOM     20  C   UNL     1      -8.114 -12.168  21.887  1.00  0.00     0.000 C 
BRANCH  20  21
ATOM     21  C   UNL     1      -7.246 -13.079  22.773  1.00  0.00     0.000 C 
BRANCH  21  22
ATOM     22  C   UNL     1      -6.042 -12.336  23.390  1.00  0.00     0.000 C 
BRANCH  22  23
ATOM     23  C   UNL     1      -6.371 -11.570  24.685  1.00  0.00     0.000 C 
BRANCH  23  24
ATOM     24  C   UNL     1      -7.256 -12.326  25.694  1.00  0.00    -0.000 C 
BRANCH  24  25
ATOM     25  C   UNL     1      -6.610 -13.569  26.337  1.00  0.00    -0.000 C 
BRANCH  25  26
ATOM     26  C   UNL     1      -5.074 -13.560  26.257  1.00  0.00    -0.000 C 
BRANCH  26  27
ATOM     27  C   UNL     1      -4.474 -14.966  26.070  1.00  0.00    -0.000 C 
BRANCH  27  28
ATOM     28  C   UNL     1      -5.378 -16.137  26.500  1.00  0.00    -0.000 C 
BRANCH  28  29
ATOM     29  C   UNL     1      -4.823 -17.510  26.086  1.00  0.00    -0.000 C 
BRANCH  29  30
ATOM     30  C   UNL     1      -5.915 -18.469  25.574  1.00  0.00    -0.000 C 
BRANCH  30  31
ATOM     31  C   UNL     1      -5.740 -18.934  24.117  1.00  0.00    -0.003 C 
ATOM     32  C   UNL     1      -5.537 -17.778  23.140  1.00  0.00     0.004 C 
ENDBRANCH  30  31
ENDBRANCH  29  30
ENDBRANCH  28  29
ENDBRANCH  27  28
ENDBRANCH  26  27
ENDBRANCH  25  26
ENDBRANCH  24  25
ENDBRANCH  23  24
ENDBRANCH  22  23
ENDBRANCH  21  22
ENDBRANCH  20  21
ENDBRANCH  19  20
ENDBRANCH  18  19
ENDBRANCH   1  18
TORSDOF 28
ENDMDL
MODEL 4
REMARK VINA RESULT:    31.954      0.870      2.060
REMARK INTER + INTRA:          83.403
REMARK INTER:                  85.031
REMARK INTRA:                  -1.628
REMARK UNBOUND:                -0.856
REMARK SMILES CCCCCCCCCCCCCCCCCCCCCCCCCCCCCC(=O)[O-]
REMARK SMILES IDX 16 1 17 2 18 3 19 4 20 5 21 6 22 7 23 8 24 9 25 10 26 11
REMARK SMILES IDX 27 12 28 13 29 14 30 15 31 16 32 17 15 18 14 19 13 20 12 21
REMARK SMILES IDX 11 22 10 23 9 24 8 25 7 26 6 27 5 28 4 29 3 30 2 31 1 32
REMARK H PARENT
REMARK Flexibility Score: inf
ROOT
ATOM      1  C   UNL     1      -9.875 -15.416  17.750  1.00  0.00     0.000 C 
ENDROOT
BRANCH   1   2
ATOM      2  C   UNL     1      -8.950 -14.227  18.057  1.00  0.00     0.000 C 
BRANCH   2   3
ATOM      3  C   UNL     1      -9.351 -13.474  19.336  1.00  0.00     0.000 C 
BRANCH   3   4
ATOM      4  C   UNL     1      -8.445 -13.819  20.530  1.00  0.00     0.000 C 
BRANCH   4   5
ATOM      5  C   UNL     1      -8.362 -12.675  21.557  1.00  0.00     0.000 C 
BRANCH   5   6
ATOM      6  C   UNL     1      -7.218 -12.867  22.576  1.00  0.00     0.000 C 
BRANCH   6   7
ATOM      7  C   UNL     1      -6.655 -11.552  23.149  1.00  0.00     0.000 C 
BRANCH   7   8
ATOM      8  C   UNL     1      -6.166 -11.617  24.609  1.00  0.00     0.000 C 
BRANCH   8   9
ATOM      9  C   UNL     1      -6.681 -12.820  25.429  1.00  0.00     0.000 C 
BRANCH   9  10
ATOM     10  C   UNL     1      -5.573 -13.716  26.015  1.00  0.00     0.000 C 
BRANCH  10  11
ATOM     11  C   UNL     1      -6.028 -15.177  26.238  1.00  0.00     0.000 C 
BRANCH  11  12
ATOM     12  C   UNL     1      -5.019 -16.009  27.045  1.00  0.00     0.000 C 
BRANCH  12  13
ATOM     13  C   UNL     1      -4.770 -17.392  26.418  1.00  0.00     0.006 C 
BRANCH  13  14
ATOM     14  C   UNL     1      -4.416 -17.296  24.928  1.00  0.00     0.053 C 
BRANCH  14  15
ATOM     15  C   UNL     1      -5.395 -18.044  24.075  1.00  0.00     0.041 C 
ATOM     16  O   UNL     1      -5.799 -17.547  22.988  1.00  0.00    -0.550 OA
ATOM     17  O   UNL     1      -5.849 -19.298  24.469  1.00  0.00    -0.550 OA
ENDBRANCH  14  15
ENDBRANCH  13  14
ENDBRANCH  12  13
ENDBRANCH  11  12
ENDBRANCH  10  11
ENDBRANCH   9  10
ENDBRANCH   8   9
ENDBRANCH   7   8
ENDBRANCH   6   7
ENDBRANCH   5   6
ENDBRANCH   4   5
ENDBRANCH   3   4
ENDBRANCH   2   3
ENDBRANCH   1   2
BRANCH   1  18
ATOM     18  C   UNL     1      -9.145 -16.775  17.728  1.00  0.00     0.000 C 
BRANCH  18  19
ATOM     19  C   UNL     1     -10.121 -17.963  17.809  1.00  0.00     0.000 C 
BRANCH  19  20
ATOM     20  C   UNL     1      -9.548 -19.237  17.169  1.00  0.00     0.000 C 
BRANCH  20  21
ATOM     21  C   UNL     1      -8.439 -18.935  16.145  1.00  0.00     0.000 C 
BRANCH  21  22
ATOM     22  C   UNL     1      -7.080 -19.549  16.543  1.00  0.00     0.000 C 
BRANCH  22  23
ATOM     23  C   UNL     1      -6.291 -20.151  15.365  1.00  0.00     0.000 C 
BRANCH  23  24
ATOM     24  C   UNL     1      -6.951 -20.000  13.982  1.00  0.00    -0.000 C 
BRANCH  24  25
ATOM     25  C   UNL     1      -6.503 -18.770  13.167  1.00  0.00    -0.000 C 
BRANCH  25  26
ATOM     26  C   UNL     1      -7.682 -17.942  12.628  1.00  0.00    -0.000 C 
BRANCH  26  27
ATOM     27  C   UNL     1      -7.440 -16.424  12.716  1.00  0.00    -0.000 C 
BRANCH  27  28
ATOM     28  C   UNL     1      -8.496 -15.542  12.022  1.00  0.00    -0.000 C 
BRANCH  28  29
ATOM     29  C   UNL     1      -8.220 -14.037  12.177  1.00  0.00    -0.000 C 
BRANCH  29  30
ATOM     30  C   UNL     1      -9.437 -13.164  11.818  1.00  0.00    -0.000 C 
BRANCH  30  31
ATOM     31  C   UNL     1     -10.247 -12.650  13.021  1.00  0.00    -0.003 C 
ATOM     32  C   UNL     1      -9.533 -11.542  13.794  1.00  0.00     0.004 C 
ENDBRANCH  30  31
ENDBRANCH  29  30
ENDBRANCH  28  29
ENDBRANCH  27  28
ENDBRANCH  26  27
ENDBRANCH  25  26
ENDBRANCH  24  25
ENDBRANCH  23  24
ENDBRANCH  22  23
ENDBRANCH  21  22
ENDBRANCH  20  21
ENDBRANCH  19  20
ENDBRANCH  18  19
ENDBRANCH   1  18
TORSDOF 28
ENDMDL
MODEL 5
REMARK VINA RESULT:    31.985      3.626     11.953
REMARK INTER + INTRA:          83.485
REMARK INTER:                  85.158
REMARK INTRA:                  -1.673
REMARK UNBOUND:                -0.856
REMARK SMILES CCCCCCCCCCCCCCCCCCCCCCCCCCCCCC(=O)[O-]
REMARK SMILES IDX 16 1 17 2 18 3 19 4 20 5 21 6 22 7 23 8 24 9 25 10 26 11
REMARK SMILES IDX 27 12 28 13 29 14 30 15 31 16 32 17 15 18 14 19 13 20 12 21
REMARK SMILES IDX 11 22 10 23 9 24 8 25 7 26 6 27 5 28 4 29 3 30 2 31 1 32
REMARK H PARENT
REMARK Flexibility Score: inf
ROOT
ATOM      1  C   UNL     1      -9.894 -15.095  17.317  1.00  0.00     0.000 C 
ENDROOT
BRANCH   1   2
ATOM      2  C   UNL     1      -9.362 -16.347  18.034  1.00  0.00     0.000 C 
BRANCH   2   3
ATOM      3  C   UNL     1     -10.188 -17.607  17.725  1.00  0.00     0.000 C 
BRANCH   3   4
ATOM      4  C   UNL     1      -9.317 -18.870  17.620  1.00  0.00     0.000 C 
BRANCH   4   5
ATOM      5  C   UNL     1      -8.757 -19.083  16.203  1.00  0.00     0.000 C 
BRANCH   5   6
ATOM      6  C   UNL     1      -9.758 -19.789  15.262  1.00  0.00     0.000 C 
BRANCH   6   7
ATOM      7  C   UNL     1      -9.273 -19.917  13.806  1.00  0.00     0.000 C 
BRANCH   7   8
ATOM      8  C   UNL     1     -10.162 -19.236  12.746  1.00  0.00     0.000 C 
BRANCH   8   9
ATOM      9  C   UNL     1      -9.414 -18.369  11.710  1.00  0.00     0.000 C 
BRANCH   9  10
ATOM     10  C   UNL     1      -9.698 -16.858  11.815  1.00  0.00     0.000 C 
BRANCH  10  11
ATOM     11  C   UNL     1     -11.193 -16.536  12.041  1.00  0.00     0.000 C 
BRANCH  11  12
ATOM     12  C   UNL     1     -11.453 -15.053  12.349  1.00  0.00     0.000 C 
BRANCH  12  13
ATOM     13  C   UNL     1     -10.314 -14.146  11.851  1.00  0.00     0.006 C 
BRANCH  13  14
ATOM     14  C   UNL     1     -10.584 -12.664  12.144  1.00  0.00     0.053 C 
BRANCH  14  15
ATOM     15  C   UNL     1      -9.515 -12.064  13.005  1.00  0.00     0.041 C 
ATOM     16  O   UNL     1      -8.431 -12.682  13.194  1.00  0.00    -0.550 OA
ATOM     17  O   UNL     1      -9.706 -10.816  13.587  1.00  0.00    -0.550 OA
ENDBRANCH  14  15
ENDBRANCH  13  14
ENDBRANCH  12  13
ENDBRANCH  11  12
ENDBRANCH  10  11
ENDBRANCH   9  10
ENDBRANCH   8   9
ENDBRANCH   7   8
ENDBRANCH   6   7
ENDBRANCH   5   6
ENDBRANCH   4   5
ENDBRANCH   3   4
ENDBRANCH   2   3
ENDBRANCH   1   2
BRANCH   1  18
ATOM     18  C   UNL     1      -9.446 -13.773  17.974  1.00  0.00     0.000 C 
BRANCH  18  19
ATOM     19  C   UNL     1      -8.410 -13.998  19.091  1.00  0.00     0.000 C 
BRANCH  19  20
ATOM     20  C   UNL     1      -8.927 -13.557  20.469  1.00  0.00     0.000 C 
BRANCH  20  21
ATOM     21  C   UNL     1      -7.820 -13.547  21.538  1.00  0.00     0.000 C 
BRANCH  21  22
ATOM     22  C   UNL     1      -7.810 -12.247  22.370  1.00  0.00     0.000 C 
BRANCH  22  23
ATOM     23  C   UNL     1      -6.555 -12.069  23.246  1.00  0.00     0.000 C 
BRANCH  23  24
ATOM     24  C   UNL     1      -6.286 -13.205  24.252  1.00  0.00    -0.000 C 
BRANCH  24  25
ATOM     25  C   UNL     1      -6.328 -12.796  25.738  1.00  0.00    -0.000 C 
BRANCH  25  26
ATOM     26  C   UNL     1      -5.325 -13.574  26.606  1.00  0.00    -0.000 C 
BRANCH  26  27
ATOM     27  C   UNL     1      -4.819 -14.863  25.931  1.00  0.00    -0.000 C 
BRANCH  27  28
ATOM     28  C   UNL     1      -5.505 -16.165  26.390  1.00  0.00    -0.000 C 
BRANCH  28  29
ATOM     29  C   UNL     1      -4.734 -17.429  25.975  1.00  0.00    -0.000 C 
BRANCH  29  30
ATOM     30  C   UNL     1      -5.661 -18.611  25.634  1.00  0.00    -0.000 C 
BRANCH  30  31
ATOM     31  C   UNL     1      -5.850 -18.877  24.129  1.00  0.00    -0.003 C 
ATOM     32  C   UNL     1      -5.548 -17.655  23.264  1.00  0.00     0.004 C 
ENDBRANCH  30  31
ENDBRANCH  29  30
ENDBRANCH  28  29
ENDBRANCH  27  28
ENDBRANCH  26  27
ENDBRANCH  25  26
ENDBRANCH  24  25
ENDBRANCH  23  24
ENDBRANCH  22  23
ENDBRANCH  21  22
ENDBRANCH  20  21
ENDBRANCH  19  20
ENDBRANCH  18  19
ENDBRANCH   1  18
TORSDOF 28
ENDMDL
MODEL 6
REMARK VINA RESULT:    32.074      4.712     12.078
REMARK INTER + INTRA:          83.718
REMARK INTER:                  85.732
REMARK INTRA:                  -2.014
REMARK UNBOUND:                -0.856
REMARK SMILES CCCCCCCCCCCCCCCCCCCCCCCCCCCCCC(=O)[O-]
REMARK SMILES IDX 16 1 17 2 18 3 19 4 20 5 21 6 22 7 23 8 24 9 25 10 26 11
REMARK SMILES IDX 27 12 28 13 29 14 30 15 31 16 32 17 15 18 14 19 13 20 12 21
REMARK SMILES IDX 11 22 10 23 9 24 8 25 7 26 6 27 5 28 4 29 3 30 2 31 1 32
REMARK H PARENT
REMARK Flexibility Score: inf
ROOT
ATOM      1  C   UNL     1      -8.441 -14.717  19.418  1.00  0.00     0.000 C 
ENDROOT
BRANCH   1   2
ATOM      2  C   UNL     1      -9.058 -14.316  18.068  1.00  0.00     0.000 C 
BRANCH   2   3
ATOM      3  C   UNL     1      -9.687 -15.505  17.323  1.00  0.00     0.000 C 
BRANCH   3   4
ATOM      4  C   UNL     1     -10.229 -16.579  18.281  1.00  0.00     0.000 C 
BRANCH   4   5
ATOM      5  C   UNL     1      -9.853 -18.005  17.840  1.00  0.00     0.000 C 
BRANCH   5   6
ATOM      6  C   UNL     1      -8.581 -18.046  16.965  1.00  0.00     0.000 C 
BRANCH   6   7
ATOM      7  C   UNL     1      -8.146 -19.464  16.551  1.00  0.00     0.000 C 
BRANCH   7   8
ATOM      8  C   UNL     1      -6.936 -19.538  15.598  1.00  0.00     0.000 C 
BRANCH   8   9
ATOM      9  C   UNL     1      -7.171 -20.315  14.284  1.00  0.00     0.000 C 
BRANCH   9  10
ATOM     10  C   UNL     1      -7.895 -19.513  13.187  1.00  0.00     0.000 C 
BRANCH  10  11
ATOM     11  C   UNL     1      -9.428 -19.711  13.201  1.00  0.00     0.000 C 
BRANCH  11  12
ATOM     12  C   UNL     1      -9.852 -21.125  13.629  1.00  0.00     0.000 C 
BRANCH  12  13
ATOM     13  C   UNL     1     -10.451 -21.932  12.464  1.00  0.00     0.006 C 
BRANCH  13  14
ATOM     14  C   UNL     1     -10.097 -23.423  12.551  1.00  0.00     0.053 C 
BRANCH  14  15
ATOM     15  C   UNL     1      -9.573 -23.946  11.248  1.00  0.00     0.041 C 
ATOM     16  O   UNL     1      -9.479 -23.182  10.249  1.00  0.00    -0.550 OA
ATOM     17  O   UNL     1      -9.173 -25.274  11.140  1.00  0.00    -0.550 OA
ENDBRANCH  14  15
ENDBRANCH  13  14
ENDBRANCH  12  13
ENDBRANCH  11  12
ENDBRANCH  10  11
ENDBRANCH   9  10
ENDBRANCH   8   9
ENDBRANCH   7   8
ENDBRANCH   6   7
ENDBRANCH   5   6
ENDBRANCH   4   5
ENDBRANCH   3   4
ENDBRANCH   2   3
ENDBRANCH   1   2
BRANCH   1  18
ATOM     18  C   UNL     1      -9.083 -14.002  20.625  1.00  0.00     0.000 C 
BRANCH  18  19
ATOM     19  C   UNL     1      -8.556 -12.566  20.800  1.00  0.00     0.000 C 
BRANCH  19  20
ATOM     20  C   UNL     1      -8.413 -12.169  22.278  1.00  0.00     0.000 C 
BRANCH  20  21
ATOM     21  C   UNL     1      -7.125 -12.723  22.914  1.00  0.00     0.000 C 
BRANCH  21  22
ATOM     22  C   UNL     1      -6.299 -11.633  23.628  1.00  0.00     0.000 C 
BRANCH  22  23
ATOM     23  C   UNL     1      -6.348 -11.710  25.166  1.00  0.00     0.000 C 
BRANCH  23  24
ATOM     24  C   UNL     1      -6.556 -13.120  25.750  1.00  0.00    -0.000 C 
BRANCH  24  25
ATOM     25  C   UNL     1      -5.265 -13.893  26.085  1.00  0.00    -0.000 C 
BRANCH  25  26
ATOM     26  C   UNL     1      -5.525 -15.189  26.872  1.00  0.00    -0.000 C 
BRANCH  26  27
ATOM     27  C   UNL     1      -4.623 -16.355  26.427  1.00  0.00    -0.000 C 
BRANCH  27  28
ATOM     28  C   UNL     1      -5.327 -17.716  26.268  1.00  0.00    -0.000 C 
BRANCH  28  29
ATOM     29  C   UNL     1      -4.959 -18.434  24.959  1.00  0.00    -0.000 C 
BRANCH  29  30
ATOM     30  C   UNL     1      -5.194 -17.563  23.710  1.00  0.00    -0.000 C 
BRANCH  30  31
ATOM     31  C   UNL     1      -6.100 -18.195  22.638  1.00  0.00    -0.003 C 
ATOM     32  C   UNL     1      -7.227 -19.040  23.229  1.00  0.00     0.004 C 
ENDBRANCH  30  31
ENDBRANCH  29  30
ENDBRANCH  28  29
ENDBRANCH  27  28
ENDBRANCH  26  27
ENDBRANCH  25  26
ENDBRANCH  24  25
ENDBRANCH  23  24
ENDBRANCH  22  23
ENDBRANCH  21  22
ENDBRANCH  20  21
ENDBRANCH  19  20
ENDBRANCH  18  19
ENDBRANCH   1  18
TORSDOF 28
ENDMDL
MODEL 7
REMARK VINA RESULT:    32.303      3.077      3.919
REMARK INTER + INTRA:          84.322
REMARK INTER:                  85.953
REMARK INTRA:                  -1.631
REMARK UNBOUND:                -0.856
REMARK SMILES CCCCCCCCCCCCCCCCCCCCCCCCCCCCCC(=O)[O-]
REMARK SMILES IDX 16 1 17 2 18 3 19 4 20 5 21 6 22 7 23 8 24 9 25 10 26 11
REMARK SMILES IDX 27 12 28 13 29 14 30 15 31 16 32 17 15 18 14 19 13 20 12 21
REMARK SMILES IDX 11 22 10 23 9 24 8 25 7 26 6 27 5 28 4 29 3 30 2 31 1 32
REMARK H PARENT
REMARK Flexibility Score: inf
ROOT
ATOM      1  C   UNL     1     -10.247 -18.045  17.930  1.00  0.00     0.000 C 
ENDROOT
BRANCH   1   2
ATOM      2  C   UNL     1      -9.323 -16.855  18.241  1.00  0.00     0.000 C 
BRANCH   2   3
ATOM      3  C   UNL     1      -9.779 -15.552  17.564  1.00  0.00     0.000 C 
BRANCH   3   4
ATOM      4  C   UNL     1      -8.787 -14.397  17.781  1.00  0.00     0.000 C 
BRANCH   4   5
ATOM      5  C   UNL     1      -9.173 -13.506  18.976  1.00  0.00     0.000 C 
BRANCH   5   6
ATOM      6  C   UNL     1      -8.578 -14.003  20.311  1.00  0.00     0.000 C 
BRANCH   6   7
ATOM      7  C   UNL     1      -8.376 -12.896  21.363  1.00  0.00     0.000 C 
BRANCH   7   8
ATOM      8  C   UNL     1      -7.471 -13.266  22.555  1.00  0.00     0.000 C 
BRANCH   8   9
ATOM      9  C   UNL     1      -6.546 -12.138  23.062  1.00  0.00     0.000 C 
BRANCH   9  10
ATOM     10  C   UNL     1      -6.734 -11.777  24.548  1.00  0.00     0.000 C 
BRANCH  10  11
ATOM     11  C   UNL     1      -5.816 -10.623  25.012  1.00  0.00     0.000 C 
BRANCH  11  12
ATOM     12  C   UNL     1      -5.815  -9.425  24.049  1.00  0.00     0.000 C 
BRANCH  12  13
ATOM     13  C   UNL     1      -4.799  -8.346  24.463  1.00  0.00     0.006 C 
BRANCH  13  14
ATOM     14  C   UNL     1      -3.542  -8.950  25.102  1.00  0.00     0.053 C 
BRANCH  14  15
ATOM     15  C   UNL     1      -2.331  -8.751  24.242  1.00  0.00     0.041 C 
ATOM     16  O   UNL     1      -2.264  -7.765  23.459  1.00  0.00    -0.550 OA
ATOM     17  O   UNL     1      -1.267  -9.644  24.318  1.00  0.00    -0.550 OA
ENDBRANCH  14  15
ENDBRANCH  13  14
ENDBRANCH  12  13
ENDBRANCH  11  12
ENDBRANCH  10  11
ENDBRANCH   9  10
ENDBRANCH   8   9
ENDBRANCH   7   8
ENDBRANCH   6   7
ENDBRANCH   5   6
ENDBRANCH   4   5
ENDBRANCH   3   4
ENDBRANCH   2   3
ENDBRANCH   1   2
BRANCH   1  18
ATOM     18  C   UNL     1      -9.808 -18.858  16.695  1.00  0.00     0.000 C 
BRANCH  18  19
ATOM     19  C   UNL     1      -8.508 -19.644  16.946  1.00  0.00     0.000 C 
BRANCH  19  20
ATOM     20  C   UNL     1      -7.270 -18.922  16.389  1.00  0.00     0.000 C 
BRANCH  20  21
ATOM     21  C   UNL     1      -6.216 -19.901  15.840  1.00  0.00     0.000 C 
BRANCH  21  22
ATOM     22  C   UNL     1      -6.550 -20.396  14.416  1.00  0.00     0.000 C 
BRANCH  22  23
ATOM     23  C   UNL     1      -5.803 -19.646  13.297  1.00  0.00     0.000 C 
BRANCH  23  24
ATOM     24  C   UNL     1      -6.491 -18.366  12.786  1.00  0.00    -0.000 C 
BRANCH  24  25
ATOM     25  C   UNL     1      -8.032 -18.409  12.762  1.00  0.00    -0.000 C 
BRANCH  25  26
ATOM     26  C   UNL     1      -8.650 -17.339  11.846  1.00  0.00    -0.000 C 
BRANCH  26  27
ATOM     27  C   UNL     1      -8.281 -15.903  12.264  1.00  0.00    -0.000 C 
BRANCH  27  28
ATOM     28  C   UNL     1      -9.468 -14.940  12.451  1.00  0.00    -0.000 C 
BRANCH  28  29
ATOM     29  C   UNL     1      -9.198 -13.535  11.887  1.00  0.00    -0.000 C 
BRANCH  29  30
ATOM     30  C   UNL     1      -8.743 -12.533  12.966  1.00  0.00    -0.000 C 
BRANCH  30  31
ATOM     31  C   UNL     1      -9.877 -11.729  13.627  1.00  0.00    -0.003 C 
ATOM     32  C   UNL     1      -9.731 -10.221  13.436  1.00  0.00     0.004 C 
ENDBRANCH  30  31
ENDBRANCH  29  30
ENDBRANCH  28  29
ENDBRANCH  27  28
ENDBRANCH  26  27
ENDBRANCH  25  26
ENDBRANCH  24  25
ENDBRANCH  23  24
ENDBRANCH  22  23
ENDBRANCH  21  22
ENDBRANCH  20  21
ENDBRANCH  19  20
ENDBRANCH  18  19
ENDBRANCH   1  18
TORSDOF 28
ENDMDL
MODEL 8
REMARK VINA RESULT:    32.569      3.059      5.728
REMARK INTER + INTRA:          85.025
REMARK INTER:                  86.093
REMARK INTRA:                  -1.068
REMARK UNBOUND:                -0.856
REMARK SMILES CCCCCCCCCCCCCCCCCCCCCCCCCCCCCC(=O)[O-]
REMARK SMILES IDX 16 1 17 2 18 3 19 4 20 5 21 6 22 7 23 8 24 9 25 10 26 11
REMARK SMILES IDX 27 12 28 13 29 14 30 15 31 16 32 17 15 18 14 19 13 20 12 21
REMARK SMILES IDX 11 22 10 23 9 24 8 25 7 26 6 27 5 28 4 29 3 30 2 31 1 32
REMARK H PARENT
REMARK Flexibility Score: inf
ROOT
ATOM      1  C   UNL     1      -9.876 -16.949  17.610  1.00  0.00     0.000 C 
ENDROOT
BRANCH   1   2
ATOM      2  C   UNL     1      -9.899 -16.171  18.937  1.00  0.00     0.000 C 
BRANCH   2   3
ATOM      3  C   UNL     1      -9.472 -14.702  18.774  1.00  0.00     0.000 C 
BRANCH   3   4
ATOM      4  C   UNL     1      -8.353 -14.304  19.751  1.00  0.00     0.000 C 
BRANCH   4   5
ATOM      5  C   UNL     1      -8.400 -12.812  20.125  1.00  0.00     0.000 C 
BRANCH   5   6
ATOM      6  C   UNL     1      -8.817 -12.574  21.592  1.00  0.00     0.000 C 
BRANCH   6   7
ATOM      7  C   UNL     1      -7.759 -13.005  22.626  1.00  0.00     0.000 C 
BRANCH   7   8
ATOM      8  C   UNL     1      -6.755 -11.913  23.046  1.00  0.00     0.000 C 
BRANCH   8   9
ATOM      9  C   UNL     1      -5.849 -12.269  24.245  1.00  0.00     0.000 C 
BRANCH   9  10
ATOM     10  C   UNL     1      -6.600 -12.477  25.574  1.00  0.00     0.000 C 
BRANCH  10  11
ATOM     11  C   UNL     1      -6.507 -13.926  26.104  1.00  0.00     0.000 C 
BRANCH  11  12
ATOM     12  C   UNL     1      -5.061 -14.400  26.322  1.00  0.00     0.000 C 
BRANCH  12  13
ATOM     13  C   UNL     1      -4.652 -15.499  25.325  1.00  0.00     0.006 C 
BRANCH  13  14
ATOM     14  C   UNL     1      -4.859 -16.907  25.901  1.00  0.00     0.053 C 
BRANCH  14  15
ATOM     15  C   UNL     1      -5.123 -17.914  24.823  1.00  0.00     0.041 C 
ATOM     16  O   UNL     1      -4.674 -17.730  23.659  1.00  0.00    -0.550 OA
ATOM     17  O   UNL     1      -5.848 -19.066  25.107  1.00  0.00    -0.550 OA
ENDBRANCH  14  15
ENDBRANCH  13  14
ENDBRANCH  12  13
ENDBRANCH  11  12
ENDBRANCH  10  11
ENDBRANCH   9  10
ENDBRANCH   8   9
ENDBRANCH   7   8
ENDBRANCH   6   7
ENDBRANCH   5   6
ENDBRANCH   4   5
ENDBRANCH   3   4
ENDBRANCH   2   3
ENDBRANCH   1   2
BRANCH   1  18
ATOM     18  C   UNL     1     -10.004 -18.476  17.790  1.00  0.00     0.000 C 
BRANCH  18  19
ATOM     19  C   UNL     1      -9.126 -19.256  16.795  1.00  0.00     0.000 C 
BRANCH  19  20
ATOM     20  C   UNL     1      -7.718 -18.655  16.659  1.00  0.00     0.000 C 
BRANCH  20  21
ATOM     21  C   UNL     1      -6.637 -19.729  16.441  1.00  0.00     0.000 C 
BRANCH  21  22
ATOM     22  C   UNL     1      -6.392 -20.029  14.946  1.00  0.00     0.000 C 
BRANCH  22  23
ATOM     23  C   UNL     1      -7.599 -19.731  14.037  1.00  0.00     0.000 C 
BRANCH  23  24
ATOM     24  C   UNL     1      -8.508 -20.937  13.731  1.00  0.00    -0.000 C 
BRANCH  24  25
ATOM     25  C   UNL     1     -10.022 -20.653  13.784  1.00  0.00    -0.000 C 
BRANCH  25  26
ATOM     26  C   UNL     1     -10.666 -20.552  12.391  1.00  0.00    -0.000 C 
BRANCH  26  27
ATOM     27  C   UNL     1     -11.162 -21.908  11.857  1.00  0.00    -0.000 C 
BRANCH  27  28
ATOM     28  C   UNL     1     -10.297 -23.126  12.234  1.00  0.00    -0.000 C 
BRANCH  28  29
ATOM     29  C   UNL     1      -9.808 -23.918  11.010  1.00  0.00    -0.000 C 
BRANCH  29  30
ATOM     30  C   UNL     1      -8.818 -25.040  11.377  1.00  0.00    -0.000 C 
BRANCH  30  31
ATOM     31  C   UNL     1      -9.216 -26.445  10.891  1.00  0.00    -0.003 C 
ATOM     32  C   UNL     1     -10.229 -26.417   9.748  1.00  0.00     0.004 C 
ENDBRANCH  30  31
ENDBRANCH  29  30
ENDBRANCH  28  29
ENDBRANCH  27  28
ENDBRANCH  26  27
ENDBRANCH  25  26
ENDBRANCH  24  25
ENDBRANCH  23  24
ENDBRANCH  22  23
ENDBRANCH  21  22
ENDBRANCH  20  21
ENDBRANCH  19  20
ENDBRANCH  18  19
ENDBRANCH   1  18
TORSDOF 28
ENDMDL
MODEL 9
REMARK VINA RESULT:    32.751      5.489     11.919
REMARK INTER + INTRA:          85.505
REMARK INTER:                  87.347
REMARK INTRA:                  -1.843
REMARK UNBOUND:                -0.856
REMARK SMILES CCCCCCCCCCCCCCCCCCCCCCCCCCCCCC(=O)[O-]
REMARK SMILES IDX 16 1 17 2 18 3 19 4 20 5 21 6 22 7 23 8 24 9 25 10 26 11
REMARK SMILES IDX 27 12 28 13 29 14 30 15 31 16 32 17 15 18 14 19 13 20 12 21
REMARK SMILES IDX 11 22 10 23 9 24 8 25 7 26 6 27 5 28 4 29 3 30 2 31 1 32
REMARK H PARENT
REMARK Flexibility Score: inf
ROOT
ATOM      1  C   UNL     1      -8.991 -13.294  20.121  1.00  0.00     0.000 C 
ENDROOT
BRANCH   1   2
ATOM      2  C   UNL     1      -8.222 -14.404  19.384  1.00  0.00     0.000 C 
BRANCH   2   3
ATOM      3  C   UNL     1      -8.419 -14.355  17.859  1.00  0.00     0.000 C 
BRANCH   3   4
ATOM      4  C   UNL     1      -9.801 -14.872  17.428  1.00  0.00     0.000 C 
BRANCH   4   5
ATOM      5  C   UNL     1     -10.745 -13.738  16.991  1.00  0.00     0.000 C 
BRANCH   5   6
ATOM      6  C   UNL     1     -10.073 -12.348  17.036  1.00  0.00     0.000 C 
BRANCH   6   7
ATOM      7  C   UNL     1     -10.812 -11.263  16.231  1.00  0.00     0.000 C 
BRANCH   7   8
ATOM      8  C   UNL     1      -9.921 -10.370  15.344  1.00  0.00     0.000 C 
BRANCH   8   9
ATOM      9  C   UNL     1     -10.004 -10.648  13.827  1.00  0.00     0.000 C 
BRANCH   9  10
ATOM     10  C   UNL     1      -8.802 -11.421  13.252  1.00  0.00     0.000 C 
BRANCH  10  11
ATOM     11  C   UNL     1      -8.885 -12.945  13.501  1.00  0.00     0.000 C 
BRANCH  11  12
ATOM     12  C   UNL     1      -9.034 -13.762  12.208  1.00  0.00     0.000 C 
BRANCH  12  13
ATOM     13  C   UNL     1     -10.057 -13.141  11.241  1.00  0.00     0.006 C 
BRANCH  13  14
ATOM     14  C   UNL     1     -11.467 -13.710  11.448  1.00  0.00     0.053 C 
BRANCH  14  15
ATOM     15  C   UNL     1     -12.525 -12.755  10.984  1.00  0.00     0.041 C 
ATOM     16  O   UNL     1     -12.215 -11.763  10.269  1.00  0.00    -0.550 OA
ATOM     17  O   UNL     1     -13.856 -12.968  11.326  1.00  0.00    -0.550 OA
ENDBRANCH  14  15
ENDBRANCH  13  14
ENDBRANCH  12  13
ENDBRANCH  11  12
ENDBRANCH  10  11
ENDBRANCH   9  10
ENDBRANCH   8   9
ENDBRANCH   7   8
ENDBRANCH   6   7
ENDBRANCH   5   6
ENDBRANCH   4   5
ENDBRANCH   3   4
ENDBRANCH   2   3
ENDBRANCH   1   2
BRANCH   1  18
ATOM     18  C   UNL     1      -8.669 -13.218  21.628  1.00  0.00     0.000 C 
BRANCH  18  19
ATOM     19  C   UNL     1      -7.591 -12.165  21.941  1.00  0.00     0.000 C 
BRANCH  19  20
ATOM     20  C   UNL     1      -7.042 -12.294  23.370  1.00  0.00     0.000 C 
BRANCH  20  21
ATOM     21  C   UNL     1      -6.056 -11.166  23.727  1.00  0.00     0.000 C 
BRANCH  21  22
ATOM     22  C   UNL     1      -6.149 -10.743  25.208  1.00  0.00     0.000 C 
BRANCH  22  23
ATOM     23  C   UNL     1      -5.563  -9.350  25.504  1.00  0.00     0.000 C 
BRANCH  23  24
ATOM     24  C   UNL     1      -4.476  -8.869  24.523  1.00  0.00    -0.000 C 
BRANCH  24  25
ATOM     25  C   UNL     1      -3.091  -9.525  24.699  1.00  0.00    -0.000 C 
BRANCH  25  26
ATOM     26  C   UNL     1      -1.931  -8.602  24.288  1.00  0.00    -0.000 C 
BRANCH  26  27
ATOM     27  C   UNL     1      -2.341  -7.552  23.239  1.00  0.00    -0.000 C 
BRANCH  27  28
ATOM     28  C   UNL     1      -1.294  -7.263  22.146  1.00  0.00    -0.000 C 
BRANCH  28  29
ATOM     29  C   UNL     1      -1.581  -8.001  20.827  1.00  0.00    -0.000 C 
BRANCH  29  30
ATOM     30  C   UNL     1      -2.297  -7.117  19.789  1.00  0.00    -0.000 C 
BRANCH  30  31
ATOM     31  C   UNL     1      -3.459  -7.799  19.045  1.00  0.00    -0.003 C 
ATOM     32  C   UNL     1      -4.803  -7.630  19.750  1.00  0.00     0.004 C 
ENDBRANCH  30  31
ENDBRANCH  29  30
ENDBRANCH  28  29
ENDBRANCH  27  28
ENDBRANCH  26  27
ENDBRANCH  25  26
ENDBRANCH  24  25
ENDBRANCH  23  24
ENDBRANCH  22  23
ENDBRANCH  21  22
ENDBRANCH  20  21
ENDBRANCH  19  20
ENDBRANCH  18  19
ENDBRANCH   1  18
TORSDOF 28
ENDMDL
