MODEL 1
REMARK VINA RESULT:    -3.630      0.000      0.000
REMARK INTER + INTRA:          -5.440
REMARK INTER:                  -5.116
REMARK INTRA:                  -0.324
REMARK UNBOUND:                -0.324
REMARK SMILES CCCCCCCCC(=O)[O-]
REMARK SMILES IDX 6 1 7 2 8 3 9 4 10 5 11 6 5 7 4 8 3 9 2 10 1 11
REMARK H PARENT
REMARK Flexibility Score: inf
ROOT
ATOM      1  C   UNL     1      30.008  33.851  20.991  1.00  0.00     0.000 C 
ENDROOT
BRANCH   1   2
ATOM      2  C   UNL     1      30.031  33.647  22.514  1.00  0.00     0.006 C 
BRANCH   2   3
ATOM      3  C   UNL     1      31.172  32.726  22.966  1.00  0.00     0.053 C 
BRANCH   3   4
ATOM      4  C   UNL     1      32.497  33.360  22.688  1.00  0.00     0.041 C 
ATOM      5  O   UNL     1      33.416  32.695  22.140  1.00  0.00    -0.550 OA
ATOM      6  O   UNL     1      32.736  34.672  23.078  1.00  0.00    -0.550 OA
ENDBRANCH   3   4
ENDBRANCH   2   3
ENDBRANCH   1   2
BRANCH   1   7
ATOM      7  C   UNL     1      28.854  33.095  20.310  1.00  0.00     0.000 C 
BRANCH   7   8
ATOM      8  C   UNL     1      27.477  33.442  20.906  1.00  0.00    -0.000 C 
BRANCH   8   9
ATOM      9  C   UNL     1      26.624  34.396  20.051  1.00  0.00    -0.000 C 
BRANCH   9  10
ATOM     10  C   UNL     1      25.692  33.658  19.080  1.00  0.00    -0.003 C 
ATOM     11  C   UNL     1      24.878  32.589  19.803  1.00  0.00     0.004 C 
ENDBRANCH   9  10
ENDBRANCH   8   9
ENDBRANCH   7   8
ENDBRANCH   1   7
TORSDOF 7
ENDMDL
MODEL 2
REMARK VINA RESULT:    -3.599      3.795      6.104
REMARK INTER + INTRA:          -5.397
REMARK INTER:                  -5.001
REMARK INTRA:                  -0.396
REMARK UNBOUND:                -0.324
REMARK SMILES CCCCCCCCC(=O)[O-]
REMARK SMILES IDX 6 1 7 2 8 3 9 4 10 5 11 6 5 7 4 8 3 9 2 10 1 11
REMARK H PARENT
REMARK Flexibility Score: inf
ROOT
ATOM      1  C   UNL     1      28.266  34.252  22.235  1.00  0.00     0.000 C 
ENDROOT
BRANCH   1   2
ATOM      2  C   UNL     1      27.907  33.847  20.797  1.00  0.00     0.006 C 
BRANCH   2   3
ATOM      3  C   UNL     1      26.761  34.687  20.218  1.00  0.00     0.053 C 
BRANCH   3   4
ATOM      4  C   UNL     1      25.731  33.802  19.590  1.00  0.00     0.041 C 
ATOM      5  O   UNL     1      25.364  32.746  20.170  1.00  0.00    -0.550 OA
ATOM      6  O   UNL     1      25.212  34.116  18.341  1.00  0.00    -0.550 OA
ENDBRANCH   3   4
ENDBRANCH   2   3
ENDBRANCH   1   2
BRANCH   1   7
ATOM      7  C   UNL     1      28.492  33.038  23.153  1.00  0.00     0.000 C 
BRANCH   7   8
ATOM      8  C   UNL     1      29.944  32.528  23.123  1.00  0.00    -0.000 C 
BRANCH   8   9
ATOM      9  C   UNL     1      31.018  33.630  23.124  1.00  0.00    -0.000 C 
BRANCH   9  10
ATOM     10  C   UNL     1      32.326  33.192  22.450  1.00  0.00    -0.003 C 
ATOM     11  C   UNL     1      32.345  33.587  20.976  1.00  0.00     0.004 C 
ENDBRANCH   9  10
ENDBRANCH   8   9
ENDBRANCH   7   8
ENDBRANCH   1   7
TORSDOF 7
ENDMDL
MODEL 3
REMARK VINA RESULT:    -3.594      2.058      2.996
REMARK INTER + INTRA:          -5.389
REMARK INTER:                  -4.754
REMARK INTRA:                  -0.635
REMARK UNBOUND:                -0.324
REMARK SMILES CCCCCCCCC(=O)[O-]
REMARK SMILES IDX 6 1 7 2 8 3 9 4 10 5 11 6 5 7 4 8 3 9 2 10 1 11
REMARK H PARENT
REMARK Flexibility Score: inf
ROOT
ATOM      1  C   UNL     1      31.102  34.940  23.855  1.00  0.00     0.000 C 
ENDROOT
BRANCH   1   2
ATOM      2  C   UNL     1      32.041  34.590  22.690  1.00  0.00     0.006 C 
BRANCH   2   3
ATOM      3  C   UNL     1      32.386  33.096  22.641  1.00  0.00     0.053 C 
BRANCH   3   4
ATOM      4  C   UNL     1      33.692  32.883  21.945  1.00  0.00     0.041 C 
ATOM      5  O   UNL     1      33.733  32.262  20.850  1.00  0.00    -0.550 OA
ATOM      6  O   UNL     1      34.871  33.328  22.528  1.00  0.00    -0.550 OA
ENDBRANCH   3   4
ENDBRANCH   2   3
ENDBRANCH   1   2
BRANCH   1   7
ATOM      7  C   UNL     1      29.709  35.385  23.379  1.00  0.00     0.000 C 
BRANCH   7   8
ATOM      8  C   UNL     1      28.584  34.456  23.870  1.00  0.00    -0.000 C 
BRANCH   8   9
ATOM      9  C   UNL     1      28.425  33.151  23.069  1.00  0.00    -0.000 C 
BRANCH   9  10
ATOM     10  C   UNL     1      27.969  33.389  21.622  1.00  0.00    -0.003 C 
ATOM     11  C   UNL     1      29.082  33.057  20.633  1.00  0.00     0.004 C 
ENDBRANCH   9  10
ENDBRANCH   8   9
ENDBRANCH   7   8
ENDBRANCH   1   7
TORSDOF 7
ENDMDL
MODEL 4
REMARK VINA RESULT:    -3.588     15.602     17.186
REMARK INTER + INTRA:          -5.381
REMARK INTER:                  -4.547
REMARK INTRA:                  -0.833
REMARK UNBOUND:                -0.324
REMARK SMILES CCCCCCCCC(=O)[O-]
REMARK SMILES IDX 6 1 7 2 8 3 9 4 10 5 11 6 5 7 4 8 3 9 2 10 1 11
REMARK H PARENT
REMARK Flexibility Score: inf
ROOT
ATOM      1  C   UNL     1      37.682  23.015  31.476  1.00  0.00     0.000 C 
ENDROOT
BRANCH   1   2
ATOM      2  C   UNL     1      37.643  23.573  30.045  1.00  0.00     0.006 C 
BRANCH   2   3
ATOM      3  C   UNL     1      37.915  22.496  28.987  1.00  0.00     0.053 C 
BRANCH   3   4
ATOM      4  C   UNL     1      38.769  23.047  27.889  1.00  0.00     0.041 C 
ATOM      5  O   UNL     1      39.753  22.388  27.460  1.00  0.00    -0.550 OA
ATOM      6  O   UNL     1      38.510  24.310  27.374  1.00  0.00    -0.550 OA
ENDBRANCH   3   4
ENDBRANCH   2   3
ENDBRANCH   1   2
BRANCH   1   7
ATOM      7  C   UNL     1      39.094  22.576  31.902  1.00  0.00     0.000 C 
BRANCH   7   8
ATOM      8  C   UNL     1      40.165  23.645  31.616  1.00  0.00    -0.000 C 
BRANCH   8   9
ATOM      9  C   UNL     1      41.383  23.145  30.820  1.00  0.00    -0.000 C 
BRANCH   9  10
ATOM     10  C   UNL     1      41.814  24.118  29.713  1.00  0.00    -0.003 C 
ATOM     11  C   UNL     1      40.928  25.359  29.695  1.00  0.00     0.004 C 
ENDBRANCH   9  10
ENDBRANCH   8   9
ENDBRANCH   7   8
ENDBRANCH   1   7
TORSDOF 7
ENDMDL
MODEL 5
REMARK VINA RESULT:    -3.571      1.407      1.720
REMARK INTER + INTRA:          -5.357
REMARK INTER:                  -4.952
REMARK INTRA:                  -0.405
REMARK UNBOUND:                -0.324
REMARK SMILES CCCCCCCCC(=O)[O-]
REMARK SMILES IDX 6 1 7 2 8 3 9 4 10 5 11 6 5 7 4 8 3 9 2 10 1 11
REMARK H PARENT
REMARK Flexibility Score: inf
ROOT
ATOM      1  C   UNL     1      29.772  32.609  23.092  1.00  0.00     0.000 C 
ENDROOT
BRANCH   1   2
ATOM      2  C   UNL     1      30.854  33.699  23.134  1.00  0.00     0.006 C 
BRANCH   2   3
ATOM      3  C   UNL     1      32.220  33.191  22.655  1.00  0.00     0.053 C 
BRANCH   3   4
ATOM      4  C   UNL     1      32.392  33.456  21.193  1.00  0.00     0.041 C 
ATOM      5  O   UNL     1      33.348  32.933  20.561  1.00  0.00    -0.550 OA
ATOM      6  O   UNL     1      31.526  34.321  20.537  1.00  0.00    -0.550 OA
ENDBRANCH   3   4
ENDBRANCH   2   3
ENDBRANCH   1   2
BRANCH   1   7
ATOM      7  C   UNL     1      28.377  33.172  22.769  1.00  0.00     0.000 C 
BRANCH   7   8
ATOM      8  C   UNL     1      28.030  33.086  21.271  1.00  0.00    -0.000 C 
BRANCH   8   9
ATOM      9  C   UNL     1      27.758  34.440  20.591  1.00  0.00    -0.000 C 
BRANCH   9  10
ATOM     10  C   UNL     1      26.413  34.477  19.850  1.00  0.00    -0.003 C 
ATOM     11  C   UNL     1      25.659  33.160  20.011  1.00  0.00     0.004 C 
ENDBRANCH   9  10
ENDBRANCH   8   9
ENDBRANCH   7   8
ENDBRANCH   1   7
TORSDOF 7
ENDMDL
MODEL 6
REMARK VINA RESULT:    -3.491      3.964      5.596
REMARK INTER + INTRA:          -5.244
REMARK INTER:                  -4.573
REMARK INTRA:                  -0.671
REMARK UNBOUND:                -0.324
REMARK SMILES CCCCCCCCC(=O)[O-]
REMARK SMILES IDX 6 1 7 2 8 3 9 4 10 5 11 6 5 7 4 8 3 9 2 10 1 11
REMARK H PARENT
REMARK Flexibility Score: inf
ROOT
ATOM      1  C   UNL     1      29.267  33.158  20.360  1.00  0.00     0.000 C 
ENDROOT
BRANCH   1   2
ATOM      2  C   UNL     1      28.022  34.045  20.210  1.00  0.00     0.006 C 
BRANCH   2   3
ATOM      3  C   UNL     1      26.750  33.369  20.739  1.00  0.00     0.053 C 
BRANCH   3   4
ATOM      4  C   UNL     1      25.720  33.275  19.659  1.00  0.00     0.041 C 
ATOM      5  O   UNL     1      24.875  32.342  19.667  1.00  0.00    -0.550 OA
ATOM      6  O   UNL     1      25.724  34.190  18.613  1.00  0.00    -0.550 OA
ENDBRANCH   3   4
ENDBRANCH   2   3
ENDBRANCH   1   2
BRANCH   1   7
ATOM      7  C   UNL     1      30.283  33.728  21.364  1.00  0.00     0.000 C 
BRANCH   7   8
ATOM      8  C   UNL     1      29.927  33.402  22.826  1.00  0.00    -0.000 C 
BRANCH   8   9
ATOM      9  C   UNL     1      29.768  34.628  23.743  1.00  0.00    -0.000 C 
BRANCH   9  10
ATOM     10  C   UNL     1      28.304  34.922  24.102  1.00  0.00    -0.003 C 
ATOM     11  C   UNL     1      27.812  36.190  23.410  1.00  0.00     0.004 C 
ENDBRANCH   9  10
ENDBRANCH   8   9
ENDBRANCH   7   8
ENDBRANCH   1   7
TORSDOF 7
ENDMDL
MODEL 7
REMARK VINA RESULT:    -3.482      2.549      5.062
REMARK INTER + INTRA:          -5.231
REMARK INTER:                  -4.491
REMARK INTRA:                  -0.740
REMARK UNBOUND:                -0.324
REMARK SMILES CCCCCCCCC(=O)[O-]
REMARK SMILES IDX 6 1 7 2 8 3 9 4 10 5 11 6 5 7 4 8 3 9 2 10 1 11
REMARK H PARENT
REMARK Flexibility Score: inf
ROOT
ATOM      1  C   UNL     1      29.003  33.133  22.986  1.00  0.00     0.000 C 
ENDROOT
BRANCH   1   2
ATOM      2  C   UNL     1      28.171  33.451  21.733  1.00  0.00     0.006 C 
BRANCH   2   3
ATOM      3  C   UNL     1      28.814  32.912  20.449  1.00  0.00     0.053 C 
BRANCH   3   4
ATOM      4  C   UNL     1      29.850  33.865  19.943  1.00  0.00     0.041 C 
ATOM      5  O   UNL     1      30.830  33.440  19.277  1.00  0.00    -0.550 OA
ATOM      6  O   UNL     1      29.761  35.216  20.251  1.00  0.00    -0.550 OA
ENDBRANCH   3   4
ENDBRANCH   2   3
ENDBRANCH   1   2
BRANCH   1   7
ATOM      7  C   UNL     1      29.519  34.400  23.691  1.00  0.00     0.000 C 
BRANCH   7   8
ATOM      8  C   UNL     1      31.036  34.602  23.523  1.00  0.00    -0.000 C 
BRANCH   8   9
ATOM      9  C   UNL     1      31.795  33.380  22.976  1.00  0.00    -0.000 C 
BRANCH   9  10
ATOM     10  C   UNL     1      33.060  33.762  22.195  1.00  0.00    -0.003 C 
ATOM     11  C   UNL     1      33.578  32.584  21.376  1.00  0.00     0.004 C 
ENDBRANCH   9  10
ENDBRANCH   8   9
ENDBRANCH   7   8
ENDBRANCH   1   7
TORSDOF 7
ENDMDL
MODEL 8
REMARK VINA RESULT:    -3.474     15.836     16.966
REMARK INTER + INTRA:          -5.219
REMARK INTER:                  -4.413
REMARK INTRA:                  -0.806
REMARK UNBOUND:                -0.324
REMARK SMILES CCCCCCCCC(=O)[O-]
REMARK SMILES IDX 6 1 7 2 8 3 9 4 10 5 11 6 5 7 4 8 3 9 2 10 1 11
REMARK H PARENT
REMARK Flexibility Score: inf
ROOT
ATOM      1  C   UNL     1      40.333  21.873  28.228  1.00  0.00     0.000 C 
ENDROOT
BRANCH   1   2
ATOM      2  C   UNL     1      41.528  22.824  28.394  1.00  0.00     0.006 C 
BRANCH   2   3
ATOM      3  C   UNL     1      41.583  23.463  29.788  1.00  0.00     0.053 C 
BRANCH   3   4
ATOM      4  C   UNL     1      41.484  24.952  29.684  1.00  0.00     0.041 C 
ATOM      5  O   UNL     1      42.473  25.675  29.976  1.00  0.00    -0.550 OA
ATOM      6  O   UNL     1      40.284  25.546  29.314  1.00  0.00    -0.550 OA
ENDBRANCH   3   4
ENDBRANCH   2   3
ENDBRANCH   1   2
BRANCH   1   7
ATOM      7  C   UNL     1      39.025  22.616  27.907  1.00  0.00     0.000 C 
BRANCH   7   8
ATOM      8  C   UNL     1      37.896  22.300  28.905  1.00  0.00    -0.000 C 
BRANCH   8   9
ATOM      9  C   UNL     1      37.636  23.394  29.956  1.00  0.00    -0.000 C 
BRANCH   9  10
ATOM     10  C   UNL     1      38.254  23.071  31.323  1.00  0.00    -0.003 C 
ATOM     11  C   UNL     1      38.237  21.570  31.594  1.00  0.00     0.004 C 
ENDBRANCH   9  10
ENDBRANCH   8   9
ENDBRANCH   7   8
ENDBRANCH   1   7
TORSDOF 7
ENDMDL
MODEL 9
REMARK VINA RESULT:    -3.469      3.381      4.085
REMARK INTER + INTRA:          -5.213
REMARK INTER:                  -4.796
REMARK INTRA:                  -0.416
REMARK UNBOUND:                -0.324
REMARK SMILES CCCCCCCCC(=O)[O-]
REMARK SMILES IDX 6 1 7 2 8 3 9 4 10 5 11 6 5 7 4 8 3 9 2 10 1 11
REMARK H PARENT
REMARK Flexibility Score: inf
ROOT
ATOM      1  C   UNL     1      28.285  33.473  23.395  1.00  0.00     0.000 C 
ENDROOT
BRANCH   1   2
ATOM      2  C   UNL     1      28.946  34.765  23.900  1.00  0.00     0.006 C 
BRANCH   2   3
ATOM      3  C   UNL     1      27.973  35.950  23.935  1.00  0.00     0.053 C 
BRANCH   3   4
ATOM      4  C   UNL     1      27.671  36.337  25.347  1.00  0.00     0.041 C 
ATOM      5  O   UNL     1      28.268  35.772  26.301  1.00  0.00    -0.550 OA
ATOM      6  O   UNL     1      26.694  37.288  25.614  1.00  0.00    -0.550 OA
ENDBRANCH   3   4
ENDBRANCH   2   3
ENDBRANCH   1   2
BRANCH   1   7
ATOM      7  C   UNL     1      28.985  32.896  22.152  1.00  0.00     0.000 C 
BRANCH   7   8
ATOM      8  C   UNL     1      28.538  33.575  20.845  1.00  0.00    -0.000 C 
BRANCH   8   9
ATOM      9  C   UNL     1      27.053  33.977  20.798  1.00  0.00    -0.000 C 
BRANCH   9  10
ATOM     10  C   UNL     1      26.303  33.357  19.611  1.00  0.00    -0.003 C 
ATOM     11  C   UNL     1      24.875  32.982  19.998  1.00  0.00     0.004 C 
ENDBRANCH   9  10
ENDBRANCH   8   9
ENDBRANCH   7   8
ENDBRANCH   1   7
TORSDOF 7
ENDMDL
