MODEL 1
REMARK VINA RESULT:    -4.346      0.000      0.000
REMARK INTER + INTRA:          -5.910
REMARK INTER:                  -5.616
REMARK INTRA:                  -0.294
REMARK UNBOUND:                -0.294
REMARK SMILES C=CC(=O)CCCCC
REMARK SMILES IDX 6 1 7 2 8 3 9 4 5 5 3 6 4 7 2 8 1 9
REMARK H PARENT
REMARK Flexibility Score: inf
ROOT
ATOM      1  C   UNL     1      11.762 -15.986 -28.967  1.00  0.00     0.008 C 
ENDROOT
BRANCH   1   2
ATOM      2  C   UNL     1      11.004 -17.308 -28.745  1.00  0.00     0.000 C 
BRANCH   2   3
ATOM      3  C   UNL     1      11.635 -18.177 -27.646  1.00  0.00    -0.003 C 
ATOM      4  C   UNL     1      11.185 -17.721 -26.260  1.00  0.00     0.004 C 
ENDBRANCH   2   3
ENDBRANCH   1   2
BRANCH   1   5
ATOM      5  C   UNL     1      13.293 -16.141 -29.021  1.00  0.00     0.080 C 
BRANCH   5   6
ATOM      6  C   UNL     1      14.015 -15.379 -27.932  1.00  0.00     0.155 C 
ATOM      7  O   UNL     1      14.159 -15.907 -26.795  1.00  0.00    -0.295 OA
BRANCH   6   8
ATOM      8  C   UNL     1      14.621 -14.052 -28.161  1.00  0.00     0.039 C 
ATOM      9  C   UNL     1      15.392 -13.761 -29.209  1.00  0.00     0.012 C 
ENDBRANCH   6   8
ENDBRANCH   5   6
ENDBRANCH   1   5
TORSDOF 5
ENDMDL
MODEL 2
REMARK VINA RESULT:    -4.286      2.397      4.474
REMARK INTER + INTRA:          -5.833
REMARK INTER:                  -5.497
REMARK INTRA:                  -0.336
REMARK UNBOUND:                -0.294
REMARK SMILES C=CC(=O)CCCCC
REMARK SMILES IDX 6 1 7 2 8 3 9 4 5 5 3 6 4 7 2 8 1 9
REMARK H PARENT
REMARK Flexibility Score: inf
ROOT
ATOM      1  C   UNL     1      13.104 -16.968 -26.865  1.00  0.00     0.008 C 
ENDROOT
BRANCH   1   2
ATOM      2  C   UNL     1      14.090 -15.794 -27.014  1.00  0.00     0.000 C 
BRANCH   2   3
ATOM      3  C   UNL     1      13.904 -15.026 -28.332  1.00  0.00    -0.003 C 
ATOM      4  C   UNL     1      14.854 -13.834 -28.410  1.00  0.00     0.004 C 
ENDBRANCH   2   3
ENDBRANCH   1   2
BRANCH   1   5
ATOM      5  C   UNL     1      12.146 -17.139 -28.058  1.00  0.00     0.080 C 
BRANCH   5   6
ATOM      6  C   UNL     1      12.356 -18.428 -28.821  1.00  0.00     0.155 C 
ATOM      7  O   UNL     1      11.357 -19.054 -29.268  1.00  0.00    -0.295 OA
BRANCH   6   8
ATOM      8  C   UNL     1      13.700 -18.960 -29.123  1.00  0.00     0.039 C 
ATOM      9  C   UNL     1      14.070 -20.218 -28.880  1.00  0.00     0.012 C 
ENDBRANCH   6   8
ENDBRANCH   5   6
ENDBRANCH   1   5
TORSDOF 5
ENDMDL
MODEL 3
REMARK VINA RESULT:    -4.248      9.454     10.665
REMARK INTER + INTRA:          -5.784
REMARK INTER:                  -5.531
REMARK INTRA:                  -0.253
REMARK UNBOUND:                -0.294
REMARK SMILES C=CC(=O)CCCCC
REMARK SMILES IDX 6 1 7 2 8 3 9 4 5 5 3 6 4 7 2 8 1 9
REMARK H PARENT
REMARK Flexibility Score: inf
ROOT
ATOM      1  C   UNL     1       9.608  -7.710 -35.218  1.00  0.00     0.008 C 
ENDROOT
BRANCH   1   2
ATOM      2  C   UNL     1      10.428  -7.082 -34.076  1.00  0.00     0.000 C 
BRANCH   2   3
ATOM      3  C   UNL     1      11.112  -8.132 -33.187  1.00  0.00    -0.003 C 
ATOM      4  C   UNL     1      11.830  -7.473 -32.012  1.00  0.00     0.004 C 
ENDBRANCH   2   3
ENDBRANCH   1   2
BRANCH   1   5
ATOM      5  C   UNL     1       8.907  -9.027 -34.836  1.00  0.00     0.080 C 
BRANCH   5   6
ATOM      6  C   UNL     1       9.396 -10.221 -35.625  1.00  0.00     0.155 C 
ATOM      7  O   UNL     1       8.965 -10.411 -36.795  1.00  0.00    -0.295 OA
BRANCH   6   8
ATOM      8  C   UNL     1      10.414 -11.154 -35.102  1.00  0.00     0.039 C 
ATOM      9  C   UNL     1      11.180 -11.925 -35.875  1.00  0.00     0.012 C 
ENDBRANCH   6   8
ENDBRANCH   5   6
ENDBRANCH   1   5
TORSDOF 5
ENDMDL
MODEL 4
REMARK VINA RESULT:    -4.193      2.894      4.159
REMARK INTER + INTRA:          -5.712
REMARK INTER:                  -5.176
REMARK INTRA:                  -0.536
REMARK UNBOUND:                -0.294
REMARK SMILES C=CC(=O)CCCCC
REMARK SMILES IDX 6 1 7 2 8 3 9 4 5 5 3 6 4 7 2 8 1 9
REMARK H PARENT
REMARK Flexibility Score: inf
ROOT
ATOM      1  C   UNL     1      13.385 -16.540 -29.731  1.00  0.00     0.008 C 
ENDROOT
BRANCH   1   2
ATOM      2  C   UNL     1      12.839 -15.944 -28.420  1.00  0.00     0.000 C 
BRANCH   2   3
ATOM      3  C   UNL     1      13.080 -16.857 -27.208  1.00  0.00    -0.003 C 
ATOM      4  C   UNL     1      11.760 -17.337 -26.612  1.00  0.00     0.004 C 
ENDBRANCH   2   3
ENDBRANCH   1   2
BRANCH   1   5
ATOM      5  C   UNL     1      12.433 -17.542 -30.410  1.00  0.00     0.080 C 
BRANCH   5   6
ATOM      6  C   UNL     1      13.016 -18.930 -30.548  1.00  0.00     0.155 C 
ATOM      7  O   UNL     1      13.542 -19.277 -31.640  1.00  0.00    -0.295 OA
BRANCH   6   8
ATOM      8  C   UNL     1      13.052 -19.889 -29.426  1.00  0.00     0.039 C 
ATOM      9  C   UNL     1      14.171 -20.248 -28.794  1.00  0.00     0.012 C 
ENDBRANCH   6   8
ENDBRANCH   5   6
ENDBRANCH   1   5
TORSDOF 5
ENDMDL
MODEL 5
REMARK VINA RESULT:    -4.150      1.776      3.347
REMARK INTER + INTRA:          -5.657
REMARK INTER:                  -5.065
REMARK INTRA:                  -0.592
REMARK UNBOUND:                -0.294
REMARK SMILES C=CC(=O)CCCCC
REMARK SMILES IDX 6 1 7 2 8 3 9 4 5 5 3 6 4 7 2 8 1 9
REMARK H PARENT
REMARK Flexibility Score: inf
ROOT
ATOM      1  C   UNL     1      13.329 -16.535 -29.788  1.00  0.00     0.008 C 
ENDROOT
BRANCH   1   2
ATOM      2  C   UNL     1      12.468 -17.754 -30.171  1.00  0.00     0.000 C 
BRANCH   2   3
ATOM      3  C   UNL     1      13.287 -19.049 -30.278  1.00  0.00    -0.003 C 
ATOM      4  C   UNL     1      13.036 -19.957 -29.076  1.00  0.00     0.004 C 
ENDBRANCH   2   3
ENDBRANCH   1   2
BRANCH   1   5
ATOM      5  C   UNL     1      12.891 -15.841 -28.486  1.00  0.00     0.080 C 
BRANCH   5   6
ATOM      6  C   UNL     1      13.134 -16.673 -27.247  1.00  0.00     0.155 C 
ATOM      7  O   UNL     1      14.315 -16.975 -26.923  1.00  0.00    -0.295 OA
BRANCH   6   8
ATOM      8  C   UNL     1      12.039 -17.101 -26.352  1.00  0.00     0.039 C 
ATOM      9  C   UNL     1      11.073 -17.946 -26.716  1.00  0.00     0.012 C 
ENDBRANCH   6   8
ENDBRANCH   5   6
ENDBRANCH   1   5
TORSDOF 5
ENDMDL
MODEL 6
REMARK VINA RESULT:    -4.106      2.332      3.161
REMARK INTER + INTRA:          -5.600
REMARK INTER:                  -5.081
REMARK INTRA:                  -0.519
REMARK UNBOUND:                -0.294
REMARK SMILES C=CC(=O)CCCCC
REMARK SMILES IDX 6 1 7 2 8 3 9 4 5 5 3 6 4 7 2 8 1 9
REMARK H PARENT
REMARK Flexibility Score: inf
ROOT
ATOM      1  C   UNL     1      12.068 -17.109 -30.039  1.00  0.00     0.008 C 
ENDROOT
BRANCH   1   2
ATOM      2  C   UNL     1      13.395 -17.890 -30.027  1.00  0.00     0.000 C 
BRANCH   2   3
ATOM      3  C   UNL     1      13.188 -19.412 -30.006  1.00  0.00    -0.003 C 
ATOM      4  C   UNL     1      14.122 -20.078 -28.998  1.00  0.00     0.004 C 
ENDBRANCH   2   3
ENDBRANCH   1   2
BRANCH   1   5
ATOM      5  C   UNL     1      11.824 -16.267 -28.772  1.00  0.00     0.080 C 
BRANCH   5   6
ATOM      6  C   UNL     1      11.963 -17.054 -27.488  1.00  0.00     0.155 C 
ATOM      7  O   UNL     1      11.164 -18.001 -27.251  1.00  0.00    -0.295 OA
BRANCH   6   8
ATOM      8  C   UNL     1      13.044 -16.799 -26.515  1.00  0.00     0.039 C 
ATOM      9  C   UNL     1      14.123 -16.063 -26.783  1.00  0.00     0.012 C 
ENDBRANCH   6   8
ENDBRANCH   5   6
ENDBRANCH   1   5
TORSDOF 5
ENDMDL
MODEL 7
REMARK VINA RESULT:    -4.069      9.406     10.328
REMARK INTER + INTRA:          -5.552
REMARK INTER:                  -5.299
REMARK INTRA:                  -0.253
REMARK UNBOUND:                -0.294
REMARK SMILES C=CC(=O)CCCCC
REMARK SMILES IDX 6 1 7 2 8 3 9 4 5 5 3 6 4 7 2 8 1 9
REMARK H PARENT
REMARK Flexibility Score: inf
ROOT
ATOM      1  C   UNL     1       9.339  -9.817 -35.377  1.00  0.00     0.008 C 
ENDROOT
BRANCH   1   2
ATOM      2  C   UNL     1      10.415 -10.667 -34.676  1.00  0.00     0.000 C 
BRANCH   2   3
ATOM      3  C   UNL     1      10.386 -12.140 -35.111  1.00  0.00    -0.003 C 
ATOM      4  C   UNL     1      11.508 -12.442 -36.101  1.00  0.00     0.004 C 
ENDBRANCH   2   3
ENDBRANCH   1   2
BRANCH   1   5
ATOM      5  C   UNL     1       8.927  -8.556 -34.595  1.00  0.00     0.080 C 
BRANCH   5   6
ATOM      6  C   UNL     1       9.908  -7.414 -34.731  1.00  0.00     0.155 C 
ATOM      7  O   UNL     1       9.986  -6.789 -35.824  1.00  0.00    -0.295 OA
BRANCH   6   8
ATOM      8  C   UNL     1      10.748  -6.953 -33.608  1.00  0.00     0.039 C 
ATOM      9  C   UNL     1      11.193  -7.753 -32.638  1.00  0.00     0.012 C 
ENDBRANCH   6   8
ENDBRANCH   5   6
ENDBRANCH   1   5
TORSDOF 5
ENDMDL
MODEL 8
REMARK VINA RESULT:    -4.069      1.814      2.641
REMARK INTER + INTRA:          -5.552
REMARK INTER:                  -5.017
REMARK INTRA:                  -0.535
REMARK UNBOUND:                -0.294
REMARK SMILES C=CC(=O)CCCCC
REMARK SMILES IDX 6 1 7 2 8 3 9 4 5 5 3 6 4 7 2 8 1 9
REMARK H PARENT
REMARK Flexibility Score: inf
ROOT
ATOM      1  C   UNL     1      11.172 -17.535 -29.115  1.00  0.00     0.008 C 
ENDROOT
BRANCH   1   2
ATOM      2  C   UNL     1      11.882 -18.639 -28.310  1.00  0.00     0.000 C 
BRANCH   2   3
ATOM      3  C   UNL     1      12.533 -19.703 -29.207  1.00  0.00    -0.003 C 
ATOM      4  C   UNL     1      14.026 -19.831 -28.910  1.00  0.00     0.004 C 
ENDBRANCH   2   3
ENDBRANCH   1   2
BRANCH   1   5
ATOM      5  C   UNL     1      11.689 -16.114 -28.824  1.00  0.00     0.080 C 
BRANCH   5   6
ATOM      6  C   UNL     1      13.193 -15.988 -28.915  1.00  0.00     0.155 C 
ATOM      7  O   UNL     1      13.772 -16.232 -30.008  1.00  0.00    -0.295 OA
BRANCH   6   8
ATOM      8  C   UNL     1      14.020 -15.527 -27.781  1.00  0.00     0.039 C 
ATOM      9  C   UNL     1      14.062 -16.141 -26.597  1.00  0.00     0.012 C 
ENDBRANCH   6   8
ENDBRANCH   5   6
ENDBRANCH   1   5
TORSDOF 5
ENDMDL
MODEL 9
REMARK VINA RESULT:    -4.015      2.252      4.491
REMARK INTER + INTRA:          -5.483
REMARK INTER:                  -5.238
REMARK INTRA:                  -0.245
REMARK UNBOUND:                -0.294
REMARK SMILES C=CC(=O)CCCCC
REMARK SMILES IDX 6 1 7 2 8 3 9 4 5 5 3 6 4 7 2 8 1 9
REMARK H PARENT
REMARK Flexibility Score: inf
ROOT
ATOM      1  C   UNL     1      12.865 -16.081 -28.394  1.00  0.00     0.008 C 
ENDROOT
BRANCH   1   2
ATOM      2  C   UNL     1      13.951 -15.249 -29.102  1.00  0.00     0.000 C 
BRANCH   2   3
ATOM      3  C   UNL     1      14.587 -14.196 -28.182  1.00  0.00    -0.003 C 
ATOM      4  C   UNL     1      15.470 -13.237 -28.976  1.00  0.00     0.004 C 
ENDBRANCH   2   3
ENDBRANCH   1   2
BRANCH   1   5
ATOM      5  C   UNL     1      11.671 -16.452 -29.293  1.00  0.00     0.080 C 
BRANCH   5   6
ATOM      6  C   UNL     1      11.823 -17.793 -29.975  1.00  0.00     0.155 C 
ATOM      7  O   UNL     1      11.592 -18.849 -29.326  1.00  0.00    -0.295 OA
BRANCH   6   8
ATOM      8  C   UNL     1      12.175 -17.920 -31.404  1.00  0.00     0.039 C 
ATOM      9  C   UNL     1      13.324 -17.488 -31.925  1.00  0.00     0.012 C 
ENDBRANCH   6   8
ENDBRANCH   5   6
ENDBRANCH   1   5
TORSDOF 5
ENDMDL
