MODEL 1
REMARK VINA RESULT:    -5.358      0.000      0.000
REMARK INTER + INTRA:         -18.424
REMARK INTER:                 -14.128
REMARK INTRA:                  -4.296
REMARK UNBOUND:                -4.296
REMARK SMILES CCCCCCCCCCCCCCCCCCCCCCCCCCCCCC(=O)[O-]
REMARK SMILES IDX 16 1 17 2 18 3 19 4 20 5 21 6 22 7 23 8 24 9 25 10 26 11
REMARK SMILES IDX 27 12 28 13 29 14 30 15 31 16 32 17 15 18 14 19 13 20 12 21
REMARK SMILES IDX 11 22 10 23 9 24 8 25 7 26 6 27 5 28 4 29 3 30 2 31 1 32
REMARK H PARENT
REMARK Flexibility Score: inf
ROOT
ATOM      1  C   UNL     1      12.420 -30.982  21.740  1.00  0.00     0.000 C 
ENDROOT
BRANCH   1   2
ATOM      2  C   UNL     1      13.101 -30.995  23.123  1.00  0.00     0.000 C 
BRANCH   2   3
ATOM      3  C   UNL     1      13.895 -29.724  23.479  1.00  0.00     0.000 C 
BRANCH   3   4
ATOM      4  C   UNL     1      15.411 -29.888  23.274  1.00  0.00     0.000 C 
BRANCH   4   5
ATOM      5  C   UNL     1      15.879 -29.451  21.873  1.00  0.00     0.000 C 
BRANCH   5   6
ATOM      6  C   UNL     1      17.167 -30.128  21.370  1.00  0.00     0.000 C 
BRANCH   6   7
ATOM      7  C   UNL     1      17.306 -31.581  21.847  1.00  0.00     0.000 C 
BRANCH   7   8
ATOM      8  C   UNL     1      18.770 -32.043  21.789  1.00  0.00     0.000 C 
BRANCH   8   9
ATOM      9  C   UNL     1      19.690 -30.997  21.139  1.00  0.00     0.000 C 
BRANCH   9  10
ATOM     10  C   UNL     1      20.897 -30.641  22.028  1.00  0.00     0.000 C 
BRANCH  10  11
ATOM     11  C   UNL     1      21.082 -29.124  22.186  1.00  0.00     0.000 C 
BRANCH  11  12
ATOM     12  C   UNL     1      20.959 -28.377  20.847  1.00  0.00     0.000 C 
BRANCH  12  13
ATOM     13  C   UNL     1      19.889 -27.275  20.881  1.00  0.00     0.006 C 
BRANCH  13  14
ATOM     14  C   UNL     1      20.350 -25.981  20.195  1.00  0.00     0.053 C 
BRANCH  14  15
ATOM     15  C   UNL     1      20.598 -24.911  21.211  1.00  0.00     0.041 C 
ATOM     16  O   UNL     1      19.649 -24.469  21.910  1.00  0.00    -0.550 OA
ATOM     17  O   UNL     1      21.870 -24.371  21.355  1.00  0.00    -0.550 OA
ENDBRANCH  14  15
ENDBRANCH  13  14
ENDBRANCH  12  13
ENDBRANCH  11  12
ENDBRANCH  10  11
ENDBRANCH   9  10
ENDBRANCH   8   9
ENDBRANCH   7   8
ENDBRANCH   6   7
ENDBRANCH   5   6
ENDBRANCH   4   5
ENDBRANCH   3   4
ENDBRANCH   2   3
ENDBRANCH   1   2
BRANCH   1  18
ATOM     18  C   UNL     1      13.253 -31.586  20.592  1.00  0.00     0.000 C 
BRANCH  18  19
ATOM     19  C   UNL     1      14.202 -32.721  21.012  1.00  0.00     0.000 C 
BRANCH  19  20
ATOM     20  C   UNL     1      14.530 -33.683  19.859  1.00  0.00     0.000 C 
BRANCH  20  21
ATOM     21  C   UNL     1      15.575 -34.716  20.294  1.00  0.00     0.000 C 
BRANCH  21  22
ATOM     22  C   UNL     1      16.846 -34.617  19.435  1.00  0.00     0.000 C 
BRANCH  22  23
ATOM     23  C   UNL     1      18.070 -35.270  20.105  1.00  0.00     0.000 C 
BRANCH  23  24
ATOM     24  C   UNL     1      17.800 -35.830  21.515  1.00  0.00    -0.000 C 
BRANCH  24  25
ATOM     25  C   UNL     1      19.085 -35.998  22.345  1.00  0.00    -0.000 C 
BRANCH  25  26
ATOM     26  C   UNL     1      19.115 -37.338  23.111  1.00  0.00    -0.000 C 
BRANCH  26  27
ATOM     27  C   UNL     1      19.774 -37.250  24.498  1.00  0.00    -0.000 C 
BRANCH  27  28
ATOM     28  C   UNL     1      18.753 -37.144  25.642  1.00  0.00    -0.000 C 
BRANCH  28  29
ATOM     29  C   UNL     1      18.293 -35.699  25.904  1.00  0.00    -0.000 C 
BRANCH  29  30
ATOM     30  C   UNL     1      16.932 -35.323  25.284  1.00  0.00    -0.000 C 
BRANCH  30  31
ATOM     31  C   UNL     1      16.702 -33.802  25.152  1.00  0.00    -0.003 C 
ATOM     32  C   UNL     1      15.403 -33.472  24.415  1.00  0.00     0.004 C 
ENDBRANCH  30  31
ENDBRANCH  29  30
ENDBRANCH  28  29
ENDBRANCH  27  28
ENDBRANCH  26  27
ENDBRANCH  25  26
ENDBRANCH  24  25
ENDBRANCH  23  24
ENDBRANCH  22  23
ENDBRANCH  21  22
ENDBRANCH  20  21
ENDBRANCH  19  20
ENDBRANCH  18  19
ENDBRANCH   1  18
TORSDOF 28
ENDMDL
MODEL 2
REMARK VINA RESULT:    -5.324      2.739      6.379
REMARK INTER + INTRA:         -18.336
REMARK INTER:                 -12.713
REMARK INTRA:                  -5.623
REMARK UNBOUND:                -4.296
REMARK SMILES CCCCCCCCCCCCCCCCCCCCCCCCCCCCCC(=O)[O-]
REMARK SMILES IDX 16 1 17 2 18 3 19 4 20 5 21 6 22 7 23 8 24 9 25 10 26 11
REMARK SMILES IDX 27 12 28 13 29 14 30 15 31 16 32 17 15 18 14 19 13 20 12 21
REMARK SMILES IDX 11 22 10 23 9 24 8 25 7 26 6 27 5 28 4 29 3 30 2 31 1 32
REMARK H PARENT
REMARK Flexibility Score: inf
ROOT
ATOM      1  C   UNL     1      16.761 -34.058  25.592  1.00  0.00     0.000 C 
ENDROOT
BRANCH   1   2
ATOM      2  C   UNL     1      16.003 -33.516  24.364  1.00  0.00     0.000 C 
BRANCH   2   3
ATOM      3  C   UNL     1      16.374 -34.172  23.020  1.00  0.00     0.000 C 
BRANCH   3   4
ATOM      4  C   UNL     1      15.270 -34.028  21.959  1.00  0.00     0.000 C 
BRANCH   4   5
ATOM      5  C   UNL     1      15.784 -34.250  20.524  1.00  0.00     0.000 C 
BRANCH   5   6
ATOM      6  C   UNL     1      17.306 -34.443  20.394  1.00  0.00     0.000 C 
BRANCH   6   7
ATOM      7  C   UNL     1      18.005 -33.255  19.719  1.00  0.00     0.000 C 
BRANCH   7   8
ATOM      8  C   UNL     1      18.582 -32.288  20.764  1.00  0.00     0.000 C 
BRANCH   8   9
ATOM      9  C   UNL     1      17.697 -31.047  20.968  1.00  0.00     0.000 C 
BRANCH   9  10
ATOM     10  C   UNL     1      17.659 -30.586  22.437  1.00  0.00     0.000 C 
BRANCH  10  11
ATOM     11  C   UNL     1      16.233 -30.273  22.916  1.00  0.00     0.000 C 
BRANCH  11  12
ATOM     12  C   UNL     1      15.310 -29.842  21.764  1.00  0.00     0.000 C 
BRANCH  12  13
ATOM     13  C   UNL     1      14.086 -30.759  21.611  1.00  0.00     0.006 C 
BRANCH  13  14
ATOM     14  C   UNL     1      13.325 -30.955  22.931  1.00  0.00     0.053 C 
BRANCH  14  15
ATOM     15  C   UNL     1      12.494 -29.751  23.238  1.00  0.00     0.041 C 
ATOM     16  O   UNL     1      12.755 -29.040  24.244  1.00  0.00    -0.550 OA
ATOM     17  O   UNL     1      11.402 -29.437  22.438  1.00  0.00    -0.550 OA
ENDBRANCH  14  15
ENDBRANCH  13  14
ENDBRANCH  12  13
ENDBRANCH  11  12
ENDBRANCH  10  11
ENDBRANCH   9  10
ENDBRANCH   8   9
ENDBRANCH   7   8
ENDBRANCH   6   7
ENDBRANCH   5   6
ENDBRANCH   4   5
ENDBRANCH   3   4
ENDBRANCH   2   3
ENDBRANCH   1   2
BRANCH   1  18
ATOM     18  C   UNL     1      16.861 -35.594  25.678  1.00  0.00     0.000 C 
BRANCH  18  19
ATOM     19  C   UNL     1      18.208 -36.125  26.198  1.00  0.00     0.000 C 
BRANCH  19  20
ATOM     20  C   UNL     1      18.505 -37.559  25.733  1.00  0.00     0.000 C 
BRANCH  20  21
ATOM     21  C   UNL     1      19.276 -37.553  24.409  1.00  0.00     0.000 C 
BRANCH  21  22
ATOM     22  C   UNL     1      20.465 -36.579  24.463  1.00  0.00     0.000 C 
BRANCH  22  23
ATOM     23  C   UNL     1      20.972 -36.182  23.063  1.00  0.00     0.000 C 
BRANCH  23  24
ATOM     24  C   UNL     1      20.533 -34.779  22.602  1.00  0.00    -0.000 C 
BRANCH  24  25
ATOM     25  C   UNL     1      19.787 -33.998  23.699  1.00  0.00    -0.000 C 
BRANCH  25  26
ATOM     26  C   UNL     1      20.530 -32.707  24.105  1.00  0.00    -0.000 C 
BRANCH  26  27
ATOM     27  C   UNL     1      21.853 -32.485  23.354  1.00  0.00    -0.000 C 
BRANCH  27  28
ATOM     28  C   UNL     1      22.350 -31.032  23.429  1.00  0.00    -0.000 C 
BRANCH  28  29
ATOM     29  C   UNL     1      21.225 -30.003  23.227  1.00  0.00    -0.000 C 
BRANCH  29  30
ATOM     30  C   UNL     1      21.548 -28.869  22.231  1.00  0.00    -0.000 C 
BRANCH  30  31
ATOM     31  C   UNL     1      20.802 -28.986  20.885  1.00  0.00    -0.003 C 
ATOM     32  C   UNL     1      19.647 -27.990  20.772  1.00  0.00     0.004 C 
ENDBRANCH  30  31
ENDBRANCH  29  30
ENDBRANCH  28  29
ENDBRANCH  27  28
ENDBRANCH  26  27
ENDBRANCH  25  26
ENDBRANCH  24  25
ENDBRANCH  23  24
ENDBRANCH  22  23
ENDBRANCH  21  22
ENDBRANCH  20  21
ENDBRANCH  19  20
ENDBRANCH  18  19
ENDBRANCH   1  18
TORSDOF 28
ENDMDL
MODEL 3
REMARK VINA RESULT:    -5.308      4.376      7.017
REMARK INTER + INTRA:         -18.293
REMARK INTER:                 -13.240
REMARK INTRA:                  -5.053
REMARK UNBOUND:                -4.296
REMARK SMILES CCCCCCCCCCCCCCCCCCCCCCCCCCCCCC(=O)[O-]
REMARK SMILES IDX 16 1 17 2 18 3 19 4 20 5 21 6 22 7 23 8 24 9 25 10 26 11
REMARK SMILES IDX 27 12 28 13 29 14 30 15 31 16 32 17 15 18 14 19 13 20 12 21
REMARK SMILES IDX 11 22 10 23 9 24 8 25 7 26 6 27 5 28 4 29 3 30 2 31 1 32
REMARK H PARENT
REMARK Flexibility Score: inf
ROOT
ATOM      1  C   UNL     1      14.668 -29.551  23.381  1.00  0.00     0.000 C 
ENDROOT
BRANCH   1   2
ATOM      2  C   UNL     1      16.104 -29.843  22.901  1.00  0.00     0.000 C 
BRANCH   2   3
ATOM      3  C   UNL     1      16.536 -29.093  21.627  1.00  0.00     0.000 C 
BRANCH   3   4
ATOM      4  C   UNL     1      17.823 -29.662  21.004  1.00  0.00     0.000 C 
BRANCH   4   5
ATOM      5  C   UNL     1      17.851 -31.203  20.988  1.00  0.00     0.000 C 
BRANCH   5   6
ATOM      6  C   UNL     1      19.012 -31.846  21.769  1.00  0.00     0.000 C 
BRANCH   6   7
ATOM      7  C   UNL     1      18.693 -33.267  22.254  1.00  0.00     0.000 C 
BRANCH   7   8
ATOM      8  C   UNL     1      18.668 -33.334  23.789  1.00  0.00     0.000 C 
BRANCH   8   9
ATOM      9  C   UNL     1      17.260 -33.108  24.363  1.00  0.00     0.000 C 
BRANCH   9  10
ATOM     10  C   UNL     1      16.542 -34.429  24.697  1.00  0.00     0.000 C 
BRANCH  10  11
ATOM     11  C   UNL     1      17.328 -35.286  25.702  1.00  0.00     0.000 C 
BRANCH  11  12
ATOM     12  C   UNL     1      16.508 -36.479  26.221  1.00  0.00     0.000 C 
BRANCH  12  13
ATOM     13  C   UNL     1      17.391 -37.619  26.751  1.00  0.00     0.006 C 
BRANCH  13  14
ATOM     14  C   UNL     1      18.418 -37.140  27.786  1.00  0.00     0.053 C 
BRANCH  14  15
ATOM     15  C   UNL     1      17.959 -37.474  29.170  1.00  0.00     0.041 C 
ATOM     16  O   UNL     1      16.733 -37.616  29.415  1.00  0.00    -0.550 OA
ATOM     17  O   UNL     1      18.884 -37.587  30.200  1.00  0.00    -0.550 OA
ENDBRANCH  14  15
ENDBRANCH  13  14
ENDBRANCH  12  13
ENDBRANCH  11  12
ENDBRANCH  10  11
ENDBRANCH   9  10
ENDBRANCH   8   9
ENDBRANCH   7   8
ENDBRANCH   6   7
ENDBRANCH   5   6
ENDBRANCH   4   5
ENDBRANCH   3   4
ENDBRANCH   2   3
ENDBRANCH   1   2
BRANCH   1  18
ATOM     18  C   UNL     1      13.876 -30.780  23.869  1.00  0.00     0.000 C 
BRANCH  18  19
ATOM     19  C   UNL     1      13.935 -31.999  22.932  1.00  0.00     0.000 C 
BRANCH  19  20
ATOM     20  C   UNL     1      13.393 -31.698  21.525  1.00  0.00     0.000 C 
BRANCH  20  21
ATOM     21  C   UNL     1      14.156 -32.500  20.466  1.00  0.00     0.000 C 
BRANCH  21  22
ATOM     22  C   UNL     1      14.965 -33.639  21.107  1.00  0.00     0.000 C 
BRANCH  22  23
ATOM     23  C   UNL     1      15.315 -34.757  20.106  1.00  0.00     0.000 C 
BRANCH  23  24
ATOM     24  C   UNL     1      16.608 -34.512  19.306  1.00  0.00    -0.000 C 
BRANCH  24  25
ATOM     25  C   UNL     1      17.707 -35.544  19.620  1.00  0.00    -0.000 C 
BRANCH  25  26
ATOM     26  C   UNL     1      17.161 -36.760  20.401  1.00  0.00    -0.000 C 
BRANCH  26  27
ATOM     27  C   UNL     1      18.226 -37.501  21.226  1.00  0.00    -0.000 C 
BRANCH  27  28
ATOM     28  C   UNL     1      18.665 -36.722  22.476  1.00  0.00    -0.000 C 
BRANCH  28  29
ATOM     29  C   UNL     1      19.220 -37.631  23.586  1.00  0.00    -0.000 C 
BRANCH  29  30
ATOM     30  C   UNL     1      20.638 -37.273  24.077  1.00  0.00    -0.000 C 
BRANCH  30  31
ATOM     31  C   UNL     1      21.499 -36.543  23.025  1.00  0.00    -0.003 C 
ATOM     32  C   UNL     1      21.849 -35.116  23.450  1.00  0.00     0.004 C 
ENDBRANCH  30  31
ENDBRANCH  29  30
ENDBRANCH  28  29
ENDBRANCH  27  28
ENDBRANCH  26  27
ENDBRANCH  25  26
ENDBRANCH  24  25
ENDBRANCH  23  24
ENDBRANCH  22  23
ENDBRANCH  21  22
ENDBRANCH  20  21
ENDBRANCH  19  20
ENDBRANCH  18  19
ENDBRANCH   1  18
TORSDOF 28
ENDMDL
MODEL 4
REMARK VINA RESULT:    -5.303      1.565      2.945
REMARK INTER + INTRA:         -18.280
REMARK INTER:                 -12.920
REMARK INTRA:                  -5.360
REMARK UNBOUND:                -4.296
REMARK SMILES CCCCCCCCCCCCCCCCCCCCCCCCCCCCCC(=O)[O-]
REMARK SMILES IDX 16 1 17 2 18 3 19 4 20 5 21 6 22 7 23 8 24 9 25 10 26 11
REMARK SMILES IDX 27 12 28 13 29 14 30 15 31 16 32 17 15 18 14 19 13 20 12 21
REMARK SMILES IDX 11 22 10 23 9 24 8 25 7 26 6 27 5 28 4 29 3 30 2 31 1 32
REMARK H PARENT
REMARK Flexibility Score: inf
ROOT
ATOM      1  C   UNL     1      14.446 -32.911  21.130  1.00  0.00     0.000 C 
ENDROOT
BRANCH   1   2
ATOM      2  C   UNL     1      13.507 -31.728  20.821  1.00  0.00     0.000 C 
BRANCH   2   3
ATOM      3  C   UNL     1      12.932 -31.006  22.054  1.00  0.00     0.000 C 
BRANCH   3   4
ATOM      4  C   UNL     1      13.895 -31.008  23.254  1.00  0.00     0.000 C 
BRANCH   4   5
ATOM      5  C   UNL     1      14.789 -29.756  23.309  1.00  0.00     0.000 C 
BRANCH   5   6
ATOM      6  C   UNL     1      16.301 -30.023  23.186  1.00  0.00     0.000 C 
BRANCH   6   7
ATOM      7  C   UNL     1      16.763 -30.191  21.731  1.00  0.00     0.000 C 
BRANCH   7   8
ATOM      8  C   UNL     1      17.822 -31.299  21.614  1.00  0.00     0.000 C 
BRANCH   8   9
ATOM      9  C   UNL     1      19.042 -30.859  20.788  1.00  0.00     0.000 C 
BRANCH   9  10
ATOM     10  C   UNL     1      20.166 -30.274  21.663  1.00  0.00     0.000 C 
BRANCH  10  11
ATOM     11  C   UNL     1      20.722 -28.957  21.101  1.00  0.00     0.000 C 
BRANCH  11  12
ATOM     12  C   UNL     1      19.618 -27.914  20.854  1.00  0.00     0.000 C 
BRANCH  12  13
ATOM     13  C   UNL     1      20.147 -26.644  20.171  1.00  0.00     0.006 C 
BRANCH  13  14
ATOM     14  C   UNL     1      20.171 -25.431  21.112  1.00  0.00     0.053 C 
BRANCH  14  15
ATOM     15  C   UNL     1      21.478 -25.359  21.837  1.00  0.00     0.041 C 
ATOM     16  O   UNL     1      22.553 -25.607  21.231  1.00  0.00    -0.550 OA
ATOM     17  O   UNL     1      21.505 -25.059  23.193  1.00  0.00    -0.550 OA
ENDBRANCH  14  15
ENDBRANCH  13  14
ENDBRANCH  12  13
ENDBRANCH  11  12
ENDBRANCH  10  11
ENDBRANCH   9  10
ENDBRANCH   8   9
ENDBRANCH   7   8
ENDBRANCH   6   7
ENDBRANCH   5   6
ENDBRANCH   4   5
ENDBRANCH   3   4
ENDBRANCH   2   3
ENDBRANCH   1   2
BRANCH   1  18
ATOM     18  C   UNL     1      14.600 -33.942  19.993  1.00  0.00     0.000 C 
BRANCH  18  19
ATOM     19  C   UNL     1      16.054 -34.318  19.658  1.00  0.00     0.000 C 
BRANCH  19  20
ATOM     20  C   UNL     1      16.293 -35.837  19.659  1.00  0.00     0.000 C 
BRANCH  20  21
ATOM     21  C   UNL     1      17.694 -36.166  20.183  1.00  0.00     0.000 C 
BRANCH  21  22
ATOM     22  C   UNL     1      18.259 -35.009  21.025  1.00  0.00     0.000 C 
BRANCH  22  23
ATOM     23  C   UNL     1      18.828 -35.480  22.377  1.00  0.00     0.000 C 
BRANCH  23  24
ATOM     24  C   UNL     1      17.834 -35.392  23.550  1.00  0.00    -0.000 C 
BRANCH  24  25
ATOM     25  C   UNL     1      16.735 -34.338  23.322  1.00  0.00    -0.000 C 
BRANCH  25  26
ATOM     26  C   UNL     1      16.487 -33.471  24.575  1.00  0.00    -0.000 C 
BRANCH  26  27
ATOM     27  C   UNL     1      17.696 -33.380  25.521  1.00  0.00    -0.000 C 
BRANCH  27  28
ATOM     28  C   UNL     1      18.380 -32.004  25.490  1.00  0.00    -0.000 C 
BRANCH  28  29
ATOM     29  C   UNL     1      19.912 -32.097  25.397  1.00  0.00    -0.000 C 
BRANCH  29  30
ATOM     30  C   UNL     1      20.453 -32.676  24.073  1.00  0.00    -0.000 C 
BRANCH  30  31
ATOM     31  C   UNL     1      21.569 -33.726  24.258  1.00  0.00    -0.003 C 
ATOM     32  C   UNL     1      21.142 -34.872  25.176  1.00  0.00     0.004 C 
ENDBRANCH  30  31
ENDBRANCH  29  30
ENDBRANCH  28  29
ENDBRANCH  27  28
ENDBRANCH  26  27
ENDBRANCH  25  26
ENDBRANCH  24  25
ENDBRANCH  23  24
ENDBRANCH  22  23
ENDBRANCH  21  22
ENDBRANCH  20  21
ENDBRANCH  19  20
ENDBRANCH  18  19
ENDBRANCH   1  18
TORSDOF 28
ENDMDL
MODEL 5
REMARK VINA RESULT:    -5.292      1.576      3.558
REMARK INTER + INTRA:         -18.251
REMARK INTER:                 -13.354
REMARK INTRA:                  -4.897
REMARK UNBOUND:                -4.296
REMARK SMILES CCCCCCCCCCCCCCCCCCCCCCCCCCCCCC(=O)[O-]
REMARK SMILES IDX 16 1 17 2 18 3 19 4 20 5 21 6 22 7 23 8 24 9 25 10 26 11
REMARK SMILES IDX 27 12 28 13 29 14 30 15 31 16 32 17 15 18 14 19 13 20 12 21
REMARK SMILES IDX 11 22 10 23 9 24 8 25 7 26 6 27 5 28 4 29 3 30 2 31 1 32
REMARK H PARENT
REMARK Flexibility Score: inf
ROOT
ATOM      1  C   UNL     1      13.517 -31.172  23.466  1.00  0.00     0.000 C 
ENDROOT
BRANCH   1   2
ATOM      2  C   UNL     1      14.494 -29.980  23.437  1.00  0.00     0.000 C 
BRANCH   2   3
ATOM      3  C   UNL     1      15.404 -29.905  22.196  1.00  0.00     0.000 C 
BRANCH   3   4
ATOM      4  C   UNL     1      16.900 -29.860  22.552  1.00  0.00     0.000 C 
BRANCH   4   5
ATOM      5  C   UNL     1      17.221 -30.558  23.887  1.00  0.00     0.000 C 
BRANCH   5   6
ATOM      6  C   UNL     1      18.721 -30.717  24.200  1.00  0.00     0.000 C 
BRANCH   6   7
ATOM      7  C   UNL     1      19.341 -31.959  23.543  1.00  0.00     0.000 C 
BRANCH   7   8
ATOM      8  C   UNL     1      20.341 -31.562  22.447  1.00  0.00     0.000 C 
BRANCH   8   9
ATOM      9  C   UNL     1      20.713 -30.071  22.505  1.00  0.00     0.000 C 
BRANCH   9  10
ATOM     10  C   UNL     1      20.424 -29.341  21.180  1.00  0.00     0.000 C 
BRANCH  10  11
ATOM     11  C   UNL     1      20.851 -27.865  21.218  1.00  0.00     0.000 C 
BRANCH  11  12
ATOM     12  C   UNL     1      19.896 -26.959  20.422  1.00  0.00     0.000 C 
BRANCH  12  13
ATOM     13  C   UNL     1      20.501 -25.579  20.121  1.00  0.00     0.006 C 
BRANCH  13  14
ATOM     14  C   UNL     1      21.831 -25.344  20.853  1.00  0.00     0.053 C 
BRANCH  14  15
ATOM     15  C   UNL     1      22.938 -25.131  19.870  1.00  0.00     0.041 C 
ATOM     16  O   UNL     1      23.496 -24.007  19.778  1.00  0.00    -0.550 OA
ATOM     17  O   UNL     1      23.324 -26.163  19.024  1.00  0.00    -0.550 OA
ENDBRANCH  14  15
ENDBRANCH  13  14
ENDBRANCH  12  13
ENDBRANCH  11  12
ENDBRANCH  10  11
ENDBRANCH   9  10
ENDBRANCH   8   9
ENDBRANCH   7   8
ENDBRANCH   6   7
ENDBRANCH   5   6
ENDBRANCH   4   5
ENDBRANCH   3   4
ENDBRANCH   2   3
ENDBRANCH   1   2
BRANCH   1  18
ATOM     18  C   UNL     1      14.109 -32.494  23.995  1.00  0.00     0.000 C 
BRANCH  18  19
ATOM     19  C   UNL     1      14.870 -33.324  22.947  1.00  0.00     0.000 C 
BRANCH  19  20
ATOM     20  C   UNL     1      16.207 -33.870  23.475  1.00  0.00     0.000 C 
BRANCH  20  21
ATOM     21  C   UNL     1      16.161 -34.043  24.996  1.00  0.00     0.000 C 
BRANCH  21  22
ATOM     22  C   UNL     1      17.531 -34.469  25.549  1.00  0.00     0.000 C 
BRANCH  22  23
ATOM     23  C   UNL     1      17.681 -35.999  25.654  1.00  0.00     0.000 C 
BRANCH  23  24
ATOM     24  C   UNL     1      18.821 -36.586  24.801  1.00  0.00    -0.000 C 
BRANCH  24  25
ATOM     25  C   UNL     1      19.673 -35.501  24.118  1.00  0.00    -0.000 C 
BRANCH  25  26
ATOM     26  C   UNL     1      19.584 -35.571  22.578  1.00  0.00    -0.000 C 
BRANCH  26  27
ATOM     27  C   UNL     1      18.738 -36.743  22.054  1.00  0.00    -0.000 C 
BRANCH  27  28
ATOM     28  C   UNL     1      17.484 -36.284  21.293  1.00  0.00    -0.000 C 
BRANCH  28  29
ATOM     29  C   UNL     1      17.686 -36.248  19.769  1.00  0.00    -0.000 C 
BRANCH  29  30
ATOM     30  C   UNL     1      18.072 -34.870  19.192  1.00  0.00    -0.000 C 
BRANCH  30  31
ATOM     31  C   UNL     1      17.054 -33.752  19.505  1.00  0.00    -0.003 C 
ATOM     32  C   UNL     1      17.684 -32.592  20.277  1.00  0.00     0.004 C 
ENDBRANCH  30  31
ENDBRANCH  29  30
ENDBRANCH  28  29
ENDBRANCH  27  28
ENDBRANCH  26  27
ENDBRANCH  25  26
ENDBRANCH  24  25
ENDBRANCH  23  24
ENDBRANCH  22  23
ENDBRANCH  21  22
ENDBRANCH  20  21
ENDBRANCH  19  20
ENDBRANCH  18  19
ENDBRANCH   1  18
TORSDOF 28
ENDMDL
MODEL 6
REMARK VINA RESULT:    -5.272      1.434      2.377
REMARK INTER + INTRA:         -18.198
REMARK INTER:                 -13.427
REMARK INTRA:                  -4.771
REMARK UNBOUND:                -4.296
REMARK SMILES CCCCCCCCCCCCCCCCCCCCCCCCCCCCCC(=O)[O-]
REMARK SMILES IDX 16 1 17 2 18 3 19 4 20 5 21 6 22 7 23 8 24 9 25 10 26 11
REMARK SMILES IDX 27 12 28 13 29 14 30 15 31 16 32 17 15 18 14 19 13 20 12 21
REMARK SMILES IDX 11 22 10 23 9 24 8 25 7 26 6 27 5 28 4 29 3 30 2 31 1 32
REMARK H PARENT
REMARK Flexibility Score: inf
ROOT
ATOM      1  C   UNL     1      14.517 -32.695  20.901  1.00  0.00     0.000 C 
ENDROOT
BRANCH   1   2
ATOM      2  C   UNL     1      13.344 -31.746  20.586  1.00  0.00     0.000 C 
BRANCH   2   3
ATOM      3  C   UNL     1      12.879 -30.863  21.758  1.00  0.00     0.000 C 
BRANCH   3   4
ATOM      4  C   UNL     1      13.796 -30.968  22.989  1.00  0.00     0.000 C 
BRANCH   4   5
ATOM      5  C   UNL     1      14.721 -29.747  23.154  1.00  0.00     0.000 C 
BRANCH   5   6
ATOM      6  C   UNL     1      16.229 -30.052  23.089  1.00  0.00     0.000 C 
BRANCH   6   7
ATOM      7  C   UNL     1      16.795 -29.974  21.664  1.00  0.00     0.000 C 
BRANCH   7   8
ATOM      8  C   UNL     1      17.624 -31.224  21.331  1.00  0.00     0.000 C 
BRANCH   8   9
ATOM      9  C   UNL     1      19.062 -30.880  20.909  1.00  0.00     0.000 C 
BRANCH   9  10
ATOM     10  C   UNL     1      19.720 -29.851  21.847  1.00  0.00     0.000 C 
BRANCH  10  11
ATOM     11  C   UNL     1      20.972 -29.210  21.229  1.00  0.00     0.000 C 
BRANCH  11  12
ATOM     12  C   UNL     1      21.012 -27.686  21.435  1.00  0.00     0.000 C 
BRANCH  12  13
ATOM     13  C   UNL     1      20.220 -26.923  20.363  1.00  0.00     0.006 C 
BRANCH  13  14
ATOM     14  C   UNL     1      20.706 -25.477  20.186  1.00  0.00     0.053 C 
BRANCH  14  15
ATOM     15  C   UNL     1      22.201 -25.422  20.211  1.00  0.00     0.041 C 
ATOM     16  O   UNL     1      22.797 -24.807  21.134  1.00  0.00    -0.550 OA
ATOM     17  O   UNL     1      22.935 -26.013  19.191  1.00  0.00    -0.550 OA
ENDBRANCH  14  15
ENDBRANCH  13  14
ENDBRANCH  12  13
ENDBRANCH  11  12
ENDBRANCH  10  11
ENDBRANCH   9  10
ENDBRANCH   8   9
ENDBRANCH   7   8
ENDBRANCH   6   7
ENDBRANCH   5   6
ENDBRANCH   4   5
ENDBRANCH   3   4
ENDBRANCH   2   3
ENDBRANCH   1   2
BRANCH   1  18
ATOM     18  C   UNL     1      14.573 -33.978  20.048  1.00  0.00     0.000 C 
BRANCH  18  19
ATOM     19  C   UNL     1      15.982 -34.381  19.581  1.00  0.00     0.000 C 
BRANCH  19  20
ATOM     20  C   UNL     1      16.224 -35.897  19.651  1.00  0.00     0.000 C 
BRANCH  20  21
ATOM     21  C   UNL     1      17.717 -36.203  19.809  1.00  0.00     0.000 C 
BRANCH  21  22
ATOM     22  C   UNL     1      17.995 -36.951  21.124  1.00  0.00     0.000 C 
BRANCH  22  23
ATOM     23  C   UNL     1      18.627 -36.047  22.200  1.00  0.00     0.000 C 
BRANCH  23  24
ATOM     24  C   UNL     1      19.007 -34.638  21.705  1.00  0.00    -0.000 C 
BRANCH  24  25
ATOM     25  C   UNL     1      20.252 -34.075  22.413  1.00  0.00    -0.000 C 
BRANCH  25  26
ATOM     26  C   UNL     1      20.534 -34.785  23.754  1.00  0.00    -0.000 C 
BRANCH  26  27
ATOM     27  C   UNL     1      20.453 -33.860  24.980  1.00  0.00    -0.000 C 
BRANCH  27  28
ATOM     28  C   UNL     1      19.877 -32.474  24.648  1.00  0.00    -0.000 C 
BRANCH  28  29
ATOM     29  C   UNL     1      18.348 -32.405  24.803  1.00  0.00    -0.000 C 
BRANCH  29  30
ATOM     30  C   UNL     1      17.743 -33.437  25.777  1.00  0.00    -0.000 C 
BRANCH  30  31
ATOM     31  C   UNL     1      16.710 -34.382  25.127  1.00  0.00    -0.003 C 
ATOM     32  C   UNL     1      16.104 -33.791  23.852  1.00  0.00     0.004 C 
ENDBRANCH  30  31
ENDBRANCH  29  30
ENDBRANCH  28  29
ENDBRANCH  27  28
ENDBRANCH  26  27
ENDBRANCH  25  26
ENDBRANCH  24  25
ENDBRANCH  23  24
ENDBRANCH  22  23
ENDBRANCH  21  22
ENDBRANCH  20  21
ENDBRANCH  19  20
ENDBRANCH  18  19
ENDBRANCH   1  18
TORSDOF 28
ENDMDL
MODEL 7
REMARK VINA RESULT:    -5.252      2.844      6.239
REMARK INTER + INTRA:         -18.144
REMARK INTER:                 -12.565
REMARK INTRA:                  -5.579
REMARK UNBOUND:                -4.296
REMARK SMILES CCCCCCCCCCCCCCCCCCCCCCCCCCCCCC(=O)[O-]
REMARK SMILES IDX 16 1 17 2 18 3 19 4 20 5 21 6 22 7 23 8 24 9 25 10 26 11
REMARK SMILES IDX 27 12 28 13 29 14 30 15 31 16 32 17 15 18 14 19 13 20 12 21
REMARK SMILES IDX 11 22 10 23 9 24 8 25 7 26 6 27 5 28 4 29 3 30 2 31 1 32
REMARK H PARENT
REMARK Flexibility Score: inf
ROOT
ATOM      1  C   UNL     1      16.663 -34.192  23.825  1.00  0.00     0.000 C 
ENDROOT
BRANCH   1   2
ATOM      2  C   UNL     1      16.875 -35.254  24.923  1.00  0.00     0.000 C 
BRANCH   2   3
ATOM      3  C   UNL     1      18.125 -35.053  25.800  1.00  0.00     0.000 C 
BRANCH   3   4
ATOM      4  C   UNL     1      18.707 -36.376  26.328  1.00  0.00     0.000 C 
BRANCH   4   5
ATOM      5  C   UNL     1      18.777 -37.473  25.249  1.00  0.00     0.000 C 
BRANCH   5   6
ATOM      6  C   UNL     1      19.915 -37.313  24.223  1.00  0.00     0.000 C 
BRANCH   6   7
ATOM      7  C   UNL     1      19.406 -37.033  22.802  1.00  0.00     0.000 C 
BRANCH   7   8
ATOM      8  C   UNL     1      19.656 -35.569  22.406  1.00  0.00     0.000 C 
BRANCH   8   9
ATOM      9  C   UNL     1      20.809 -34.935  23.201  1.00  0.00     0.000 C 
BRANCH   9  10
ATOM     10  C   UNL     1      20.521 -33.473  23.590  1.00  0.00     0.000 C 
BRANCH  10  11
ATOM     11  C   UNL     1      21.179 -33.080  24.922  1.00  0.00     0.000 C 
BRANCH  11  12
ATOM     12  C   UNL     1      20.814 -31.649  25.355  1.00  0.00     0.000 C 
BRANCH  12  13
ATOM     13  C   UNL     1      19.616 -31.609  26.316  1.00  0.00     0.006 C 
BRANCH  13  14
ATOM     14  C   UNL     1      19.036 -30.197  26.480  1.00  0.00     0.053 C 
BRANCH  14  15
ATOM     15  C   UNL     1      19.615 -29.531  27.688  1.00  0.00     0.041 C 
ATOM     16  O   UNL     1      19.212 -28.391  28.037  1.00  0.00    -0.550 OA
ATOM     17  O   UNL     1      20.632 -30.152  28.403  1.00  0.00    -0.550 OA
ENDBRANCH  14  15
ENDBRANCH  13  14
ENDBRANCH  12  13
ENDBRANCH  11  12
ENDBRANCH  10  11
ENDBRANCH   9  10
ENDBRANCH   8   9
ENDBRANCH   7   8
ENDBRANCH   6   7
ENDBRANCH   5   6
ENDBRANCH   4   5
ENDBRANCH   3   4
ENDBRANCH   2   3
ENDBRANCH   1   2
BRANCH   1  18
ATOM     18  C   UNL     1      15.966 -32.897  24.289  1.00  0.00     0.000 C 
BRANCH  18  19
ATOM     19  C   UNL     1      16.743 -31.604  23.985  1.00  0.00     0.000 C 
BRANCH  19  20
ATOM     20  C   UNL     1      15.840 -30.475  23.463  1.00  0.00     0.000 C 
BRANCH  20  21
ATOM     21  C   UNL     1      14.366 -30.893  23.506  1.00  0.00     0.000 C 
BRANCH  21  22
ATOM     22  C   UNL     1      13.610 -30.392  22.265  1.00  0.00     0.000 C 
BRANCH  22  23
ATOM     23  C   UNL     1      13.437 -31.485  21.193  1.00  0.00     0.000 C 
BRANCH  23  24
ATOM     24  C   UNL     1      14.712 -32.301  20.905  1.00  0.00    -0.000 C 
BRANCH  24  25
ATOM     25  C   UNL     1      14.420 -33.620  20.167  1.00  0.00    -0.000 C 
BRANCH  25  26
ATOM     26  C   UNL     1      15.370 -34.757  20.603  1.00  0.00    -0.000 C 
BRANCH  26  27
ATOM     27  C   UNL     1      16.200 -35.352  19.453  1.00  0.00    -0.000 C 
BRANCH  27  28
ATOM     28  C   UNL     1      17.695 -35.006  19.551  1.00  0.00    -0.000 C 
BRANCH  28  29
ATOM     29  C   UNL     1      17.973 -33.500  19.410  1.00  0.00    -0.000 C 
BRANCH  29  30
ATOM     30  C   UNL     1      18.405 -32.790  20.709  1.00  0.00    -0.000 C 
BRANCH  30  31
ATOM     31  C   UNL     1      18.254 -31.254  20.664  1.00  0.00    -0.003 C 
ATOM     32  C   UNL     1      19.303 -30.542  21.520  1.00  0.00     0.004 C 
ENDBRANCH  30  31
ENDBRANCH  29  30
ENDBRANCH  28  29
ENDBRANCH  27  28
ENDBRANCH  26  27
ENDBRANCH  25  26
ENDBRANCH  24  25
ENDBRANCH  23  24
ENDBRANCH  22  23
ENDBRANCH  21  22
ENDBRANCH  20  21
ENDBRANCH  19  20
ENDBRANCH  18  19
ENDBRANCH   1  18
TORSDOF 28
ENDMDL
MODEL 8
REMARK VINA RESULT:    -5.240      2.327      3.394
REMARK INTER + INTRA:         -18.114
REMARK INTER:                 -12.556
REMARK INTRA:                  -5.558
REMARK UNBOUND:                -4.296
REMARK SMILES CCCCCCCCCCCCCCCCCCCCCCCCCCCCCC(=O)[O-]
REMARK SMILES IDX 16 1 17 2 18 3 19 4 20 5 21 6 22 7 23 8 24 9 25 10 26 11
REMARK SMILES IDX 27 12 28 13 29 14 30 15 31 16 32 17 15 18 14 19 13 20 12 21
REMARK SMILES IDX 11 22 10 23 9 24 8 25 7 26 6 27 5 28 4 29 3 30 2 31 1 32
REMARK H PARENT
REMARK Flexibility Score: inf
ROOT
ATOM      1  C   UNL     1      14.232 -32.791  21.021  1.00  0.00     0.000 C 
ENDROOT
BRANCH   1   2
ATOM      2  C   UNL     1      13.421 -31.497  20.812  1.00  0.00     0.000 C 
BRANCH   2   3
ATOM      3  C   UNL     1      12.958 -30.796  22.102  1.00  0.00     0.000 C 
BRANCH   3   4
ATOM      4  C   UNL     1      13.988 -30.892  23.240  1.00  0.00     0.000 C 
BRANCH   4   5
ATOM      5  C   UNL     1      15.063 -29.790  23.172  1.00  0.00     0.000 C 
BRANCH   5   6
ATOM      6  C   UNL     1      16.505 -30.291  22.968  1.00  0.00     0.000 C 
BRANCH   6   7
ATOM      7  C   UNL     1      17.054 -29.981  21.568  1.00  0.00     0.000 C 
BRANCH   7   8
ATOM      8  C   UNL     1      17.579 -31.254  20.888  1.00  0.00     0.000 C 
BRANCH   8   9
ATOM      9  C   UNL     1      19.089 -31.451  21.096  1.00  0.00     0.000 C 
BRANCH   9  10
ATOM     10  C   UNL     1      19.827 -30.123  21.348  1.00  0.00     0.000 C 
BRANCH  10  11
ATOM     11  C   UNL     1      20.620 -30.133  22.664  1.00  0.00     0.000 C 
BRANCH  11  12
ATOM     12  C   UNL     1      20.490 -31.469  23.415  1.00  0.00     0.000 C 
BRANCH  12  13
ATOM     13  C   UNL     1      19.411 -31.431  24.509  1.00  0.00     0.006 C 
BRANCH  13  14
ATOM     14  C   UNL     1      20.005 -31.370  25.924  1.00  0.00     0.053 C 
BRANCH  14  15
ATOM     15  C   UNL     1      20.033 -29.958  26.418  1.00  0.00     0.041 C 
ATOM     16  O   UNL     1      21.016 -29.216  26.159  1.00  0.00    -0.550 OA
ATOM     17  O   UNL     1      18.993 -29.475  27.202  1.00  0.00    -0.550 OA
ENDBRANCH  14  15
ENDBRANCH  13  14
ENDBRANCH  12  13
ENDBRANCH  11  12
ENDBRANCH  10  11
ENDBRANCH   9  10
ENDBRANCH   8   9
ENDBRANCH   7   8
ENDBRANCH   6   7
ENDBRANCH   5   6
ENDBRANCH   4   5
ENDBRANCH   3   4
ENDBRANCH   2   3
ENDBRANCH   1   2
BRANCH   1  18
ATOM     18  C   UNL     1      14.437 -33.650  19.757  1.00  0.00     0.000 C 
BRANCH  18  19
ATOM     19  C   UNL     1      15.877 -34.145  19.540  1.00  0.00     0.000 C 
BRANCH  19  20
ATOM     20  C   UNL     1      16.024 -35.662  19.741  1.00  0.00     0.000 C 
BRANCH  20  21
ATOM     21  C   UNL     1      17.502 -36.064  19.782  1.00  0.00     0.000 C 
BRANCH  21  22
ATOM     22  C   UNL     1      17.750 -37.164  20.827  1.00  0.00     0.000 C 
BRANCH  22  23
ATOM     23  C   UNL     1      18.659 -36.696  21.980  1.00  0.00     0.000 C 
BRANCH  23  24
ATOM     24  C   UNL     1      19.182 -35.255  21.831  1.00  0.00    -0.000 C 
BRANCH  24  25
ATOM     25  C   UNL     1      20.456 -34.997  22.656  1.00  0.00    -0.000 C 
BRANCH  25  26
ATOM     26  C   UNL     1      20.762 -36.150  23.637  1.00  0.00    -0.000 C 
BRANCH  26  27
ATOM     27  C   UNL     1      20.736 -35.734  25.117  1.00  0.00    -0.000 C 
BRANCH  27  28
ATOM     28  C   UNL     1      19.420 -35.053  25.526  1.00  0.00    -0.000 C 
BRANCH  28  29
ATOM     29  C   UNL     1      18.223 -36.018  25.540  1.00  0.00    -0.000 C 
BRANCH  29  30
ATOM     30  C   UNL     1      16.839 -35.344  25.636  1.00  0.00    -0.000 C 
BRANCH  30  31
ATOM     31  C   UNL     1      16.781 -33.939  25.000  1.00  0.00    -0.003 C 
ATOM     32  C   UNL     1      16.391 -33.985  23.522  1.00  0.00     0.004 C 
ENDBRANCH  30  31
ENDBRANCH  29  30
ENDBRANCH  28  29
ENDBRANCH  27  28
ENDBRANCH  26  27
ENDBRANCH  25  26
ENDBRANCH  24  25
ENDBRANCH  23  24
ENDBRANCH  22  23
ENDBRANCH  21  22
ENDBRANCH  20  21
ENDBRANCH  19  20
ENDBRANCH  18  19
ENDBRANCH   1  18
TORSDOF 28
ENDMDL
MODEL 9
REMARK VINA RESULT:    -5.198      1.614      5.338
REMARK INTER + INTRA:         -18.004
REMARK INTER:                 -12.785
REMARK INTRA:                  -5.219
REMARK UNBOUND:                -4.296
REMARK SMILES CCCCCCCCCCCCCCCCCCCCCCCCCCCCCC(=O)[O-]
REMARK SMILES IDX 16 1 17 2 18 3 19 4 20 5 21 6 22 7 23 8 24 9 25 10 26 11
REMARK SMILES IDX 27 12 28 13 29 14 30 15 31 16 32 17 15 18 14 19 13 20 12 21
REMARK SMILES IDX 11 22 10 23 9 24 8 25 7 26 6 27 5 28 4 29 3 30 2 31 1 32
REMARK H PARENT
REMARK Flexibility Score: inf
ROOT
ATOM      1  C   UNL     1      17.685 -33.952  23.945  1.00  0.00     0.000 C 
ENDROOT
BRANCH   1   2
ATOM      2  C   UNL     1      17.554 -34.291  25.443  1.00  0.00     0.000 C 
BRANCH   2   3
ATOM      3  C   UNL     1      16.957 -35.676  25.755  1.00  0.00     0.000 C 
BRANCH   3   4
ATOM      4  C   UNL     1      17.951 -36.612  26.464  1.00  0.00     0.000 C 
BRANCH   4   5
ATOM      5  C   UNL     1      19.077 -37.106  25.536  1.00  0.00     0.000 C 
BRANCH   5   6
ATOM      6  C   UNL     1      20.481 -36.565  25.862  1.00  0.00     0.000 C 
BRANCH   6   7
ATOM      7  C   UNL     1      21.231 -36.057  24.621  1.00  0.00     0.000 C 
BRANCH   7   8
ATOM      8  C   UNL     1      21.196 -34.523  24.545  1.00  0.00     0.000 C 
BRANCH   8   9
ATOM      9  C   UNL     1      21.566 -33.996  23.148  1.00  0.00     0.000 C 
BRANCH   9  10
ATOM     10  C   UNL     1      20.749 -32.752  22.754  1.00  0.00     0.000 C 
BRANCH  10  11
ATOM     11  C   UNL     1      21.346 -31.454  23.320  1.00  0.00     0.000 C 
BRANCH  11  12
ATOM     12  C   UNL     1      20.553 -30.209  22.890  1.00  0.00     0.000 C 
BRANCH  12  13
ATOM     13  C   UNL     1      20.836 -29.800  21.436  1.00  0.00     0.006 C 
BRANCH  13  14
ATOM     14  C   UNL     1      20.381 -28.367  21.125  1.00  0.00     0.053 C 
BRANCH  14  15
ATOM     15  C   UNL     1      21.518 -27.409  21.298  1.00  0.00     0.041 C 
ATOM     16  O   UNL     1      22.273 -27.140  20.328  1.00  0.00    -0.550 OA
ATOM     17  O   UNL     1      21.769 -26.847  22.543  1.00  0.00    -0.550 OA
ENDBRANCH  14  15
ENDBRANCH  13  14
ENDBRANCH  12  13
ENDBRANCH  11  12
ENDBRANCH  10  11
ENDBRANCH   9  10
ENDBRANCH   8   9
ENDBRANCH   7   8
ENDBRANCH   6   7
ENDBRANCH   5   6
ENDBRANCH   4   5
ENDBRANCH   3   4
ENDBRANCH   2   3
ENDBRANCH   1   2
BRANCH   1  18
ATOM     18  C   UNL     1      17.269 -35.078  22.977  1.00  0.00     0.000 C 
BRANCH  18  19
ATOM     19  C   UNL     1      18.433 -35.732  22.212  1.00  0.00     0.000 C 
BRANCH  19  20
ATOM     20  C   UNL     1      17.988 -36.935  21.364  1.00  0.00     0.000 C 
BRANCH  20  21
ATOM     21  C   UNL     1      17.726 -36.511  19.915  1.00  0.00     0.000 C 
BRANCH  21  22
ATOM     22  C   UNL     1      16.295 -35.977  19.742  1.00  0.00     0.000 C 
BRANCH  22  23
ATOM     23  C   UNL     1      16.257 -34.472  19.414  1.00  0.00     0.000 C 
BRANCH  23  24
ATOM     24  C   UNL     1      17.626 -33.866  19.050  1.00  0.00    -0.000 C 
BRANCH  24  25
ATOM     25  C   UNL     1      18.111 -32.831  20.082  1.00  0.00    -0.000 C 
BRANCH  25  26
ATOM     26  C   UNL     1      16.939 -32.090  20.761  1.00  0.00    -0.000 C 
BRANCH  26  27
ATOM     27  C   UNL     1      17.330 -30.735  21.376  1.00  0.00    -0.000 C 
BRANCH  27  28
ATOM     28  C   UNL     1      16.116 -29.851  21.700  1.00  0.00    -0.000 C 
BRANCH  28  29
ATOM     29  C   UNL     1      14.777 -30.595  21.559  1.00  0.00    -0.000 C 
BRANCH  29  30
ATOM     30  C   UNL     1      13.688 -30.180  22.570  1.00  0.00    -0.000 C 
BRANCH  30  31
ATOM     31  C   UNL     1      13.440 -31.218  23.685  1.00  0.00    -0.003 C 
ATOM     32  C   UNL     1      14.412 -32.396  23.608  1.00  0.00     0.004 C 
ENDBRANCH  30  31
ENDBRANCH  29  30
ENDBRANCH  28  29
ENDBRANCH  27  28
ENDBRANCH  26  27
ENDBRANCH  25  26
ENDBRANCH  24  25
ENDBRANCH  23  24
ENDBRANCH  22  23
ENDBRANCH  21  22
ENDBRANCH  20  21
ENDBRANCH  19  20
ENDBRANCH  18  19
ENDBRANCH   1  18
TORSDOF 28
ENDMDL
