MODEL 1
REMARK VINA RESULT:    -3.848      0.000      0.000
REMARK INTER + INTRA:          -4.626
REMARK INTER:                  -4.523
REMARK INTRA:                  -0.103
REMARK UNBOUND:                -0.103
REMARK SMILES O=C([O-])CCC(=O)[O-]
REMARK SMILES IDX 4 1 2 2 1 3 3 4 5 5 6 6 7 7 8 8
REMARK H PARENT
REMARK Flexibility Score: inf
ROOT
ATOM      1  C   UNL     1      63.512   7.875  -5.234  1.00  0.00     0.059 C 
ENDROOT
BRANCH   1   2
ATOM      2  C   UNL     1      62.801   7.400  -4.004  1.00  0.00     0.042 C 
ATOM      3  O   UNL     1      62.673   6.167  -3.782  1.00  0.00    -0.550 OA
ATOM      4  O   UNL     1      62.244   8.319  -3.124  1.00  0.00    -0.550 OA
ENDBRANCH   1   2
BRANCH   1   5
ATOM      5  C   UNL     1      62.573   7.926  -6.443  1.00  0.00     0.059 C 
BRANCH   5   6
ATOM      6  C   UNL     1      62.903   6.859  -7.442  1.00  0.00     0.042 C 
ATOM      7  O   UNL     1      63.976   6.208  -7.343  1.00  0.00    -0.550 OA
ATOM      8  O   UNL     1      62.044   6.611  -8.504  1.00  0.00    -0.550 OA
ENDBRANCH   5   6
ENDBRANCH   1   5
TORSDOF 3
ENDMDL
MODEL 2
REMARK VINA RESULT:    -3.807      2.129      2.820
REMARK INTER + INTRA:          -4.578
REMARK INTER:                  -4.454
REMARK INTRA:                  -0.124
REMARK UNBOUND:                -0.103
REMARK SMILES O=C([O-])CCC(=O)[O-]
REMARK SMILES IDX 4 1 2 2 1 3 3 4 5 5 6 6 7 7 8 8
REMARK H PARENT
REMARK Flexibility Score: inf
ROOT
ATOM      1  C   UNL     1      63.775   7.879  -4.957  1.00  0.00     0.059 C 
ENDROOT
BRANCH   1   2
ATOM      2  C   UNL     1      63.461   6.751  -4.022  1.00  0.00     0.042 C 
ATOM      3  O   UNL     1      62.283   6.574  -3.615  1.00  0.00    -0.550 OA
ATOM      4  O   UNL     1      64.478   5.921  -3.568  1.00  0.00    -0.550 OA
ENDBRANCH   1   2
BRANCH   1   5
ATOM      5  C   UNL     1      62.742   7.980  -6.084  1.00  0.00     0.059 C 
BRANCH   5   6
ATOM      6  C   UNL     1      61.949   9.249  -5.992  1.00  0.00     0.042 C 
ATOM      7  O   UNL     1      61.823   9.992  -7.000  1.00  0.00    -0.550 OA
ATOM      8  O   UNL     1      61.381   9.628  -4.782  1.00  0.00    -0.550 OA
ENDBRANCH   5   6
ENDBRANCH   1   5
TORSDOF 3
ENDMDL
MODEL 3
REMARK VINA RESULT:    -3.777     13.810     14.611
REMARK INTER + INTRA:          -4.543
REMARK INTER:                  -4.479
REMARK INTRA:                  -0.064
REMARK UNBOUND:                -0.103
REMARK SMILES O=C([O-])CCC(=O)[O-]
REMARK SMILES IDX 4 1 2 2 1 3 3 4 5 5 6 6 7 7 8 8
REMARK H PARENT
REMARK Flexibility Score: inf
ROOT
ATOM      1  C   UNL     1      62.349  -2.873   5.852  1.00  0.00     0.059 C 
ENDROOT
BRANCH   1   2
ATOM      2  C   UNL     1      61.705  -1.622   6.366  1.00  0.00     0.042 C 
ATOM      3  O   UNL     1      60.992  -1.656   7.403  1.00  0.00    -0.550 OA
ATOM      4  O   UNL     1      61.860  -0.426   5.676  1.00  0.00    -0.550 OA
ENDBRANCH   1   2
BRANCH   1   5
ATOM      5  C   UNL     1      62.789  -2.720   4.392  1.00  0.00     0.059 C 
BRANCH   5   6
ATOM      6  C   UNL     1      61.992  -3.603   3.481  1.00  0.00     0.042 C 
ATOM      7  O   UNL     1      61.400  -3.115   2.483  1.00  0.00    -0.550 OA
ATOM      8  O   UNL     1      61.873  -4.959   3.756  1.00  0.00    -0.550 OA
ENDBRANCH   5   6
ENDBRANCH   1   5
TORSDOF 3
ENDMDL
MODEL 4
REMARK VINA RESULT:    -3.758     13.912     15.106
REMARK INTER + INTRA:          -4.520
REMARK INTER:                  -4.443
REMARK INTRA:                  -0.078
REMARK UNBOUND:                -0.103
REMARK SMILES O=C([O-])CCC(=O)[O-]
REMARK SMILES IDX 4 1 2 2 1 3 3 4 5 5 6 6 7 7 8 8
REMARK H PARENT
REMARK Flexibility Score: inf
ROOT
ATOM      1  C   UNL     1      62.843  -2.819   4.548  1.00  0.00     0.059 C 
ENDROOT
BRANCH   1   2
ATOM      2  C   UNL     1      62.037  -3.632   3.581  1.00  0.00     0.042 C 
ATOM      3  O   UNL     1      61.466  -3.075   2.607  1.00  0.00    -0.550 OA
ATOM      4  O   UNL     1      61.883  -4.998   3.781  1.00  0.00    -0.550 OA
ENDBRANCH   1   2
BRANCH   1   5
ATOM      5  C   UNL     1      62.271  -2.902   5.967  1.00  0.00     0.059 C 
BRANCH   5   6
ATOM      6  C   UNL     1      61.670  -1.598   6.395  1.00  0.00     0.042 C 
ATOM      7  O   UNL     1      61.849  -0.560   5.705  1.00  0.00    -0.550 OA
ATOM      8  O   UNL     1      60.944  -1.521   7.576  1.00  0.00    -0.550 OA
ENDBRANCH   5   6
ENDBRANCH   1   5
TORSDOF 3
ENDMDL
MODEL 5
REMARK VINA RESULT:    -3.716     11.971     13.713
REMARK INTER + INTRA:          -4.470
REMARK INTER:                  -4.351
REMARK INTRA:                  -0.119
REMARK UNBOUND:                -0.103
REMARK SMILES O=C([O-])CCC(=O)[O-]
REMARK SMILES IDX 4 1 2 2 1 3 3 4 5 5 6 6 7 7 8 8
REMARK H PARENT
REMARK Flexibility Score: inf
ROOT
ATOM      1  C   UNL     1      62.752  -0.274   6.709  1.00  0.00     0.059 C 
ENDROOT
BRANCH   1   2
ATOM      2  C   UNL     1      61.765  -1.395   6.585  1.00  0.00     0.042 C 
ATOM      3  O   UNL     1      61.792  -2.156   5.582  1.00  0.00    -0.550 OA
ATOM      4  O   UNL     1      60.791  -1.574   7.559  1.00  0.00    -0.550 OA
ENDBRANCH   1   2
BRANCH   1   5
ATOM      5  C   UNL     1      62.192   1.034   6.140  1.00  0.00     0.059 C 
BRANCH   5   6
ATOM      6  C   UNL     1      62.815   1.372   4.820  1.00  0.00     0.042 C 
ATOM      7  O   UNL     1      63.499   2.421   4.692  1.00  0.00    -0.550 OA
ATOM      8  O   UNL     1      62.609   0.547   3.722  1.00  0.00    -0.550 OA
ENDBRANCH   5   6
ENDBRANCH   1   5
TORSDOF 3
ENDMDL
MODEL 6
REMARK VINA RESULT:    -3.705      2.557      3.498
REMARK INTER + INTRA:          -4.458
REMARK INTER:                  -4.365
REMARK INTRA:                  -0.092
REMARK UNBOUND:                -0.103
REMARK SMILES O=C([O-])CCC(=O)[O-]
REMARK SMILES IDX 4 1 2 2 1 3 3 4 5 5 6 6 7 7 8 8
REMARK H PARENT
REMARK Flexibility Score: inf
ROOT
ATOM      1  C   UNL     1      62.977   9.414  -3.481  1.00  0.00     0.059 C 
ENDROOT
BRANCH   1   2
ATOM      2  C   UNL     1      61.604   9.959  -3.227  1.00  0.00     0.042 C 
ATOM      3  O   UNL     1      61.221  11.009  -3.807  1.00  0.00    -0.550 OA
ATOM      4  O   UNL     1      60.763   9.328  -2.319  1.00  0.00    -0.550 OA
ENDBRANCH   1   2
BRANCH   1   5
ATOM      5  C   UNL     1      62.983   8.428  -4.654  1.00  0.00     0.059 C 
BRANCH   5   6
ATOM      6  C   UNL     1      63.358   7.046  -4.209  1.00  0.00     0.042 C 
ATOM      7  O   UNL     1      62.491   6.287  -3.702  1.00  0.00    -0.550 OA
ATOM      8  O   UNL     1      64.672   6.613  -4.321  1.00  0.00    -0.550 OA
ENDBRANCH   5   6
ENDBRANCH   1   5
TORSDOF 3
ENDMDL
MODEL 7
REMARK VINA RESULT:    -3.702      0.513      3.885
REMARK INTER + INTRA:          -4.455
REMARK INTER:                  -4.394
REMARK INTRA:                  -0.061
REMARK UNBOUND:                -0.103
REMARK SMILES O=C([O-])CCC(=O)[O-]
REMARK SMILES IDX 4 1 2 2 1 3 3 4 5 5 6 6 7 7 8 8
REMARK H PARENT
REMARK Flexibility Score: inf
ROOT
ATOM      1  C   UNL     1      63.080   7.822  -6.754  1.00  0.00     0.059 C 
ENDROOT
BRANCH   1   2
ATOM      2  C   UNL     1      63.049   6.696  -7.742  1.00  0.00     0.042 C 
ATOM      3  O   UNL     1      64.041   5.930  -7.862  1.00  0.00    -0.550 OA
ATOM      4  O   UNL     1      61.940   6.519  -8.561  1.00  0.00    -0.550 OA
ENDBRANCH   1   2
BRANCH   1   5
ATOM      5  C   UNL     1      63.927   7.471  -5.527  1.00  0.00     0.059 C 
BRANCH   5   6
ATOM      6  C   UNL     1      63.081   7.318  -4.299  1.00  0.00     0.042 C 
ATOM      7  O   UNL     1      63.016   6.207  -3.709  1.00  0.00    -0.550 OA
ATOM      8  O   UNL     1      62.336   8.392  -3.830  1.00  0.00    -0.550 OA
ENDBRANCH   5   6
ENDBRANCH   1   5
TORSDOF 3
ENDMDL
MODEL 8
REMARK VINA RESULT:    -3.700     11.966     13.960
REMARK INTER + INTRA:          -4.452
REMARK INTER:                  -4.335
REMARK INTRA:                  -0.117
REMARK UNBOUND:                -0.103
REMARK SMILES O=C([O-])CCC(=O)[O-]
REMARK SMILES IDX 4 1 2 2 1 3 3 4 5 5 6 6 7 7 8 8
REMARK H PARENT
REMARK Flexibility Score: inf
ROOT
ATOM      1  C   UNL     1      62.185   1.012   6.129  1.00  0.00     0.059 C 
ENDROOT
BRANCH   1   2
ATOM      2  C   UNL     1      62.809   1.359   4.811  1.00  0.00     0.042 C 
ATOM      3  O   UNL     1      63.483   2.415   4.687  1.00  0.00    -0.550 OA
ATOM      4  O   UNL     1      62.610   0.536   3.710  1.00  0.00    -0.550 OA
ENDBRANCH   1   2
BRANCH   1   5
ATOM      5  C   UNL     1      62.749  -0.297   6.691  1.00  0.00     0.059 C 
BRANCH   5   6
ATOM      6  C   UNL     1      61.771  -1.423   6.551  1.00  0.00     0.042 C 
ATOM      7  O   UNL     1      61.797  -2.161   5.532  1.00  0.00    -0.550 OA
ATOM      8  O   UNL     1      60.808  -1.633   7.529  1.00  0.00    -0.550 OA
ENDBRANCH   5   6
ENDBRANCH   1   5
TORSDOF 3
ENDMDL
MODEL 9
REMARK VINA RESULT:    -3.667      2.394      4.073
REMARK INTER + INTRA:          -4.414
REMARK INTER:                  -4.294
REMARK INTRA:                  -0.119
REMARK UNBOUND:                -0.103
REMARK SMILES O=C([O-])CCC(=O)[O-]
REMARK SMILES IDX 4 1 2 2 1 3 3 4 5 5 6 6 7 7 8 8
REMARK H PARENT
REMARK Flexibility Score: inf
ROOT
ATOM      1  C   UNL     1      62.797   8.268  -5.037  1.00  0.00     0.059 C 
ENDROOT
BRANCH   1   2
ATOM      2  C   UNL     1      63.338   7.037  -4.376  1.00  0.00     0.042 C 
ATOM      3  O   UNL     1      62.578   6.290  -3.706  1.00  0.00    -0.550 OA
ATOM      4  O   UNL     1      64.692   6.739  -4.464  1.00  0.00    -0.550 OA
ENDBRANCH   1   2
BRANCH   1   5
ATOM      5  C   UNL     1      63.014   9.514  -4.172  1.00  0.00     0.059 C 
BRANCH   5   6
ATOM      6  C   UNL     1      61.748   9.942  -3.495  1.00  0.00     0.042 C 
ATOM      7  O   UNL     1      61.197  11.029  -3.811  1.00  0.00    -0.550 OA
ATOM      8  O   UNL     1      61.198   9.158  -2.489  1.00  0.00    -0.550 OA
ENDBRANCH   5   6
ENDBRANCH   1   5
TORSDOF 3
ENDMDL
