MODEL 1
REMARK VINA RESULT:    -4.083      0.000      0.000
REMARK INTER + INTRA:          -8.050
REMARK INTER:                  -6.948
REMARK INTRA:                  -1.102
REMARK UNBOUND:                -1.102
REMARK SMILES CCCCCCCCCCCCCC(=O)[O-]
REMARK SMILES IDX 8 1 9 2 10 3 11 4 12 5 13 6 14 7 15 8 16 9 7 10 6 11 5 12
REMARK SMILES IDX 4 13 3 14 2 15 1 16
REMARK H PARENT
REMARK Flexibility Score: inf
ROOT
ATOM      1  C   UNL     1     125.720 119.124 130.195  1.00  0.00     0.000 C 
ENDROOT
BRANCH   1   2
ATOM      2  C   UNL     1     124.543 118.407 130.866  1.00  0.00     0.000 C 
BRANCH   2   3
ATOM      3  C   UNL     1     123.973 119.243 132.018  1.00  0.00     0.000 C 
BRANCH   3   4
ATOM      4  C   UNL     1     122.601 118.716 132.454  1.00  0.00     0.000 C 
BRANCH   4   5
ATOM      5  C   UNL     1     121.829 119.780 133.248  1.00  0.00     0.006 C 
BRANCH   5   6
ATOM      6  C   UNL     1     122.707 120.984 133.613  1.00  0.00     0.053 C 
BRANCH   6   7
ATOM      7  C   UNL     1     122.068 122.278 133.212  1.00  0.00     0.041 C 
ATOM      8  O   UNL     1     121.779 123.141 134.083  1.00  0.00    -0.550 OA
ATOM      9  O   UNL     1     121.821 122.545 131.871  1.00  0.00    -0.550 OA
ENDBRANCH   6   7
ENDBRANCH   5   6
ENDBRANCH   4   5
ENDBRANCH   3   4
ENDBRANCH   2   3
ENDBRANCH   1   2
BRANCH   1  10
ATOM     10  C   UNL     1     125.674 120.635 130.473  1.00  0.00     0.000 C 
BRANCH  10  11
ATOM     11  C   UNL     1     124.947 121.421 129.371  1.00  0.00    -0.000 C 
BRANCH  11  12
ATOM     12  C   UNL     1     124.596 122.856 129.802  1.00  0.00    -0.000 C 
BRANCH  12  13
ATOM     13  C   UNL     1     125.336 123.919 128.975  1.00  0.00    -0.000 C 
BRANCH  13  14
ATOM     14  C   UNL     1     126.104 123.319 127.787  1.00  0.00    -0.000 C 
BRANCH  14  15
ATOM     15  C   UNL     1     127.609 123.582 127.919  1.00  0.00    -0.003 C 
ATOM     16  C   UNL     1     128.390 122.275 128.016  1.00  0.00     0.004 C 
ENDBRANCH  14  15
ENDBRANCH  13  14
ENDBRANCH  12  13
ENDBRANCH  11  12
ENDBRANCH  10  11
ENDBRANCH   1  10
TORSDOF 12
ENDMDL
MODEL 2
REMARK VINA RESULT:    -3.875     12.798     15.752
REMARK INTER + INTRA:          -7.695
REMARK INTER:                  -6.245
REMARK INTRA:                  -1.450
REMARK UNBOUND:                -1.102
REMARK SMILES CCCCCCCCCCCCCC(=O)[O-]
REMARK SMILES IDX 8 1 9 2 10 3 11 4 12 5 13 6 14 7 15 8 16 9 7 10 6 11 5 12
REMARK SMILES IDX 4 13 3 14 2 15 1 16
REMARK H PARENT
REMARK Flexibility Score: inf
ROOT
ATOM      1  C   UNL     1     132.346 135.968 131.431  1.00  0.00     0.000 C 
ENDROOT
BRANCH   1   2
ATOM      2  C   UNL     1     130.981 136.124 130.751  1.00  0.00     0.000 C 
BRANCH   2   3
ATOM      3  C   UNL     1     130.447 134.770 130.269  1.00  0.00     0.000 C 
BRANCH   3   4
ATOM      4  C   UNL     1     131.470 133.655 130.519  1.00  0.00     0.000 C 
BRANCH   4   5
ATOM      5  C   UNL     1     131.286 132.505 129.518  1.00  0.00     0.006 C 
BRANCH   5   6
ATOM      6  C   UNL     1     130.622 132.968 128.216  1.00  0.00     0.053 C 
BRANCH   6   7
ATOM      7  C   UNL     1     129.453 132.104 127.851  1.00  0.00     0.041 C 
ATOM      8  O   UNL     1     129.579 130.852 127.802  1.00  0.00    -0.550 OA
ATOM      9  O   UNL     1     128.216 132.682 127.596  1.00  0.00    -0.550 OA
ENDBRANCH   6   7
ENDBRANCH   5   6
ENDBRANCH   4   5
ENDBRANCH   3   4
ENDBRANCH   2   3
ENDBRANCH   1   2
BRANCH   1  10
ATOM     10  C   UNL     1     132.493 136.953 132.601  1.00  0.00     0.000 C 
BRANCH  10  11
ATOM     11  C   UNL     1     133.689 136.624 133.509  1.00  0.00    -0.000 C 
BRANCH  11  12
ATOM     12  C   UNL     1     133.289 136.493 134.990  1.00  0.00    -0.000 C 
BRANCH  12  13
ATOM     13  C   UNL     1     132.947 135.048 135.384  1.00  0.00    -0.000 C 
BRANCH  13  14
ATOM     14  C   UNL     1     133.716 134.008 134.554  1.00  0.00    -0.000 C 
BRANCH  14  15
ATOM     15  C   UNL     1     132.764 132.953 133.979  1.00  0.00    -0.003 C 
ATOM     16  C   UNL     1     131.307 133.335 134.220  1.00  0.00     0.004 C 
ENDBRANCH  14  15
ENDBRANCH  13  14
ENDBRANCH  12  13
ENDBRANCH  11  12
ENDBRANCH  10  11
ENDBRANCH   1  10
TORSDOF 12
ENDMDL
MODEL 3
REMARK VINA RESULT:    -3.860     10.196     12.642
REMARK INTER + INTRA:          -7.669
REMARK INTER:                  -6.873
REMARK INTRA:                  -0.796
REMARK UNBOUND:                -1.102
REMARK SMILES CCCCCCCCCCCCCC(=O)[O-]
REMARK SMILES IDX 8 1 9 2 10 3 11 4 12 5 13 6 14 7 15 8 16 9 7 10 6 11 5 12
REMARK SMILES IDX 4 13 3 14 2 15 1 16
REMARK H PARENT
REMARK Flexibility Score: inf
ROOT
ATOM      1  C   UNL     1     131.960 133.489 131.847  1.00  0.00     0.000 C 
ENDROOT
BRANCH   1   2
ATOM      2  C   UNL     1     131.221 133.567 133.187  1.00  0.00     0.000 C 
BRANCH   2   3
ATOM      3  C   UNL     1     131.711 132.480 134.151  1.00  0.00     0.000 C 
BRANCH   3   4
ATOM      4  C   UNL     1     130.574 131.995 135.058  1.00  0.00     0.000 C 
BRANCH   4   5
ATOM      5  C   UNL     1     130.627 130.470 135.240  1.00  0.00     0.006 C 
BRANCH   5   6
ATOM      6  C   UNL     1     129.369 129.777 134.700  1.00  0.00     0.053 C 
BRANCH   6   7
ATOM      7  C   UNL     1     129.703 128.765 133.647  1.00  0.00     0.041 C 
ATOM      8  O   UNL     1     130.659 127.964 133.816  1.00  0.00    -0.550 OA
ATOM      9  O   UNL     1     128.935 128.685 132.492  1.00  0.00    -0.550 OA
ENDBRANCH   6   7
ENDBRANCH   5   6
ENDBRANCH   4   5
ENDBRANCH   3   4
ENDBRANCH   2   3
ENDBRANCH   1   2
BRANCH   1  10
ATOM     10  C   UNL     1     131.450 134.563 130.874  1.00  0.00     0.000 C 
BRANCH  10  11
ATOM     11  C   UNL     1     130.949 133.974 129.546  1.00  0.00    -0.000 C 
BRANCH  11  12
ATOM     12  C   UNL     1     131.396 132.515 129.341  1.00  0.00    -0.000 C 
BRANCH  12  13
ATOM     13  C   UNL     1     130.238 131.596 128.921  1.00  0.00    -0.000 C 
BRANCH  13  14
ATOM     14  C   UNL     1     129.552 132.057 127.626  1.00  0.00    -0.000 C 
BRANCH  14  15
ATOM     15  C   UNL     1     128.030 132.121 127.804  1.00  0.00    -0.003 C 
ATOM     16  C   UNL     1     127.562 133.553 128.042  1.00  0.00     0.004 C 
ENDBRANCH  14  15
ENDBRANCH  13  14
ENDBRANCH  12  13
ENDBRANCH  11  12
ENDBRANCH  10  11
ENDBRANCH   1  10
TORSDOF 12
ENDMDL
MODEL 4
REMARK VINA RESULT:    -3.753      3.273      6.005
REMARK INTER + INTRA:          -7.488
REMARK INTER:                  -6.341
REMARK INTRA:                  -1.147
REMARK UNBOUND:                -1.102
REMARK SMILES CCCCCCCCCCCCCC(=O)[O-]
REMARK SMILES IDX 8 1 9 2 10 3 11 4 12 5 13 6 14 7 15 8 16 9 7 10 6 11 5 12
REMARK SMILES IDX 4 13 3 14 2 15 1 16
REMARK H PARENT
REMARK Flexibility Score: inf
ROOT
ATOM      1  C   UNL     1     122.670 120.459 131.605  1.00  0.00     0.000 C 
ENDROOT
BRANCH   1   2
ATOM      2  C   UNL     1     124.183 120.315 131.402  1.00  0.00     0.000 C 
BRANCH   2   3
ATOM      3  C   UNL     1     124.654 121.119 130.185  1.00  0.00     0.000 C 
BRANCH   3   4
ATOM      4  C   UNL     1     124.517 122.626 130.434  1.00  0.00     0.000 C 
BRANCH   4   5
ATOM      5  C   UNL     1     124.503 123.404 129.110  1.00  0.00     0.006 C 
BRANCH   5   6
ATOM      6  C   UNL     1     125.681 123.027 128.202  1.00  0.00     0.053 C 
BRANCH   6   7
ATOM      7  C   UNL     1     126.705 124.118 128.140  1.00  0.00     0.041 C 
ATOM      8  O   UNL     1     127.914 123.842 127.920  1.00  0.00    -0.550 OA
ATOM      9  O   UNL     1     126.320 125.443 128.294  1.00  0.00    -0.550 OA
ENDBRANCH   6   7
ENDBRANCH   5   6
ENDBRANCH   4   5
ENDBRANCH   3   4
ENDBRANCH   2   3
ENDBRANCH   1   2
BRANCH   1  10
ATOM     10  C   UNL     1     122.360 121.238 132.892  1.00  0.00     0.000 C 
BRANCH  10  11
ATOM     11  C   UNL     1     122.968 120.586 134.144  1.00  0.00    -0.000 C 
BRANCH  11  12
ATOM     12  C   UNL     1     123.633 121.610 135.080  1.00  0.00    -0.000 C 
BRANCH  12  13
ATOM     13  C   UNL     1     123.600 123.038 134.513  1.00  0.00    -0.000 C 
BRANCH  13  14
ATOM     14  C   UNL     1     124.977 123.518 134.028  1.00  0.00    -0.000 C 
BRANCH  14  15
ATOM     15  C   UNL     1     126.040 123.321 135.116  1.00  0.00    -0.003 C 
ATOM     16  C   UNL     1     125.922 124.385 136.201  1.00  0.00     0.004 C 
ENDBRANCH  14  15
ENDBRANCH  13  14
ENDBRANCH  12  13
ENDBRANCH  11  12
ENDBRANCH  10  11
ENDBRANCH   1  10
TORSDOF 12
ENDMDL
MODEL 5
REMARK VINA RESULT:    -3.747     11.088     14.170
REMARK INTER + INTRA:          -7.477
REMARK INTER:                  -6.769
REMARK INTRA:                  -0.707
REMARK UNBOUND:                -1.102
REMARK SMILES CCCCCCCCCCCCCC(=O)[O-]
REMARK SMILES IDX 8 1 9 2 10 3 11 4 12 5 13 6 14 7 15 8 16 9 7 10 6 11 5 12
REMARK SMILES IDX 4 13 3 14 2 15 1 16
REMARK H PARENT
REMARK Flexibility Score: inf
ROOT
ATOM      1  C   UNL     1     132.487 134.060 132.364  1.00  0.00     0.000 C 
ENDROOT
BRANCH   1   2
ATOM      2  C   UNL     1     131.898 135.207 131.534  1.00  0.00     0.000 C 
BRANCH   2   3
ATOM      3  C   UNL     1     130.682 134.734 130.729  1.00  0.00     0.000 C 
BRANCH   3   4
ATOM      4  C   UNL     1     131.097 134.260 129.331  1.00  0.00     0.000 C 
BRANCH   4   5
ATOM      5  C   UNL     1     130.848 132.754 129.164  1.00  0.00     0.006 C 
BRANCH   5   6
ATOM      6  C   UNL     1     130.072 132.432 127.881  1.00  0.00     0.053 C 
BRANCH   6   7
ATOM      7  C   UNL     1     128.908 131.528 128.148  1.00  0.00     0.041 C 
ATOM      8  O   UNL     1     129.096 130.314 128.424  1.00  0.00    -0.550 OA
ATOM      9  O   UNL     1     127.615 132.036 128.124  1.00  0.00    -0.550 OA
ENDBRANCH   6   7
ENDBRANCH   5   6
ENDBRANCH   4   5
ENDBRANCH   3   4
ENDBRANCH   2   3
ENDBRANCH   1   2
BRANCH   1  10
ATOM     10  C   UNL     1     131.381 133.118 132.864  1.00  0.00     0.000 C 
BRANCH  10  11
ATOM     11  C   UNL     1     131.303 133.052 134.397  1.00  0.00    -0.000 C 
BRANCH  11  12
ATOM     12  C   UNL     1     129.980 132.443 134.896  1.00  0.00    -0.000 C 
BRANCH  12  13
ATOM     13  C   UNL     1     129.919 132.340 136.428  1.00  0.00    -0.000 C 
BRANCH  13  14
ATOM     14  C   UNL     1     128.739 131.488 136.920  1.00  0.00    -0.000 C 
BRANCH  14  15
ATOM     15  C   UNL     1     127.894 130.989 135.741  1.00  0.00    -0.003 C 
ATOM     16  C   UNL     1     127.738 129.472 135.777  1.00  0.00     0.004 C 
ENDBRANCH  14  15
ENDBRANCH  13  14
ENDBRANCH  12  13
ENDBRANCH  11  12
ENDBRANCH  10  11
ENDBRANCH   1  10
TORSDOF 12
ENDMDL
MODEL 6
REMARK VINA RESULT:    -3.734     11.326     14.235
REMARK INTER + INTRA:          -7.455
REMARK INTER:                  -6.362
REMARK INTRA:                  -1.093
REMARK UNBOUND:                -1.102
REMARK SMILES CCCCCCCCCCCCCC(=O)[O-]
REMARK SMILES IDX 8 1 9 2 10 3 11 4 12 5 13 6 14 7 15 8 16 9 7 10 6 11 5 12
REMARK SMILES IDX 4 13 3 14 2 15 1 16
REMARK H PARENT
REMARK Flexibility Score: inf
ROOT
ATOM      1  C   UNL     1     132.655 134.742 133.853  1.00  0.00     0.000 C 
ENDROOT
BRANCH   1   2
ATOM      2  C   UNL     1     132.101 134.792 132.424  1.00  0.00     0.000 C 
BRANCH   2   3
ATOM      3  C   UNL     1     132.568 133.579 131.611  1.00  0.00     0.000 C 
BRANCH   3   4
ATOM      4  C   UNL     1     131.418 133.001 130.776  1.00  0.00     0.000 C 
BRANCH   4   5
ATOM      5  C   UNL     1     131.085 133.918 129.590  1.00  0.00     0.006 C 
BRANCH   5   6
ATOM      6  C   UNL     1     131.037 133.154 128.260  1.00  0.00     0.053 C 
BRANCH   6   7
ATOM      7  C   UNL     1     129.773 132.362 128.120  1.00  0.00     0.041 C 
ATOM      8  O   UNL     1     128.687 132.941 127.855  1.00  0.00    -0.550 OA
ATOM      9  O   UNL     1     129.801 130.979 128.251  1.00  0.00    -0.550 OA
ENDBRANCH   6   7
ENDBRANCH   5   6
ENDBRANCH   4   5
ENDBRANCH   3   4
ENDBRANCH   2   3
ENDBRANCH   1   2
BRANCH   1  10
ATOM     10  C   UNL     1     132.468 133.347 134.468  1.00  0.00     0.000 C 
BRANCH  10  11
ATOM     11  C   UNL     1     131.449 133.334 135.618  1.00  0.00    -0.000 C 
BRANCH  11  12
ATOM     12  C   UNL     1     130.235 132.434 135.323  1.00  0.00    -0.000 C 
BRANCH  12  13
ATOM     13  C   UNL     1     130.431 131.573 134.065  1.00  0.00    -0.000 C 
BRANCH  13  14
ATOM     14  C   UNL     1     129.736 130.206 134.166  1.00  0.00    -0.000 C 
BRANCH  14  15
ATOM     15  C   UNL     1     130.546 129.242 135.039  1.00  0.00    -0.003 C 
ATOM     16  C   UNL     1     130.914 127.977 134.270  1.00  0.00     0.004 C 
ENDBRANCH  14  15
ENDBRANCH  13  14
ENDBRANCH  12  13
ENDBRANCH  11  12
ENDBRANCH  10  11
ENDBRANCH   1  10
TORSDOF 12
ENDMDL
MODEL 7
REMARK VINA RESULT:    -3.710      3.806      4.931
REMARK INTER + INTRA:          -7.415
REMARK INTER:                  -6.716
REMARK INTRA:                  -0.699
REMARK UNBOUND:                -1.102
REMARK SMILES CCCCCCCCCCCCCC(=O)[O-]
REMARK SMILES IDX 8 1 9 2 10 3 11 4 12 5 13 6 14 7 15 8 16 9 7 10 6 11 5 12
REMARK SMILES IDX 4 13 3 14 2 15 1 16
REMARK H PARENT
REMARK Flexibility Score: inf
ROOT
ATOM      1  C   UNL     1     123.624 121.897 133.620  1.00  0.00     0.000 C 
ENDROOT
BRANCH   1   2
ATOM      2  C   UNL     1     123.614 123.196 134.434  1.00  0.00     0.000 C 
BRANCH   2   3
ATOM      3  C   UNL     1     124.778 123.229 135.432  1.00  0.00     0.000 C 
BRANCH   3   4
ATOM      4  C   UNL     1     126.094 123.586 134.731  1.00  0.00     0.000 C 
BRANCH   4   5
ATOM      5  C   UNL     1     126.444 125.067 134.938  1.00  0.00     0.006 C 
BRANCH   5   6
ATOM      6  C   UNL     1     126.076 125.927 133.722  1.00  0.00     0.053 C 
BRANCH   6   7
ATOM      7  C   UNL     1     125.986 127.380 134.077  1.00  0.00     0.041 C 
ATOM      8  O   UNL     1     124.913 128.013 133.895  1.00  0.00    -0.550 OA
ATOM      9  O   UNL     1     127.080 128.027 134.638  1.00  0.00    -0.550 OA
ENDBRANCH   6   7
ENDBRANCH   5   6
ENDBRANCH   4   5
ENDBRANCH   3   4
ENDBRANCH   2   3
ENDBRANCH   1   2
BRANCH   1  10
ATOM     10  C   UNL     1     123.780 122.190 132.120  1.00  0.00     0.000 C 
BRANCH  10  11
ATOM     11  C   UNL     1     124.145 120.939 131.304  1.00  0.00    -0.000 C 
BRANCH  11  12
ATOM     12  C   UNL     1     124.867 121.282 129.988  1.00  0.00    -0.000 C 
BRANCH  12  13
ATOM     13  C   UNL     1     124.780 122.776 129.639  1.00  0.00    -0.000 C 
BRANCH  13  14
ATOM     14  C   UNL     1     125.382 123.100 128.262  1.00  0.00    -0.000 C 
BRANCH  14  15
ATOM     15  C   UNL     1     126.072 124.469 128.275  1.00  0.00    -0.003 C 
ATOM     16  C   UNL     1     126.992 124.634 127.070  1.00  0.00     0.004 C 
ENDBRANCH  14  15
ENDBRANCH  13  14
ENDBRANCH  12  13
ENDBRANCH  11  12
ENDBRANCH  10  11
ENDBRANCH   1  10
TORSDOF 12
ENDMDL
MODEL 8
REMARK VINA RESULT:    -3.659     11.578     13.997
REMARK INTER + INTRA:          -7.327
REMARK INTER:                  -6.090
REMARK INTRA:                  -1.237
REMARK UNBOUND:                -1.102
REMARK SMILES CCCCCCCCCCCCCC(=O)[O-]
REMARK SMILES IDX 8 1 9 2 10 3 11 4 12 5 13 6 14 7 15 8 16 9 7 10 6 11 5 12
REMARK SMILES IDX 4 13 3 14 2 15 1 16
REMARK H PARENT
REMARK Flexibility Score: inf
ROOT
ATOM      1  C   UNL     1     133.186 135.121 131.979  1.00  0.00     0.000 C 
ENDROOT
BRANCH   1   2
ATOM      2  C   UNL     1     133.320 135.045 133.505  1.00  0.00     0.000 C 
BRANCH   2   3
ATOM      3  C   UNL     1     132.962 133.646 134.020  1.00  0.00     0.000 C 
BRANCH   3   4
ATOM      4  C   UNL     1     131.820 133.711 135.041  1.00  0.00     0.000 C 
BRANCH   4   5
ATOM      5  C   UNL     1     130.531 133.105 134.464  1.00  0.00     0.006 C 
BRANCH   5   6
ATOM      6  C   UNL     1     130.709 131.636 134.061  1.00  0.00     0.053 C 
BRANCH   6   7
ATOM      7  C   UNL     1     130.002 130.713 135.005  1.00  0.00     0.041 C 
ATOM      8  O   UNL     1     129.036 130.011 134.603  1.00  0.00    -0.550 OA
ATOM      9  O   UNL     1     130.430 130.603 136.322  1.00  0.00    -0.550 OA
ENDBRANCH   6   7
ENDBRANCH   5   6
ENDBRANCH   4   5
ENDBRANCH   3   4
ENDBRANCH   2   3
ENDBRANCH   1   2
BRANCH   1  10
ATOM     10  C   UNL     1     131.773 135.565 131.573  1.00  0.00     0.000 C 
BRANCH  10  11
ATOM     11  C   UNL     1     131.165 134.682 130.471  1.00  0.00    -0.000 C 
BRANCH  11  12
ATOM     12  C   UNL     1     131.483 133.189 130.668  1.00  0.00    -0.000 C 
BRANCH  12  13
ATOM     13  C   UNL     1     131.455 132.401 129.349  1.00  0.00    -0.000 C 
BRANCH  13  14
ATOM     14  C   UNL     1     130.393 132.922 128.367  1.00  0.00    -0.000 C 
BRANCH  14  15
ATOM     15  C   UNL     1     129.578 131.766 127.777  1.00  0.00    -0.003 C 
ATOM     16  C   UNL     1     128.124 132.171 127.559  1.00  0.00     0.004 C 
ENDBRANCH  14  15
ENDBRANCH  13  14
ENDBRANCH  12  13
ENDBRANCH  11  12
ENDBRANCH  10  11
ENDBRANCH   1  10
TORSDOF 12
ENDMDL
