MODEL 1
REMARK VINA RESULT:    -4.520      0.000      0.000
REMARK INTER + INTRA:          -6.849
REMARK INTER:                  -6.633
REMARK INTRA:                  -0.216
REMARK UNBOUND:                -0.216
REMARK SMILES O=C([O-])CCCCCCCC(=O)[O-]
REMARK SMILES IDX 7 1 6 2 5 3 4 4 2 5 1 6 3 7 8 8 9 9 10 10 11 11 12 12 13 13
REMARK H PARENT
REMARK Flexibility Score: inf
ROOT
ATOM      1  C   UNL     1      -9.531   5.115 -10.678  1.00  0.00     0.000 C 
ENDROOT
BRANCH   1   2
ATOM      2  C   UNL     1      -8.704   4.567 -11.856  1.00  0.00     0.000 C 
BRANCH   2   3
ATOM      3  C   UNL     1      -7.576   5.493 -12.345  1.00  0.00     0.006 C 
BRANCH   3   4
ATOM      4  C   UNL     1      -6.744   4.876 -13.478  1.00  0.00     0.053 C 
BRANCH   4   5
ATOM      5  C   UNL     1      -7.212   5.385 -14.804  1.00  0.00     0.041 C 
ATOM      6  O   UNL     1      -8.255   6.086 -14.882  1.00  0.00    -0.550 OA
ATOM      7  O   UNL     1      -6.469   5.125 -15.950  1.00  0.00    -0.550 OA
ENDBRANCH   4   5
ENDBRANCH   3   4
ENDBRANCH   2   3
ENDBRANCH   1   2
BRANCH   1   8
ATOM      8  C   UNL     1      -9.130   4.500  -9.328  1.00  0.00     0.000 C 
BRANCH   8   9
ATOM      9  C   UNL     1      -9.152   5.555  -8.216  1.00  0.00     0.006 C 
BRANCH   9  10
ATOM     10  C   UNL     1      -7.916   5.433  -7.319  1.00  0.00     0.053 C 
BRANCH  10  11
ATOM     11  C   UNL     1      -8.319   5.330  -5.882  1.00  0.00     0.041 C 
ATOM     12  O   UNL     1      -9.421   5.803  -5.499  1.00  0.00    -0.550 OA
ATOM     13  O   UNL     1      -7.502   4.665  -4.977  1.00  0.00    -0.550 OA
ENDBRANCH  10  11
ENDBRANCH   9  10
ENDBRANCH   8   9
ENDBRANCH   1   8
TORSDOF 8
ENDMDL
MODEL 2
REMARK VINA RESULT:    -4.409      0.997      1.531
REMARK INTER + INTRA:          -6.687
REMARK INTER:                  -6.389
REMARK INTRA:                  -0.298
REMARK UNBOUND:                -0.216
REMARK SMILES O=C([O-])CCCCCCCC(=O)[O-]
REMARK SMILES IDX 7 1 6 2 5 3 4 4 2 5 1 6 3 7 8 8 9 9 10 10 11 11 12 12 13 13
REMARK H PARENT
REMARK Flexibility Score: inf
ROOT
ATOM      1  C   UNL     1      -9.428   4.487  -9.281  1.00  0.00     0.000 C 
ENDROOT
BRANCH   1   2
ATOM      2  C   UNL     1      -9.477   5.150 -10.669  1.00  0.00     0.000 C 
BRANCH   2   3
ATOM      3  C   UNL     1      -8.233   4.919 -11.545  1.00  0.00     0.006 C 
BRANCH   3   4
ATOM      4  C   UNL     1      -8.579   4.587 -13.003  1.00  0.00     0.053 C 
BRANCH   4   5
ATOM      5  C   UNL     1      -7.732   5.392 -13.936  1.00  0.00     0.041 C 
ATOM      6  O   UNL     1      -6.480   5.415 -13.797  1.00  0.00    -0.550 OA
ATOM      7  O   UNL     1      -8.319   6.080 -14.991  1.00  0.00    -0.550 OA
ENDBRANCH   4   5
ENDBRANCH   3   4
ENDBRANCH   2   3
ENDBRANCH   1   2
BRANCH   1   8
ATOM      8  C   UNL     1      -9.096   5.479  -8.155  1.00  0.00     0.000 C 
BRANCH   8   9
ATOM      9  C   UNL     1      -7.581   5.586  -7.947  1.00  0.00     0.006 C 
BRANCH   9  10
ATOM     10  C   UNL     1      -7.251   6.536  -6.792  1.00  0.00     0.053 C 
BRANCH  10  11
ATOM     11  C   UNL     1      -7.829   6.024  -5.511  1.00  0.00     0.041 C 
ATOM     12  O   UNL     1      -8.624   6.737  -4.844  1.00  0.00    -0.550 OA
ATOM     13  O   UNL     1      -7.530   4.738  -5.078  1.00  0.00    -0.550 OA
ENDBRANCH  10  11
ENDBRANCH   9  10
ENDBRANCH   8   9
ENDBRANCH   1   8
TORSDOF 8
ENDMDL
MODEL 3
REMARK VINA RESULT:    -4.395      1.680      1.945
REMARK INTER + INTRA:          -6.667
REMARK INTER:                  -6.372
REMARK INTRA:                  -0.294
REMARK UNBOUND:                -0.216
REMARK SMILES O=C([O-])CCCCCCCC(=O)[O-]
REMARK SMILES IDX 7 1 6 2 5 3 4 4 2 5 1 6 3 7 8 8 9 9 10 10 11 11 12 12 13 13
REMARK H PARENT
REMARK Flexibility Score: inf
ROOT
ATOM      1  C   UNL     1      -9.501   4.959 -10.806  1.00  0.00     0.000 C 
ENDROOT
BRANCH   1   2
ATOM      2  C   UNL     1      -8.293   4.967 -11.760  1.00  0.00     0.000 C 
BRANCH   2   3
ATOM      3  C   UNL     1      -8.616   4.609 -13.222  1.00  0.00     0.006 C 
BRANCH   3   4
ATOM      4  C   UNL     1      -7.802   5.427 -14.233  1.00  0.00     0.053 C 
BRANCH   4   5
ATOM      5  C   UNL     1      -6.396   4.924 -14.299  1.00  0.00     0.041 C 
ATOM      6  O   UNL     1      -5.432   5.704 -14.080  1.00  0.00    -0.550 OA
ATOM      7  O   UNL     1      -6.148   3.580 -14.556  1.00  0.00    -0.550 OA
ENDBRANCH   4   5
ENDBRANCH   3   4
ENDBRANCH   2   3
ENDBRANCH   1   2
BRANCH   1   8
ATOM      8  C   UNL     1      -9.137   4.506  -9.383  1.00  0.00     0.000 C 
BRANCH   8   9
ATOM      9  C   UNL     1      -9.272   5.664  -8.387  1.00  0.00     0.006 C 
BRANCH   9  10
ATOM     10  C   UNL     1      -8.380   5.442  -7.162  1.00  0.00     0.053 C 
BRANCH  10  11
ATOM     11  C   UNL     1      -7.222   6.389  -7.178  1.00  0.00     0.041 C 
ATOM     12  O   UNL     1      -6.345   6.302  -8.077  1.00  0.00    -0.550 OA
ATOM     13  O   UNL     1      -7.138   7.400  -6.229  1.00  0.00    -0.550 OA
ENDBRANCH  10  11
ENDBRANCH   9  10
ENDBRANCH   8   9
ENDBRANCH   1   8
TORSDOF 8
ENDMDL
MODEL 4
REMARK VINA RESULT:    -4.394      1.839      6.801
REMARK INTER + INTRA:          -6.665
REMARK INTER:                  -6.327
REMARK INTRA:                  -0.338
REMARK UNBOUND:                -0.216
REMARK SMILES O=C([O-])CCCCCCCC(=O)[O-]
REMARK SMILES IDX 7 1 6 2 5 3 4 4 2 5 1 6 3 7 8 8 9 9 10 10 11 11 12 12 13 13
REMARK H PARENT
REMARK Flexibility Score: inf
ROOT
ATOM      1  C   UNL     1      -9.254   4.523  -9.276  1.00  0.00     0.000 C 
ENDROOT
BRANCH   1   2
ATOM      2  C   UNL     1      -9.206   5.601  -8.178  1.00  0.00     0.000 C 
BRANCH   2   3
ATOM      3  C   UNL     1      -8.025   5.480  -7.199  1.00  0.00     0.006 C 
BRANCH   3   4
ATOM      4  C   UNL     1      -6.716   6.045  -7.764  1.00  0.00     0.053 C 
BRANCH   4   5
ATOM      5  C   UNL     1      -6.173   7.107  -6.862  1.00  0.00     0.041 C 
ATOM      6  O   UNL     1      -6.914   7.642  -5.995  1.00  0.00    -0.550 OA
ATOM      7  O   UNL     1      -4.835   7.473  -6.944  1.00  0.00    -0.550 OA
ENDBRANCH   4   5
ENDBRANCH   3   4
ENDBRANCH   2   3
ENDBRANCH   1   2
BRANCH   1   8
ATOM      8  C   UNL     1      -9.526   5.102 -10.673  1.00  0.00     0.000 C 
BRANCH   8   9
ATOM      9  C   UNL     1      -8.271   5.027 -11.551  1.00  0.00     0.006 C 
BRANCH   9  10
ATOM     10  C   UNL     1      -8.620   4.556 -12.967  1.00  0.00     0.053 C 
BRANCH  10  11
ATOM     11  C   UNL     1      -7.769   5.260 -13.977  1.00  0.00     0.041 C 
ATOM     12  O   UNL     1      -8.304   5.939 -14.892  1.00  0.00    -0.550 OA
ATOM     13  O   UNL     1      -6.385   5.208 -13.877  1.00  0.00    -0.550 OA
ENDBRANCH  10  11
ENDBRANCH   9  10
ENDBRANCH   8   9
ENDBRANCH   1   8
TORSDOF 8
ENDMDL
MODEL 5
REMARK VINA RESULT:    -4.307      1.099      7.455
REMARK INTER + INTRA:          -6.537
REMARK INTER:                  -6.308
REMARK INTRA:                  -0.229
REMARK UNBOUND:                -0.216
REMARK SMILES O=C([O-])CCCCCCCC(=O)[O-]
REMARK SMILES IDX 7 1 6 2 5 3 4 4 2 5 1 6 3 7 8 8 9 9 10 10 11 11 12 12 13 13
REMARK H PARENT
REMARK Flexibility Score: inf
ROOT
ATOM      1  C   UNL     1      -9.241   4.526  -9.315  1.00  0.00     0.000 C 
ENDROOT
BRANCH   1   2
ATOM      2  C   UNL     1      -9.099   5.618  -8.239  1.00  0.00     0.000 C 
BRANCH   2   3
ATOM      3  C   UNL     1      -7.721   5.685  -7.557  1.00  0.00     0.006 C 
BRANCH   3   4
ATOM      4  C   UNL     1      -7.701   6.612  -6.335  1.00  0.00     0.053 C 
BRANCH   4   5
ATOM      5  C   UNL     1      -7.447   5.827  -5.089  1.00  0.00     0.041 C 
ATOM      6  O   UNL     1      -7.495   4.568  -5.111  1.00  0.00    -0.550 OA
ATOM      7  O   UNL     1      -7.107   6.481  -3.910  1.00  0.00    -0.550 OA
ENDBRANCH   4   5
ENDBRANCH   3   4
ENDBRANCH   2   3
ENDBRANCH   1   2
BRANCH   1   8
ATOM      8  C   UNL     1      -9.550   5.095 -10.708  1.00  0.00     0.000 C 
BRANCH   8   9
ATOM      9  C   UNL     1      -8.311   5.043 -11.610  1.00  0.00     0.006 C 
BRANCH   9  10
ATOM     10  C   UNL     1      -8.683   4.606 -13.030  1.00  0.00     0.053 C 
BRANCH  10  11
ATOM     11  C   UNL     1      -7.820   5.300 -14.035  1.00  0.00     0.041 C 
ATOM     12  O   UNL     1      -8.342   5.985 -14.954  1.00  0.00    -0.550 OA
ATOM     13  O   UNL     1      -6.436   5.234 -13.927  1.00  0.00    -0.550 OA
ENDBRANCH  10  11
ENDBRANCH   9  10
ENDBRANCH   8   9
ENDBRANCH   1   8
TORSDOF 8
ENDMDL
MODEL 6
REMARK VINA RESULT:    -4.093      1.605      7.752
REMARK INTER + INTRA:          -6.223
REMARK INTER:                  -5.989
REMARK INTRA:                  -0.234
REMARK UNBOUND:                -0.216
REMARK SMILES O=C([O-])CCCCCCCC(=O)[O-]
REMARK SMILES IDX 7 1 6 2 5 3 4 4 2 5 1 6 3 7 8 8 9 9 10 10 11 11 12 12 13 13
REMARK H PARENT
REMARK Flexibility Score: inf
ROOT
ATOM      1  C   UNL     1      -7.693   5.181 -12.607  1.00  0.00     0.000 C 
ENDROOT
BRANCH   1   2
ATOM      2  C   UNL     1      -8.823   4.494 -11.818  1.00  0.00     0.000 C 
BRANCH   2   3
ATOM      3  C   UNL     1      -9.306   5.260 -10.573  1.00  0.00     0.006 C 
BRANCH   3   4
ATOM      4  C   UNL     1      -9.233   4.423  -9.289  1.00  0.00     0.053 C 
BRANCH   4   5
ATOM      5  C   UNL     1      -8.642   5.228  -8.175  1.00  0.00     0.041 C 
ATOM      6  O   UNL     1      -7.424   5.546  -8.200  1.00  0.00    -0.550 OA
ATOM      7  O   UNL     1      -9.448   5.668  -7.132  1.00  0.00    -0.550 OA
ENDBRANCH   4   5
ENDBRANCH   3   4
ENDBRANCH   2   3
ENDBRANCH   1   2
BRANCH   1   8
ATOM      8  C   UNL     1      -7.030   4.250 -13.634  1.00  0.00     0.000 C 
BRANCH   8   9
ATOM      9  C   UNL     1      -6.549   5.039 -14.858  1.00  0.00     0.006 C 
BRANCH   9  10
ATOM     10  C   UNL     1      -7.622   6.023 -15.334  1.00  0.00     0.053 C 
BRANCH  10  11
ATOM     11  C   UNL     1      -7.505   6.253 -16.807  1.00  0.00     0.041 C 
ATOM     12  O   UNL     1      -8.432   5.894 -17.580  1.00  0.00    -0.550 OA
ATOM     13  O   UNL     1      -6.395   6.910 -17.323  1.00  0.00    -0.550 OA
ENDBRANCH  10  11
ENDBRANCH   9  10
ENDBRANCH   8   9
ENDBRANCH   1   8
TORSDOF 8
ENDMDL
MODEL 7
REMARK VINA RESULT:    -3.940      1.580      7.016
REMARK INTER + INTRA:          -5.998
REMARK INTER:                  -5.982
REMARK INTRA:                  -0.016
REMARK UNBOUND:                -0.216
REMARK SMILES O=C([O-])CCCCCCCC(=O)[O-]
REMARK SMILES IDX 7 1 6 2 5 3 4 4 2 5 1 6 3 7 8 8 9 9 10 10 11 11 12 12 13 13
REMARK H PARENT
REMARK Flexibility Score: inf
ROOT
ATOM      1  C   UNL     1      -8.035   5.009 -11.647  1.00  0.00     0.000 C 
ENDROOT
BRANCH   1   2
ATOM      2  C   UNL     1      -9.502   4.937 -11.184  1.00  0.00     0.000 C 
BRANCH   2   3
ATOM      3  C   UNL     1      -9.750   5.398  -9.736  1.00  0.00     0.006 C 
BRANCH   3   4
ATOM      4  C   UNL     1      -8.695   4.877  -8.752  1.00  0.00     0.053 C 
BRANCH   4   5
ATOM      5  C   UNL     1      -8.641   5.746  -7.536  1.00  0.00     0.041 C 
ATOM      6  O   UNL     1      -9.565   5.697  -6.682  1.00  0.00    -0.550 OA
ATOM      7  O   UNL     1      -7.547   6.575  -7.320  1.00  0.00    -0.550 OA
ENDBRANCH   4   5
ENDBRANCH   3   4
ENDBRANCH   2   3
ENDBRANCH   1   2
BRANCH   1   8
ATOM      8  C   UNL     1      -7.822   4.421 -13.051  1.00  0.00     0.000 C 
BRANCH   8   9
ATOM      9  C   UNL     1      -8.289   5.403 -14.133  1.00  0.00     0.006 C 
BRANCH   9  10
ATOM     10  C   UNL     1      -7.211   5.590 -15.206  1.00  0.00     0.053 C 
BRANCH  10  11
ATOM     11  C   UNL     1      -5.894   5.073 -14.721  1.00  0.00     0.041 C 
ATOM     12  O   UNL     1      -5.467   3.957 -15.116  1.00  0.00    -0.550 OA
ATOM     13  O   UNL     1      -5.113   5.848 -13.872  1.00  0.00    -0.550 OA
ENDBRANCH  10  11
ENDBRANCH   9  10
ENDBRANCH   8   9
ENDBRANCH   1   8
TORSDOF 8
ENDMDL
MODEL 8
REMARK VINA RESULT:    -3.934      2.271      6.600
REMARK INTER + INTRA:          -5.990
REMARK INTER:                  -5.544
REMARK INTRA:                  -0.446
REMARK UNBOUND:                -0.216
REMARK SMILES O=C([O-])CCCCCCCC(=O)[O-]
REMARK SMILES IDX 7 1 6 2 5 3 4 4 2 5 1 6 3 7 8 8 9 9 10 10 11 11 12 12 13 13
REMARK H PARENT
REMARK Flexibility Score: inf
ROOT
ATOM      1  C   UNL     1      -5.316   6.012  -9.529  1.00  0.00     0.000 C 
ENDROOT
BRANCH   1   2
ATOM      2  C   UNL     1      -5.440   6.982  -8.340  1.00  0.00     0.000 C 
BRANCH   2   3
ATOM      3  C   UNL     1      -6.618   6.700  -7.390  1.00  0.00     0.006 C 
BRANCH   3   4
ATOM      4  C   UNL     1      -7.367   5.406  -7.732  1.00  0.00     0.053 C 
BRANCH   4   5
ATOM      5  C   UNL     1      -8.843   5.647  -7.749  1.00  0.00     0.041 C 
ATOM      6  O   UNL     1      -9.492   5.531  -8.822  1.00  0.00    -0.550 OA
ATOM      7  O   UNL     1      -9.512   5.953  -6.570  1.00  0.00    -0.550 OA
ENDBRANCH   4   5
ENDBRANCH   3   4
ENDBRANCH   2   3
ENDBRANCH   1   2
BRANCH   1   8
ATOM      8  C   UNL     1      -4.905   6.712 -10.833  1.00  0.00     0.000 C 
BRANCH   8   9
ATOM      9  C   UNL     1      -5.421   5.943 -12.055  1.00  0.00     0.006 C 
BRANCH   9  10
ATOM     10  C   UNL     1      -6.905   5.596 -11.900  1.00  0.00     0.053 C 
BRANCH  10  11
ATOM     11  C   UNL     1      -7.330   4.627 -12.957  1.00  0.00     0.041 C 
ATOM     12  O   UNL     1      -8.543   4.314 -13.078  1.00  0.00    -0.550 OA
ATOM     13  O   UNL     1      -6.393   4.108 -13.841  1.00  0.00    -0.550 OA
ENDBRANCH  10  11
ENDBRANCH   9  10
ENDBRANCH   8   9
ENDBRANCH   1   8
TORSDOF 8
ENDMDL
MODEL 9
REMARK VINA RESULT:    -3.834      3.906      5.866
REMARK INTER + INTRA:          -5.842
REMARK INTER:                  -5.415
REMARK INTRA:                  -0.427
REMARK UNBOUND:                -0.216
REMARK SMILES O=C([O-])CCCCCCCC(=O)[O-]
REMARK SMILES IDX 7 1 6 2 5 3 4 4 2 5 1 6 3 7 8 8 9 9 10 10 11 11 12 12 13 13
REMARK H PARENT
REMARK Flexibility Score: inf
ROOT
ATOM      1  C   UNL     1      -6.280   5.671 -16.094  1.00  0.00     0.000 C 
ENDROOT
BRANCH   1   2
ATOM      2  C   UNL     1      -7.742   6.151 -16.039  1.00  0.00     0.000 C 
BRANCH   2   3
ATOM      3  C   UNL     1      -8.014   7.490 -16.749  1.00  0.00     0.006 C 
BRANCH   3   4
ATOM      4  C   UNL     1      -7.952   7.380 -18.278  1.00  0.00     0.053 C 
BRANCH   4   5
ATOM      5  C   UNL     1      -9.282   6.970 -18.826  1.00  0.00     0.041 C 
ATOM      6  O   UNL     1      -9.501   5.766 -19.123  1.00  0.00    -0.550 OA
ATOM      7  O   UNL     1     -10.298   7.908 -18.963  1.00  0.00    -0.550 OA
ENDBRANCH   4   5
ENDBRANCH   3   4
ENDBRANCH   2   3
ENDBRANCH   1   2
BRANCH   1   8
ATOM      8  C   UNL     1      -5.619   5.607 -14.708  1.00  0.00     0.000 C 
BRANCH   8   9
ATOM      9  C   UNL     1      -6.343   4.606 -13.801  1.00  0.00     0.006 C 
BRANCH   9  10
ATOM     10  C   UNL     1      -6.962   5.310 -12.589  1.00  0.00     0.053 C 
BRANCH  10  11
ATOM     11  C   UNL     1      -8.376   4.863 -12.389  1.00  0.00     0.041 C 
ATOM     12  O   UNL     1      -9.010   4.326 -13.334  1.00  0.00    -0.550 OA
ATOM     13  O   UNL     1      -8.976   4.993 -11.143  1.00  0.00    -0.550 OA
ENDBRANCH  10  11
ENDBRANCH   9  10
ENDBRANCH   8   9
ENDBRANCH   1   8
TORSDOF 8
ENDMDL
