MODEL 1
REMARK VINA RESULT:    -4.863      0.000      0.000
REMARK INTER + INTRA:          -4.863
REMARK INTER:                  -4.863
REMARK INTRA:                   0.000
REMARK UNBOUND:                 0.000
REMARK SMILES CC(C)=C1CC[C@@H](C)CC1=O
REMARK SMILES IDX 8 1 7 2 6 3 5 4 4 5 2 6 1 7 3 8 10 9 11 10 9 11
REMARK H PARENT
REMARK Flexibility Score: inf
ROOT
ATOM      1  C   UNL     1      -1.517   9.875   7.999  1.00  0.00     0.008 C 
ATOM      2  C   UNL     1      -2.248  11.220   8.090  1.00  0.00    -0.006 C 
ATOM      3  C   UNL     1      -3.523  11.086   8.939  1.00  0.00     0.008 C 
ATOM      4  C   UNL     1      -4.214  12.444   9.125  1.00  0.00     0.039 C 
ATOM      5  C   UNL     1      -4.464  13.158   7.803  1.00  0.00    -0.006 C 
ATOM      6  C   UNL     1      -5.544  13.975   7.631  1.00  0.00    -0.070 C 
ATOM      7  C   UNL     1      -5.833  14.644   6.307  1.00  0.00     0.039 C 
ATOM      8  C   UNL     1      -6.529  14.219   8.752  1.00  0.00     0.039 C 
ATOM      9  C   UNL     1      -3.403  13.003   6.763  1.00  0.00     0.159 C 
ATOM     10  O   UNL     1      -3.153  13.924   5.941  1.00  0.00    -0.295 OA
ATOM     11  C   UNL     1      -2.605  11.734   6.687  1.00  0.00     0.084 C 
ENDROOT
TORSDOF 0
ENDMDL
MODEL 2
REMARK VINA RESULT:    -3.039      1.504      2.398
REMARK INTER + INTRA:          -3.039
REMARK INTER:                  -3.039
REMARK INTRA:                   0.000
REMARK UNBOUND:                 0.000
REMARK SMILES CC(C)=C1CC[C@@H](C)CC1=O
REMARK SMILES IDX 8 1 7 2 6 3 5 4 4 5 2 6 1 7 3 8 10 9 11 10 9 11
REMARK H PARENT
REMARK Flexibility Score: inf
ROOT
ATOM      1  C   UNL     1      -1.390   9.939   8.363  1.00  0.00     0.008 C 
ATOM      2  C   UNL     1      -2.634  10.673   7.850  1.00  0.00    -0.006 C 
ATOM      3  C   UNL     1      -2.232  11.886   6.995  1.00  0.00     0.008 C 
ATOM      4  C   UNL     1      -3.463  12.573   6.388  1.00  0.00     0.039 C 
ATOM      5  C   UNL     1      -4.515  12.918   7.435  1.00  0.00    -0.006 C 
ATOM      6  C   UNL     1      -5.318  14.013   7.300  1.00  0.00    -0.070 C 
ATOM      7  C   UNL     1      -6.326  14.397   8.359  1.00  0.00     0.039 C 
ATOM      8  C   UNL     1      -5.208  14.922   6.097  1.00  0.00     0.039 C 
ATOM      9  C   UNL     1      -4.688  11.929   8.540  1.00  0.00     0.159 C 
ATOM     10  O   UNL     1      -5.811  11.742   9.081  1.00  0.00    -0.295 OA
ATOM     11  C   UNL     1      -3.515  11.127   9.023  1.00  0.00     0.084 C 
ENDROOT
TORSDOF 0
ENDMDL
