MODEL 1
REMARK VINA RESULT:    -2.961      0.000      0.000
REMARK INTER + INTRA:          -3.744
REMARK INTER:                  -3.654
REMARK INTRA:                  -0.090
REMARK UNBOUND:                -0.090
REMARK SMILES CCCCCC(=O)[O-]
REMARK SMILES IDX 4 1 5 2 6 3 7 4 8 5 3 6 2 7 1 8
REMARK H PARENT
REMARK Flexibility Score: inf
ROOT
ATOM      1  C   UNL     1       2.882  27.773   8.452  1.00  0.00     0.006 C 
ENDROOT
BRANCH   1   2
ATOM      2  C   UNL     1       2.361  29.094   7.877  1.00  0.00     0.053 C 
BRANCH   2   3
ATOM      3  C   UNL     1       3.009  30.255   8.562  1.00  0.00     0.041 C 
ATOM      4  O   UNL     1       2.699  30.545   9.748  1.00  0.00    -0.550 OA
ATOM      5  O   UNL     1       3.919  31.048   7.875  1.00  0.00    -0.550 OA
ENDBRANCH   2   3
ENDBRANCH   1   2
BRANCH   1   6
ATOM      6  C   UNL     1       4.377  27.594   8.146  1.00  0.00     0.000 C 
BRANCH   6   7
ATOM      7  C   UNL     1       5.256  27.723   9.400  1.00  0.00    -0.003 C 
ATOM      8  C   UNL     1       5.494  26.382  10.096  1.00  0.00     0.004 C 
ENDBRANCH   6   7
ENDBRANCH   1   6
TORSDOF 4
ENDMDL
MODEL 2
REMARK VINA RESULT:    -2.583      7.730      8.696
REMARK INTER + INTRA:          -3.277
REMARK INTER:                  -3.158
REMARK INTRA:                  -0.119
REMARK UNBOUND:                -0.090
REMARK SMILES CCCCCC(=O)[O-]
REMARK SMILES IDX 4 1 5 2 6 3 7 4 8 5 3 6 2 7 1 8
REMARK H PARENT
REMARK Flexibility Score: inf
ROOT
ATOM      1  C   UNL     1      12.019  28.115   8.544  1.00  0.00     0.006 C 
ENDROOT
BRANCH   1   2
ATOM      2  C   UNL     1      11.812  28.544  10.000  1.00  0.00     0.053 C 
BRANCH   2   3
ATOM      3  C   UNL     1      11.239  29.925  10.064  1.00  0.00     0.041 C 
ATOM      4  O   UNL     1      10.425  30.313   9.185  1.00  0.00    -0.550 OA
ATOM      5  O   UNL     1      11.643  30.799  11.063  1.00  0.00    -0.550 OA
ENDBRANCH   2   3
ENDBRANCH   1   2
BRANCH   1   6
ATOM      6  C   UNL     1      12.892  26.853   8.462  1.00  0.00     0.000 C 
BRANCH   6   7
ATOM      7  C   UNL     1      13.308  26.332   9.846  1.00  0.00    -0.003 C 
ATOM      8  C   UNL     1      14.826  26.265  10.020  1.00  0.00     0.004 C 
ENDBRANCH   6   7
ENDBRANCH   1   6
TORSDOF 4
ENDMDL
MODEL 3
REMARK VINA RESULT:    -2.423     16.148     17.799
REMARK INTER + INTRA:          -3.079
REMARK INTER:                  -2.976
REMARK INTRA:                  -0.104
REMARK UNBOUND:                -0.090
REMARK SMILES CCCCCC(=O)[O-]
REMARK SMILES IDX 4 1 5 2 6 3 7 4 8 5 3 6 2 7 1 8
REMARK H PARENT
REMARK Flexibility Score: inf
ROOT
ATOM      1  C   UNL     1      13.404  26.973  23.257  1.00  0.00     0.006 C 
ENDROOT
BRANCH   1   2
ATOM      2  C   UNL     1      14.567  26.675  22.306  1.00  0.00     0.053 C 
BRANCH   2   3
ATOM      3  C   UNL     1      14.275  27.207  20.938  1.00  0.00     0.041 C 
ATOM      4  O   UNL     1      13.548  28.225  20.796  1.00  0.00    -0.550 OA
ATOM      5  O   UNL     1      14.765  26.548  19.818  1.00  0.00    -0.550 OA
ENDBRANCH   2   3
ENDBRANCH   1   2
BRANCH   1   6
ATOM      6  C   UNL     1      13.483  26.094  24.514  1.00  0.00     0.000 C 
BRANCH   6   7
ATOM      7  C   UNL     1      14.880  25.490  24.726  1.00  0.00    -0.003 C 
ATOM      8  C   UNL     1      14.908  24.441  25.838  1.00  0.00     0.004 C 
ENDBRANCH   6   7
ENDBRANCH   1   6
TORSDOF 4
ENDMDL
MODEL 4
REMARK VINA RESULT:    -2.370     12.442     13.187
REMARK INTER + INTRA:          -3.015
REMARK INTER:                  -2.965
REMARK INTRA:                  -0.050
REMARK UNBOUND:                -0.090
REMARK SMILES CCCCCC(=O)[O-]
REMARK SMILES IDX 4 1 5 2 6 3 7 4 8 5 3 6 2 7 1 8
REMARK H PARENT
REMARK Flexibility Score: inf
ROOT
ATOM      1  C   UNL     1      -4.891  19.472  11.531  1.00  0.00     0.006 C 
ENDROOT
BRANCH   1   2
ATOM      2  C   UNL     1      -4.810  19.416  13.060  1.00  0.00     0.053 C 
BRANCH   2   3
ATOM      3  C   UNL     1      -4.315  20.718  13.606  1.00  0.00     0.041 C 
ATOM      4  O   UNL     1      -4.917  21.789  13.334  1.00  0.00    -0.550 OA
ATOM      5  O   UNL     1      -3.159  20.754  14.376  1.00  0.00    -0.550 OA
ENDBRANCH   2   3
ENDBRANCH   1   2
BRANCH   1   6
ATOM      6  C   UNL     1      -5.076  18.066  10.939  1.00  0.00     0.000 C 
BRANCH   6   7
ATOM      7  C   UNL     1      -4.333  17.884   9.607  1.00  0.00    -0.003 C 
ATOM      8  C   UNL     1      -3.908  16.435   9.361  1.00  0.00     0.004 C 
ENDBRANCH   6   7
ENDBRANCH   1   6
TORSDOF 4
ENDMDL
MODEL 5
REMARK VINA RESULT:    -2.327     14.986     16.443
REMARK INTER + INTRA:          -2.962
REMARK INTER:                  -2.825
REMARK INTRA:                  -0.136
REMARK UNBOUND:                -0.090
REMARK SMILES CCCCCC(=O)[O-]
REMARK SMILES IDX 4 1 5 2 6 3 7 4 8 5 3 6 2 7 1 8
REMARK H PARENT
REMARK Flexibility Score: inf
ROOT
ATOM      1  C   UNL     1      14.001  27.002  21.063  1.00  0.00     0.006 C 
ENDROOT
BRANCH   1   2
ATOM      2  C   UNL     1      14.396  28.418  20.632  1.00  0.00     0.053 C 
BRANCH   2   3
ATOM      3  C   UNL     1      13.191  29.304  20.578  1.00  0.00     0.041 C 
ATOM      4  O   UNL     1      12.745  29.699  19.468  1.00  0.00    -0.550 OA
ATOM      5  O   UNL     1      12.592  29.735  21.754  1.00  0.00    -0.550 OA
ENDBRANCH   2   3
ENDBRANCH   1   2
BRANCH   1   6
ATOM      6  C   UNL     1      14.492  26.706  22.489  1.00  0.00     0.000 C 
BRANCH   6   7
ATOM      7  C   UNL     1      13.362  26.773  23.528  1.00  0.00    -0.003 C 
ATOM      8  C   UNL     1      13.647  25.923  24.767  1.00  0.00     0.004 C 
ENDBRANCH   6   7
ENDBRANCH   1   6
TORSDOF 4
ENDMDL
MODEL 6
REMARK VINA RESULT:    -2.307      2.659      4.094
REMARK INTER + INTRA:          -2.937
REMARK INTER:                  -3.010
REMARK INTRA:                   0.073
REMARK UNBOUND:                -0.090
REMARK SMILES CCCCCC(=O)[O-]
REMARK SMILES IDX 4 1 5 2 6 3 7 4 8 5 3 6 2 7 1 8
REMARK H PARENT
REMARK Flexibility Score: inf
ROOT
ATOM      1  C   UNL     1       3.109  27.621   8.343  1.00  0.00     0.006 C 
ENDROOT
BRANCH   1   2
ATOM      2  C   UNL     1       4.343  27.969   9.182  1.00  0.00     0.053 C 
BRANCH   2   3
ATOM      3  C   UNL     1       5.345  26.860   9.125  1.00  0.00     0.041 C 
ATOM      4  O   UNL     1       5.781  26.457   8.015  1.00  0.00    -0.550 OA
ATOM      5  O   UNL     1       5.758  26.236  10.295  1.00  0.00    -0.550 OA
ENDBRANCH   2   3
ENDBRANCH   1   2
BRANCH   1   6
ATOM      6  C   UNL     1       2.384  28.894   7.879  1.00  0.00     0.000 C 
BRANCH   6   7
ATOM      7  C   UNL     1       2.507  30.045   8.889  1.00  0.00    -0.003 C 
ATOM      8  C   UNL     1       3.492  31.125   8.438  1.00  0.00     0.004 C 
ENDBRANCH   6   7
ENDBRANCH   1   6
TORSDOF 4
ENDMDL
MODEL 7
REMARK VINA RESULT:    -2.305     15.760     17.296
REMARK INTER + INTRA:          -2.934
REMARK INTER:                  -2.732
REMARK INTRA:                  -0.202
REMARK UNBOUND:                -0.090
REMARK SMILES CCCCCC(=O)[O-]
REMARK SMILES IDX 4 1 5 2 6 3 7 4 8 5 3 6 2 7 1 8
REMARK H PARENT
REMARK Flexibility Score: inf
ROOT
ATOM      1  C   UNL     1      14.438  26.984  22.630  1.00  0.00     0.006 C 
ENDROOT
BRANCH   1   2
ATOM      2  C   UNL     1      13.252  26.783  23.578  1.00  0.00     0.053 C 
BRANCH   2   3
ATOM      3  C   UNL     1      12.919  28.062  24.279  1.00  0.00     0.041 C 
ATOM      4  O   UNL     1      12.109  28.876  23.761  1.00  0.00    -0.550 OA
ATOM      5  O   UNL     1      13.540  28.379  25.480  1.00  0.00    -0.550 OA
ENDBRANCH   2   3
ENDBRANCH   1   2
BRANCH   1   6
ATOM      6  C   UNL     1      13.996  26.868  21.163  1.00  0.00     0.000 C 
BRANCH   6   7
ATOM      7  C   UNL     1      14.335  28.122  20.343  1.00  0.00    -0.003 C 
ATOM      8  C   UNL     1      13.262  29.207  20.451  1.00  0.00     0.004 C 
ENDBRANCH   6   7
ENDBRANCH   1   6
TORSDOF 4
ENDMDL
MODEL 8
REMARK VINA RESULT:    -2.283     15.946     16.886
REMARK INTER + INTRA:          -2.907
REMARK INTER:                  -2.699
REMARK INTRA:                  -0.208
REMARK UNBOUND:                -0.090
REMARK SMILES CCCCCC(=O)[O-]
REMARK SMILES IDX 4 1 5 2 6 3 7 4 8 5 3 6 2 7 1 8
REMARK H PARENT
REMARK Flexibility Score: inf
ROOT
ATOM      1  C   UNL     1      -1.573  12.832  11.257  1.00  0.00     0.006 C 
ENDROOT
BRANCH   1   2
ATOM      2  C   UNL     1      -1.253  14.123  10.499  1.00  0.00     0.053 C 
BRANCH   2   3
ATOM      3  C   UNL     1      -2.459  14.610   9.760  1.00  0.00     0.041 C 
ATOM      4  O   UNL     1      -2.349  15.521   8.897  1.00  0.00    -0.550 OA
ATOM      5  O   UNL     1      -3.712  14.093  10.059  1.00  0.00    -0.550 OA
ENDBRANCH   2   3
ENDBRANCH   1   2
BRANCH   1   6
ATOM      6  C   UNL     1      -0.690  11.673  10.766  1.00  0.00     0.000 C 
BRANCH   6   7
ATOM      7  C   UNL     1      -1.105  11.162   9.378  1.00  0.00    -0.003 C 
ATOM      8  C   UNL     1      -2.604  10.875   9.277  1.00  0.00     0.004 C 
ENDBRANCH   6   7
ENDBRANCH   1   6
TORSDOF 4
ENDMDL
