MODEL 1
REMARK VINA RESULT:    -3.349      0.000      0.000
REMARK INTER + INTRA:          -5.137
REMARK INTER:                  -5.111
REMARK INTRA:                  -0.026
REMARK UNBOUND:                -0.026
REMARK SMILES CC1=CCC[C@H](C)C(=O)C[C@@H](C(C)C)C(=O)C1
REMARK SMILES IDX 8 1 9 2 6 3 7 4 5 5 4 6 3 7 2 8 1 9 10 11 11 12 15 13 16 14
REMARK SMILES IDX 17 15 12 17 13 18 14 19
REMARK H PARENT
REMARK Flexibility Score: 70.00
ROOT
ATOM      1  C   UNL     1      22.995  28.986  29.631  1.00  0.00     0.136 C 
ATOM      2  O   UNL     1      22.327  28.727  28.640  1.00  0.00    -0.299 OA
ENDROOT
BRANCH   1   3
ATOM      3  C   UNL     1      24.464  28.600  29.687  1.00  0.00     0.053 C 
ATOM      4  C   UNL     1      25.079  28.430  28.289  1.00  0.00     0.016 C 
BRANCH   3   5
ATOM      5  C   UNL     1      25.275  29.594  30.545  1.00  0.00     0.015 C 
BRANCH   5   6
ATOM      6  C   UNL     1      25.854  30.778  29.746  1.00  0.00     0.028 C 
BRANCH   6   7
ATOM      7  C   UNL     1      26.045  31.979  30.636  1.00  0.00    -0.028 C 
ATOM      8  C   UNL     1      25.096  32.914  30.881  1.00  0.00    -0.070 CG0
ATOM      9  C   UNL     1      25.427  34.019  31.852  1.00  0.00     0.039 C 
ATOM     10  G   UNL     1      23.731  32.907  30.209  1.00  0.00     0.000 G0
ENDBRANCH   6   7
ENDBRANCH   5   6
ENDBRANCH   3   5
ENDBRANCH   1   3
BRANCH   1  11
ATOM     11  C   UNL     1      22.336  29.697  30.790  1.00  0.00     0.087 C 
BRANCH  11  12
ATOM     12  C   UNL     1      21.815  31.103  30.394  1.00  0.00     0.066 C 
BRANCH  12  13
ATOM     13  C   UNL     1      22.660  32.204  31.019  1.00  0.00     0.140 C 
ATOM     14  O   UNL     1      22.442  32.561  32.168  1.00  0.00    -0.299 OA
BRANCH  13  15
ATOM     15  C   UNL     1      23.722  32.916  30.216  1.00  0.00     0.106 CG0
ATOM     16  G   UNL     1      25.082  32.890  30.898  1.00  0.00     0.000 G0
ENDBRANCH  13  15
ENDBRANCH  12  13
BRANCH  12  17
ATOM     17  C   UNL     1      20.294  31.268  30.697  1.00  0.00    -0.006 C 
ATOM     18  C   UNL     1      19.554  32.202  29.723  1.00  0.00     0.008 C 
ATOM     19  C   UNL     1      19.583  29.907  30.766  1.00  0.00     0.008 C 
ENDBRANCH  12  17
ENDBRANCH  11  12
ENDBRANCH   1  11
TORSDOF 1
ENDMDL
MODEL 2
REMARK VINA RESULT:    -3.333      3.433      5.611
REMARK INTER + INTRA:          -5.112
REMARK INTER:                  -5.129
REMARK INTRA:                   0.016
REMARK UNBOUND:                -0.026
REMARK SMILES CC1=CCC[C@H](C)C(=O)C[C@@H](C(C)C)C(=O)C1
REMARK SMILES IDX 8 1 9 2 6 3 7 4 5 5 4 6 3 7 2 8 1 9 10 11 11 12 15 13 16 14
REMARK SMILES IDX 17 15 12 17 13 18 14 19
REMARK H PARENT
REMARK Flexibility Score: 70.00
ROOT
ATOM      1  C   UNL     1      19.973  33.506  30.081  1.00  0.00     0.136 C 
ATOM      2  O   UNL     1      20.976  33.535  29.383  1.00  0.00    -0.299 OA
ENDROOT
BRANCH   1   3
ATOM      3  C   UNL     1      20.043  33.919  31.542  1.00  0.00     0.053 C 
ATOM      4  C   UNL     1      18.662  33.930  32.215  1.00  0.00     0.016 C 
BRANCH   3   5
ATOM      5  C   UNL     1      21.048  33.049  32.325  1.00  0.00     0.015 C 
BRANCH   5   6
ATOM      6  C   UNL     1      20.511  31.650  32.686  1.00  0.00     0.028 C 
BRANCH   6   7
ATOM      7  C   UNL     1      21.321  30.576  32.007  1.00  0.00    -0.028 C 
ATOM      8  C   UNL     1      20.819  29.667  31.137  1.00  0.00    -0.070 CG0
ATOM      9  C   UNL     1      21.781  28.701  30.493  1.00  0.00     0.039 C 
ATOM     10  G   UNL     1      19.338  29.568  30.804  1.00  0.00     0.000 G0
ENDBRANCH   6   7
ENDBRANCH   5   6
ENDBRANCH   3   5
ENDBRANCH   1   3
BRANCH   1  11
ATOM     11  C   UNL     1      18.668  33.059  29.464  1.00  0.00     0.087 C 
BRANCH  11  12
ATOM     12  C   UNL     1      18.100  31.790  30.152  1.00  0.00     0.066 C 
BRANCH  12  13
ATOM     13  C   UNL     1      18.877  30.545  29.750  1.00  0.00     0.140 C 
ATOM     14  O   UNL     1      19.098  30.320  28.569  1.00  0.00    -0.299 OA
BRANCH  13  15
ATOM     15  C   UNL     1      19.320  29.541  30.787  1.00  0.00     0.106 CG0
ATOM     16  G   UNL     1      20.798  29.669  31.126  1.00  0.00     0.000 G0
ENDBRANCH  13  15
ENDBRANCH  12  13
BRANCH  12  17
ATOM     17  C   UNL     1      16.564  31.640  29.921  1.00  0.00    -0.006 C 
ATOM     18  C   UNL     1      15.754  31.390  31.205  1.00  0.00     0.008 C 
ATOM     19  C   UNL     1      15.989  32.846  29.161  1.00  0.00     0.008 C 
ENDBRANCH  12  17
ENDBRANCH  11  12
ENDBRANCH   1  11
TORSDOF 1
ENDMDL
MODEL 3
REMARK VINA RESULT:    -3.296      1.839      4.271
REMARK INTER + INTRA:          -5.056
REMARK INTER:                  -4.789
REMARK INTRA:                  -0.268
REMARK UNBOUND:                -0.026
REMARK SMILES CC1=CCC[C@H](C)C(=O)C[C@@H](C(C)C)C(=O)C1
REMARK SMILES IDX 8 1 9 2 6 3 7 4 5 5 4 6 3 7 2 8 1 9 10 11 11 12 15 13 16 14
REMARK SMILES IDX 17 15 12 17 13 18 14 19
REMARK H PARENT
REMARK Flexibility Score: 70.00
ROOT
ATOM      1  C   UNL     1      24.381  29.566  30.025  1.00  0.00     0.136 C 
ATOM      2  O   UNL     1      24.971  28.499  30.124  1.00  0.00    -0.299 OA
ENDROOT
BRANCH   1   3
ATOM      3  C   UNL     1      22.871  29.625  30.186  1.00  0.00     0.053 C 
ATOM      4  C   UNL     1      22.138  28.736  29.168  1.00  0.00     0.016 C 
BRANCH   3   5
ATOM      5  C   UNL     1      22.445  29.298  31.633  1.00  0.00     0.015 C 
BRANCH   5   6
ATOM      6  C   UNL     1      22.319  30.538  32.539  1.00  0.00     0.028 C 
BRANCH   6   7
ATOM      7  C   UNL     1      21.656  31.673  31.802  1.00  0.00    -0.028 C 
ATOM      8  C   UNL     1      22.240  32.866  31.538  1.00  0.00    -0.070 CG0
ATOM      9  C   UNL     1      21.460  33.871  30.729  1.00  0.00     0.039 C 
ATOM     10  G   UNL     1      23.628  33.238  32.038  1.00  0.00     0.000 G0
ENDBRANCH   6   7
ENDBRANCH   5   6
ENDBRANCH   3   5
ENDBRANCH   1   3
BRANCH   1  11
ATOM     11  C   UNL     1      25.180  30.817  29.747  1.00  0.00     0.087 C 
BRANCH  11  12
ATOM     12  C   UNL     1      25.466  31.629  31.037  1.00  0.00     0.066 C 
BRANCH  12  13
ATOM     13  C   UNL     1      24.724  32.958  31.033  1.00  0.00     0.140 C 
ATOM     14  O   UNL     1      25.049  33.835  30.244  1.00  0.00    -0.299 OA
BRANCH  13  15
ATOM     15  C   UNL     1      23.634  33.239  32.039  1.00  0.00     0.106 CG0
ATOM     16  G   UNL     1      22.254  32.860  31.522  1.00  0.00     0.000 G0
ENDBRANCH  13  15
ENDBRANCH  12  13
BRANCH  12  17
ATOM     17  C   UNL     1      26.995  31.796  31.295  1.00  0.00    -0.006 C 
ATOM     18  C   UNL     1      27.521  31.006  32.506  1.00  0.00     0.008 C 
ATOM     19  C   UNL     1      27.817  31.453  30.042  1.00  0.00     0.008 C 
ENDBRANCH  12  17
ENDBRANCH  11  12
ENDBRANCH   1  11
TORSDOF 1
ENDMDL
MODEL 4
REMARK VINA RESULT:    -3.288      5.879      7.835
REMARK INTER + INTRA:          -5.044
REMARK INTER:                  -4.974
REMARK INTRA:                  -0.070
REMARK UNBOUND:                -0.026
REMARK SMILES CC1=CCC[C@H](C)C(=O)C[C@@H](C(C)C)C(=O)C1
REMARK SMILES IDX 8 1 9 2 6 3 7 4 5 5 4 6 3 7 2 8 1 9 10 11 11 12 15 13 16 14
REMARK SMILES IDX 17 15 12 17 13 18 14 19
REMARK H PARENT
REMARK Flexibility Score: 70.00
ROOT
ATOM      1  C   UNL     1      29.071  31.371  29.119  1.00  0.00     0.136 C 
ATOM      2  O   UNL     1      28.006  30.842  28.835  1.00  0.00    -0.299 OA
ENDROOT
BRANCH   1   3
ATOM      3  C   UNL     1      29.741  32.321  28.140  1.00  0.00     0.053 C 
ATOM      4  C   UNL     1      29.207  33.758  28.259  1.00  0.00     0.016 C 
BRANCH   3   5
ATOM      5  C   UNL     1      31.277  32.276  28.271  1.00  0.00     0.015 C 
BRANCH   5   6
ATOM      6  C   UNL     1      31.902  33.607  28.733  1.00  0.00     0.028 C 
BRANCH   6   7
ATOM      7  C   UNL     1      33.138  33.358  29.559  1.00  0.00    -0.028 C 
ATOM      8  C   UNL     1      33.170  33.351  30.913  1.00  0.00    -0.070 CG0
ATOM      9  C   UNL     1      34.477  33.017  31.587  1.00  0.00     0.039 C 
ATOM     10  G   UNL     1      31.959  33.684  31.773  1.00  0.00     0.000 G0
ENDBRANCH   6   7
ENDBRANCH   5   6
ENDBRANCH   3   5
ENDBRANCH   1   3
BRANCH   1  11
ATOM     11  C   UNL     1      29.703  31.067  30.458  1.00  0.00     0.087 C 
BRANCH  11  12
ATOM     12  C   UNL     1      29.732  32.308  31.387  1.00  0.00     0.066 C 
BRANCH  12  13
ATOM     13  C   UNL     1      31.089  32.469  32.057  1.00  0.00     0.140 C 
ATOM     14  O   UNL     1      31.468  31.640  32.873  1.00  0.00    -0.299 OA
BRANCH  13  15
ATOM     15  C   UNL     1      31.950  33.678  31.781  1.00  0.00     0.106 CG0
ATOM     16  G   UNL     1      33.151  33.349  30.906  1.00  0.00     0.000 G0
ENDBRANCH  13  15
ENDBRANCH  12  13
BRANCH  12  17
ATOM     17  C   UNL     1      28.555  32.298  32.411  1.00  0.00    -0.006 C 
ATOM     18  C   UNL     1      27.247  32.905  31.874  1.00  0.00     0.008 C 
ATOM     19  C   UNL     1      28.297  30.885  32.958  1.00  0.00     0.008 C 
ENDBRANCH  12  17
ENDBRANCH  11  12
ENDBRANCH   1  11
TORSDOF 1
ENDMDL
MODEL 5
REMARK VINA RESULT:    -3.157      2.352      4.562
REMARK INTER + INTRA:          -4.844
REMARK INTER:                  -4.927
REMARK INTRA:                   0.083
REMARK UNBOUND:                -0.026
REMARK SMILES CC1=CCC[C@H](C)C(=O)C[C@@H](C(C)C)C(=O)C1
REMARK SMILES IDX 8 1 9 2 6 3 7 4 5 5 4 6 3 7 2 8 1 9 10 11 11 12 15 13 16 14
REMARK SMILES IDX 17 15 12 17 13 18 14 19
REMARK H PARENT
REMARK Flexibility Score: 70.00
ROOT
ATOM      1  C   UNL     1      21.467  33.536  30.020  1.00  0.00     0.136 C 
ATOM      2  O   UNL     1      22.450  33.563  29.294  1.00  0.00    -0.299 OA
ENDROOT
BRANCH   1   3
ATOM      3  C   UNL     1      21.582  33.939  31.481  1.00  0.00     0.053 C 
ATOM      4  C   UNL     1      20.263  33.749  32.247  1.00  0.00     0.016 C 
BRANCH   3   5
ATOM      5  C   UNL     1      22.751  33.209  32.177  1.00  0.00     0.015 C 
BRANCH   5   6
ATOM      6  C   UNL     1      22.401  31.784  32.649  1.00  0.00     0.028 C 
BRANCH   6   7
ATOM      7  C   UNL     1      23.106  30.755  31.804  1.00  0.00    -0.028 C 
ATOM      8  C   UNL     1      22.483  29.867  30.993  1.00  0.00    -0.070 CG0
ATOM      9  C   UNL     1      23.341  28.947  30.161  1.00  0.00     0.039 C 
ATOM     10  G   UNL     1      20.969  29.747  30.902  1.00  0.00     0.000 G0
ENDBRANCH   6   7
ENDBRANCH   5   6
ENDBRANCH   3   5
ENDBRANCH   1   3
BRANCH   1  11
ATOM     11  C   UNL     1      20.142  33.102  29.439  1.00  0.00     0.087 C 
BRANCH  11  12
ATOM     12  C   UNL     1      19.572  31.849  30.153  1.00  0.00     0.066 C 
BRANCH  12  13
ATOM     13  C   UNL     1      20.372  30.600  29.808  1.00  0.00     0.140 C 
ATOM     14  O   UNL     1      20.494  30.258  28.641  1.00  0.00    -0.299 OA
BRANCH  13  15
ATOM     15  C   UNL     1      20.962  29.735  30.895  1.00  0.00     0.106 CG0
ATOM     16  G   UNL     1      22.475  29.865  30.986  1.00  0.00     0.000 G0
ENDBRANCH  13  15
ENDBRANCH  12  13
BRANCH  12  17
ATOM     17  C   UNL     1      18.044  31.673  29.891  1.00  0.00    -0.006 C 
ATOM     18  C   UNL     1      17.264  31.081  31.079  1.00  0.00     0.008 C 
ATOM     19  C   UNL     1      17.396  32.991  29.438  1.00  0.00     0.008 C 
ENDBRANCH  12  17
ENDBRANCH  11  12
ENDBRANCH   1  11
TORSDOF 1
ENDMDL
MODEL 6
REMARK VINA RESULT:    -3.089      4.089      5.766
REMARK INTER + INTRA:          -4.740
REMARK INTER:                  -4.655
REMARK INTRA:                  -0.086
REMARK UNBOUND:                -0.026
REMARK SMILES CC1=CCC[C@H](C)C(=O)C[C@@H](C(C)C)C(=O)C1
REMARK SMILES IDX 8 1 9 2 6 3 7 4 5 5 4 6 3 7 2 8 1 9 10 11 11 12 15 13 16 14
REMARK SMILES IDX 17 15 12 17 13 18 14 19
REMARK H PARENT
REMARK Flexibility Score: 70.00
ROOT
ATOM      1  C   UNL     1      18.838  31.264  29.107  1.00  0.00     0.136 C 
ATOM      2  O   UNL     1      19.770  30.556  28.754  1.00  0.00    -0.299 OA
ENDROOT
BRANCH   1   3
ATOM      3  C   UNL     1      19.016  32.769  29.215  1.00  0.00     0.053 C 
ATOM      4  C   UNL     1      17.722  33.485  29.634  1.00  0.00     0.016 C 
BRANCH   3   5
ATOM      5  C   UNL     1      20.191  33.131  30.148  1.00  0.00     0.015 C 
BRANCH   5   6
ATOM      6  C   UNL     1      19.955  32.749  31.622  1.00  0.00     0.028 C 
BRANCH   6   7
ATOM      7  C   UNL     1      20.817  31.576  32.013  1.00  0.00    -0.028 C 
ATOM      8  C   UNL     1      20.349  30.417  32.536  1.00  0.00    -0.070 CG0
ATOM      9  C   UNL     1      21.340  29.315  32.809  1.00  0.00     0.039 C 
ATOM     10  G   UNL     1      18.882  30.193  32.874  1.00  0.00     0.000 G0
ENDBRANCH   6   7
ENDBRANCH   5   6
ENDBRANCH   3   5
ENDBRANCH   1   3
BRANCH   1  11
ATOM     11  C   UNL     1      17.510  30.616  29.425  1.00  0.00     0.087 C 
BRANCH  11  12
ATOM     12  C   UNL     1      17.184  30.665  30.941  1.00  0.00     0.066 C 
BRANCH  12  13
ATOM     13  C   UNL     1      18.056  29.698  31.728  1.00  0.00     0.140 C 
ATOM     14  O   UNL     1      18.051  28.507  31.450  1.00  0.00    -0.299 OA
BRANCH  13  15
ATOM     15  C   UNL     1      18.880  30.177  32.899  1.00  0.00     0.106 CG0
ATOM     16  G   UNL     1      20.332  30.433  32.523  1.00  0.00     0.000 G0
ENDBRANCH  13  15
ENDBRANCH  12  13
BRANCH  12  17
ATOM     17  C   UNL     1      15.662  30.461  31.216  1.00  0.00    -0.006 C 
ATOM     18  C   UNL     1      14.907  31.753  31.574  1.00  0.00     0.008 C 
ATOM     19  C   UNL     1      14.968  29.751  30.043  1.00  0.00     0.008 C 
ENDBRANCH  12  17
ENDBRANCH  11  12
ENDBRANCH   1  11
TORSDOF 1
ENDMDL
MODEL 7
REMARK VINA RESULT:    -2.960      2.191      4.695
REMARK INTER + INTRA:          -4.544
REMARK INTER:                  -4.596
REMARK INTRA:                   0.052
REMARK UNBOUND:                -0.026
REMARK SMILES CC1=CCC[C@H](C)C(=O)C[C@@H](C(C)C)C(=O)C1
REMARK SMILES IDX 8 1 9 2 6 3 7 4 5 5 4 6 3 7 2 8 1 9 10 11 11 12 15 13 16 14
REMARK SMILES IDX 17 15 12 17 13 18 14 19
REMARK H PARENT
REMARK Flexibility Score: 70.00
ROOT
ATOM      1  C   UNL     1      23.068  30.163  32.845  1.00  0.00     0.136 C 
ATOM      2  O   UNL     1      23.514  29.049  33.081  1.00  0.00    -0.299 OA
ENDROOT
BRANCH   1   3
ATOM      3  C   UNL     1      21.601  30.342  32.490  1.00  0.00     0.053 C 
ATOM      4  C   UNL     1      21.188  31.821  32.430  1.00  0.00     0.016 C 
BRANCH   3   5
ATOM      5  C   UNL     1      21.242  29.601  31.185  1.00  0.00     0.015 C 
BRANCH   5   6
ATOM      6  C   UNL     1      22.106  30.015  29.977  1.00  0.00     0.028 C 
BRANCH   6   7
ATOM      7  C   UNL     1      22.959  28.862  29.512  1.00  0.00    -0.028 C 
ATOM      8  C   UNL     1      24.297  28.927  29.311  1.00  0.00    -0.070 CG0
ATOM      9  C   UNL     1      25.012  27.662  28.909  1.00  0.00     0.039 C 
ATOM     10  G   UNL     1      25.096  30.214  29.452  1.00  0.00     0.000 G0
ENDBRANCH   6   7
ENDBRANCH   5   6
ENDBRANCH   3   5
ENDBRANCH   1   3
BRANCH   1  11
ATOM     11  C   UNL     1      23.998  31.352  32.918  1.00  0.00     0.087 C 
BRANCH  11  12
ATOM     12  C   UNL     1      24.551  31.749  31.525  1.00  0.00     0.066 C 
BRANCH  12  13
ATOM     13  C   UNL     1      25.344  30.612  30.897  1.00  0.00     0.140 C 
ATOM     14  O   UNL     1      26.217  30.049  31.543  1.00  0.00    -0.299 OA
BRANCH  13  15
ATOM     15  C   UNL     1      25.118  30.211  29.460  1.00  0.00     0.106 CG0
ATOM     16  G   UNL     1      24.301  28.933  29.334  1.00  0.00     0.000 G0
ENDBRANCH  13  15
ENDBRANCH  12  13
BRANCH  12  17
ATOM     17  C   UNL     1      25.355  33.085  31.576  1.00  0.00    -0.006 C 
ATOM     18  C   UNL     1      25.249  33.935  30.298  1.00  0.00     0.008 C 
ATOM     19  C   UNL     1      24.971  33.926  32.804  1.00  0.00     0.008 C 
ENDBRANCH  12  17
ENDBRANCH  11  12
ENDBRANCH   1  11
TORSDOF 1
ENDMDL
MODEL 8
REMARK VINA RESULT:    -2.940      1.757      2.671
REMARK INTER + INTRA:          -4.513
REMARK INTER:                  -4.426
REMARK INTRA:                  -0.087
REMARK UNBOUND:                -0.026
REMARK SMILES CC1=CCC[C@H](C)C(=O)C[C@@H](C(C)C)C(=O)C1
REMARK SMILES IDX 8 1 9 2 6 3 7 4 5 5 4 6 3 7 2 8 1 9 10 11 11 12 15 13 16 14
REMARK SMILES IDX 17 15 12 17 13 18 14 19
REMARK H PARENT
REMARK Flexibility Score: 70.00
ROOT
ATOM      1  C   UNL     1      22.330  29.491  31.870  1.00  0.00     0.136 C 
ATOM      2  O   UNL     1      23.001  28.876  32.687  1.00  0.00    -0.299 OA
ENDROOT
BRANCH   1   3
ATOM      3  C   UNL     1      22.007  28.870  30.520  1.00  0.00     0.053 C 
ATOM      4  C   UNL     1      21.119  29.777  29.655  1.00  0.00     0.016 C 
BRANCH   3   5
ATOM      5  C   UNL     1      23.290  28.453  29.771  1.00  0.00     0.015 C 
BRANCH   5   6
ATOM      6  C   UNL     1      24.195  29.637  29.380  1.00  0.00     0.028 C 
BRANCH   6   7
ATOM      7  C   UNL     1      25.433  29.669  30.240  1.00  0.00    -0.028 C 
ATOM      8  C   UNL     1      25.844  30.740  30.960  1.00  0.00    -0.070 CG0
ATOM      9  C   UNL     1      27.070  30.583  31.822  1.00  0.00     0.039 C 
ATOM     10  G   UNL     1      25.137  32.087  30.918  1.00  0.00     0.000 G0
ENDBRANCH   6   7
ENDBRANCH   5   6
ENDBRANCH   3   5
ENDBRANCH   1   3
BRANCH   1  11
ATOM     11  C   UNL     1      21.826  30.869  32.228  1.00  0.00     0.087 C 
BRANCH  11  12
ATOM     12  C   UNL     1      22.550  31.983  31.429  1.00  0.00     0.066 C 
BRANCH  12  13
ATOM     13  C   UNL     1      23.985  32.166  31.905  1.00  0.00     0.140 C 
ATOM     14  O   UNL     1      24.208  32.427  33.078  1.00  0.00    -0.299 OA
BRANCH  13  15
ATOM     15  C   UNL     1      25.137  32.098  30.933  1.00  0.00     0.106 CG0
ATOM     16  G   UNL     1      25.852  30.756  30.970  1.00  0.00     0.000 G0
ENDBRANCH  13  15
ENDBRANCH  12  13
BRANCH  12  17
ATOM     17  C   UNL     1      21.744  33.319  31.428  1.00  0.00    -0.006 C 
ATOM     18  C   UNL     1      21.623  33.982  30.045  1.00  0.00     0.008 C 
ATOM     19  C   UNL     1      20.350  33.135  32.049  1.00  0.00     0.008 C 
ENDBRANCH  12  17
ENDBRANCH  11  12
ENDBRANCH   1  11
TORSDOF 1
ENDMDL
MODEL 9
REMARK VINA RESULT:    -2.613      2.484      3.361
REMARK INTER + INTRA:          -4.014
REMARK INTER:                  -4.533
REMARK INTRA:                   0.519
REMARK UNBOUND:                -0.026
REMARK SMILES CC1=CCC[C@H](C)C(=O)C[C@@H](C(C)C)C(=O)C1
REMARK SMILES IDX 8 1 9 2 6 3 7 4 5 5 4 6 3 7 2 8 1 9 10 11 11 12 15 13 16 14
REMARK SMILES IDX 17 15 12 17 13 18 14 19
REMARK H PARENT
REMARK Flexibility Score: 70.00
ROOT
ATOM      1  C   UNL     1      21.378  29.411  30.553  1.00  0.00     0.136 C 
ATOM      2  O   UNL     1      21.283  28.192  30.575  1.00  0.00    -0.299 OA
ENDROOT
BRANCH   1   3
ATOM      3  C   UNL     1      22.080  30.145  31.683  1.00  0.00     0.053 C 
ATOM      4  C   UNL     1      22.170  29.300  32.964  1.00  0.00     0.016 C 
BRANCH   3   5
ATOM      5  C   UNL     1      23.468  30.659  31.246  1.00  0.00     0.015 C 
BRANCH   5   6
ATOM      6  C   UNL     1      23.474  32.135  30.804  1.00  0.00     0.028 C 
BRANCH   6   7
ATOM      7  C   UNL     1      22.468  32.932  31.593  1.00  0.00    -0.028 C 
ATOM      8  C   UNL     1      21.249  33.305  31.133  1.00  0.00    -0.070 CG0
ATOM      9  C   UNL     1      20.334  34.042  32.077  1.00  0.00     0.039 C 
ATOM     10  G   UNL     1      20.779  33.030  29.712  1.00  0.00     0.000 G0
ENDBRANCH   6   7
ENDBRANCH   5   6
ENDBRANCH   3   5
ENDBRANCH   1   3
BRANCH   1  11
ATOM     11  C   UNL     1      20.792  30.167  29.384  1.00  0.00     0.087 C 
BRANCH  11  12
ATOM     12  C   UNL     1      19.413  30.790  29.722  1.00  0.00     0.066 C 
BRANCH  12  13
ATOM     13  C   UNL     1      19.457  32.310  29.652  1.00  0.00     0.140 C 
ATOM     14  O   UNL     1      18.422  32.943  29.496  1.00  0.00    -0.299 OA
BRANCH  13  15
ATOM     15  C   UNL     1      20.772  33.049  29.702  1.00  0.00     0.106 CG0
ATOM     16  G   UNL     1      21.244  33.301  31.126  1.00  0.00     0.000 G0
ENDBRANCH  13  15
ENDBRANCH  12  13
BRANCH  12  17
ATOM     17  C   UNL     1      18.856  30.268  31.083  1.00  0.00    -0.006 C 
ATOM     18  C   UNL     1      18.104  31.329  31.906  1.00  0.00     0.008 C 
ATOM     19  C   UNL     1      17.971  29.026  30.890  1.00  0.00     0.008 C 
ENDBRANCH  12  17
ENDBRANCH  11  12
ENDBRANCH   1  11
TORSDOF 1
ENDMDL
