MODEL 1
REMARK VINA RESULT:    -4.377      0.000      0.000
REMARK INTER + INTRA:         -17.061
REMARK INTER:                 -11.542
REMARK INTRA:                  -5.519
REMARK UNBOUND:                -5.519
REMARK SMILES CCCCCCCCCCCCCCCCCCCCCCCCCCCCCC(=O)[O-]
REMARK SMILES IDX 16 1 17 2 18 3 19 4 20 5 21 6 22 7 23 8 24 9 25 10 26 11
REMARK SMILES IDX 27 12 28 13 29 14 30 15 31 16 32 17 15 18 14 19 13 20 12 21
REMARK SMILES IDX 11 22 10 23 9 24 8 25 7 26 6 27 5 28 4 29 3 30 2 31 1 32
REMARK H PARENT
REMARK Flexibility Score: inf
ROOT
ATOM      1  C   UNL     1      47.534   1.916  21.951  1.00  0.00     0.000 C 
ENDROOT
BRANCH   1   2
ATOM      2  C   UNL     1      47.236   0.527  21.360  1.00  0.00     0.000 C 
BRANCH   2   3
ATOM      3  C   UNL     1      48.490  -0.162  20.801  1.00  0.00     0.000 C 
BRANCH   3   4
ATOM      4  C   UNL     1      49.690  -0.081  21.760  1.00  0.00     0.000 C 
BRANCH   4   5
ATOM      5  C   UNL     1      50.935  -0.734  21.139  1.00  0.00     0.000 C 
BRANCH   5   6
ATOM      6  C   UNL     1      50.694  -1.206  19.690  1.00  0.00     0.000 C 
BRANCH   6   7
ATOM      7  C   UNL     1      51.891  -0.972  18.752  1.00  0.00     0.000 C 
BRANCH   7   8
ATOM      8  C   UNL     1      52.685   0.298  19.098  1.00  0.00     0.000 C 
BRANCH   8   9
ATOM      9  C   UNL     1      51.991   1.580  18.615  1.00  0.00     0.000 C 
BRANCH   9  10
ATOM     10  C   UNL     1      51.660   2.541  19.770  1.00  0.00     0.000 C 
BRANCH  10  11
ATOM     11  C   UNL     1      50.267   3.175  19.623  1.00  0.00     0.000 C 
BRANCH  11  12
ATOM     12  C   UNL     1      49.392   2.436  18.595  1.00  0.00     0.000 C 
BRANCH  12  13
ATOM     13  C   UNL     1      48.039   3.132  18.357  1.00  0.00     0.006 C 
BRANCH  13  14
ATOM     14  C   UNL     1      46.863   2.165  18.142  1.00  0.00     0.053 C 
BRANCH  14  15
ATOM     15  C   UNL     1      46.132   2.429  16.862  1.00  0.00     0.041 C 
ATOM     16  O   UNL     1      45.067   1.809  16.599  1.00  0.00    -0.550 OA
ATOM     17  O   UNL     1      46.621   3.367  15.961  1.00  0.00    -0.550 OA
ENDBRANCH  14  15
ENDBRANCH  13  14
ENDBRANCH  12  13
ENDBRANCH  11  12
ENDBRANCH  10  11
ENDBRANCH   9  10
ENDBRANCH   8   9
ENDBRANCH   7   8
ENDBRANCH   6   7
ENDBRANCH   5   6
ENDBRANCH   4   5
ENDBRANCH   3   4
ENDBRANCH   2   3
ENDBRANCH   1   2
BRANCH   1  18
ATOM     18  C   UNL     1      46.346   2.879  21.799  1.00  0.00     0.000 C 
BRANCH  18  19
ATOM     19  C   UNL     1      46.549   4.195  22.569  1.00  0.00     0.000 C 
BRANCH  19  20
ATOM     20  C   UNL     1      45.527   4.390  23.705  1.00  0.00     0.000 C 
BRANCH  20  21
ATOM     21  C   UNL     1      44.218   3.594  23.545  1.00  0.00     0.000 C 
BRANCH  21  22
ATOM     22  C   UNL     1      43.586   3.207  24.894  1.00  0.00     0.000 C 
BRANCH  22  23
ATOM     23  C   UNL     1      43.513   1.687  25.098  1.00  0.00     0.000 C 
BRANCH  23  24
ATOM     24  C   UNL     1      44.900   1.057  25.300  1.00  0.00    -0.000 C 
BRANCH  24  25
ATOM     25  C   UNL     1      45.145  -0.075  24.295  1.00  0.00    -0.000 C 
BRANCH  25  26
ATOM     26  C   UNL     1      43.821  -0.584  23.705  1.00  0.00    -0.000 C 
BRANCH  26  27
ATOM     27  C   UNL     1      43.815  -0.576  22.170  1.00  0.00    -0.000 C 
BRANCH  27  28
ATOM     28  C   UNL     1      42.469  -0.125  21.584  1.00  0.00    -0.000 C 
BRANCH  28  29
ATOM     29  C   UNL     1      42.449   1.392  21.365  1.00  0.00    -0.000 C 
BRANCH  29  30
ATOM     30  C   UNL     1      43.169   1.777  20.069  1.00  0.00    -0.000 C 
BRANCH  30  31
ATOM     31  C   UNL     1      42.164   2.078  18.951  1.00  0.00    -0.003 C 
ATOM     32  C   UNL     1      41.948   0.858  18.060  1.00  0.00     0.004 C 
ENDBRANCH  30  31
ENDBRANCH  29  30
ENDBRANCH  28  29
ENDBRANCH  27  28
ENDBRANCH  26  27
ENDBRANCH  25  26
ENDBRANCH  24  25
ENDBRANCH  23  24
ENDBRANCH  22  23
ENDBRANCH  21  22
ENDBRANCH  20  21
ENDBRANCH  19  20
ENDBRANCH  18  19
ENDBRANCH   1  18
TORSDOF 28
ENDMDL
MODEL 2
REMARK VINA RESULT:    -4.338      2.598      6.361
REMARK INTER + INTRA:         -16.958
REMARK INTER:                 -12.133
REMARK INTRA:                  -4.825
REMARK UNBOUND:                -5.519
REMARK SMILES CCCCCCCCCCCCCCCCCCCCCCCCCCCCCC(=O)[O-]
REMARK SMILES IDX 16 1 17 2 18 3 19 4 20 5 21 6 22 7 23 8 24 9 25 10 26 11
REMARK SMILES IDX 27 12 28 13 29 14 30 15 31 16 32 17 15 18 14 19 13 20 12 21
REMARK SMILES IDX 11 22 10 23 9 24 8 25 7 26 6 27 5 28 4 29 3 30 2 31 1 32
REMARK H PARENT
REMARK Flexibility Score: inf
ROOT
ATOM      1  C   UNL     1      51.784  -0.982  18.000  1.00  0.00     0.000 C 
ENDROOT
BRANCH   1   2
ATOM      2  C   UNL     1      51.996  -0.911  19.523  1.00  0.00     0.000 C 
BRANCH   2   3
ATOM      3  C   UNL     1      50.756  -1.351  20.316  1.00  0.00     0.000 C 
BRANCH   3   4
ATOM      4  C   UNL     1      50.162  -0.217  21.167  1.00  0.00     0.000 C 
BRANCH   4   5
ATOM      5  C   UNL     1      48.656  -0.061  20.901  1.00  0.00     0.000 C 
BRANCH   5   6
ATOM      6  C   UNL     1      48.067   1.200  21.567  1.00  0.00     0.000 C 
BRANCH   6   7
ATOM      7  C   UNL     1      49.053   2.379  21.646  1.00  0.00     0.000 C 
BRANCH   7   8
ATOM      8  C   UNL     1      48.356   3.731  21.870  1.00  0.00     0.000 C 
BRANCH   8   9
ATOM      9  C   UNL     1      46.831   3.596  21.994  1.00  0.00     0.000 C 
BRANCH   9  10
ATOM     10  C   UNL     1      46.254   4.455  23.133  1.00  0.00     0.000 C 
BRANCH  10  11
ATOM     11  C   UNL     1      45.227   3.688  23.982  1.00  0.00     0.000 C 
BRANCH  11  12
ATOM     12  C   UNL     1      45.318   2.165  23.780  1.00  0.00     0.000 C 
BRANCH  12  13
ATOM     13  C   UNL     1      44.887   1.373  25.027  1.00  0.00     0.006 C 
BRANCH  13  14
ATOM     14  C   UNL     1      45.029  -0.152  24.884  1.00  0.00     0.053 C 
BRANCH  14  15
ATOM     15  C   UNL     1      43.704  -0.851  24.886  1.00  0.00     0.041 C 
ATOM     16  O   UNL     1      42.650  -0.217  24.612  1.00  0.00    -0.550 OA
ATOM     17  O   UNL     1      43.633  -2.207  25.182  1.00  0.00    -0.550 OA
ENDBRANCH  14  15
ENDBRANCH  13  14
ENDBRANCH  12  13
ENDBRANCH  11  12
ENDBRANCH  10  11
ENDBRANCH   9  10
ENDBRANCH   8   9
ENDBRANCH   7   8
ENDBRANCH   6   7
ENDBRANCH   5   6
ENDBRANCH   4   5
ENDBRANCH   3   4
ENDBRANCH   2   3
ENDBRANCH   1   2
BRANCH   1  18
ATOM     18  C   UNL     1      51.782   0.411  17.350  1.00  0.00     0.000 C 
BRANCH  18  19
ATOM     19  C   UNL     1      51.978   1.542  18.374  1.00  0.00     0.000 C 
BRANCH  19  20
ATOM     20  C   UNL     1      50.728   2.426  18.539  1.00  0.00     0.000 C 
BRANCH  20  21
ATOM     21  C   UNL     1      49.653   2.240  17.452  1.00  0.00     0.000 C 
BRANCH  21  22
ATOM     22  C   UNL     1      48.221   2.299  18.012  1.00  0.00     0.000 C 
BRANCH  22  23
ATOM     23  C   UNL     1      47.162   2.457  16.911  1.00  0.00     0.000 C 
BRANCH  23  24
ATOM     24  C   UNL     1      45.758   2.053  17.388  1.00  0.00    -0.000 C 
BRANCH  24  25
ATOM     25  C   UNL     1      45.460   2.631  18.777  1.00  0.00    -0.000 C 
BRANCH  25  26
ATOM     26  C   UNL     1      43.950   2.633  19.061  1.00  0.00    -0.000 C 
BRANCH  26  27
ATOM     27  C   UNL     1      43.606   3.232  20.432  1.00  0.00    -0.000 C 
BRANCH  27  28
ATOM     28  C   UNL     1      42.735   2.300  21.285  1.00  0.00    -0.000 C 
BRANCH  28  29
ATOM     29  C   UNL     1      43.178   0.841  21.128  1.00  0.00    -0.000 C 
BRANCH  29  30
ATOM     30  C   UNL     1      41.978  -0.111  21.152  1.00  0.00    -0.000 C 
BRANCH  30  31
ATOM     31  C   UNL     1      41.955  -0.998  19.901  1.00  0.00    -0.003 C 
ATOM     32  C   UNL     1      41.586  -0.191  18.659  1.00  0.00     0.004 C 
ENDBRANCH  30  31
ENDBRANCH  29  30
ENDBRANCH  28  29
ENDBRANCH  27  28
ENDBRANCH  26  27
ENDBRANCH  25  26
ENDBRANCH  24  25
ENDBRANCH  23  24
ENDBRANCH  22  23
ENDBRANCH  21  22
ENDBRANCH  20  21
ENDBRANCH  19  20
ENDBRANCH  18  19
ENDBRANCH   1  18
TORSDOF 28
ENDMDL
MODEL 3
REMARK VINA RESULT:    -4.318      1.929      7.043
REMARK INTER + INTRA:         -16.904
REMARK INTER:                 -12.767
REMARK INTRA:                  -4.137
REMARK UNBOUND:                -5.519
REMARK SMILES CCCCCCCCCCCCCCCCCCCCCCCCCCCCCC(=O)[O-]
REMARK SMILES IDX 16 1 17 2 18 3 19 4 20 5 21 6 22 7 23 8 24 9 25 10 26 11
REMARK SMILES IDX 27 12 28 13 29 14 30 15 31 16 32 17 15 18 14 19 13 20 12 21
REMARK SMILES IDX 11 22 10 23 9 24 8 25 7 26 6 27 5 28 4 29 3 30 2 31 1 32
REMARK H PARENT
REMARK Flexibility Score: inf
ROOT
ATOM      1  C   UNL     1      44.808   3.154  24.639  1.00  0.00     0.000 C 
ENDROOT
BRANCH   1   2
ATOM      2  C   UNL     1      44.083   1.952  25.269  1.00  0.00     0.000 C 
BRANCH   2   3
ATOM      3  C   UNL     1      44.800   0.619  24.999  1.00  0.00     0.000 C 
BRANCH   3   4
ATOM      4  C   UNL     1      43.875  -0.439  24.377  1.00  0.00     0.000 C 
BRANCH   4   5
ATOM      5  C   UNL     1      43.860  -0.324  22.845  1.00  0.00     0.000 C 
BRANCH   5   6
ATOM      6  C   UNL     1      42.433  -0.400  22.261  1.00  0.00     0.000 C 
BRANCH   6   7
ATOM      7  C   UNL     1      42.355  -1.116  20.901  1.00  0.00     0.000 C 
BRANCH   7   8
ATOM      8  C   UNL     1      41.210  -0.598  20.015  1.00  0.00     0.000 C 
BRANCH   8   9
ATOM      9  C   UNL     1      41.700  -0.098  18.648  1.00  0.00     0.000 C 
BRANCH   9  10
ATOM     10  C   UNL     1      41.482   1.413  18.460  1.00  0.00     0.000 C 
BRANCH  10  11
ATOM     11  C   UNL     1      41.848   1.886  17.044  1.00  0.00     0.000 C 
BRANCH  11  12
ATOM     12  C   UNL     1      43.364   1.841  16.784  1.00  0.00     0.000 C 
BRANCH  12  13
ATOM     13  C   UNL     1      43.743   0.885  15.638  1.00  0.00     0.006 C 
BRANCH  13  14
ATOM     14  C   UNL     1      43.028   1.181  14.309  1.00  0.00     0.053 C 
BRANCH  14  15
ATOM     15  C   UNL     1      43.847   2.046  13.401  1.00  0.00     0.041 C 
ATOM     16  O   UNL     1      44.769   1.543  12.705  1.00  0.00    -0.550 OA
ATOM     17  O   UNL     1      43.587   3.409  13.315  1.00  0.00    -0.550 OA
ENDBRANCH  14  15
ENDBRANCH  13  14
ENDBRANCH  12  13
ENDBRANCH  11  12
ENDBRANCH  10  11
ENDBRANCH   9  10
ENDBRANCH   8   9
ENDBRANCH   7   8
ENDBRANCH   6   7
ENDBRANCH   5   6
ENDBRANCH   4   5
ENDBRANCH   3   4
ENDBRANCH   2   3
ENDBRANCH   1   2
BRANCH   1  18
ATOM     18  C   UNL     1      43.888   3.964  23.710  1.00  0.00     0.000 C 
BRANCH  18  19
ATOM     19  C   UNL     1      42.717   3.129  23.165  1.00  0.00     0.000 C 
BRANCH  19  20
ATOM     20  C   UNL     1      42.448   3.377  21.669  1.00  0.00     0.000 C 
BRANCH  20  21
ATOM     21  C   UNL     1      43.709   3.531  20.799  1.00  0.00     0.000 C 
BRANCH  21  22
ATOM     22  C   UNL     1      44.329   2.180  20.401  1.00  0.00     0.000 C 
BRANCH  22  23
ATOM     23  C   UNL     1      45.865   2.205  20.425  1.00  0.00     0.000 C 
BRANCH  23  24
ATOM     24  C   UNL     1      46.437   1.729  21.770  1.00  0.00    -0.000 C 
BRANCH  24  25
ATOM     25  C   UNL     1      47.767   0.991  21.575  1.00  0.00    -0.000 C 
BRANCH  25  26
ATOM     26  C   UNL     1      48.717   1.796  20.675  1.00  0.00    -0.000 C 
BRANCH  26  27
ATOM     27  C   UNL     1      50.060   1.088  20.448  1.00  0.00    -0.000 C 
BRANCH  27  28
ATOM     28  C   UNL     1      50.112  -0.305  21.093  1.00  0.00    -0.000 C 
BRANCH  28  29
ATOM     29  C   UNL     1      51.169  -1.183  20.412  1.00  0.00    -0.000 C 
BRANCH  29  30
ATOM     30  C   UNL     1      52.410  -0.367  20.035  1.00  0.00    -0.000 C 
BRANCH  30  31
ATOM     31  C   UNL     1      52.914  -0.748  18.638  1.00  0.00    -0.003 C 
ATOM     32  C   UNL     1      51.751  -1.054  17.696  1.00  0.00     0.004 C 
ENDBRANCH  30  31
ENDBRANCH  29  30
ENDBRANCH  28  29
ENDBRANCH  27  28
ENDBRANCH  26  27
ENDBRANCH  25  26
ENDBRANCH  24  25
ENDBRANCH  23  24
ENDBRANCH  22  23
ENDBRANCH  21  22
ENDBRANCH  20  21
ENDBRANCH  19  20
ENDBRANCH  18  19
ENDBRANCH   1  18
TORSDOF 28
ENDMDL
MODEL 4
REMARK VINA RESULT:    -4.316      2.334      4.892
REMARK INTER + INTRA:         -16.900
REMARK INTER:                 -12.326
REMARK INTRA:                  -4.574
REMARK UNBOUND:                -5.519
REMARK SMILES CCCCCCCCCCCCCCCCCCCCCCCCCCCCCC(=O)[O-]
REMARK SMILES IDX 16 1 17 2 18 3 19 4 20 5 21 6 22 7 23 8 24 9 25 10 26 11
REMARK SMILES IDX 27 12 28 13 29 14 30 15 31 16 32 17 15 18 14 19 13 20 12 21
REMARK SMILES IDX 11 22 10 23 9 24 8 25 7 26 6 27 5 28 4 29 3 30 2 31 1 32
REMARK H PARENT
REMARK Flexibility Score: inf
ROOT
ATOM      1  C   UNL     1      43.752   2.672  19.381  1.00  0.00     0.000 C 
ENDROOT
BRANCH   1   2
ATOM      2  C   UNL     1      44.486   2.823  20.725  1.00  0.00     0.000 C 
BRANCH   2   3
ATOM      3  C   UNL     1      45.875   2.166  20.721  1.00  0.00     0.000 C 
BRANCH   3   4
ATOM      4  C   UNL     1      46.073   1.186  21.888  1.00  0.00     0.000 C 
BRANCH   4   5
ATOM      5  C   UNL     1      47.236   0.221  21.606  1.00  0.00     0.000 C 
BRANCH   5   6
ATOM      6  C   UNL     1      48.372   0.886  20.801  1.00  0.00     0.000 C 
BRANCH   6   7
ATOM      7  C   UNL     1      49.739   0.850  21.507  1.00  0.00     0.000 C 
BRANCH   7   8
ATOM      8  C   UNL     1      50.344  -0.561  21.573  1.00  0.00     0.000 C 
BRANCH   8   9
ATOM      9  C   UNL     1      50.852  -1.051  20.208  1.00  0.00     0.000 C 
BRANCH   9  10
ATOM     10  C   UNL     1      52.377  -0.919  20.065  1.00  0.00     0.000 C 
BRANCH  10  11
ATOM     11  C   UNL     1      52.778   0.077  18.965  1.00  0.00     0.000 C 
BRANCH  11  12
ATOM     12  C   UNL     1      51.560   0.644  18.215  1.00  0.00     0.000 C 
BRANCH  12  13
ATOM     13  C   UNL     1      51.395   2.162  18.412  1.00  0.00     0.006 C 
BRANCH  13  14
ATOM     14  C   UNL     1      52.486   2.805  19.284  1.00  0.00     0.053 C 
BRANCH  14  15
ATOM     15  C   UNL     1      52.015   4.057  19.959  1.00  0.00     0.041 C 
ATOM     16  O   UNL     1      52.617   5.148  19.766  1.00  0.00    -0.550 OA
ATOM     17  O   UNL     1      50.905   4.023  20.794  1.00  0.00    -0.550 OA
ENDBRANCH  14  15
ENDBRANCH  13  14
ENDBRANCH  12  13
ENDBRANCH  11  12
ENDBRANCH  10  11
ENDBRANCH   9  10
ENDBRANCH   8   9
ENDBRANCH   7   8
ENDBRANCH   6   7
ENDBRANCH   5   6
ENDBRANCH   4   5
ENDBRANCH   3   4
ENDBRANCH   2   3
ENDBRANCH   1   2
BRANCH   1  18
ATOM     18  C   UNL     1      42.224   2.704  19.548  1.00  0.00     0.000 C 
BRANCH  18  19
ATOM     19  C   UNL     1      41.506   1.724  18.603  1.00  0.00     0.000 C 
BRANCH  19  20
ATOM     20  C   UNL     1      42.216   0.361  18.500  1.00  0.00     0.000 C 
BRANCH  20  21
ATOM     21  C   UNL     1      41.389  -0.841  18.995  1.00  0.00     0.000 C 
BRANCH  21  22
ATOM     22  C   UNL     1      41.416  -0.994  20.526  1.00  0.00     0.000 C 
BRANCH  22  23
ATOM     23  C   UNL     1      42.764  -0.586  21.138  1.00  0.00     0.000 C 
BRANCH  23  24
ATOM     24  C   UNL     1      42.598   0.189  22.455  1.00  0.00    -0.000 C 
BRANCH  24  25
ATOM     25  C   UNL     1      43.081  -0.643  23.649  1.00  0.00    -0.000 C 
BRANCH  25  26
ATOM     26  C   UNL     1      43.006   0.167  24.952  1.00  0.00    -0.000 C 
BRANCH  26  27
ATOM     27  C   UNL     1      44.274   0.993  25.209  1.00  0.00    -0.000 C 
BRANCH  27  28
ATOM     28  C   UNL     1      43.967   2.458  25.554  1.00  0.00    -0.000 C 
BRANCH  28  29
ATOM     29  C   UNL     1      44.040   3.341  24.302  1.00  0.00    -0.000 C 
BRANCH  29  30
ATOM     30  C   UNL     1      42.775   4.192  24.148  1.00  0.00    -0.000 C 
BRANCH  30  31
ATOM     31  C   UNL     1      41.848   3.607  23.076  1.00  0.00    -0.003 C 
ATOM     32  C   UNL     1      40.458   3.328  23.642  1.00  0.00     0.004 C 
ENDBRANCH  30  31
ENDBRANCH  29  30
ENDBRANCH  28  29
ENDBRANCH  27  28
ENDBRANCH  26  27
ENDBRANCH  25  26
ENDBRANCH  24  25
ENDBRANCH  23  24
ENDBRANCH  22  23
ENDBRANCH  21  22
ENDBRANCH  20  21
ENDBRANCH  19  20
ENDBRANCH  18  19
ENDBRANCH   1  18
TORSDOF 28
ENDMDL
MODEL 5
REMARK VINA RESULT:    -4.301      1.315      2.594
REMARK INTER + INTRA:         -16.860
REMARK INTER:                 -11.664
REMARK INTRA:                  -5.196
REMARK UNBOUND:                -5.519
REMARK SMILES CCCCCCCCCCCCCCCCCCCCCCCCCCCCCC(=O)[O-]
REMARK SMILES IDX 16 1 17 2 18 3 19 4 20 5 21 6 22 7 23 8 24 9 25 10 26 11
REMARK SMILES IDX 27 12 28 13 29 14 30 15 31 16 32 17 15 18 14 19 13 20 12 21
REMARK SMILES IDX 11 22 10 23 9 24 8 25 7 26 6 27 5 28 4 29 3 30 2 31 1 32
REMARK H PARENT
REMARK Flexibility Score: inf
ROOT
ATOM      1  C   UNL     1      48.652   0.616  21.004  1.00  0.00     0.000 C 
ENDROOT
BRANCH   1   2
ATOM      2  C   UNL     1      49.529  -0.233  21.941  1.00  0.00     0.000 C 
BRANCH   2   3
ATOM      3  C   UNL     1      50.791  -0.770  21.247  1.00  0.00     0.000 C 
BRANCH   3   4
ATOM      4  C   UNL     1      50.602  -0.959  19.733  1.00  0.00     0.000 C 
BRANCH   4   5
ATOM      5  C   UNL     1      51.958  -1.014  19.012  1.00  0.00     0.000 C 
BRANCH   5   6
ATOM      6  C   UNL     1      52.990  -0.040  19.619  1.00  0.00     0.000 C 
BRANCH   6   7
ATOM      7  C   UNL     1      52.967   1.363  18.986  1.00  0.00     0.000 C 
BRANCH   7   8
ATOM      8  C   UNL     1      52.161   2.380  19.810  1.00  0.00     0.000 C 
BRANCH   8   9
ATOM      9  C   UNL     1      51.143   3.156  18.960  1.00  0.00     0.000 C 
BRANCH   9  10
ATOM     10  C   UNL     1      50.568   2.311  17.811  1.00  0.00     0.000 C 
BRANCH  10  11
ATOM     11  C   UNL     1      49.040   2.168  17.896  1.00  0.00     0.000 C 
BRANCH  11  12
ATOM     12  C   UNL     1      48.310   3.488  17.588  1.00  0.00     0.000 C 
BRANCH  12  13
ATOM     13  C   UNL     1      46.959   3.604  18.317  1.00  0.00     0.006 C 
BRANCH  13  14
ATOM     14  C   UNL     1      46.032   2.393  18.119  1.00  0.00     0.053 C 
BRANCH  14  15
ATOM     15  C   UNL     1      45.468   2.326  16.733  1.00  0.00     0.041 C 
ATOM     16  O   UNL     1      45.947   1.520  15.891  1.00  0.00    -0.550 OA
ATOM     17  O   UNL     1      44.406   3.146  16.372  1.00  0.00    -0.550 OA
ENDBRANCH  14  15
ENDBRANCH  13  14
ENDBRANCH  12  13
ENDBRANCH  11  12
ENDBRANCH  10  11
ENDBRANCH   9  10
ENDBRANCH   8   9
ENDBRANCH   7   8
ENDBRANCH   6   7
ENDBRANCH   5   6
ENDBRANCH   4   5
ENDBRANCH   3   4
ENDBRANCH   2   3
ENDBRANCH   1   2
BRANCH   1  18
ATOM     18  C   UNL     1      48.535   2.073  21.483  1.00  0.00     0.000 C 
BRANCH  18  19
ATOM     19  C   UNL     1      47.116   2.425  21.962  1.00  0.00     0.000 C 
BRANCH  19  20
ATOM     20  C   UNL     1      46.083   1.330  21.636  1.00  0.00     0.000 C 
BRANCH  20  21
ATOM     21  C   UNL     1      45.531   0.573  22.858  1.00  0.00     0.000 C 
BRANCH  21  22
ATOM     22  C   UNL     1      45.206   1.503  24.040  1.00  0.00     0.000 C 
BRANCH  22  23
ATOM     23  C   UNL     1      43.714   1.495  24.407  1.00  0.00     0.000 C 
BRANCH  23  24
ATOM     24  C   UNL     1      42.856   0.788  23.346  1.00  0.00    -0.000 C 
BRANCH  24  25
ATOM     25  C   UNL     1      41.844   1.755  22.720  1.00  0.00    -0.000 C 
BRANCH  25  26
ATOM     26  C   UNL     1      42.549   2.989  22.137  1.00  0.00    -0.000 C 
BRANCH  26  27
ATOM     27  C   UNL     1      42.347   3.127  20.622  1.00  0.00    -0.000 C 
BRANCH  27  28
ATOM     28  C   UNL     1      42.867   1.910  19.842  1.00  0.00    -0.000 C 
BRANCH  28  29
ATOM     29  C   UNL     1      42.033   1.676  18.576  1.00  0.00    -0.000 C 
BRANCH  29  30
ATOM     30  C   UNL     1      41.511   0.237  18.513  1.00  0.00    -0.000 C 
BRANCH  30  31
ATOM     31  C   UNL     1      41.779  -0.502  19.830  1.00  0.00    -0.003 C 
ATOM     32  C   UNL     1      40.771  -1.629  20.045  1.00  0.00     0.004 C 
ENDBRANCH  30  31
ENDBRANCH  29  30
ENDBRANCH  28  29
ENDBRANCH  27  28
ENDBRANCH  26  27
ENDBRANCH  25  26
ENDBRANCH  24  25
ENDBRANCH  23  24
ENDBRANCH  22  23
ENDBRANCH  21  22
ENDBRANCH  20  21
ENDBRANCH  19  20
ENDBRANCH  18  19
ENDBRANCH   1  18
TORSDOF 28
ENDMDL
MODEL 6
REMARK VINA RESULT:    -4.291      2.739      6.809
REMARK INTER + INTRA:         -16.834
REMARK INTER:                 -11.748
REMARK INTRA:                  -5.087
REMARK UNBOUND:                -5.519
REMARK SMILES CCCCCCCCCCCCCCCCCCCCCCCCCCCCCC(=O)[O-]
REMARK SMILES IDX 16 1 17 2 18 3 19 4 20 5 21 6 22 7 23 8 24 9 25 10 26 11
REMARK SMILES IDX 27 12 28 13 29 14 30 15 31 16 32 17 15 18 14 19 13 20 12 21
REMARK SMILES IDX 11 22 10 23 9 24 8 25 7 26 6 27 5 28 4 29 3 30 2 31 1 32
REMARK H PARENT
REMARK Flexibility Score: inf
ROOT
ATOM      1  C   UNL     1      45.396   0.511  23.814  1.00  0.00     0.000 C 
ENDROOT
BRANCH   1   2
ATOM      2  C   UNL     1      44.325   0.720  24.900  1.00  0.00     0.000 C 
BRANCH   2   3
ATOM      3  C   UNL     1      43.990   2.203  25.124  1.00  0.00     0.000 C 
BRANCH   3   4
ATOM      4  C   UNL     1      44.872   3.145  24.288  1.00  0.00     0.000 C 
BRANCH   4   5
ATOM      5  C   UNL     1      44.013   4.048  23.389  1.00  0.00     0.000 C 
BRANCH   5   6
ATOM      6  C   UNL     1      42.692   3.373  22.963  1.00  0.00     0.000 C 
BRANCH   6   7
ATOM      7  C   UNL     1      42.496   3.298  21.439  1.00  0.00     0.000 C 
BRANCH   7   8
ATOM      8  C   UNL     1      43.738   3.744  20.651  1.00  0.00     0.000 C 
BRANCH   8   9
ATOM      9  C   UNL     1      44.444   2.575  19.947  1.00  0.00     0.000 C 
BRANCH   9  10
ATOM     10  C   UNL     1      45.947   2.830  19.744  1.00  0.00     0.000 C 
BRANCH  10  11
ATOM     11  C   UNL     1      46.634   3.330  21.026  1.00  0.00     0.000 C 
BRANCH  11  12
ATOM     12  C   UNL     1      47.719   2.359  21.526  1.00  0.00     0.000 C 
BRANCH  12  13
ATOM     13  C   UNL     1      47.904   1.146  20.597  1.00  0.00     0.006 C 
BRANCH  13  14
ATOM     14  C   UNL     1      48.749   0.013  21.204  1.00  0.00     0.053 C 
BRANCH  14  15
ATOM     15  C   UNL     1      50.170   0.045  20.732  1.00  0.00     0.041 C 
ATOM     16  O   UNL     1      50.651   1.098  20.235  1.00  0.00    -0.550 OA
ATOM     17  O   UNL     1      50.969  -1.086  20.850  1.00  0.00    -0.550 OA
ENDBRANCH  14  15
ENDBRANCH  13  14
ENDBRANCH  12  13
ENDBRANCH  11  12
ENDBRANCH  10  11
ENDBRANCH   9  10
ENDBRANCH   8   9
ENDBRANCH   7   8
ENDBRANCH   6   7
ENDBRANCH   5   6
ENDBRANCH   4   5
ENDBRANCH   3   4
ENDBRANCH   2   3
ENDBRANCH   1   2
BRANCH   1  18
ATOM     18  C   UNL     1      44.778   0.162  22.450  1.00  0.00     0.000 C 
BRANCH  18  19
ATOM     19  C   UNL     1      43.457  -0.617  22.581  1.00  0.00     0.000 C 
BRANCH  19  20
ATOM     20  C   UNL     1      42.406  -0.197  21.536  1.00  0.00     0.000 C 
BRANCH  20  21
ATOM     21  C   UNL     1      41.867  -1.343  20.661  1.00  0.00     0.000 C 
BRANCH  21  22
ATOM     22  C   UNL     1      41.149  -0.842  19.396  1.00  0.00     0.000 C 
BRANCH  22  23
ATOM     23  C   UNL     1      42.009   0.132  18.576  1.00  0.00     0.000 C 
BRANCH  23  24
ATOM     24  C   UNL     1      41.239   1.403  18.182  1.00  0.00    -0.000 C 
BRANCH  24  25
ATOM     25  C   UNL     1      41.992   2.194  17.107  1.00  0.00    -0.000 C 
BRANCH  25  26
ATOM     26  C   UNL     1      43.247   1.440  16.644  1.00  0.00    -0.000 C 
BRANCH  26  27
ATOM     27  C   UNL     1      44.240   2.343  15.899  1.00  0.00    -0.000 C 
BRANCH  27  28
ATOM     28  C   UNL     1      44.345   2.003  14.405  1.00  0.00    -0.000 C 
BRANCH  28  29
ATOM     29  C   UNL     1      43.614   0.693  14.090  1.00  0.00    -0.000 C 
BRANCH  29  30
ATOM     30  C   UNL     1      44.569  -0.346  13.491  1.00  0.00    -0.000 C 
BRANCH  30  31
ATOM     31  C   UNL     1      45.562  -0.851  14.545  1.00  0.00    -0.003 C 
ATOM     32  C   UNL     1      46.460  -1.947  13.976  1.00  0.00     0.004 C 
ENDBRANCH  30  31
ENDBRANCH  29  30
ENDBRANCH  28  29
ENDBRANCH  27  28
ENDBRANCH  26  27
ENDBRANCH  25  26
ENDBRANCH  24  25
ENDBRANCH  23  24
ENDBRANCH  22  23
ENDBRANCH  21  22
ENDBRANCH  20  21
ENDBRANCH  19  20
ENDBRANCH  18  19
ENDBRANCH   1  18
TORSDOF 28
ENDMDL
MODEL 7
REMARK VINA RESULT:    -4.285      2.363      6.830
REMARK INTER + INTRA:         -16.818
REMARK INTER:                 -11.780
REMARK INTRA:                  -5.038
REMARK UNBOUND:                -5.519
REMARK SMILES CCCCCCCCCCCCCCCCCCCCCCCCCCCCCC(=O)[O-]
REMARK SMILES IDX 16 1 17 2 18 3 19 4 20 5 21 6 22 7 23 8 24 9 25 10 26 11
REMARK SMILES IDX 27 12 28 13 29 14 30 15 31 16 32 17 15 18 14 19 13 20 12 21
REMARK SMILES IDX 11 22 10 23 9 24 8 25 7 26 6 27 5 28 4 29 3 30 2 31 1 32
REMARK H PARENT
REMARK Flexibility Score: inf
ROOT
ATOM      1  C   UNL     1      44.853  -0.279  25.000  1.00  0.00     0.000 C 
ENDROOT
BRANCH   1   2
ATOM      2  C   UNL     1      44.906   1.256  24.917  1.00  0.00     0.000 C 
BRANCH   2   3
ATOM      3  C   UNL     1      43.762   1.932  25.689  1.00  0.00     0.000 C 
BRANCH   3   4
ATOM      4  C   UNL     1      43.157   3.125  24.933  1.00  0.00     0.000 C 
BRANCH   4   5
ATOM      5  C   UNL     1      42.104   2.657  23.916  1.00  0.00     0.000 C 
BRANCH   5   6
ATOM      6  C   UNL     1      41.872   3.686  22.790  1.00  0.00     0.000 C 
BRANCH   6   7
ATOM      7  C   UNL     1      42.362   3.217  21.409  1.00  0.00     0.000 C 
BRANCH   7   8
ATOM      8  C   UNL     1      43.807   3.646  21.107  1.00  0.00     0.000 C 
BRANCH   8   9
ATOM      9  C   UNL     1      44.830   2.546  21.426  1.00  0.00     0.000 C 
BRANCH   9  10
ATOM     10  C   UNL     1      46.125   3.105  22.039  1.00  0.00     0.000 C 
BRANCH  10  11
ATOM     11  C   UNL     1      47.384   2.438  21.459  1.00  0.00     0.000 C 
BRANCH  11  12
ATOM     12  C   UNL     1      47.220   0.916  21.300  1.00  0.00     0.000 C 
BRANCH  12  13
ATOM     13  C   UNL     1      48.568   0.174  21.267  1.00  0.00     0.006 C 
BRANCH  13  14
ATOM     14  C   UNL     1      49.485   0.587  20.104  1.00  0.00     0.053 C 
BRANCH  14  15
ATOM     15  C   UNL     1      50.903   0.152  20.312  1.00  0.00     0.041 C 
ATOM     16  O   UNL     1      51.155  -0.932  20.902  1.00  0.00    -0.550 OA
ATOM     17  O   UNL     1      51.949   0.941  19.847  1.00  0.00    -0.550 OA
ENDBRANCH  14  15
ENDBRANCH  13  14
ENDBRANCH  12  13
ENDBRANCH  11  12
ENDBRANCH  10  11
ENDBRANCH   9  10
ENDBRANCH   8   9
ENDBRANCH   7   8
ENDBRANCH   6   7
ENDBRANCH   5   6
ENDBRANCH   4   5
ENDBRANCH   3   4
ENDBRANCH   2   3
ENDBRANCH   1   2
BRANCH   1  18
ATOM     18  C   UNL     1      43.730  -0.869  24.131  1.00  0.00     0.000 C 
BRANCH  18  19
ATOM     19  C   UNL     1      43.838  -0.443  22.657  1.00  0.00     0.000 C 
BRANCH  19  20
ATOM     20  C   UNL     1      42.472  -0.373  21.949  1.00  0.00     0.000 C 
BRANCH  20  21
ATOM     21  C   UNL     1      42.438  -0.989  20.538  1.00  0.00     0.000 C 
BRANCH  21  22
ATOM     22  C   UNL     1      41.116  -0.718  19.799  1.00  0.00     0.000 C 
BRANCH  22  23
ATOM     23  C   UNL     1      41.334  -0.219  18.362  1.00  0.00     0.000 C 
BRANCH  23  24
ATOM     24  C   UNL     1      41.277   1.314  18.261  1.00  0.00    -0.000 C 
BRANCH  24  25
ATOM     25  C   UNL     1      42.676   1.905  18.053  1.00  0.00    -0.000 C 
BRANCH  25  26
ATOM     26  C   UNL     1      42.821   2.499  16.644  1.00  0.00    -0.000 C 
BRANCH  26  27
ATOM     27  C   UNL     1      43.079   1.430  15.574  1.00  0.00    -0.000 C 
BRANCH  27  28
ATOM     28  C   UNL     1      44.438   1.601  14.880  1.00  0.00    -0.000 C 
BRANCH  28  29
ATOM     29  C   UNL     1      45.551   0.913  15.679  1.00  0.00    -0.000 C 
BRANCH  29  30
ATOM     30  C   UNL     1      46.684   1.890  16.009  1.00  0.00    -0.000 C 
BRANCH  30  31
ATOM     31  C   UNL     1      46.851   2.045  17.526  1.00  0.00    -0.003 C 
ATOM     32  C   UNL     1      46.131   3.291  18.036  1.00  0.00     0.004 C 
ENDBRANCH  30  31
ENDBRANCH  29  30
ENDBRANCH  28  29
ENDBRANCH  27  28
ENDBRANCH  26  27
ENDBRANCH  25  26
ENDBRANCH  24  25
ENDBRANCH  23  24
ENDBRANCH  22  23
ENDBRANCH  21  22
ENDBRANCH  20  21
ENDBRANCH  19  20
ENDBRANCH  18  19
ENDBRANCH   1  18
TORSDOF 28
ENDMDL
MODEL 8
REMARK VINA RESULT:    -4.282      2.514      6.168
REMARK INTER + INTRA:         -16.809
REMARK INTER:                 -10.670
REMARK INTRA:                  -6.138
REMARK UNBOUND:                -5.519
REMARK SMILES CCCCCCCCCCCCCCCCCCCCCCCCCCCCCC(=O)[O-]
REMARK SMILES IDX 16 1 17 2 18 3 19 4 20 5 21 6 22 7 23 8 24 9 25 10 26 11
REMARK SMILES IDX 27 12 28 13 29 14 30 15 31 16 32 17 15 18 14 19 13 20 12 21
REMARK SMILES IDX 11 22 10 23 9 24 8 25 7 26 6 27 5 28 4 29 3 30 2 31 1 32
REMARK H PARENT
REMARK Flexibility Score: inf
ROOT
ATOM      1  C   UNL     1      44.416   4.369  25.735  1.00  0.00     0.000 C 
ENDROOT
BRANCH   1   2
ATOM      2  C   UNL     1      43.405   5.392  25.188  1.00  0.00     0.000 C 
BRANCH   2   3
ATOM      3  C   UNL     1      41.951   5.026  25.522  1.00  0.00     0.000 C 
BRANCH   3   4
ATOM      4  C   UNL     1      41.126   4.668  24.275  1.00  0.00     0.000 C 
BRANCH   4   5
ATOM      5  C   UNL     1      41.383   3.216  23.843  1.00  0.00     0.000 C 
BRANCH   5   6
ATOM      6  C   UNL     1      41.754   3.103  22.349  1.00  0.00     0.000 C 
BRANCH   6   7
ATOM      7  C   UNL     1      43.254   3.296  22.064  1.00  0.00     0.000 C 
BRANCH   7   8
ATOM      8  C   UNL     1      43.555   4.584  21.282  1.00  0.00     0.000 C 
BRANCH   8   9
ATOM      9  C   UNL     1      44.731   5.375  21.875  1.00  0.00     0.000 C 
BRANCH   9  10
ATOM     10  C   UNL     1      46.090   4.911  21.326  1.00  0.00     0.000 C 
BRANCH  10  11
ATOM     11  C   UNL     1      46.996   4.326  22.422  1.00  0.00     0.000 C 
BRANCH  11  12
ATOM     12  C   UNL     1      47.667   3.010  21.989  1.00  0.00     0.000 C 
BRANCH  12  13
ATOM     13  C   UNL     1      46.654   1.966  21.484  1.00  0.00     0.006 C 
BRANCH  13  14
ATOM     14  C   UNL     1      47.152   0.514  21.572  1.00  0.00     0.053 C 
BRANCH  14  15
ATOM     15  C   UNL     1      48.574   0.369  21.124  1.00  0.00     0.041 C 
ATOM     16  O   UNL     1      49.451  -0.063  21.920  1.00  0.00    -0.550 OA
ATOM     17  O   UNL     1      48.932   0.702  19.823  1.00  0.00    -0.550 OA
ENDBRANCH  14  15
ENDBRANCH  13  14
ENDBRANCH  12  13
ENDBRANCH  11  12
ENDBRANCH  10  11
ENDBRANCH   9  10
ENDBRANCH   8   9
ENDBRANCH   7   8
ENDBRANCH   6   7
ENDBRANCH   5   6
ENDBRANCH   4   5
ENDBRANCH   3   4
ENDBRANCH   2   3
ENDBRANCH   1   2
BRANCH   1  18
ATOM     18  C   UNL     1      43.767   3.380  26.716  1.00  0.00     0.000 C 
BRANCH  18  19
ATOM     19  C   UNL     1      43.868   1.921  26.238  1.00  0.00     0.000 C 
BRANCH  19  20
ATOM     20  C   UNL     1      44.896   1.729  25.107  1.00  0.00     0.000 C 
BRANCH  20  21
ATOM     21  C   UNL     1      44.921   0.321  24.484  1.00  0.00     0.000 C 
BRANCH  21  22
ATOM     22  C   UNL     1      43.552  -0.379  24.534  1.00  0.00     0.000 C 
BRANCH  22  23
ATOM     23  C   UNL     1      42.761  -0.224  23.226  1.00  0.00     0.000 C 
BRANCH  23  24
ATOM     24  C   UNL     1      43.605  -0.567  21.988  1.00  0.00    -0.000 C 
BRANCH  24  25
ATOM     25  C   UNL     1      42.724  -1.082  20.844  1.00  0.00    -0.000 C 
BRANCH  25  26
ATOM     26  C   UNL     1      41.777   0.017  20.339  1.00  0.00    -0.000 C 
BRANCH  26  27
ATOM     27  C   UNL     1      41.343  -0.199  18.883  1.00  0.00    -0.000 C 
BRANCH  27  28
ATOM     28  C   UNL     1      41.381   1.094  18.054  1.00  0.00    -0.000 C 
BRANCH  28  29
ATOM     29  C   UNL     1      42.389   2.089  18.641  1.00  0.00    -0.000 C 
BRANCH  29  30
ATOM     30  C   UNL     1      43.633   2.208  17.755  1.00  0.00    -0.000 C 
BRANCH  30  31
ATOM     31  C   UNL     1      44.803   2.824  18.531  1.00  0.00    -0.003 C 
ATOM     32  C   UNL     1      45.949   3.200  17.595  1.00  0.00     0.004 C 
ENDBRANCH  30  31
ENDBRANCH  29  30
ENDBRANCH  28  29
ENDBRANCH  27  28
ENDBRANCH  26  27
ENDBRANCH  25  26
ENDBRANCH  24  25
ENDBRANCH  23  24
ENDBRANCH  22  23
ENDBRANCH  21  22
ENDBRANCH  20  21
ENDBRANCH  19  20
ENDBRANCH  18  19
ENDBRANCH   1  18
TORSDOF 28
ENDMDL
MODEL 9
REMARK VINA RESULT:    -4.259      1.448      3.935
REMARK INTER + INTRA:         -16.750
REMARK INTER:                 -11.106
REMARK INTRA:                  -5.644
REMARK UNBOUND:                -5.519
REMARK SMILES CCCCCCCCCCCCCCCCCCCCCCCCCCCCCC(=O)[O-]
REMARK SMILES IDX 16 1 17 2 18 3 19 4 20 5 21 6 22 7 23 8 24 9 25 10 26 11
REMARK SMILES IDX 27 12 28 13 29 14 30 15 31 16 32 17 15 18 14 19 13 20 12 21
REMARK SMILES IDX 11 22 10 23 9 24 8 25 7 26 6 27 5 28 4 29 3 30 2 31 1 32
REMARK H PARENT
REMARK Flexibility Score: inf
ROOT
ATOM      1  C   UNL     1      49.368  -0.270  20.600  1.00  0.00     0.000 C 
ENDROOT
BRANCH   1   2
ATOM      2  C   UNL     1      50.805  -0.644  21.003  1.00  0.00     0.000 C 
BRANCH   2   3
ATOM      3  C   UNL     1      51.678  -1.027  19.798  1.00  0.00     0.000 C 
BRANCH   3   4
ATOM      4  C   UNL     1      53.029  -0.293  19.785  1.00  0.00     0.000 C 
BRANCH   4   5
ATOM      5  C   UNL     1      52.955   0.980  18.927  1.00  0.00     0.000 C 
BRANCH   5   6
ATOM      6  C   UNL     1      52.933   2.266  19.781  1.00  0.00     0.000 C 
BRANCH   6   7
ATOM      7  C   UNL     1      51.536   2.897  19.917  1.00  0.00     0.000 C 
BRANCH   7   8
ATOM      8  C   UNL     1      50.622   2.599  18.717  1.00  0.00     0.000 C 
BRANCH   8   9
ATOM      9  C   UNL     1      49.181   3.082  18.936  1.00  0.00     0.000 C 
BRANCH   9  10
ATOM     10  C   UNL     1      48.270   2.783  17.734  1.00  0.00     0.000 C 
BRANCH  10  11
ATOM     11  C   UNL     1      46.998   2.019  18.138  1.00  0.00     0.000 C 
BRANCH  11  12
ATOM     12  C   UNL     1      45.921   2.945  18.729  1.00  0.00     0.000 C 
BRANCH  12  13
ATOM     13  C   UNL     1      44.767   3.217  17.746  1.00  0.00     0.006 C 
BRANCH  13  14
ATOM     14  C   UNL     1      44.354   1.996  16.907  1.00  0.00     0.053 C 
BRANCH  14  15
ATOM     15  C   UNL     1      42.900   1.669  17.051  1.00  0.00     0.041 C 
ATOM     16  O   UNL     1      42.541   0.534  17.464  1.00  0.00    -0.550 OA
ATOM     17  O   UNL     1      41.937   2.622  16.739  1.00  0.00    -0.550 OA
ENDBRANCH  14  15
ENDBRANCH  13  14
ENDBRANCH  12  13
ENDBRANCH  11  12
ENDBRANCH  10  11
ENDBRANCH   9  10
ENDBRANCH   8   9
ENDBRANCH   7   8
ENDBRANCH   6   7
ENDBRANCH   5   6
ENDBRANCH   4   5
ENDBRANCH   3   4
ENDBRANCH   2   3
ENDBRANCH   1   2
BRANCH   1  18
ATOM     18  C   UNL     1      48.714   0.689  21.609  1.00  0.00     0.000 C 
BRANCH  18  19
ATOM     19  C   UNL     1      47.177   0.653  21.548  1.00  0.00     0.000 C 
BRANCH  19  20
ATOM     20  C   UNL     1      46.518   1.818  22.310  1.00  0.00     0.000 C 
BRANCH  20  21
ATOM     21  C   UNL     1      47.135   3.202  22.041  1.00  0.00     0.000 C 
BRANCH  21  22
ATOM     22  C   UNL     1      46.171   4.358  22.360  1.00  0.00     0.000 C 
BRANCH  22  23
ATOM     23  C   UNL     1      44.756   3.870  22.706  1.00  0.00     0.000 C 
BRANCH  23  24
ATOM     24  C   UNL     1      43.729   4.242  21.624  1.00  0.00    -0.000 C 
BRANCH  24  25
ATOM     25  C   UNL     1      42.473   3.369  21.734  1.00  0.00    -0.000 C 
BRANCH  25  26
ATOM     26  C   UNL     1      42.422   2.331  20.603  1.00  0.00    -0.000 C 
BRANCH  26  27
ATOM     27  C   UNL     1      43.290   1.098  20.892  1.00  0.00    -0.000 C 
BRANCH  27  28
ATOM     28  C   UNL     1      42.572   0.059  21.766  1.00  0.00    -0.000 C 
BRANCH  28  29
ATOM     29  C   UNL     1      43.416  -0.298  22.995  1.00  0.00    -0.000 C 
BRANCH  29  30
ATOM     30  C   UNL     1      43.158   0.677  24.148  1.00  0.00    -0.000 C 
BRANCH  30  31
ATOM     31  C   UNL     1      44.380   0.774  25.069  1.00  0.00    -0.003 C 
ATOM     32  C   UNL     1      45.290  -0.441  24.908  1.00  0.00     0.004 C 
ENDBRANCH  30  31
ENDBRANCH  29  30
ENDBRANCH  28  29
ENDBRANCH  27  28
ENDBRANCH  26  27
ENDBRANCH  25  26
ENDBRANCH  24  25
ENDBRANCH  23  24
ENDBRANCH  22  23
ENDBRANCH  21  22
ENDBRANCH  20  21
ENDBRANCH  19  20
ENDBRANCH  18  19
ENDBRANCH   1  18
TORSDOF 28
ENDMDL
