MODEL 1
REMARK VINA RESULT:    -3.177      0.000      0.000
REMARK INTER + INTRA:          -3.456
REMARK INTER:                  -3.456
REMARK INTRA:                   0.000
REMARK UNBOUND:                 0.000
REMARK SMILES [NH3+]CC(=O)[O-]
REMARK SMILES IDX 2 1 1 2 3 6 4 7 5 8
REMARK H PARENT 1 3 1 4 1 5
REMARK Flexibility Score: inf
ROOT
ATOM      1  C   UNL     1     123.052 113.101 143.532  1.00  0.00     0.312 C 
ENDROOT
BRANCH   1   2
ATOM      2  N   UNL     1     122.557 114.286 142.834  1.00  0.00    -0.353 N 
ATOM      3  H   UNL     1     121.517 114.353 142.934  1.00  0.00     0.344 HD
ATOM      4  H   UNL     1     122.813 114.238 141.821  1.00  0.00     0.344 HD
ATOM      5  H   UNL     1     122.993 115.138 143.254  1.00  0.00     0.344 HD
ENDBRANCH   1   2
BRANCH   1   6
ATOM      6  C   UNL     1     124.484 113.284 143.930  1.00  0.00     0.096 C 
ATOM      7  O   UNL     1     125.399 112.710 143.281  1.00  0.00    -0.544 OA
ATOM      8  O   UNL     1     124.804 114.045 145.047  1.00  0.00    -0.544 OA
ENDBRANCH   1   6
TORSDOF 2
ENDMDL
MODEL 2
REMARK VINA RESULT:    -2.698     16.995     17.320
REMARK INTER + INTRA:          -2.935
REMARK INTER:                  -2.935
REMARK INTRA:                   0.000
REMARK UNBOUND:                 0.000
REMARK SMILES [NH3+]CC(=O)[O-]
REMARK SMILES IDX 2 1 1 2 3 6 4 7 5 8
REMARK H PARENT 1 3 1 4 1 5
REMARK Flexibility Score: inf
ROOT
ATOM      1  C   UNL     1     120.568 130.493 142.947  1.00  0.00     0.312 C 
ENDROOT
BRANCH   1   2
ATOM      2  N   UNL     1     121.795 130.540 143.741  1.00  0.00    -0.353 N 
ATOM      3  H   UNL     1     122.190 129.578 143.850  1.00  0.00     0.344 HD
ATOM      4  H   UNL     1     121.597 130.951 144.682  1.00  0.00     0.344 HD
ATOM      5  H   UNL     1     122.496 131.141 143.250  1.00  0.00     0.344 HD
ENDBRANCH   1   2
BRANCH   1   6
ATOM      6  C   UNL     1     119.424 129.994 143.773  1.00  0.00     0.096 C 
ATOM      7  O   UNL     1     119.571 128.986 144.515  1.00  0.00    -0.544 OA
ATOM      8  O   UNL     1     118.182 130.609 143.685  1.00  0.00    -0.544 OA
ENDBRANCH   1   6
TORSDOF 2
ENDMDL
MODEL 3
REMARK VINA RESULT:    -2.673     16.810     17.156
REMARK INTER + INTRA:          -2.908
REMARK INTER:                  -2.908
REMARK INTRA:                   0.000
REMARK UNBOUND:                 0.000
REMARK SMILES [NH3+]CC(=O)[O-]
REMARK SMILES IDX 2 1 1 2 3 6 4 7 5 8
REMARK H PARENT 1 3 1 4 1 5
REMARK Flexibility Score: inf
ROOT
ATOM      1  C   UNL     1     120.519 130.287 143.863  1.00  0.00     0.312 C 
ENDROOT
BRANCH   1   2
ATOM      2  N   UNL     1     121.029 129.938 142.539  1.00  0.00    -0.353 N 
ATOM      3  H   UNL     1     121.660 129.106 142.605  1.00  0.00     0.344 HD
ATOM      4  H   UNL     1     121.552 130.747 142.131  1.00  0.00     0.344 HD
ATOM      5  H   UNL     1     120.225 129.704 141.913  1.00  0.00     0.344 HD
ENDBRANCH   1   2
BRANCH   1   6
ATOM      6  C   UNL     1     119.101 129.831 144.019  1.00  0.00     0.096 C 
ATOM      7  O   UNL     1     118.160 130.512 143.530  1.00  0.00    -0.544 OA
ATOM      8  O   UNL     1     118.815 128.684 144.748  1.00  0.00    -0.544 OA
ENDBRANCH   1   6
TORSDOF 2
ENDMDL
MODEL 4
REMARK VINA RESULT:    -2.605      2.160      2.716
REMARK INTER + INTRA:          -2.834
REMARK INTER:                  -2.834
REMARK INTRA:                   0.000
REMARK UNBOUND:                 0.000
REMARK SMILES [NH3+]CC(=O)[O-]
REMARK SMILES IDX 2 1 1 2 3 6 4 7 5 8
REMARK H PARENT 1 3 1 4 1 5
REMARK Flexibility Score: inf
ROOT
ATOM      1  C   UNL     1     124.946 113.043 143.731  1.00  0.00     0.312 C 
ENDROOT
BRANCH   1   2
ATOM      2  N   UNL     1     125.272 112.290 142.521  1.00  0.00    -0.353 N 
ATOM      3  H   UNL     1     125.650 112.934 141.788  1.00  0.00     0.344 HD
ATOM      4  H   UNL     1     124.418 111.805 142.160  1.00  0.00     0.344 HD
ATOM      5  H   UNL     1     125.998 111.573 142.750  1.00  0.00     0.344 HD
ENDBRANCH   1   2
BRANCH   1   6
ATOM      6  C   UNL     1     123.471 113.276 143.827  1.00  0.00     0.096 C 
ATOM      7  O   UNL     1     122.992 113.905 144.808  1.00  0.00    -0.544 OA
ATOM      8  O   UNL     1     122.620 112.757 142.860  1.00  0.00    -0.544 OA
ENDBRANCH   1   6
TORSDOF 2
ENDMDL
MODEL 5
REMARK VINA RESULT:    -2.528     17.183     17.484
REMARK INTER + INTRA:          -2.750
REMARK INTER:                  -2.750
REMARK INTRA:                   0.000
REMARK UNBOUND:                 0.000
REMARK SMILES [NH3+]CC(=O)[O-]
REMARK SMILES IDX 2 1 1 2 3 6 4 7 5 8
REMARK H PARENT 1 3 1 4 1 5
REMARK Flexibility Score: inf
ROOT
ATOM      1  C   UNL     1     118.547 130.404 143.677  1.00  0.00     0.312 C 
ENDROOT
BRANCH   1   2
ATOM      2  N   UNL     1     118.272 131.144 142.446  1.00  0.00    -0.353 N 
ATOM      3  H   UNL     1     117.554 131.883 142.624  1.00  0.00     0.344 HD
ATOM      4  H   UNL     1     117.932 130.490 141.704  1.00  0.00     0.344 HD
ATOM      5  H   UNL     1     119.154 131.600 142.118  1.00  0.00     0.344 HD
ENDBRANCH   1   2
BRANCH   1   6
ATOM      6  C   UNL     1     120.011 130.121 143.807  1.00  0.00     0.096 C 
ATOM      7  O   UNL     1     120.460 129.571 144.848  1.00  0.00    -0.544 OA
ATOM      8  O   UNL     1     120.887 130.510 142.802  1.00  0.00    -0.544 OA
ENDBRANCH   1   6
TORSDOF 2
ENDMDL
MODEL 6
REMARK VINA RESULT:    -2.494      2.045      2.385
REMARK INTER + INTRA:          -2.713
REMARK INTER:                  -2.713
REMARK INTRA:                   0.000
REMARK UNBOUND:                 0.000
REMARK SMILES [NH3+]CC(=O)[O-]
REMARK SMILES IDX 2 1 1 2 3 6 4 7 5 8
REMARK H PARENT 1 3 1 4 1 5
REMARK Flexibility Score: inf
ROOT
ATOM      1  C   UNL     1     123.296 113.753 144.564  1.00  0.00     0.312 C 
ENDROOT
BRANCH   1   2
ATOM      2  N   UNL     1     124.596 114.115 145.124  1.00  0.00    -0.353 N 
ATOM      3  H   UNL     1     124.712 113.687 146.071  1.00  0.00     0.344 HD
ATOM      4  H   UNL     1     124.679 115.156 145.193  1.00  0.00     0.344 HD
ATOM      5  H   UNL     1     125.351 113.757 144.495  1.00  0.00     0.344 HD
ENDBRANCH   1   2
BRANCH   1   6
ATOM      6  C   UNL     1     123.465 112.931 143.325  1.00  0.00     0.096 C 
ATOM      7  O   UNL     1     122.470 112.670 142.597  1.00  0.00    -0.544 OA
ATOM      8  O   UNL     1     124.711 112.410 143.000  1.00  0.00    -0.544 OA
ENDBRANCH   1   6
TORSDOF 2
ENDMDL
MODEL 7
REMARK VINA RESULT:    -2.377      8.922      9.257
REMARK INTER + INTRA:          -2.586
REMARK INTER:                  -2.586
REMARK INTRA:                   0.000
REMARK UNBOUND:                 0.000
REMARK SMILES [NH3+]CC(=O)[O-]
REMARK SMILES IDX 2 1 1 2 3 6 4 7 5 8
REMARK H PARENT 1 3 1 4 1 5
REMARK Flexibility Score: inf
ROOT
ATOM      1  C   UNL     1     130.116 113.308 138.157  1.00  0.00     0.312 C 
ENDROOT
BRANCH   1   2
ATOM      2  N   UNL     1     128.824 113.050 137.525  1.00  0.00    -0.353 N 
ATOM      3  H   UNL     1     128.877 112.184 136.940  1.00  0.00     0.344 HD
ATOM      4  H   UNL     1     128.548 113.864 136.929  1.00  0.00     0.344 HD
ATOM      5  H   UNL     1     128.101 112.913 138.268  1.00  0.00     0.344 HD
ENDBRANCH   1   2
BRANCH   1   6
ATOM      6  C   UNL     1     131.038 114.009 137.208  1.00  0.00     0.096 C 
ATOM      7  O   UNL     1     131.031 113.713 135.983  1.00  0.00    -0.544 OA
ATOM      8  O   UNL     1     131.941 114.951 137.684  1.00  0.00    -0.544 OA
ENDBRANCH   1   6
TORSDOF 2
ENDMDL
MODEL 8
REMARK VINA RESULT:    -2.257      8.164      8.518
REMARK INTER + INTRA:          -2.454
REMARK INTER:                  -2.454
REMARK INTRA:                   0.000
REMARK UNBOUND:                 0.000
REMARK SMILES [NH3+]CC(=O)[O-]
REMARK SMILES IDX 2 1 1 2 3 6 4 7 5 8
REMARK H PARENT 1 3 1 4 1 5
REMARK Flexibility Score: inf
ROOT
ATOM      1  C   UNL     1     129.919 113.426 137.228  1.00  0.00     0.312 C 
ENDROOT
BRANCH   1   2
ATOM      2  N   UNL     1     128.640 112.926 137.728  1.00  0.00    -0.353 N 
ATOM      3  H   UNL     1     128.465 113.289 138.693  1.00  0.00     0.344 HD
ATOM      4  H   UNL     1     128.644 111.880 137.738  1.00  0.00     0.344 HD
ATOM      5  H   UNL     1     127.874 113.256 137.097  1.00  0.00     0.344 HD
ENDBRANCH   1   2
BRANCH   1   6
ATOM      6  C   UNL     1     130.841 113.746 138.363  1.00  0.00     0.096 C 
ATOM      7  O   UNL     1     130.710 113.160 139.470  1.00  0.00    -0.544 OA
ATOM      8  O   UNL     1     131.813 114.728 138.215  1.00  0.00    -0.544 OA
ENDBRANCH   1   6
TORSDOF 2
ENDMDL
MODEL 9
REMARK VINA RESULT:    -2.250     18.988     19.373
REMARK INTER + INTRA:          -2.447
REMARK INTER:                  -2.447
REMARK INTRA:                   0.000
REMARK UNBOUND:                 0.000
REMARK SMILES [NH3+]CC(=O)[O-]
REMARK SMILES IDX 2 1 1 2 3 6 4 7 5 8
REMARK H PARENT 1 3 1 4 1 5
REMARK Flexibility Score: inf
ROOT
ATOM      1  C   UNL     1     117.314 131.768 142.428  1.00  0.00     0.312 C 
ENDROOT
BRANCH   1   2
ATOM      2  N   UNL     1     118.637 131.147 142.427  1.00  0.00    -0.353 N 
ATOM      3  H   UNL     1     118.674 130.381 141.715  1.00  0.00     0.344 HD
ATOM      4  H   UNL     1     118.853 130.761 143.375  1.00  0.00     0.344 HD
ATOM      5  H   UNL     1     119.354 131.870 142.185  1.00  0.00     0.344 HD
ENDBRANCH   1   2
BRANCH   1   6
ATOM      6  C   UNL     1     116.575 131.433 143.685  1.00  0.00     0.096 C 
ATOM      7  O   UNL     1     115.418 131.893 143.882  1.00  0.00    -0.544 OA
ATOM      8  O   UNL     1     117.182 130.656 144.664  1.00  0.00    -0.544 OA
ENDBRANCH   1   6
TORSDOF 2
ENDMDL
