MODEL 1
REMARK VINA RESULT:    -3.519      0.000      0.000
REMARK INTER + INTRA:          -4.174
REMARK INTER:                  -4.136
REMARK INTRA:                  -0.038
REMARK UNBOUND:                -0.038
REMARK SMILES CCCCC(=O)[O-]
REMARK SMILES IDX 4 1 5 2 6 3 7 4 3 5 2 6 1 7
REMARK H PARENT
REMARK Flexibility Score: inf
ROOT
ATOM      1  C   UNL     1     -10.090 -23.429  18.076  1.00  0.00     0.053 C 
ENDROOT
BRANCH   1   2
ATOM      2  C   UNL     1     -10.841 -22.908  16.894  1.00  0.00     0.041 C 
ATOM      3  O   UNL     1     -11.285 -21.730  16.893  1.00  0.00    -0.550 OA
ATOM      4  O   UNL     1     -11.012 -23.708  15.770  1.00  0.00    -0.550 OA
ENDBRANCH   1   2
BRANCH   1   5
ATOM      5  C   UNL     1      -9.423 -22.281  18.837  1.00  0.00     0.006 C 
BRANCH   5   6
ATOM      6  C   UNL     1      -9.463 -22.525  20.350  1.00  0.00    -0.003 C 
ATOM      7  C   UNL     1      -8.789 -23.846  20.714  1.00  0.00     0.004 C 
ENDBRANCH   5   6
ENDBRANCH   1   5
TORSDOF 3
ENDMDL
MODEL 2
REMARK VINA RESULT:    -3.344      9.882     10.682
REMARK INTER + INTRA:          -3.969
REMARK INTER:                  -3.838
REMARK INTRA:                  -0.131
REMARK UNBOUND:                -0.038
REMARK SMILES CCCCC(=O)[O-]
REMARK SMILES IDX 4 1 5 2 6 3 7 4 3 5 2 6 1 7
REMARK H PARENT
REMARK Flexibility Score: inf
ROOT
ATOM      1  C   UNL     1     -10.813 -13.791  17.037  1.00  0.00     0.053 C 
ENDROOT
BRANCH   1   2
ATOM      2  C   UNL     1     -11.086 -12.384  17.465  1.00  0.00     0.041 C 
ATOM      3  O   UNL     1     -11.978 -12.144  18.321  1.00  0.00    -0.550 OA
ATOM      4  O   UNL     1     -10.324 -11.340  16.954  1.00  0.00    -0.550 OA
ENDBRANCH   1   2
BRANCH   1   5
ATOM      5  C   UNL     1     -12.003 -14.356  16.259  1.00  0.00     0.006 C 
BRANCH   5   6
ATOM      6  C   UNL     1     -12.224 -13.586  14.953  1.00  0.00    -0.003 C 
ATOM      7  C   UNL     1     -11.078 -13.823  13.972  1.00  0.00     0.004 C 
ENDBRANCH   5   6
ENDBRANCH   1   5
TORSDOF 3
ENDMDL
MODEL 3
REMARK VINA RESULT:    -3.318      9.927     10.694
REMARK INTER + INTRA:          -3.938
REMARK INTER:                  -3.818
REMARK INTRA:                  -0.121
REMARK UNBOUND:                -0.038
REMARK SMILES CCCCC(=O)[O-]
REMARK SMILES IDX 4 1 5 2 6 3 7 4 3 5 2 6 1 7
REMARK H PARENT
REMARK Flexibility Score: inf
ROOT
ATOM      1  C   UNL     1     -10.824 -13.783  17.034  1.00  0.00     0.053 C 
ENDROOT
BRANCH   1   2
ATOM      2  C   UNL     1     -11.057 -12.370  17.462  1.00  0.00     0.041 C 
ATOM      3  O   UNL     1     -10.367 -11.437  16.972  1.00  0.00    -0.550 OA
ATOM      4  O   UNL     1     -12.070 -12.074  18.366  1.00  0.00    -0.550 OA
ENDBRANCH   1   2
BRANCH   1   5
ATOM      5  C   UNL     1     -12.037 -14.321  16.272  1.00  0.00     0.006 C 
BRANCH   5   6
ATOM      6  C   UNL     1     -12.232 -13.572  14.949  1.00  0.00    -0.003 C 
ATOM      7  C   UNL     1     -11.070 -13.828  13.993  1.00  0.00     0.004 C 
ENDBRANCH   5   6
ENDBRANCH   1   5
TORSDOF 3
ENDMDL
MODEL 4
REMARK VINA RESULT:    -3.243     10.092     10.917
REMARK INTER + INTRA:          -3.849
REMARK INTER:                  -3.741
REMARK INTRA:                  -0.109
REMARK UNBOUND:                -0.038
REMARK SMILES CCCCC(=O)[O-]
REMARK SMILES IDX 4 1 5 2 6 3 7 4 3 5 2 6 1 7
REMARK H PARENT
REMARK Flexibility Score: inf
ROOT
ATOM      1  C   UNL     1     -10.148 -12.166  16.650  1.00  0.00     0.053 C 
ENDROOT
BRANCH   1   2
ATOM      2  C   UNL     1     -11.340 -12.712  17.369  1.00  0.00     0.041 C 
ATOM      3  O   UNL     1     -11.918 -12.025  18.252  1.00  0.00    -0.550 OA
ATOM      4  O   UNL     1     -11.845 -13.962  17.031  1.00  0.00    -0.550 OA
ENDBRANCH   1   2
BRANCH   1   5
ATOM      5  C   UNL     1     -10.483 -11.901  15.180  1.00  0.00     0.006 C 
BRANCH   5   6
ATOM      6  C   UNL     1      -9.833 -12.948  14.269  1.00  0.00    -0.003 C 
ATOM      7  C   UNL     1     -10.886 -13.807  13.575  1.00  0.00     0.004 C 
ENDBRANCH   5   6
ENDBRANCH   1   5
TORSDOF 3
ENDMDL
MODEL 5
REMARK VINA RESULT:    -3.201      2.157      4.043
REMARK INTER + INTRA:          -3.800
REMARK INTER:                  -3.777
REMARK INTRA:                  -0.024
REMARK UNBOUND:                -0.038
REMARK SMILES CCCCC(=O)[O-]
REMARK SMILES IDX 4 1 5 2 6 3 7 4 3 5 2 6 1 7
REMARK H PARENT
REMARK Flexibility Score: inf
ROOT
ATOM      1  C   UNL     1     -10.267 -23.619  17.637  1.00  0.00     0.053 C 
ENDROOT
BRANCH   1   2
ATOM      2  C   UNL     1      -9.572 -22.916  18.758  1.00  0.00     0.041 C 
ATOM      3  O   UNL     1      -9.007 -23.577  19.669  1.00  0.00    -0.550 OA
ATOM      4  O   UNL     1      -9.505 -21.527  18.774  1.00  0.00    -0.550 OA
ENDBRANCH   1   2
BRANCH   1   5
ATOM      5  C   UNL     1     -11.147 -22.642  16.854  1.00  0.00     0.006 C 
BRANCH   5   6
ATOM      6  C   UNL     1     -11.902 -23.361  15.731  1.00  0.00    -0.003 C 
ATOM      7  C   UNL     1     -10.949 -23.820  14.630  1.00  0.00     0.004 C 
ENDBRANCH   5   6
ENDBRANCH   1   5
TORSDOF 3
ENDMDL
MODEL 6
REMARK VINA RESULT:    -3.057      9.711     10.255
REMARK INTER + INTRA:          -3.631
REMARK INTER:                  -3.548
REMARK INTRA:                  -0.083
REMARK UNBOUND:                -0.038
REMARK SMILES CCCCC(=O)[O-]
REMARK SMILES IDX 4 1 5 2 6 3 7 4 3 5 2 6 1 7
REMARK H PARENT
REMARK Flexibility Score: inf
ROOT
ATOM      1  C   UNL     1     -10.476 -13.583  15.815  1.00  0.00     0.053 C 
ENDROOT
BRANCH   1   2
ATOM      2  C   UNL     1     -11.230 -13.588  14.524  1.00  0.00     0.041 C 
ATOM      3  O   UNL     1     -12.487 -13.528  14.523  1.00  0.00    -0.550 OA
ATOM      4  O   UNL     1     -10.541 -13.610  13.316  1.00  0.00    -0.550 OA
ENDBRANCH   1   2
BRANCH   1   5
ATOM      5  C   UNL     1     -11.438 -13.724  16.998  1.00  0.00     0.006 C 
BRANCH   5   6
ATOM      6  C   UNL     1     -11.565 -12.404  17.765  1.00  0.00    -0.003 C 
ATOM      7  C   UNL     1     -10.346 -11.513  17.537  1.00  0.00     0.004 C 
ENDBRANCH   5   6
ENDBRANCH   1   5
TORSDOF 3
ENDMDL
MODEL 7
REMARK VINA RESULT:    -3.042     10.075     11.078
REMARK INTER + INTRA:          -3.614
REMARK INTER:                  -3.485
REMARK INTRA:                  -0.129
REMARK UNBOUND:                -0.038
REMARK SMILES CCCCC(=O)[O-]
REMARK SMILES IDX 4 1 5 2 6 3 7 4 3 5 2 6 1 7
REMARK H PARENT
REMARK Flexibility Score: inf
ROOT
ATOM      1  C   UNL     1      -9.811 -13.005  17.226  1.00  0.00     0.053 C 
ENDROOT
BRANCH   1   2
ATOM      2  C   UNL     1     -11.284 -13.103  17.461  1.00  0.00     0.041 C 
ATOM      3  O   UNL     1     -11.936 -14.077  17.002  1.00  0.00    -0.550 OA
ATOM      4  O   UNL     1     -11.932 -12.142  18.230  1.00  0.00    -0.550 OA
ENDBRANCH   1   2
BRANCH   1   5
ATOM      5  C   UNL     1      -9.514 -12.864  15.731  1.00  0.00     0.006 C 
BRANCH   5   6
ATOM      6  C   UNL     1     -10.142 -11.587  15.164  1.00  0.00    -0.003 C 
ATOM      7  C   UNL     1      -9.447 -10.341  15.706  1.00  0.00     0.004 C 
ENDBRANCH   5   6
ENDBRANCH   1   5
TORSDOF 3
ENDMDL
MODEL 8
REMARK VINA RESULT:    -3.025      9.531     10.399
REMARK INTER + INTRA:          -3.593
REMARK INTER:                  -3.508
REMARK INTRA:                  -0.085
REMARK UNBOUND:                -0.038
REMARK SMILES CCCCC(=O)[O-]
REMARK SMILES IDX 4 1 5 2 6 3 7 4 3 5 2 6 1 7
REMARK H PARENT
REMARK Flexibility Score: inf
ROOT
ATOM      1  C   UNL     1     -11.040 -13.871  14.294  1.00  0.00     0.053 C 
ENDROOT
BRANCH   1   2
ATOM      2  C   UNL     1     -11.207 -14.554  15.614  1.00  0.00     0.041 C 
ATOM      3  O   UNL     1     -12.345 -14.636  16.146  1.00  0.00    -0.550 OA
ATOM      4  O   UNL     1     -10.113 -15.145  16.235  1.00  0.00    -0.550 OA
ENDBRANCH   1   2
BRANCH   1   5
ATOM      5  C   UNL     1      -9.879 -12.875  14.349  1.00  0.00     0.006 C 
BRANCH   5   6
ATOM      6  C   UNL     1     -10.249 -11.643  15.183  1.00  0.00    -0.003 C 
ATOM      7  C   UNL     1      -9.019 -10.790  15.483  1.00  0.00     0.004 C 
ENDBRANCH   5   6
ENDBRANCH   1   5
TORSDOF 3
ENDMDL
MODEL 9
REMARK VINA RESULT:    -3.014     10.873     11.552
REMARK INTER + INTRA:          -3.581
REMARK INTER:                  -3.540
REMARK INTRA:                  -0.041
REMARK UNBOUND:                -0.038
REMARK SMILES CCCCC(=O)[O-]
REMARK SMILES IDX 4 1 5 2 6 3 7 4 3 5 2 6 1 7
REMARK H PARENT
REMARK Flexibility Score: inf
ROOT
ATOM      1  C   UNL     1      -9.846 -12.279  16.749  1.00  0.00     0.053 C 
ENDROOT
BRANCH   1   2
ATOM      2  C   UNL     1     -10.690 -11.557  17.749  1.00  0.00     0.041 C 
ATOM      3  O   UNL     1     -10.364 -10.406  18.142  1.00  0.00    -0.550 OA
ATOM      4  O   UNL     1     -11.867 -12.134  18.214  1.00  0.00    -0.550 OA
ENDBRANCH   1   2
BRANCH   1   5
ATOM      5  C   UNL     1     -10.269 -11.912  15.324  1.00  0.00     0.006 C 
BRANCH   5   6
ATOM      6  C   UNL     1     -10.880 -13.119  14.604  1.00  0.00    -0.003 C 
ATOM      7  C   UNL     1     -10.077 -13.485  13.359  1.00  0.00     0.004 C 
ENDBRANCH   5   6
ENDBRANCH   1   5
TORSDOF 3
ENDMDL
