MODEL 1
REMARK VINA RESULT:    -3.462      0.000      0.000
REMARK INTER + INTRA:          -7.945
REMARK INTER:                  -6.093
REMARK INTRA:                  -1.851
REMARK UNBOUND:                -1.851
REMARK SMILES CCCCCCC=CCCCCCCCC(=O)[O-]
REMARK SMILES IDX 10 1 11 2 12 3 13 4 14 5 15 6 16 7 17 8 18 9 9 10 8 11 7 12
REMARK SMILES IDX 6 13 5 14 4 15 3 16 2 17 1 18
REMARK H PARENT
REMARK Flexibility Score: inf
ROOT
ATOM      1  C   UNL     1      58.040  29.199  49.809  1.00  0.00     0.004 C 
ENDROOT
BRANCH   1   2
ATOM      2  C   UNL     1      59.337  28.733  49.126  1.00  0.00     0.000 C 
BRANCH   2   3
ATOM      3  C   UNL     1      60.353  28.130  50.114  1.00  0.00     0.000 C 
BRANCH   3   4
ATOM      4  C   UNL     1      60.821  26.703  49.775  1.00  0.00     0.000 C 
BRANCH   4   5
ATOM      5  C   UNL     1      59.654  25.732  49.521  1.00  0.00     0.006 C 
BRANCH   5   6
ATOM      6  C   UNL     1      59.607  24.599  50.553  1.00  0.00     0.053 C 
BRANCH   6   7
ATOM      7  C   UNL     1      60.908  23.859  50.626  1.00  0.00     0.041 C 
ATOM      8  O   UNL     1      61.305  23.176  49.645  1.00  0.00    -0.550 OA
ATOM      9  O   UNL     1      61.668  23.900  51.788  1.00  0.00    -0.550 OA
ENDBRANCH   6   7
ENDBRANCH   5   6
ENDBRANCH   4   5
ENDBRANCH   3   4
ENDBRANCH   2   3
ENDBRANCH   1   2
BRANCH   1  10
ATOM     10  C   UNL     1      57.889  28.617  51.219  1.00  0.00     0.027 C 
BRANCH  10  11
ATOM     11  C   UNL     1      56.875  27.505  51.249  1.00  0.00    -0.031 C 
ATOM     12  C   UNL     1      56.225  27.113  50.142  1.00  0.00    -0.031 C 
BRANCH  12  13
ATOM     13  C   UNL     1      55.260  25.961  50.164  1.00  0.00     0.027 C 
BRANCH  13  14
ATOM     14  C   UNL     1      53.830  26.438  50.442  1.00  0.00     0.004 C 
BRANCH  14  15
ATOM     15  C   UNL     1      53.423  27.555  49.469  1.00  0.00     0.000 C 
BRANCH  15  16
ATOM     16  C   UNL     1      52.876  28.797  50.204  1.00  0.00    -0.000 C 
BRANCH  16  17
ATOM     17  C   UNL     1      53.956  29.839  50.541  1.00  0.00    -0.003 C 
ATOM     18  C   UNL     1      53.554  30.768  51.684  1.00  0.00     0.004 C 
ENDBRANCH  16  17
ENDBRANCH  15  16
ENDBRANCH  14  15
ENDBRANCH  13  14
ENDBRANCH  12  13
ENDBRANCH  10  11
ENDBRANCH   1  10
TORSDOF 13
ENDMDL
MODEL 2
REMARK VINA RESULT:    -3.407     11.478     13.489
REMARK INTER + INTRA:          -7.847
REMARK INTER:                  -5.801
REMARK INTRA:                  -2.047
REMARK UNBOUND:                -1.851
REMARK SMILES CCCCCCC=CCCCCCCCC(=O)[O-]
REMARK SMILES IDX 10 1 11 2 12 3 13 4 14 5 15 6 16 7 17 8 18 9 9 10 8 11 7 12
REMARK SMILES IDX 6 13 5 14 4 15 3 16 2 17 1 18
REMARK H PARENT
REMARK Flexibility Score: inf
ROOT
ATOM      1  C   UNL     1      64.218  33.891  61.057  1.00  0.00     0.004 C 
ENDROOT
BRANCH   1   2
ATOM      2  C   UNL     1      63.575  35.288  61.083  1.00  0.00     0.000 C 
BRANCH   2   3
ATOM      3  C   UNL     1      62.419  35.436  60.077  1.00  0.00     0.000 C 
BRANCH   3   4
ATOM      4  C   UNL     1      61.122  36.027  60.661  1.00  0.00     0.000 C 
BRANCH   4   5
ATOM      5  C   UNL     1      59.977  36.095  59.634  1.00  0.00     0.006 C 
BRANCH   5   6
ATOM      6  C   UNL     1      60.324  35.363  58.332  1.00  0.00     0.053 C 
BRANCH   6   7
ATOM      7  C   UNL     1      59.111  35.137  57.480  1.00  0.00     0.041 C 
ATOM      8  O   UNL     1      58.447  34.073  57.591  1.00  0.00    -0.550 OA
ATOM      9  O   UNL     1      58.731  36.091  56.545  1.00  0.00    -0.550 OA
ENDBRANCH   6   7
ENDBRANCH   5   6
ENDBRANCH   4   5
ENDBRANCH   3   4
ENDBRANCH   2   3
ENDBRANCH   1   2
BRANCH   1  10
ATOM     10  C   UNL     1      64.429  33.379  59.627  1.00  0.00     0.027 C 
BRANCH  10  11
ATOM     11  C   UNL     1      64.427  31.875  59.575  1.00  0.00    -0.031 C 
ATOM     12  C   UNL     1      64.590  31.132  60.680  1.00  0.00    -0.031 C 
BRANCH  12  13
ATOM     13  C   UNL     1      64.525  29.631  60.634  1.00  0.00     0.027 C 
BRANCH  13  14
ATOM     14  C   UNL     1      63.075  29.136  60.664  1.00  0.00     0.004 C 
BRANCH  14  15
ATOM     15  C   UNL     1      62.303  29.761  61.837  1.00  0.00     0.000 C 
BRANCH  15  16
ATOM     16  C   UNL     1      60.949  30.355  61.393  1.00  0.00    -0.000 C 
BRANCH  16  17
ATOM     17  C   UNL     1      61.049  31.802  60.881  1.00  0.00    -0.003 C 
ATOM     18  C   UNL     1      60.788  31.924  59.382  1.00  0.00     0.004 C 
ENDBRANCH  16  17
ENDBRANCH  15  16
ENDBRANCH  14  15
ENDBRANCH  13  14
ENDBRANCH  12  13
ENDBRANCH  10  11
ENDBRANCH   1  10
TORSDOF 13
ENDMDL
MODEL 3
REMARK VINA RESULT:    -3.400     13.177     14.710
REMARK INTER + INTRA:          -7.836
REMARK INTER:                  -6.750
REMARK INTRA:                  -1.086
REMARK UNBOUND:                -1.851
REMARK SMILES CCCCCCC=CCCCCCCCC(=O)[O-]
REMARK SMILES IDX 10 1 11 2 12 3 13 4 14 5 15 6 16 7 17 8 18 9 9 10 8 11 7 12
REMARK SMILES IDX 6 13 5 14 4 15 3 16 2 17 1 18
REMARK H PARENT
REMARK Flexibility Score: inf
ROOT
ATOM      1  C   UNL     1      66.808  28.243  61.263  1.00  0.00     0.004 C 
ENDROOT
BRANCH   1   2
ATOM      2  C   UNL     1      68.239  28.629  61.673  1.00  0.00     0.000 C 
BRANCH   2   3
ATOM      3  C   UNL     1      69.068  29.192  60.504  1.00  0.00     0.000 C 
BRANCH   3   4
ATOM      4  C   UNL     1      70.594  29.079  60.676  1.00  0.00     0.000 C 
BRANCH   4   5
ATOM      5  C   UNL     1      71.209  30.291  61.399  1.00  0.00     0.006 C 
BRANCH   5   6
ATOM      6  C   UNL     1      72.124  31.110  60.481  1.00  0.00     0.053 C 
BRANCH   6   7
ATOM      7  C   UNL     1      71.439  32.340  59.966  1.00  0.00     0.041 C 
ATOM      8  O   UNL     1      71.467  33.407  60.633  1.00  0.00    -0.550 OA
ATOM      9  O   UNL     1      70.745  32.298  58.764  1.00  0.00    -0.550 OA
ENDBRANCH   6   7
ENDBRANCH   5   6
ENDBRANCH   4   5
ENDBRANCH   3   4
ENDBRANCH   2   3
ENDBRANCH   1   2
BRANCH   1  10
ATOM     10  C   UNL     1      66.107  29.365  60.487  1.00  0.00     0.027 C 
BRANCH  10  11
ATOM     11  C   UNL     1      64.690  29.555  60.956  1.00  0.00    -0.031 C 
ATOM     12  C   UNL     1      63.713  28.702  60.613  1.00  0.00    -0.031 C 
BRANCH  12  13
ATOM     13  C   UNL     1      62.312  28.861  61.135  1.00  0.00     0.027 C 
BRANCH  13  14
ATOM     14  C   UNL     1      62.142  30.193  61.874  1.00  0.00     0.004 C 
BRANCH  14  15
ATOM     15  C   UNL     1      61.160  31.113  61.133  1.00  0.00     0.000 C 
BRANCH  15  16
ATOM     16  C   UNL     1      61.860  31.963  60.052  1.00  0.00    -0.000 C 
BRANCH  16  17
ATOM     17  C   UNL     1      62.469  33.268  60.592  1.00  0.00    -0.003 C 
ATOM     18  C   UNL     1      63.996  33.246  60.625  1.00  0.00     0.004 C 
ENDBRANCH  16  17
ENDBRANCH  15  16
ENDBRANCH  14  15
ENDBRANCH  13  14
ENDBRANCH  12  13
ENDBRANCH  10  11
ENDBRANCH   1  10
TORSDOF 13
ENDMDL
MODEL 4
REMARK VINA RESULT:    -3.362     11.552     13.374
REMARK INTER + INTRA:          -7.768
REMARK INTER:                  -5.885
REMARK INTRA:                  -1.884
REMARK UNBOUND:                -1.851
REMARK SMILES CCCCCCC=CCCCCCCCC(=O)[O-]
REMARK SMILES IDX 10 1 11 2 12 3 13 4 14 5 15 6 16 7 17 8 18 9 9 10 8 11 7 12
REMARK SMILES IDX 6 13 5 14 4 15 3 16 2 17 1 18
REMARK H PARENT
REMARK Flexibility Score: inf
ROOT
ATOM      1  C   UNL     1      61.097  29.975  61.346  1.00  0.00     0.004 C 
ENDROOT
BRANCH   1   2
ATOM      2  C   UNL     1      62.546  30.296  61.747  1.00  0.00     0.000 C 
BRANCH   2   3
ATOM      3  C   UNL     1      63.560  29.270  61.208  1.00  0.00     0.000 C 
BRANCH   3   4
ATOM      4  C   UNL     1      64.893  29.868  60.720  1.00  0.00     0.000 C 
BRANCH   4   5
ATOM      5  C   UNL     1      64.755  31.319  60.226  1.00  0.00     0.006 C 
BRANCH   5   6
ATOM      6  C   UNL     1      64.543  31.397  58.709  1.00  0.00     0.053 C 
BRANCH   6   7
ATOM      7  C   UNL     1      65.298  32.538  58.099  1.00  0.00     0.041 C 
ATOM      8  O   UNL     1      64.798  33.693  58.082  1.00  0.00    -0.550 OA
ATOM      9  O   UNL     1      66.543  32.319  57.523  1.00  0.00    -0.550 OA
ENDBRANCH   6   7
ENDBRANCH   5   6
ENDBRANCH   4   5
ENDBRANCH   3   4
ENDBRANCH   2   3
ENDBRANCH   1   2
BRANCH   1  10
ATOM     10  C   UNL     1      60.679  30.702  60.061  1.00  0.00     0.027 C 
BRANCH  10  11
ATOM     11  C   UNL     1      61.129  32.138  60.071  1.00  0.00    -0.031 C 
ATOM     12  C   UNL     1      61.093  32.896  58.965  1.00  0.00    -0.031 C 
BRANCH  12  13
ATOM     13  C   UNL     1      61.483  34.347  58.994  1.00  0.00     0.027 C 
BRANCH  13  14
ATOM     14  C   UNL     1      61.185  34.976  60.359  1.00  0.00     0.004 C 
BRANCH  14  15
ATOM     15  C   UNL     1      62.423  35.695  60.918  1.00  0.00     0.000 C 
BRANCH  15  16
ATOM     16  C   UNL     1      63.620  34.738  61.101  1.00  0.00    -0.000 C 
BRANCH  16  17
ATOM     17  C   UNL     1      64.802  35.368  61.855  1.00  0.00    -0.003 C 
ATOM     18  C   UNL     1      65.835  36.002  60.925  1.00  0.00     0.004 C 
ENDBRANCH  16  17
ENDBRANCH  15  16
ENDBRANCH  14  15
ENDBRANCH  13  14
ENDBRANCH  12  13
ENDBRANCH  10  11
ENDBRANCH   1  10
TORSDOF 13
ENDMDL
MODEL 5
REMARK VINA RESULT:    -3.354     11.815     13.708
REMARK INTER + INTRA:          -7.754
REMARK INTER:                  -6.137
REMARK INTRA:                  -1.617
REMARK UNBOUND:                -1.851
REMARK SMILES CCCCCCC=CCCCCCCCC(=O)[O-]
REMARK SMILES IDX 10 1 11 2 12 3 13 4 14 5 15 6 16 7 17 8 18 9 9 10 8 11 7 12
REMARK SMILES IDX 6 13 5 14 4 15 3 16 2 17 1 18
REMARK H PARENT
REMARK Flexibility Score: inf
ROOT
ATOM      1  C   UNL     1      61.211  31.645  59.763  1.00  0.00     0.004 C 
ENDROOT
BRANCH   1   2
ATOM      2  C   UNL     1      61.067  31.433  61.279  1.00  0.00     0.000 C 
BRANCH   2   3
ATOM      3  C   UNL     1      61.665  30.097  61.759  1.00  0.00     0.000 C 
BRANCH   3   4
ATOM      4  C   UNL     1      63.198  29.998  61.658  1.00  0.00     0.000 C 
BRANCH   4   5
ATOM      5  C   UNL     1      63.668  29.142  60.469  1.00  0.00     0.006 C 
BRANCH   5   6
ATOM      6  C   UNL     1      62.731  27.959  60.201  1.00  0.00     0.053 C 
BRANCH   6   7
ATOM      7  C   UNL     1      63.089  26.765  61.034  1.00  0.00     0.041 C 
ATOM      8  O   UNL     1      62.453  26.516  62.091  1.00  0.00    -0.550 OA
ATOM      9  O   UNL     1      64.145  25.945  60.656  1.00  0.00    -0.550 OA
ENDBRANCH   6   7
ENDBRANCH   5   6
ENDBRANCH   4   5
ENDBRANCH   3   4
ENDBRANCH   2   3
ENDBRANCH   1   2
BRANCH   1  10
ATOM     10  C   UNL     1      62.335  32.632  59.423  1.00  0.00     0.027 C 
BRANCH  10  11
ATOM     11  C   UNL     1      62.379  33.774  60.403  1.00  0.00    -0.031 C 
ATOM     12  C   UNL     1      61.945  35.000  60.076  1.00  0.00    -0.031 C 
BRANCH  12  13
ATOM     13  C   UNL     1      61.933  36.122  61.077  1.00  0.00     0.027 C 
BRANCH  13  14
ATOM     14  C   UNL     1      63.160  37.025  60.916  1.00  0.00     0.004 C 
BRANCH  14  15
ATOM     15  C   UNL     1      64.294  36.588  61.856  1.00  0.00     0.000 C 
BRANCH  15  16
ATOM     16  C   UNL     1      65.401  35.810  61.114  1.00  0.00    -0.000 C 
BRANCH  16  17
ATOM     17  C   UNL     1      65.566  36.227  59.643  1.00  0.00    -0.003 C 
ATOM     18  C   UNL     1      65.422  35.058  58.670  1.00  0.00     0.004 C 
ENDBRANCH  16  17
ENDBRANCH  15  16
ENDBRANCH  14  15
ENDBRANCH  13  14
ENDBRANCH  12  13
ENDBRANCH  10  11
ENDBRANCH   1  10
TORSDOF 13
ENDMDL
MODEL 6
REMARK VINA RESULT:    -3.300     11.335     13.189
REMARK INTER + INTRA:          -7.660
REMARK INTER:                  -5.729
REMARK INTRA:                  -1.931
REMARK UNBOUND:                -1.851
REMARK SMILES CCCCCCC=CCCCCCCCC(=O)[O-]
REMARK SMILES IDX 10 1 11 2 12 3 13 4 14 5 15 6 16 7 17 8 18 9 9 10 8 11 7 12
REMARK SMILES IDX 6 13 5 14 4 15 3 16 2 17 1 18
REMARK H PARENT
REMARK Flexibility Score: inf
ROOT
ATOM      1  C   UNL     1      60.598  30.992  59.813  1.00  0.00     0.004 C 
ENDROOT
BRANCH   1   2
ATOM      2  C   UNL     1      61.079  31.372  61.224  1.00  0.00     0.000 C 
BRANCH   2   3
ATOM      3  C   UNL     1      62.177  30.435  61.757  1.00  0.00     0.000 C 
BRANCH   3   4
ATOM      4  C   UNL     1      61.974  28.943  61.431  1.00  0.00     0.000 C 
BRANCH   4   5
ATOM      5  C   UNL     1      63.150  28.334  60.647  1.00  0.00     0.006 C 
BRANCH   5   6
ATOM      6  C   UNL     1      64.489  28.987  61.012  1.00  0.00     0.053 C 
BRANCH   6   7
ATOM      7  C   UNL     1      65.204  29.505  59.801  1.00  0.00     0.041 C 
ATOM      8  O   UNL     1      64.563  29.768  58.751  1.00  0.00    -0.550 OA
ATOM      9  O   UNL     1      66.583  29.670  59.825  1.00  0.00    -0.550 OA
ENDBRANCH   6   7
ENDBRANCH   5   6
ENDBRANCH   4   5
ENDBRANCH   3   4
ENDBRANCH   2   3
ENDBRANCH   1   2
BRANCH   1  10
ATOM     10  C   UNL     1      60.766  32.145  58.816  1.00  0.00     0.027 C 
BRANCH  10  11
ATOM     11  C   UNL     1      61.060  33.442  59.520  1.00  0.00    -0.031 C 
ATOM     12  C   UNL     1      61.263  34.582  58.843  1.00  0.00    -0.031 C 
BRANCH  12  13
ATOM     13  C   UNL     1      61.495  35.887  59.552  1.00  0.00     0.027 C 
BRANCH  13  14
ATOM     14  C   UNL     1      62.058  35.663  60.960  1.00  0.00     0.004 C 
BRANCH  14  15
ATOM     15  C   UNL     1      63.413  36.365  61.131  1.00  0.00     0.000 C 
BRANCH  15  16
ATOM     16  C   UNL     1      64.584  35.363  61.205  1.00  0.00    -0.000 C 
BRANCH  16  17
ATOM     17  C   UNL     1      64.137  33.892  61.213  1.00  0.00    -0.003 C 
ATOM     18  C   UNL     1      64.571  33.128  59.963  1.00  0.00     0.004 C 
ENDBRANCH  16  17
ENDBRANCH  15  16
ENDBRANCH  14  15
ENDBRANCH  13  14
ENDBRANCH  12  13
ENDBRANCH  10  11
ENDBRANCH   1  10
TORSDOF 13
ENDMDL
MODEL 7
REMARK VINA RESULT:    -3.245      2.855      6.271
REMARK INTER + INTRA:          -7.563
REMARK INTER:                  -5.807
REMARK INTRA:                  -1.756
REMARK UNBOUND:                -1.851
REMARK SMILES CCCCCCC=CCCCCCCCC(=O)[O-]
REMARK SMILES IDX 10 1 11 2 12 3 13 4 14 5 15 6 16 7 17 8 18 9 9 10 8 11 7 12
REMARK SMILES IDX 6 13 5 14 4 15 3 16 2 17 1 18
REMARK H PARENT
REMARK Flexibility Score: inf
ROOT
ATOM      1  C   UNL     1      57.342  28.830  50.782  1.00  0.00     0.004 C 
ENDROOT
BRANCH   1   2
ATOM      2  C   UNL     1      56.262  27.899  50.206  1.00  0.00     0.000 C 
BRANCH   2   3
ATOM      3  C   UNL     1      54.846  28.500  50.283  1.00  0.00     0.000 C 
BRANCH   3   4
ATOM      4  C   UNL     1      53.724  27.591  49.750  1.00  0.00     0.000 C 
BRANCH   4   5
ATOM      5  C   UNL     1      54.211  26.170  49.411  1.00  0.00     0.006 C 
BRANCH   5   6
ATOM      6  C   UNL     1      53.306  25.089  50.013  1.00  0.00     0.053 C 
BRANCH   6   7
ATOM      7  C   UNL     1      53.691  24.763  51.424  1.00  0.00     0.041 C 
ATOM      8  O   UNL     1      52.875  24.183  52.187  1.00  0.00    -0.550 OA
ATOM      9  O   UNL     1      54.944  25.125  51.904  1.00  0.00    -0.550 OA
ENDBRANCH   6   7
ENDBRANCH   5   6
ENDBRANCH   4   5
ENDBRANCH   3   4
ENDBRANCH   2   3
ENDBRANCH   1   2
BRANCH   1  10
ATOM     10  C   UNL     1      58.354  29.268  49.716  1.00  0.00     0.027 C 
BRANCH  10  11
ATOM     11  C   UNL     1      59.521  28.321  49.645  1.00  0.00    -0.031 C 
ATOM     12  C   UNL     1      60.530  28.377  50.529  1.00  0.00    -0.031 C 
BRANCH  12  13
ATOM     13  C   UNL     1      61.662  27.389  50.491  1.00  0.00     0.027 C 
BRANCH  13  14
ATOM     14  C   UNL     1      61.265  26.116  49.736  1.00  0.00     0.004 C 
BRANCH  14  15
ATOM     15  C   UNL     1      61.142  24.922  50.695  1.00  0.00     0.000 C 
BRANCH  15  16
ATOM     16  C   UNL     1      59.781  24.206  50.563  1.00  0.00    -0.000 C 
BRANCH  16  17
ATOM     17  C   UNL     1      58.574  25.122  50.823  1.00  0.00    -0.003 C 
ATOM     18  C   UNL     1      58.492  25.607  52.269  1.00  0.00     0.004 C 
ENDBRANCH  16  17
ENDBRANCH  15  16
ENDBRANCH  14  15
ENDBRANCH  13  14
ENDBRANCH  12  13
ENDBRANCH  10  11
ENDBRANCH   1  10
TORSDOF 13
ENDMDL
MODEL 8
REMARK VINA RESULT:    -3.222     11.377     13.068
REMARK INTER + INTRA:          -7.522
REMARK INTER:                  -5.581
REMARK INTRA:                  -1.941
REMARK UNBOUND:                -1.851
REMARK SMILES CCCCCCC=CCCCCCCCC(=O)[O-]
REMARK SMILES IDX 10 1 11 2 12 3 13 4 14 5 15 6 16 7 17 8 18 9 9 10 8 11 7 12
REMARK SMILES IDX 6 13 5 14 4 15 3 16 2 17 1 18
REMARK H PARENT
REMARK Flexibility Score: inf
ROOT
ATOM      1  C   UNL     1      64.116  33.756  61.283  1.00  0.00     0.004 C 
ENDROOT
BRANCH   1   2
ATOM      2  C   UNL     1      64.264  32.799  60.088  1.00  0.00     0.000 C 
BRANCH   2   3
ATOM      3  C   UNL     1      63.026  31.910  59.873  1.00  0.00     0.000 C 
BRANCH   3   4
ATOM      4  C   UNL     1      61.776  32.333  60.666  1.00  0.00     0.000 C 
BRANCH   4   5
ATOM      5  C   UNL     1      61.142  31.172  61.453  1.00  0.00     0.006 C 
BRANCH   5   6
ATOM      6  C   UNL     1      60.636  30.057  60.531  1.00  0.00     0.053 C 
BRANCH   6   7
ATOM      7  C   UNL     1      61.365  28.768  60.764  1.00  0.00     0.041 C 
ATOM      8  O   UNL     1      61.155  27.777  60.016  1.00  0.00    -0.550 OA
ATOM      9  O   UNL     1      62.255  28.654  61.824  1.00  0.00    -0.550 OA
ENDBRANCH   6   7
ENDBRANCH   5   6
ENDBRANCH   4   5
ENDBRANCH   3   4
ENDBRANCH   2   3
ENDBRANCH   1   2
BRANCH   1  10
ATOM     10  C   UNL     1      64.802  35.105  61.031  1.00  0.00     0.027 C 
BRANCH  10  11
ATOM     11  C   UNL     1      63.796  36.215  60.888  1.00  0.00    -0.031 C 
ATOM     12  C   UNL     1      62.482  36.001  61.050  1.00  0.00    -0.031 C 
BRANCH  12  13
ATOM     13  C   UNL     1      61.486  37.125  60.968  1.00  0.00     0.027 C 
BRANCH  13  14
ATOM     14  C   UNL     1      60.418  36.846  59.905  1.00  0.00     0.004 C 
BRANCH  14  15
ATOM     15  C   UNL     1      60.527  35.406  59.379  1.00  0.00     0.000 C 
BRANCH  15  16
ATOM     16  C   UNL     1      60.039  35.280  57.920  1.00  0.00    -0.000 C 
BRANCH  16  17
ATOM     17  C   UNL     1      61.109  34.743  56.956  1.00  0.00    -0.003 C 
ATOM     18  C   UNL     1      62.520  34.795  57.539  1.00  0.00     0.004 C 
ENDBRANCH  16  17
ENDBRANCH  15  16
ENDBRANCH  14  15
ENDBRANCH  13  14
ENDBRANCH  12  13
ENDBRANCH  10  11
ENDBRANCH   1  10
TORSDOF 13
ENDMDL
MODEL 9
REMARK VINA RESULT:    -3.164     11.868     13.781
REMARK INTER + INTRA:          -7.420
REMARK INTER:                  -5.440
REMARK INTRA:                  -1.980
REMARK UNBOUND:                -1.851
REMARK SMILES CCCCCCC=CCCCCCCCC(=O)[O-]
REMARK SMILES IDX 10 1 11 2 12 3 13 4 14 5 15 6 16 7 17 8 18 9 9 10 8 11 7 12
REMARK SMILES IDX 6 13 5 14 4 15 3 16 2 17 1 18
REMARK H PARENT
REMARK Flexibility Score: inf
ROOT
ATOM      1  C   UNL     1      61.464  32.094  59.527  1.00  0.00     0.004 C 
ENDROOT
BRANCH   1   2
ATOM      2  C   UNL     1      62.046  33.488  59.242  1.00  0.00     0.000 C 
BRANCH   2   3
ATOM      3  C   UNL     1      61.555  34.560  60.232  1.00  0.00     0.000 C 
BRANCH   3   4
ATOM      4  C   UNL     1      62.665  35.256  61.041  1.00  0.00     0.000 C 
BRANCH   4   5
ATOM      5  C   UNL     1      64.063  34.674  60.765  1.00  0.00     0.006 C 
BRANCH   5   6
ATOM      6  C   UNL     1      65.097  35.767  60.470  1.00  0.00     0.053 C 
BRANCH   6   7
ATOM      7  C   UNL     1      65.724  35.590  59.120  1.00  0.00     0.041 C 
ATOM      8  O   UNL     1      66.686  36.321  58.767  1.00  0.00    -0.550 OA
ATOM      9  O   UNL     1      65.225  34.637  58.241  1.00  0.00    -0.550 OA
ENDBRANCH   6   7
ENDBRANCH   5   6
ENDBRANCH   4   5
ENDBRANCH   3   4
ENDBRANCH   2   3
ENDBRANCH   1   2
BRANCH   1  10
ATOM     10  C   UNL     1      61.134  31.900  61.013  1.00  0.00     0.027 C 
BRANCH  10  11
ATOM     11  C   UNL     1      61.341  30.472  61.440  1.00  0.00    -0.031 C 
ATOM     12  C   UNL     1      61.338  29.464  60.555  1.00  0.00    -0.031 C 
BRANCH  12  13
ATOM     13  C   UNL     1      61.608  28.046  60.977  1.00  0.00     0.027 C 
BRANCH  13  14
ATOM     14  C   UNL     1      63.085  27.843  61.331  1.00  0.00     0.004 C 
BRANCH  14  15
ATOM     15  C   UNL     1      63.997  28.338  60.197  1.00  0.00     0.000 C 
BRANCH  15  16
ATOM     16  C   UNL     1      65.141  29.233  60.716  1.00  0.00    -0.000 C 
BRANCH  16  17
ATOM     17  C   UNL     1      64.843  30.738  60.610  1.00  0.00    -0.003 C 
ATOM     18  C   UNL     1      65.062  31.293  59.204  1.00  0.00     0.004 C 
ENDBRANCH  16  17
ENDBRANCH  15  16
ENDBRANCH  14  15
ENDBRANCH  13  14
ENDBRANCH  12  13
ENDBRANCH  10  11
ENDBRANCH   1  10
TORSDOF 13
ENDMDL
