MODEL 1
REMARK VINA RESULT:    -4.192      0.000      0.000
REMARK INTER + INTRA:          -5.676
REMARK INTER:                  -5.907
REMARK INTRA:                   0.231
REMARK UNBOUND:                 0.231
REMARK SMILES CC1=CCC(=C(C)C)C(=O)CC(C)=CCC1
REMARK SMILES IDX 12 1 14 2 13 3 15 4 16 5 2 6 1 7 3 8 11 10 9 11 10 12 5 13
REMARK SMILES IDX 6 14 7 15 8 16 4 17
REMARK H PARENT
REMARK Flexibility Score: 60.00
ROOT
ATOM      1  C   UNL     1     -13.127  15.423 -31.003  1.00  0.00    -0.070 C 
ATOM      2  C   UNL     1     -11.933  15.415 -30.369  1.00  0.00    -0.027 C 
ATOM      3  C   UNL     1     -13.193  16.042 -32.376  1.00  0.00     0.039 C 
ENDROOT
BRANCH   2   4
ATOM      4  C   UNL     1     -11.685  14.930 -28.957  1.00  0.00     0.032 C 
BRANCH   4   5
ATOM      5  C   UNL     1     -11.682  13.397 -28.790  1.00  0.00     0.034 C 
BRANCH   5   6
ATOM      6  C   UNL     1     -12.592  12.913 -27.675  1.00  0.00    -0.077 C 
ATOM      7  C   UNL     1     -12.251  13.324 -26.265  1.00  0.00     0.039 C 
ATOM      8  C   UNL     1     -13.646  12.081 -27.856  1.00  0.00    -0.023 CG0
ATOM      9  G   UNL     1     -14.182  11.558 -29.174  1.00  0.00     0.000 G0
ENDBRANCH   5   6
ENDBRANCH   4   5
ENDBRANCH   2   4
BRANCH   1  10
ATOM     10  C   UNL     1     -14.409  14.927 -30.365  1.00  0.00     0.111 C 
BRANCH  10  11
ATOM     11  C   UNL     1     -14.715  13.508 -30.767  1.00  0.00     0.163 C 
ATOM     12  O   UNL     1     -14.590  13.196 -31.982  1.00  0.00    -0.294 OA
BRANCH  11  13
ATOM     13  C   UNL     1     -15.217  12.491 -29.796  1.00  0.00    -0.002 C 
ATOM     14  C   UNL     1     -16.532  12.471 -29.422  1.00  0.00    -0.069 C 
ATOM     15  C   UNL     1     -17.038  11.557 -28.327  1.00  0.00     0.039 C 
ATOM     16  C   UNL     1     -17.551  13.368 -30.089  1.00  0.00     0.039 C 
BRANCH  13  17
ATOM     17  C   UNL     1     -14.192  11.552 -29.180  1.00  0.00     0.066 CG0
ATOM     18  G   UNL     1     -13.650  12.073 -27.865  1.00  0.00     0.000 G0
ENDBRANCH  13  17
ENDBRANCH  11  13
ENDBRANCH  10  11
ENDBRANCH   1  10
TORSDOF 0
ENDMDL
MODEL 2
REMARK VINA RESULT:    -4.106      1.593      1.884
REMARK INTER + INTRA:          -5.555
REMARK INTER:                  -6.063
REMARK INTRA:                   0.508
REMARK UNBOUND:                 0.231
REMARK SMILES CC1=CCC(=C(C)C)C(=O)CC(C)=CCC1
REMARK SMILES IDX 12 1 14 2 13 3 15 4 16 5 2 6 1 7 3 8 11 10 9 11 10 12 5 13
REMARK SMILES IDX 6 14 7 15 8 16 4 17
REMARK H PARENT
REMARK Flexibility Score: 60.00
ROOT
ATOM      1  C   UNL     1     -14.135  16.016 -31.235  1.00  0.00    -0.070 C 
ATOM      2  C   UNL     1     -12.899  15.482 -31.359  1.00  0.00    -0.027 C 
ATOM      3  C   UNL     1     -14.248  17.415 -30.686  1.00  0.00     0.039 C 
ENDROOT
BRANCH   2   4
ATOM      4  C   UNL     1     -12.587  14.067 -31.796  1.00  0.00     0.032 C 
BRANCH   4   5
ATOM      5  C   UNL     1     -11.899  13.196 -30.724  1.00  0.00     0.034 C 
BRANCH   5   6
ATOM      6  C   UNL     1     -12.566  13.282 -29.363  1.00  0.00    -0.077 C 
ATOM      7  C   UNL     1     -11.739  13.788 -28.208  1.00  0.00     0.039 C 
ATOM      8  C   UNL     1     -13.831  12.869 -29.105  1.00  0.00    -0.023 CG0
ATOM      9  G   UNL     1     -14.845  12.348 -30.103  1.00  0.00     0.000 G0
ENDBRANCH   5   6
ENDBRANCH   4   5
ENDBRANCH   2   4
BRANCH   1  10
ATOM     10  C   UNL     1     -15.405  15.245 -31.533  1.00  0.00     0.111 C 
BRANCH  10  11
ATOM     11  C   UNL     1     -15.993  14.640 -30.285  1.00  0.00     0.163 C 
ATOM     12  O   UNL     1     -16.325  15.416 -29.349  1.00  0.00    -0.294 OA
BRANCH  11  13
ATOM     13  C   UNL     1     -16.133  13.165 -30.099  1.00  0.00    -0.002 C 
ATOM     14  C   UNL     1     -17.356  12.605 -29.857  1.00  0.00    -0.069 C 
ATOM     15  C   UNL     1     -17.510  11.140 -29.508  1.00  0.00     0.039 C 
ATOM     16  C   UNL     1     -18.624  13.428 -29.924  1.00  0.00     0.039 C 
BRANCH  13  17
ATOM     17  C   UNL     1     -14.856  12.339 -30.097  1.00  0.00     0.066 CG0
ATOM     18  G   UNL     1     -13.830  12.867 -29.115  1.00  0.00     0.000 G0
ENDBRANCH  13  17
ENDBRANCH  11  13
ENDBRANCH  10  11
ENDBRANCH   1  10
TORSDOF 0
ENDMDL
MODEL 3
REMARK VINA RESULT:    -4.049      1.304      3.876
REMARK INTER + INTRA:          -5.474
REMARK INTER:                  -5.848
REMARK INTRA:                   0.373
REMARK UNBOUND:                 0.231
REMARK SMILES CC1=CCC(=C(C)C)C(=O)CC(C)=CCC1
REMARK SMILES IDX 12 1 14 2 13 3 15 4 16 5 2 6 1 7 3 8 11 10 9 11 10 12 5 13
REMARK SMILES IDX 6 14 7 15 8 16 4 17
REMARK H PARENT
REMARK Flexibility Score: 60.00
ROOT
ATOM      1  C   UNL     1     -17.414  13.372 -29.313  1.00  0.00    -0.070 C 
ATOM      2  C   UNL     1     -17.089  12.495 -28.336  1.00  0.00    -0.027 C 
ATOM      3  C   UNL     1     -18.505  12.983 -30.277  1.00  0.00     0.039 C 
ENDROOT
BRANCH   2   4
ATOM      4  C   UNL     1     -15.964  12.661 -27.338  1.00  0.00     0.032 C 
BRANCH   4   5
ATOM      5  C   UNL     1     -14.779  11.692 -27.532  1.00  0.00     0.034 C 
BRANCH   5   6
ATOM      6  C   UNL     1     -13.442  12.399 -27.662  1.00  0.00    -0.077 C 
ATOM      7  C   UNL     1     -12.574  12.488 -26.431  1.00  0.00     0.039 C 
ATOM      8  C   UNL     1     -13.010  13.016 -28.789  1.00  0.00    -0.023 CG0
ATOM      9  G   UNL     1     -13.699  13.041 -30.138  1.00  0.00     0.000 G0
ENDBRANCH   5   6
ENDBRANCH   4   5
ENDBRANCH   2   4
BRANCH   1  10
ATOM     10  C   UNL     1     -16.675  14.676 -29.537  1.00  0.00     0.111 C 
BRANCH  10  11
ATOM     11  C   UNL     1     -15.707  14.575 -30.686  1.00  0.00     0.163 C 
ATOM     12  O   UNL     1     -16.177  14.547 -31.857  1.00  0.00    -0.294 OA
BRANCH  11  13
ATOM     13  C   UNL     1     -14.234  14.444 -30.485  1.00  0.00    -0.002 C 
ATOM     14  C   UNL     1     -13.404  15.514 -30.680  1.00  0.00    -0.069 C 
ATOM     15  C   UNL     1     -11.898  15.375 -30.638  1.00  0.00     0.039 C 
ATOM     16  C   UNL     1     -13.957  16.896 -30.951  1.00  0.00     0.039 C 
BRANCH  13  17
ATOM     17  C   UNL     1     -13.697  13.062 -30.150  1.00  0.00     0.066 CG0
ATOM     18  G   UNL     1     -13.019  13.019 -28.796  1.00  0.00     0.000 G0
ENDBRANCH  13  17
ENDBRANCH  11  13
ENDBRANCH  10  11
ENDBRANCH   1  10
TORSDOF 0
ENDMDL
MODEL 4
REMARK VINA RESULT:    -4.000      1.370      3.617
REMARK INTER + INTRA:          -5.406
REMARK INTER:                  -5.660
REMARK INTRA:                   0.254
REMARK UNBOUND:                 0.231
REMARK SMILES CC1=CCC(=C(C)C)C(=O)CC(C)=CCC1
REMARK SMILES IDX 12 1 14 2 13 3 15 4 16 5 2 6 1 7 3 8 11 10 9 11 10 12 5 13
REMARK SMILES IDX 6 14 7 15 8 16 4 17
REMARK H PARENT
REMARK Flexibility Score: 60.00
ROOT
ATOM      1  C   UNL     1     -13.687  15.346 -31.346  1.00  0.00    -0.070 C 
ATOM      2  C   UNL     1     -14.986  15.584 -31.637  1.00  0.00    -0.027 C 
ATOM      3  C   UNL     1     -12.652  15.725 -32.375  1.00  0.00     0.039 C 
ENDROOT
BRANCH   2   4
ATOM      4  C   UNL     1     -16.170  15.189 -30.781  1.00  0.00     0.032 C 
BRANCH   4   5
ATOM      5  C   UNL     1     -16.871  13.883 -31.209  1.00  0.00     0.034 C 
BRANCH   5   6
ATOM      6  C   UNL     1     -17.289  13.015 -30.036  1.00  0.00    -0.077 C 
ATOM      7  C   UNL     1     -18.608  13.323 -29.372  1.00  0.00     0.039 C 
ATOM      8  C   UNL     1     -16.526  12.030 -29.503  1.00  0.00    -0.023 CG0
ATOM      9  G   UNL     1     -15.186  11.536 -30.011  1.00  0.00     0.000 G0
ENDBRANCH   5   6
ENDBRANCH   4   5
ENDBRANCH   2   4
BRANCH   1  10
ATOM     10  C   UNL     1     -13.235  14.637 -30.085  1.00  0.00     0.111 C 
BRANCH  10  11
ATOM     11  C   UNL     1     -13.212  13.142 -30.267  1.00  0.00     0.163 C 
ATOM     12  O   UNL     1     -12.545  12.671 -31.228  1.00  0.00    -0.294 OA
BRANCH  11  13
ATOM     13  C   UNL     1     -13.995  12.217 -29.396  1.00  0.00    -0.002 C 
ATOM     14  C   UNL     1     -13.590  11.950 -28.117  1.00  0.00    -0.069 C 
ATOM     15  C   UNL     1     -14.270  10.900 -27.265  1.00  0.00     0.039 C 
ATOM     16  C   UNL     1     -12.433  12.697 -27.489  1.00  0.00     0.039 C 
BRANCH  13  17
ATOM     17  C   UNL     1     -15.194  11.521 -30.020  1.00  0.00     0.066 CG0
ATOM     18  G   UNL     1     -16.510  12.049 -29.484  1.00  0.00     0.000 G0
ENDBRANCH  13  17
ENDBRANCH  11  13
ENDBRANCH  10  11
ENDBRANCH   1  10
TORSDOF 0
ENDMDL
MODEL 5
REMARK VINA RESULT:    -3.917      1.675      4.401
REMARK INTER + INTRA:          -5.288
REMARK INTER:                  -5.661
REMARK INTRA:                   0.373
REMARK UNBOUND:                 0.231
REMARK SMILES CC1=CCC(=C(C)C)C(=O)CC(C)=CCC1
REMARK SMILES IDX 12 1 14 2 13 3 15 4 16 5 2 6 1 7 3 8 11 10 9 11 10 12 5 13
REMARK SMILES IDX 6 14 7 15 8 16 4 17
REMARK H PARENT
REMARK Flexibility Score: 60.00
ROOT
ATOM      1  C   UNL     1     -17.354  13.172 -30.199  1.00  0.00    -0.070 C 
ATOM      2  C   UNL     1     -17.373  13.808 -31.391  1.00  0.00    -0.027 C 
ATOM      3  C   UNL     1     -18.582  12.399 -29.790  1.00  0.00     0.039 C 
ENDROOT
BRANCH   2   4
ATOM      4  C   UNL     1     -16.282  14.707 -31.931  1.00  0.00     0.032 C 
BRANCH   4   5
ATOM      5  C   UNL     1     -14.964  13.987 -32.281  1.00  0.00     0.034 C 
BRANCH   5   6
ATOM      6  C   UNL     1     -13.744  14.629 -31.646  1.00  0.00    -0.077 C 
ATOM      7  C   UNL     1     -13.490  16.088 -31.933  1.00  0.00     0.039 C 
ATOM      8  C   UNL     1     -12.832  13.961 -30.897  1.00  0.00    -0.023 CG0
ATOM      9  G   UNL     1     -12.890  12.510 -30.466  1.00  0.00     0.000 G0
ENDBRANCH   5   6
ENDBRANCH   4   5
ENDBRANCH   2   4
BRANCH   1  10
ATOM     10  C   UNL     1     -16.200  13.275 -29.222  1.00  0.00     0.111 C 
BRANCH  10  11
ATOM     11  C   UNL     1     -15.218  12.147 -29.403  1.00  0.00     0.163 C 
ATOM     12  O   UNL     1     -15.672  11.004 -29.680  1.00  0.00    -0.294 OA
BRANCH  11  13
ATOM     13  C   UNL     1     -13.749  12.324 -29.204  1.00  0.00    -0.002 C 
ATOM     14  C   UNL     1     -13.218  12.394 -27.945  1.00  0.00    -0.069 C 
ATOM     15  C   UNL     1     -11.761  12.729 -27.710  1.00  0.00     0.039 C 
ATOM     16  C   UNL     1     -14.068  12.140 -26.720  1.00  0.00     0.039 C 
BRANCH  13  17
ATOM     17  C   UNL     1     -12.896  12.514 -30.447  1.00  0.00     0.066 CG0
ATOM     18  G   UNL     1     -12.852  13.959 -30.901  1.00  0.00     0.000 G0
ENDBRANCH  13  17
ENDBRANCH  11  13
ENDBRANCH  10  11
ENDBRANCH   1  10
TORSDOF 0
ENDMDL
MODEL 6
REMARK VINA RESULT:    -3.773      1.394      3.929
REMARK INTER + INTRA:          -5.085
REMARK INTER:                  -5.715
REMARK INTRA:                   0.630
REMARK UNBOUND:                 0.231
REMARK SMILES CC1=CCC(=C(C)C)C(=O)CC(C)=CCC1
REMARK SMILES IDX 12 1 14 2 13 3 15 4 16 5 2 6 1 7 3 8 11 10 9 11 10 12 5 13
REMARK SMILES IDX 6 14 7 15 8 16 4 17
REMARK H PARENT
REMARK Flexibility Score: 60.00
ROOT
ATOM      1  C   UNL     1     -14.732  15.180 -30.713  1.00  0.00    -0.070 C 
ATOM      2  C   UNL     1     -16.032  15.273 -30.352  1.00  0.00    -0.027 C 
ATOM      3  C   UNL     1     -13.875  16.414 -30.586  1.00  0.00     0.039 C 
ENDROOT
BRANCH   2   4
ATOM      4  C   UNL     1     -17.069  14.180 -30.496  1.00  0.00     0.032 C 
BRANCH   4   5
ATOM      5  C   UNL     1     -17.573  13.586 -29.164  1.00  0.00     0.034 C 
BRANCH   5   6
ATOM      6  C   UNL     1     -17.003  12.211 -28.867  1.00  0.00    -0.077 C 
ATOM      7  C   UNL     1     -17.860  11.013 -29.190  1.00  0.00     0.039 C 
ATOM      8  C   UNL     1     -15.807  11.993 -28.269  1.00  0.00    -0.023 CG0
ATOM      9  G   UNL     1     -14.778  13.034 -27.875  1.00  0.00     0.000 G0
ENDBRANCH   5   6
ENDBRANCH   4   5
ENDBRANCH   2   4
BRANCH   1  10
ATOM     10  C   UNL     1     -14.126  13.932 -31.321  1.00  0.00     0.111 C 
BRANCH  10  11
ATOM     11  C   UNL     1     -13.921  12.855 -30.287  1.00  0.00     0.163 C 
ATOM     12  O   UNL     1     -14.064  11.655 -30.645  1.00  0.00    -0.294 OA
BRANCH  11  13
ATOM     13  C   UNL     1     -13.620  13.163 -28.858  1.00  0.00    -0.002 C 
ATOM     14  C   UNL     1     -12.346  13.463 -28.461  1.00  0.00    -0.069 C 
ATOM     15  C   UNL     1     -11.981  13.625 -27.001  1.00  0.00     0.039 C 
ATOM     16  C   UNL     1     -11.234  13.649 -29.469  1.00  0.00     0.039 C 
BRANCH  13  17
ATOM     17  C   UNL     1     -14.763  13.036 -27.863  1.00  0.00     0.066 CG0
ATOM     18  G   UNL     1     -15.773  11.985 -28.277  1.00  0.00     0.000 G0
ENDBRANCH  13  17
ENDBRANCH  11  13
ENDBRANCH  10  11
ENDBRANCH   1  10
TORSDOF 0
ENDMDL
MODEL 7
REMARK VINA RESULT:    -3.620      2.260      3.248
REMARK INTER + INTRA:          -4.870
REMARK INTER:                  -5.227
REMARK INTRA:                   0.357
REMARK UNBOUND:                 0.231
REMARK SMILES CC1=CCC(=C(C)C)C(=O)CC(C)=CCC1
REMARK SMILES IDX 12 1 14 2 13 3 15 4 16 5 2 6 1 7 3 8 11 10 9 11 10 12 5 13
REMARK SMILES IDX 6 14 7 15 8 16 4 17
REMARK H PARENT
REMARK Flexibility Score: 60.00
ROOT
ATOM      1  C   UNL     1     -15.465  14.584 -30.238  1.00  0.00    -0.070 C 
ATOM      2  C   UNL     1     -14.348  14.041 -29.703  1.00  0.00    -0.027 C 
ATOM      3  C   UNL     1     -15.313  15.440 -31.470  1.00  0.00     0.039 C 
ENDROOT
BRANCH   2   4
ATOM      4  C   UNL     1     -14.282  13.238 -28.422  1.00  0.00     0.032 C 
BRANCH   4   5
ATOM      5  C   UNL     1     -14.647  11.747 -28.574  1.00  0.00     0.034 C 
BRANCH   5   6
ATOM      6  C   UNL     1     -15.827  11.329 -27.716  1.00  0.00    -0.077 C 
ATOM      7  C   UNL     1     -15.591  11.152 -26.236  1.00  0.00     0.039 C 
ATOM      8  C   UNL     1     -17.059  11.036 -28.200  1.00  0.00    -0.023 CG0
ATOM      9  G   UNL     1     -17.529  11.158 -29.635  1.00  0.00     0.000 G0
ENDBRANCH   5   6
ENDBRANCH   4   5
ENDBRANCH   2   4
BRANCH   1  10
ATOM     10  C   UNL     1     -16.837  14.448 -29.609  1.00  0.00     0.111 C 
BRANCH  10  11
ATOM     11  C   UNL     1     -17.743  13.576 -30.438  1.00  0.00     0.163 C 
ATOM     12  O   UNL     1     -17.971  13.921 -31.629  1.00  0.00    -0.294 OA
BRANCH  11  13
ATOM     13  C   UNL     1     -18.421  12.368 -29.882  1.00  0.00    -0.002 C 
ATOM     14  C   UNL     1     -19.746  12.404 -29.544  1.00  0.00    -0.069 C 
ATOM     15  C   UNL     1     -20.422  11.250 -28.835  1.00  0.00     0.039 C 
ATOM     16  C   UNL     1     -20.605  13.608 -29.863  1.00  0.00     0.039 C 
BRANCH  13  17
ATOM     17  C   UNL     1     -17.560  11.142 -29.625  1.00  0.00     0.066 CG0
ATOM     18  G   UNL     1     -17.085  11.062 -28.188  1.00  0.00     0.000 G0
ENDBRANCH  13  17
ENDBRANCH  11  13
ENDBRANCH  10  11
ENDBRANCH   1  10
TORSDOF 0
ENDMDL
MODEL 8
REMARK VINA RESULT:    -3.228      1.987      4.572
REMARK INTER + INTRA:          -4.318
REMARK INTER:                  -4.774
REMARK INTRA:                   0.456
REMARK UNBOUND:                 0.231
REMARK SMILES CC1=CCC(=C(C)C)C(=O)CC(C)=CCC1
REMARK SMILES IDX 12 1 14 2 13 3 15 4 16 5 2 6 1 7 3 8 11 10 9 11 10 12 5 13
REMARK SMILES IDX 6 14 7 15 8 16 4 17
REMARK H PARENT
REMARK Flexibility Score: 60.00
ROOT
ATOM      1  C   UNL     1     -12.524  12.537 -29.368  1.00  0.00    -0.070 C 
ATOM      2  C   UNL     1     -13.554  11.704 -29.099  1.00  0.00    -0.027 C 
ATOM      3  C   UNL     1     -11.299  11.956 -30.027  1.00  0.00     0.039 C 
ENDROOT
BRANCH   2   4
ATOM      4  C   UNL     1     -14.822  12.075 -28.359  1.00  0.00     0.032 C 
BRANCH   4   5
ATOM      5  C   UNL     1     -16.088  12.141 -29.238  1.00  0.00     0.034 C 
BRANCH   5   6
ATOM      6  C   UNL     1     -16.429  13.549 -29.692  1.00  0.00    -0.077 C 
ATOM      7  C   UNL     1     -17.534  14.272 -28.964  1.00  0.00     0.039 C 
ATOM      8  C   UNL     1     -15.855  14.170 -30.751  1.00  0.00    -0.023 CG0
ATOM      9  G   UNL     1     -14.721  13.650 -31.612  1.00  0.00     0.000 G0
ENDBRANCH   5   6
ENDBRANCH   4   5
ENDBRANCH   2   4
BRANCH   1  10
ATOM     10  C   UNL     1     -12.508  13.996 -28.957  1.00  0.00     0.111 C 
BRANCH  10  11
ATOM     11  C   UNL     1     -13.127  14.876 -30.011  1.00  0.00     0.163 C 
ATOM     12  O   UNL     1     -13.473  16.043 -29.681  1.00  0.00    -0.294 OA
BRANCH  11  13
ATOM     13  C   UNL     1     -13.400  14.396 -31.397  1.00  0.00    -0.002 C 
ATOM     14  C   UNL     1     -12.541  14.689 -32.420  1.00  0.00    -0.069 C 
ATOM     15  C   UNL     1     -12.868  14.354 -33.860  1.00  0.00     0.039 C 
ATOM     16  C   UNL     1     -11.215  15.369 -32.160  1.00  0.00     0.039 C 
BRANCH  13  17
ATOM     17  C   UNL     1     -14.708  13.656 -31.633  1.00  0.00     0.066 CG0
ATOM     18  G   UNL     1     -15.830  14.177 -30.759  1.00  0.00     0.000 G0
ENDBRANCH  13  17
ENDBRANCH  11  13
ENDBRANCH  10  11
ENDBRANCH   1  10
TORSDOF 0
ENDMDL
MODEL 9
REMARK VINA RESULT:    -3.073      1.733      3.638
REMARK INTER + INTRA:          -4.100
REMARK INTER:                  -5.190
REMARK INTRA:                   1.090
REMARK UNBOUND:                 0.231
REMARK SMILES CC1=CCC(=C(C)C)C(=O)CC(C)=CCC1
REMARK SMILES IDX 12 1 14 2 13 3 15 4 16 5 2 6 1 7 3 8 11 10 9 11 10 12 5 13
REMARK SMILES IDX 6 14 7 15 8 16 4 17
REMARK H PARENT
REMARK Flexibility Score: 60.00
ROOT
ATOM      1  C   UNL     1     -11.666  12.739 -28.611  1.00  0.00    -0.070 C 
ATOM      2  C   UNL     1     -11.100  13.146 -29.770  1.00  0.00    -0.027 C 
ATOM      3  C   UNL     1     -10.905  11.752 -27.762  1.00  0.00     0.039 C 
ENDROOT
BRANCH   2   4
ATOM      4  C   UNL     1     -11.744  14.050 -30.798  1.00  0.00     0.032 C 
BRANCH   4   5
ATOM      5  C   UNL     1     -12.444  15.296 -30.217  1.00  0.00     0.034 C 
BRANCH   5   6
ATOM      6  C   UNL     1     -13.711  15.674 -30.964  1.00  0.00    -0.077 C 
ATOM      7  C   UNL     1     -13.932  17.133 -31.273  1.00  0.00     0.039 C 
ATOM      8  C   UNL     1     -14.686  14.797 -31.307  1.00  0.00    -0.023 CG0
ATOM      9  G   UNL     1     -14.672  13.294 -31.117  1.00  0.00     0.000 G0
ENDBRANCH   5   6
ENDBRANCH   4   5
ENDBRANCH   2   4
BRANCH   1  10
ATOM     10  C   UNL     1     -13.057  13.153 -28.177  1.00  0.00     0.111 C 
BRANCH  10  11
ATOM     11  C   UNL     1     -14.117  12.298 -28.821  1.00  0.00     0.163 C 
ATOM     12  O   UNL     1     -14.086  11.055 -28.608  1.00  0.00    -0.294 OA
BRANCH  11  13
ATOM     13  C   UNL     1     -15.150  12.858 -29.741  1.00  0.00    -0.002 C 
ATOM     14  C   UNL     1     -16.466  12.900 -29.371  1.00  0.00    -0.069 C 
ATOM     15  C   UNL     1     -17.556  13.314 -30.337  1.00  0.00     0.039 C 
ATOM     16  C   UNL     1     -16.899  12.530 -27.969  1.00  0.00     0.039 C 
BRANCH  13  17
ATOM     17  C   UNL     1     -14.691  13.286 -31.125  1.00  0.00     0.066 CG0
ATOM     18  G   UNL     1     -14.680  14.793 -31.289  1.00  0.00     0.000 G0
ENDBRANCH  13  17
ENDBRANCH  11  13
ENDBRANCH  10  11
ENDBRANCH   1  10
TORSDOF 0
ENDMDL
