MODEL 1
REMARK VINA RESULT:    -3.277      0.000      0.000
REMARK INTER + INTRA:          -3.889
REMARK INTER:                  -3.852
REMARK INTRA:                  -0.037
REMARK UNBOUND:                -0.037
REMARK SMILES O=C([O-])CCC(=O)[O-]
REMARK SMILES IDX 4 1 2 2 1 3 3 4 5 5 6 6 7 7 8 8
REMARK H PARENT
REMARK Flexibility Score: inf
ROOT
ATOM      1  C   UNL     1      75.307  62.720  98.151  1.00  0.00     0.059 C 
ENDROOT
BRANCH   1   2
ATOM      2  C   UNL     1      74.634  64.048  98.006  1.00  0.00     0.042 C 
ATOM      3  O   UNL     1      74.736  64.696  96.931  1.00  0.00    -0.550 OA
ATOM      4  O   UNL     1      73.856  64.550  99.041  1.00  0.00    -0.550 OA
ENDBRANCH   1   2
BRANCH   1   5
ATOM      5  C   UNL     1      75.456  62.044  96.787  1.00  0.00     0.059 C 
BRANCH   5   6
ATOM      6  C   UNL     1      75.776  60.593  96.953  1.00  0.00     0.042 C 
ATOM      7  O   UNL     1      75.084  59.875  97.722  1.00  0.00    -0.550 OA
ATOM      8  O   UNL     1      76.869  60.042  96.297  1.00  0.00    -0.550 OA
ENDBRANCH   5   6
ENDBRANCH   1   5
TORSDOF 3
ENDMDL
MODEL 2
REMARK VINA RESULT:    -3.207      0.096      4.404
REMARK INTER + INTRA:          -3.807
REMARK INTER:                  -3.771
REMARK INTRA:                  -0.036
REMARK UNBOUND:                -0.037
REMARK SMILES O=C([O-])CCC(=O)[O-]
REMARK SMILES IDX 4 1 2 2 1 3 3 4 5 5 6 6 7 7 8 8
REMARK H PARENT
REMARK Flexibility Score: inf
ROOT
ATOM      1  C   UNL     1      75.397  62.069  96.736  1.00  0.00     0.059 C 
ENDROOT
BRANCH   1   2
ATOM      2  C   UNL     1      75.794  60.637  96.907  1.00  0.00     0.042 C 
ATOM      3  O   UNL     1      75.113  59.875  97.643  1.00  0.00    -0.550 OA
ATOM      4  O   UNL     1      76.887  60.131  96.218  1.00  0.00    -0.550 OA
ENDBRANCH   1   2
BRANCH   1   5
ATOM      5  C   UNL     1      75.370  62.783  98.089  1.00  0.00     0.059 C 
BRANCH   5   6
ATOM      6  C   UNL     1      74.576  64.046  97.998  1.00  0.00     0.042 C 
ATOM      7  O   UNL     1      74.609  64.743  96.949  1.00  0.00    -0.550 OA
ATOM      8  O   UNL     1      73.838  64.484  99.091  1.00  0.00    -0.550 OA
ENDBRANCH   5   6
ENDBRANCH   1   5
TORSDOF 3
ENDMDL
MODEL 3
REMARK VINA RESULT:    -2.799     17.312     17.694
REMARK INTER + INTRA:          -3.328
REMARK INTER:                  -3.296
REMARK INTRA:                  -0.032
REMARK UNBOUND:                -0.037
REMARK SMILES O=C([O-])CCC(=O)[O-]
REMARK SMILES IDX 4 1 2 2 1 3 3 4 5 5 6 6 7 7 8 8
REMARK H PARENT
REMARK Flexibility Score: inf
ROOT
ATOM      1  C   UNL     1      86.316  65.418 110.065  1.00  0.00     0.059 C 
ENDROOT
BRANCH   1   2
ATOM      2  C   UNL     1      86.096  66.719 110.769  1.00  0.00     0.042 C 
ATOM      3  O   UNL     1      87.068  67.485 111.004  1.00  0.00    -0.550 OA
ATOM      4  O   UNL     1      84.812  67.110 111.125  1.00  0.00    -0.550 OA
ENDBRANCH   1   2
BRANCH   1   5
ATOM      5  C   UNL     1      87.710  64.870 110.377  1.00  0.00     0.059 C 
BRANCH   5   6
ATOM      6  C   UNL     1      87.755  63.393 110.148  1.00  0.00     0.042 C 
ATOM      7  O   UNL     1      87.828  62.602 111.125  1.00  0.00    -0.550 OA
ATOM      8  O   UNL     1      87.767  62.889 108.853  1.00  0.00    -0.550 OA
ENDBRANCH   5   6
ENDBRANCH   1   5
TORSDOF 3
ENDMDL
MODEL 4
REMARK VINA RESULT:    -2.029     13.881     15.909
REMARK INTER + INTRA:          -2.422
REMARK INTER:                  -2.390
REMARK INTRA:                  -0.032
REMARK UNBOUND:                -0.037
REMARK SMILES O=C([O-])CCC(=O)[O-]
REMARK SMILES IDX 4 1 2 2 1 3 3 4 5 5 6 6 7 7 8 8
REMARK H PARENT
REMARK Flexibility Score: inf
ROOT
ATOM      1  C   UNL     1      68.536  74.453  90.922  1.00  0.00     0.059 C 
ENDROOT
BRANCH   1   2
ATOM      2  C   UNL     1      69.306  73.172  90.892  1.00  0.00     0.042 C 
ATOM      3  O   UNL     1      70.565  73.189  90.925  1.00  0.00    -0.550 OA
ATOM      4  O   UNL     1      68.635  71.956  90.875  1.00  0.00    -0.550 OA
ENDBRANCH   1   2
BRANCH   1   5
ATOM      5  C   UNL     1      69.004  75.332  92.083  1.00  0.00     0.059 C 
BRANCH   5   6
ATOM      6  C   UNL     1      68.238  76.615  92.111  1.00  0.00     0.042 C 
ATOM      7  O   UNL     1      67.876  77.115  93.209  1.00  0.00    -0.550 OA
ATOM      8  O   UNL     1      67.878  77.237  90.922  1.00  0.00    -0.550 OA
ENDBRANCH   5   6
ENDBRANCH   1   5
TORSDOF 3
ENDMDL
MODEL 5
REMARK VINA RESULT:    -1.997     13.880     15.346
REMARK INTER + INTRA:          -2.385
REMARK INTER:                  -2.357
REMARK INTRA:                  -0.028
REMARK UNBOUND:                -0.037
REMARK SMILES O=C([O-])CCC(=O)[O-]
REMARK SMILES IDX 4 1 2 2 1 3 3 4 5 5 6 6 7 7 8 8
REMARK H PARENT
REMARK Flexibility Score: inf
ROOT
ATOM      1  C   UNL     1      69.060  75.217  91.975  1.00  0.00     0.059 C 
ENDROOT
BRANCH   1   2
ATOM      2  C   UNL     1      68.279  76.461  92.258  1.00  0.00     0.042 C 
ATOM      3  O   UNL     1      67.922  76.730  93.435  1.00  0.00    -0.550 OA
ATOM      4  O   UNL     1      67.987  77.348  91.231  1.00  0.00    -0.550 OA
ENDBRANCH   1   2
BRANCH   1   5
ATOM      5  C   UNL     1      68.362  74.380  90.901  1.00  0.00     0.059 C 
BRANCH   5   6
ATOM      6  C   UNL     1      68.871  72.974  90.920  1.00  0.00     0.042 C 
ATOM      7  O   UNL     1      70.109  72.747  90.877  1.00  0.00    -0.550 OA
ATOM      8  O   UNL     1      67.977  71.911  90.933  1.00  0.00    -0.550 OA
ENDBRANCH   5   6
ENDBRANCH   1   5
TORSDOF 3
ENDMDL
MODEL 6
REMARK VINA RESULT:    -1.561     13.410     15.661
REMARK INTER + INTRA:          -1.872
REMARK INTER:                  -1.840
REMARK INTRA:                  -0.031
REMARK UNBOUND:                -0.037
REMARK SMILES O=C([O-])CCC(=O)[O-]
REMARK SMILES IDX 4 1 2 2 1 3 3 4 5 5 6 6 7 7 8 8
REMARK H PARENT
REMARK Flexibility Score: inf
ROOT
ATOM      1  C   UNL     1      69.396  74.136  91.531  1.00  0.00     0.059 C 
ENDROOT
BRANCH   1   2
ATOM      2  C   UNL     1      69.169  72.733  91.067  1.00  0.00     0.042 C 
ATOM      3  O   UNL     1      70.146  71.959  90.887  1.00  0.00    -0.550 OA
ATOM      4  O   UNL     1      67.876  72.262  90.880  1.00  0.00    -0.550 OA
ENDBRANCH   1   2
BRANCH   1   5
ATOM      5  C   UNL     1      68.136  74.979  91.322  1.00  0.00     0.059 C 
BRANCH   5   6
ATOM      6  C   UNL     1      68.329  76.355  91.873  1.00  0.00     0.042 C 
ATOM      7  O   UNL     1      68.638  77.307  91.109  1.00  0.00    -0.550 OA
ATOM      8  O   UNL     1      68.218  76.579  93.239  1.00  0.00    -0.550 OA
ENDBRANCH   5   6
ENDBRANCH   1   5
TORSDOF 3
ENDMDL
MODEL 7
REMARK VINA RESULT:    -0.565     17.277     17.705
REMARK INTER + INTRA:          -0.702
REMARK INTER:                  -1.774
REMARK INTRA:                   1.072
REMARK UNBOUND:                -0.037
REMARK SMILES O=C([O-])CCC(=O)[O-]
REMARK SMILES IDX 4 1 2 2 1 3 3 4 5 5 6 6 7 7 8 8
REMARK H PARENT
REMARK Flexibility Score: inf
ROOT
ATOM      1  C   UNL     1      86.805  67.324 110.994  1.00  0.00     0.059 C 
ENDROOT
BRANCH   1   2
ATOM      2  C   UNL     1      85.370  66.907 111.028  1.00  0.00     0.042 C 
ATOM      3  O   UNL     1      85.064  65.685 111.022  1.00  0.00    -0.550 OA
ATOM      4  O   UNL     1      84.368  67.865 111.115  1.00  0.00    -0.550 OA
ENDBRANCH   1   2
BRANCH   1   5
ATOM      5  C   UNL     1      87.720  66.104 111.116  1.00  0.00     0.059 C 
BRANCH   5   6
ATOM      6  C   UNL     1      87.445  65.131 110.015  1.00  0.00     0.042 C 
ATOM      7  O   UNL     1      87.114  65.543 108.872  1.00  0.00    -0.550 OA
ATOM      8  O   UNL     1      87.506  63.765 110.262  1.00  0.00    -0.550 OA
ENDBRANCH   5   6
ENDBRANCH   1   5
TORSDOF 3
ENDMDL
