MODEL 1
REMARK VINA RESULT:    -3.127      0.000      0.000
REMARK INTER + INTRA:          -3.819
REMARK INTER:                  -4.772
REMARK INTRA:                   0.952
REMARK UNBOUND:                 0.952
REMARK SMILES CC1=CCC[C@H](C)C(=O)C[C@H](C(C)C)C(=O)C1
REMARK SMILES IDX 8 1 9 2 6 3 7 4 5 5 4 6 3 7 2 8 1 9 10 11 11 12 15 13 16 14
REMARK SMILES IDX 17 15 12 17 13 18 14 19
REMARK H PARENT
REMARK Flexibility Score: 70.00
ROOT
ATOM      1  C   UNL     1     165.553 199.530 302.259  1.00  0.00     0.136 C 
ATOM      2  O   UNL     1     164.610 199.340 301.505  1.00  0.00    -0.299 OA
ENDROOT
BRANCH   1   3
ATOM      3  C   UNL     1     166.835 200.113 301.693  1.00  0.00     0.053 C 
ATOM      4  C   UNL     1     167.789 198.999 301.244  1.00  0.00     0.016 C 
BRANCH   3   5
ATOM      5  C   UNL     1     166.552 201.097 300.543  1.00  0.00     0.015 C 
BRANCH   5   6
ATOM      6  C   UNL     1     166.355 202.537 301.052  1.00  0.00     0.028 C 
BRANCH   6   7
ATOM      7  C   UNL     1     164.898 202.815 301.314  1.00  0.00    -0.028 C 
ATOM      8  C   UNL     1     164.342 202.892 302.547  1.00  0.00    -0.070 CG0
ATOM      9  C   UNL     1     162.854 203.117 302.639  1.00  0.00     0.039 C 
ATOM     10  G   UNL     1     165.153 202.777 303.829  1.00  0.00     0.000 G0
ENDBRANCH   6   7
ENDBRANCH   5   6
ENDBRANCH   3   5
ENDBRANCH   1   3
BRANCH   1  11
ATOM     11  C   UNL     1     165.386 199.201 303.727  1.00  0.00     0.087 C 
BRANCH  11  12
ATOM     12  C   UNL     1     165.851 200.365 304.647  1.00  0.00     0.066 C 
BRANCH  12  13
ATOM     13  C   UNL     1     164.862 201.521 304.613  1.00  0.00     0.140 C 
ATOM     14  O   UNL     1     163.833 201.461 305.271  1.00  0.00    -0.299 OA
BRANCH  13  15
ATOM     15  C   UNL     1     165.167 202.785 303.844  1.00  0.00     0.106 CG0
ATOM     16  G   UNL     1     164.366 202.879 302.554  1.00  0.00     0.000 G0
ENDBRANCH  13  15
ENDBRANCH  12  13
BRANCH  12  17
ATOM     17  C   UNL     1     166.125 199.921 306.120  1.00  0.00    -0.006 C 
ATOM     18  C   UNL     1     166.541 198.442 306.197  1.00  0.00     0.008 C 
ATOM     19  C   UNL     1     164.956 200.188 307.085  1.00  0.00     0.008 C 
ENDBRANCH  12  17
ENDBRANCH  11  12
ENDBRANCH   1  11
TORSDOF 1
ENDMDL
MODEL 2
REMARK VINA RESULT:    -3.123      1.639      4.084
REMARK INTER + INTRA:          -3.813
REMARK INTER:                  -4.049
REMARK INTRA:                   0.236
REMARK UNBOUND:                 0.952
REMARK SMILES CC1=CCC[C@H](C)C(=O)C[C@H](C(C)C)C(=O)C1
REMARK SMILES IDX 8 1 9 2 6 3 7 4 5 5 4 6 3 7 2 8 1 9 10 11 11 12 15 13 16 14
REMARK SMILES IDX 17 15 12 17 13 18 14 19
REMARK H PARENT
REMARK Flexibility Score: 70.00
ROOT
ATOM      1  C   UNL     1     166.393 202.377 301.326  1.00  0.00     0.136 C 
ATOM      2  O   UNL     1     167.335 202.687 302.041  1.00  0.00    -0.299 OA
ENDROOT
BRANCH   1   3
ATOM      3  C   UNL     1     166.571 201.239 300.337  1.00  0.00     0.053 C 
ATOM      4  C   UNL     1     167.470 201.665 299.170  1.00  0.00     0.016 C 
BRANCH   3   5
ATOM      5  C   UNL     1     167.115 199.972 301.022  1.00  0.00     0.015 C 
BRANCH   5   6
ATOM      6  C   UNL     1     166.096 199.364 302.003  1.00  0.00     0.028 C 
BRANCH   6   7
ATOM      7  C   UNL     1     166.599 199.454 303.420  1.00  0.00    -0.028 C 
ATOM      8  C   UNL     1     165.935 200.060 304.433  1.00  0.00    -0.070 CG0
ATOM      9  C   UNL     1     166.605 200.119 305.783  1.00  0.00     0.039 C 
ATOM     10  G   UNL     1     164.549 200.665 304.269  1.00  0.00     0.000 G0
ENDBRANCH   6   7
ENDBRANCH   5   6
ENDBRANCH   3   5
ENDBRANCH   1   3
BRANCH   1  11
ATOM     11  C   UNL     1     165.087 203.125 301.481  1.00  0.00     0.087 C 
BRANCH  11  12
ATOM     12  C   UNL     1     164.047 202.325 302.315  1.00  0.00     0.066 C 
BRANCH  12  13
ATOM     13  C   UNL     1     164.559 202.059 303.723  1.00  0.00     0.140 C 
ATOM     14  O   UNL     1     164.919 202.992 304.427  1.00  0.00    -0.299 OA
BRANCH  13  15
ATOM     15  C   UNL     1     164.552 200.665 304.304  1.00  0.00     0.106 CG0
ATOM     16  G   UNL     1     165.955 200.090 304.433  1.00  0.00     0.000 G0
ENDBRANCH  13  15
ENDBRANCH  12  13
BRANCH  12  17
ATOM     17  C   UNL     1     162.638 202.999 302.362  1.00  0.00    -0.006 C 
ATOM     18  C   UNL     1     161.937 202.751 303.707  1.00  0.00     0.008 C 
ATOM     19  C   UNL     1     161.709 202.592 301.203  1.00  0.00     0.008 C 
ENDBRANCH  12  17
ENDBRANCH  11  12
ENDBRANCH   1  11
TORSDOF 1
ENDMDL
MODEL 3
REMARK VINA RESULT:    -3.100      1.922      3.469
REMARK INTER + INTRA:          -3.779
REMARK INTER:                  -4.239
REMARK INTRA:                   0.460
REMARK UNBOUND:                 0.952
REMARK SMILES CC1=CCC[C@H](C)C(=O)C[C@H](C(C)C)C(=O)C1
REMARK SMILES IDX 8 1 9 2 6 3 7 4 5 5 4 6 3 7 2 8 1 9 10 11 11 12 15 13 16 14
REMARK SMILES IDX 17 15 12 17 13 18 14 19
REMARK H PARENT
REMARK Flexibility Score: 70.00
ROOT
ATOM      1  C   UNL     1     164.300 202.305 303.813  1.00  0.00     0.136 C 
ATOM      2  O   UNL     1     163.125 202.158 304.117  1.00  0.00    -0.299 OA
ENDROOT
BRANCH   1   3
ATOM      3  C   UNL     1     164.635 203.018 302.516  1.00  0.00     0.053 C 
ATOM      4  C   UNL     1     166.153 203.124 302.327  1.00  0.00     0.016 C 
BRANCH   3   5
ATOM      5  C   UNL     1     163.972 202.336 301.305  1.00  0.00     0.015 C 
BRANCH   5   6
ATOM      6  C   UNL     1     164.066 200.801 301.385  1.00  0.00     0.028 C 
BRANCH   6   7
ATOM      7  C   UNL     1     165.460 200.334 301.056  1.00  0.00    -0.028 C 
ATOM      8  C   UNL     1     166.168 199.449 301.798  1.00  0.00    -0.070 CG0
ATOM      9  C   UNL     1     167.577 199.131 301.366  1.00  0.00     0.039 C 
ATOM     10  G   UNL     1     165.599 198.759 303.029  1.00  0.00     0.000 G0
ENDBRANCH   6   7
ENDBRANCH   5   6
ENDBRANCH   3   5
ENDBRANCH   1   3
BRANCH   1  11
ATOM     11  C   UNL     1     165.364 201.793 304.759  1.00  0.00     0.087 C 
BRANCH  11  12
ATOM     12  C   UNL     1     165.156 200.296 305.124  1.00  0.00     0.066 C 
BRANCH  12  13
ATOM     13  C   UNL     1     166.075 199.397 304.310  1.00  0.00     0.140 C 
ATOM     14  O   UNL     1     167.192 199.130 304.730  1.00  0.00    -0.299 OA
BRANCH  13  15
ATOM     15  C   UNL     1     165.602 198.758 303.026  1.00  0.00     0.106 CG0
ATOM     16  G   UNL     1     166.177 199.446 301.797  1.00  0.00     0.000 G0
ENDBRANCH  13  15
ENDBRANCH  12  13
BRANCH  12  17
ATOM     17  C   UNL     1     165.312 200.002 306.651  1.00  0.00    -0.006 C 
ATOM     18  C   UNL     1     165.076 198.515 306.967  1.00  0.00     0.008 C 
ATOM     19  C   UNL     1     164.423 200.877 307.553  1.00  0.00     0.008 C 
ENDBRANCH  12  17
ENDBRANCH  11  12
ENDBRANCH   1  11
TORSDOF 1
ENDMDL
MODEL 4
REMARK VINA RESULT:    -3.014      1.846      4.597
REMARK INTER + INTRA:          -3.648
REMARK INTER:                  -3.837
REMARK INTRA:                   0.189
REMARK UNBOUND:                 0.952
REMARK SMILES CC1=CCC[C@H](C)C(=O)C[C@H](C(C)C)C(=O)C1
REMARK SMILES IDX 8 1 9 2 6 3 7 4 5 5 4 6 3 7 2 8 1 9 10 11 11 12 15 13 16 14
REMARK SMILES IDX 17 15 12 17 13 18 14 19
REMARK H PARENT
REMARK Flexibility Score: 70.00
ROOT
ATOM      1  C   UNL     1     165.586 202.293 301.263  1.00  0.00     0.136 C 
ATOM      2  O   UNL     1     166.604 202.945 301.076  1.00  0.00    -0.299 OA
ENDROOT
BRANCH   1   3
ATOM      3  C   UNL     1     164.358 202.998 301.809  1.00  0.00     0.053 C 
ATOM      4  C   UNL     1     163.132 202.715 300.933  1.00  0.00     0.016 C 
BRANCH   3   5
ATOM      5  C   UNL     1     164.091 202.616 303.277  1.00  0.00     0.015 C 
BRANCH   5   6
ATOM      6  C   UNL     1     165.389 202.274 304.030  1.00  0.00     0.028 C 
BRANCH   6   7
ATOM      7  C   UNL     1     165.138 201.219 305.076  1.00  0.00    -0.028 C 
ATOM      8  C   UNL     1     165.759 200.016 305.118  1.00  0.00    -0.070 CG0
ATOM      9  C   UNL     1     165.349 199.045 306.196  1.00  0.00     0.039 C 
ATOM     10  G   UNL     1     166.853 199.615 304.139  1.00  0.00     0.000 G0
ENDBRANCH   6   7
ENDBRANCH   5   6
ENDBRANCH   3   5
ENDBRANCH   1   3
BRANCH   1  11
ATOM     11  C   UNL     1     165.593 200.821 300.912  1.00  0.00     0.087 C 
BRANCH  11  12
ATOM     12  C   UNL     1     166.796 200.070 301.548  1.00  0.00     0.066 C 
BRANCH  12  13
ATOM     13  C   UNL     1     166.362 199.264 302.764  1.00  0.00     0.140 C 
ATOM     14  O   UNL     1     165.647 198.282 302.620  1.00  0.00    -0.299 OA
BRANCH  13  15
ATOM     15  C   UNL     1     166.867 199.606 304.146  1.00  0.00     0.106 CG0
ATOM     16  G   UNL     1     165.741 200.018 305.083  1.00  0.00     0.000 G0
ENDBRANCH  13  15
ENDBRANCH  12  13
BRANCH  12  17
ATOM     17  C   UNL     1     167.568 199.164 300.536  1.00  0.00    -0.006 C 
ATOM     18  C   UNL     1     168.890 198.651 301.131  1.00  0.00     0.008 C 
ATOM     19  C   UNL     1     167.829 199.826 299.172  1.00  0.00     0.008 C 
ENDBRANCH  12  17
ENDBRANCH  11  12
ENDBRANCH   1  11
TORSDOF 1
ENDMDL
MODEL 5
REMARK VINA RESULT:    -3.012      1.836      3.594
REMARK INTER + INTRA:          -3.645
REMARK INTER:                  -4.179
REMARK INTRA:                   0.534
REMARK UNBOUND:                 0.952
REMARK SMILES CC1=CCC[C@H](C)C(=O)C[C@H](C(C)C)C(=O)C1
REMARK SMILES IDX 8 1 9 2 6 3 7 4 5 5 4 6 3 7 2 8 1 9 10 11 11 12 15 13 16 14
REMARK SMILES IDX 17 15 12 17 13 18 14 19
REMARK H PARENT
REMARK Flexibility Score: 70.00
ROOT
ATOM      1  C   UNL     1     163.796 202.316 302.216  1.00  0.00     0.136 C 
ATOM      2  O   UNL     1     162.705 202.725 302.587  1.00  0.00    -0.299 OA
ENDROOT
BRANCH   1   3
ATOM      3  C   UNL     1     164.019 202.070 300.735  1.00  0.00     0.053 C 
ATOM      4  C   UNL     1     162.684 202.013 299.985  1.00  0.00     0.016 C 
BRANCH   3   5
ATOM      5  C   UNL     1     164.957 203.125 300.119  1.00  0.00     0.015 C 
BRANCH   5   6
ATOM      6  C   UNL     1     166.432 202.862 300.471  1.00  0.00     0.028 C 
BRANCH   6   7
ATOM      7  C   UNL     1     166.917 201.591 299.824  1.00  0.00    -0.028 C 
ATOM      8  C   UNL     1     167.270 200.471 300.499  1.00  0.00    -0.070 CG0
ATOM      9  C   UNL     1     167.794 199.302 299.706  1.00  0.00     0.039 C 
ATOM     10  G   UNL     1     167.143 200.343 302.010  1.00  0.00     0.000 G0
ENDBRANCH   6   7
ENDBRANCH   5   6
ENDBRANCH   3   5
ENDBRANCH   1   3
BRANCH   1  11
ATOM     11  C   UNL     1     164.881 202.102 303.250  1.00  0.00     0.087 C 
BRANCH  11  12
ATOM     12  C   UNL     1     165.073 200.599 303.598  1.00  0.00     0.066 C 
BRANCH  12  13
ATOM     13  C   UNL     1     165.810 199.866 302.486  1.00  0.00     0.140 C 
ATOM     14  O   UNL     1     165.269 198.933 301.909  1.00  0.00    -0.299 OA
BRANCH  13  15
ATOM     15  C   UNL     1     167.172 200.324 302.021  1.00  0.00     0.106 CG0
ATOM     16  G   UNL     1     167.238 200.483 300.509  1.00  0.00     0.000 G0
ENDBRANCH  13  15
ENDBRANCH  12  13
BRANCH  12  17
ATOM     17  C   UNL     1     165.779 200.364 304.972  1.00  0.00    -0.006 C 
ATOM     18  C   UNL     1     166.291 198.921 305.105  1.00  0.00     0.008 C 
ATOM     19  C   UNL     1     164.915 200.730 306.192  1.00  0.00     0.008 C 
ENDBRANCH  12  17
ENDBRANCH  11  12
ENDBRANCH   1  11
TORSDOF 1
ENDMDL
MODEL 6
REMARK VINA RESULT:    -2.973      1.653      4.129
REMARK INTER + INTRA:          -3.586
REMARK INTER:                  -5.283
REMARK INTRA:                   1.697
REMARK UNBOUND:                 0.952
REMARK SMILES CC1=CCC[C@H](C)C(=O)C[C@H](C(C)C)C(=O)C1
REMARK SMILES IDX 8 1 9 2 6 3 7 4 5 5 4 6 3 7 2 8 1 9 10 11 11 12 15 13 16 14
REMARK SMILES IDX 17 15 12 17 13 18 14 19
REMARK H PARENT
REMARK Flexibility Score: 70.00
ROOT
ATOM      1  C   UNL     1     165.613 199.683 302.956  1.00  0.00     0.136 C 
ATOM      2  O   UNL     1     164.750 198.862 302.682  1.00  0.00    -0.299 OA
ENDROOT
BRANCH   1   3
ATOM      3  C   UNL     1     165.410 200.582 304.162  1.00  0.00     0.053 C 
ATOM      4  C   UNL     1     165.957 199.921 305.433  1.00  0.00     0.016 C 
BRANCH   3   5
ATOM      5  C   UNL     1     166.037 201.972 303.947  1.00  0.00     0.015 C 
BRANCH   5   6
ATOM      6  C   UNL     1     165.000 203.004 303.465  1.00  0.00     0.028 C 
BRANCH   6   7
ATOM      7  C   UNL     1     163.974 202.354 302.574  1.00  0.00    -0.028 C 
ATOM      8  C   UNL     1     164.084 202.248 301.228  1.00  0.00    -0.070 CG0
ATOM      9  C   UNL     1     162.939 201.623 300.472  1.00  0.00     0.039 C 
ATOM     10  G   UNL     1     165.311 202.715 300.459  1.00  0.00     0.000 G0
ENDBRANCH   6   7
ENDBRANCH   5   6
ENDBRANCH   3   5
ENDBRANCH   1   3
BRANCH   1  11
ATOM     11  C   UNL     1     166.856 199.745 302.095  1.00  0.00     0.087 C 
BRANCH  11  12
ATOM     12  C   UNL     1     166.585 200.413 300.718  1.00  0.00     0.066 C 
BRANCH  12  13
ATOM     13  C   UNL     1     166.559 201.930 300.838  1.00  0.00     0.140 C 
ATOM     14  O   UNL     1     167.571 202.532 301.169  1.00  0.00    -0.299 OA
BRANCH  13  15
ATOM     15  C   UNL     1     165.324 202.719 300.473  1.00  0.00     0.106 CG0
ATOM     16  G   UNL     1     164.091 202.230 301.217  1.00  0.00     0.000 G0
ENDBRANCH  13  15
ENDBRANCH  12  13
BRANCH  12  17
ATOM     17  C   UNL     1     167.586 199.968 299.603  1.00  0.00    -0.006 C 
ATOM     18  C   UNL     1     168.527 198.858 300.099  1.00  0.00     0.008 C 
ATOM     19  C   UNL     1     168.407 201.121 299.000  1.00  0.00     0.008 C 
ENDBRANCH  12  17
ENDBRANCH  11  12
ENDBRANCH   1  11
TORSDOF 1
ENDMDL
MODEL 7
REMARK VINA RESULT:    -2.954      1.931      3.915
REMARK INTER + INTRA:          -3.556
REMARK INTER:                  -3.939
REMARK INTRA:                   0.382
REMARK UNBOUND:                 0.952
REMARK SMILES CC1=CCC[C@H](C)C(=O)C[C@H](C(C)C)C(=O)C1
REMARK SMILES IDX 8 1 9 2 6 3 7 4 5 5 4 6 3 7 2 8 1 9 10 11 11 12 15 13 16 14
REMARK SMILES IDX 17 15 12 17 13 18 14 19
REMARK H PARENT
REMARK Flexibility Score: 70.00
ROOT
ATOM      1  C   UNL     1     163.632 202.469 304.178  1.00  0.00     0.136 C 
ATOM      2  O   UNL     1     163.064 202.638 305.247  1.00  0.00    -0.299 OA
ENDROOT
BRANCH   1   3
ATOM      3  C   UNL     1     162.798 202.404 302.911  1.00  0.00     0.053 C 
ATOM      4  C   UNL     1     161.395 202.975 303.151  1.00  0.00     0.016 C 
BRANCH   3   5
ATOM      5  C   UNL     1     163.493 203.118 301.736  1.00  0.00     0.015 C 
BRANCH   5   6
ATOM      6  C   UNL     1     163.458 202.275 300.448  1.00  0.00     0.028 C 
BRANCH   6   7
ATOM      7  C   UNL     1     164.673 202.547 299.600  1.00  0.00    -0.028 C 
ATOM      8  C   UNL     1     165.883 201.966 299.783  1.00  0.00    -0.070 CG0
ATOM      9  C   UNL     1     167.016 202.392 298.885  1.00  0.00     0.039 C 
ATOM     10  G   UNL     1     166.137 200.899 300.838  1.00  0.00     0.000 G0
ENDBRANCH   6   7
ENDBRANCH   5   6
ENDBRANCH   3   5
ENDBRANCH   1   3
BRANCH   1  11
ATOM     11  C   UNL     1     165.141 202.362 304.166  1.00  0.00     0.087 C 
BRANCH  11  12
ATOM     12  C   UNL     1     165.635 201.102 303.401  1.00  0.00     0.066 C 
BRANCH  12  13
ATOM     13  C   UNL     1     166.463 201.487 302.182  1.00  0.00     0.140 C 
ATOM     14  O   UNL     1     167.418 202.240 302.309  1.00  0.00    -0.299 OA
BRANCH  13  15
ATOM     15  C   UNL     1     166.177 200.888 300.826  1.00  0.00     0.106 CG0
ATOM     16  G   UNL     1     165.884 201.953 299.779  1.00  0.00     0.000 G0
ENDBRANCH  13  15
ENDBRANCH  12  13
BRANCH  12  17
ATOM     17  C   UNL     1     166.421 200.096 304.302  1.00  0.00    -0.006 C 
ATOM     18  C   UNL     1     166.833 198.839 303.519  1.00  0.00     0.008 C 
ATOM     19  C   UNL     1     165.678 199.694 305.588  1.00  0.00     0.008 C 
ENDBRANCH  12  17
ENDBRANCH  11  12
ENDBRANCH   1  11
TORSDOF 1
ENDMDL
MODEL 8
REMARK VINA RESULT:    -2.848      1.796      4.827
REMARK INTER + INTRA:          -3.395
REMARK INTER:                  -4.234
REMARK INTRA:                   0.839
REMARK UNBOUND:                 0.952
REMARK SMILES CC1=CCC[C@H](C)C(=O)C[C@H](C(C)C)C(=O)C1
REMARK SMILES IDX 8 1 9 2 6 3 7 4 5 5 4 6 3 7 2 8 1 9 10 11 11 12 15 13 16 14
REMARK SMILES IDX 17 15 12 17 13 18 14 19
REMARK H PARENT
REMARK Flexibility Score: 70.00
ROOT
ATOM      1  C   UNL     1     164.574 201.243 305.036  1.00  0.00     0.136 C 
ATOM      2  O   UNL     1     163.893 202.005 305.707  1.00  0.00    -0.299 OA
ENDROOT
BRANCH   1   3
ATOM      3  C   UNL     1     165.682 200.461 305.717  1.00  0.00     0.053 C 
ATOM      4  C   UNL     1     165.124 199.210 306.406  1.00  0.00     0.016 C 
BRANCH   3   5
ATOM      5  C   UNL     1     166.807 200.095 304.731  1.00  0.00     0.015 C 
BRANCH   5   6
ATOM      6  C   UNL     1     166.377 198.991 303.748  1.00  0.00     0.028 C 
BRANCH   6   7
ATOM      7  C   UNL     1     167.287 198.961 302.548  1.00  0.00    -0.028 C 
ATOM      8  C   UNL     1     167.016 199.560 301.364  1.00  0.00    -0.070 CG0
ATOM      9  C   UNL     1     168.005 199.383 300.239  1.00  0.00     0.039 C 
ATOM     10  G   UNL     1     165.775 200.409 301.131  1.00  0.00     0.000 G0
ENDBRANCH   6   7
ENDBRANCH   5   6
ENDBRANCH   3   5
ENDBRANCH   1   3
BRANCH   1  11
ATOM     11  C   UNL     1     164.260 201.095 303.563  1.00  0.00     0.087 C 
BRANCH  11  12
ATOM     12  C   UNL     1     164.813 202.280 302.722  1.00  0.00     0.066 C 
BRANCH  12  13
ATOM     13  C   UNL     1     165.856 201.805 301.721  1.00  0.00     0.140 C 
ATOM     14  O   UNL     1     166.819 202.513 301.464  1.00  0.00    -0.299 OA
BRANCH  13  15
ATOM     15  C   UNL     1     165.769 200.432 301.098  1.00  0.00     0.106 CG0
ATOM     16  G   UNL     1     167.016 199.601 301.365  1.00  0.00     0.000 G0
ENDBRANCH  13  15
ENDBRANCH  12  13
BRANCH  12  17
ATOM     17  C   UNL     1     163.698 203.105 302.002  1.00  0.00    -0.006 C 
ATOM     18  C   UNL     1     162.364 203.037 302.764  1.00  0.00     0.008 C 
ATOM     19  C   UNL     1     163.481 202.716 300.529  1.00  0.00     0.008 C 
ENDBRANCH  12  17
ENDBRANCH  11  12
ENDBRANCH   1  11
TORSDOF 1
ENDMDL
MODEL 9
REMARK VINA RESULT:    -2.392      1.487      2.140
REMARK INTER + INTRA:          -2.699
REMARK INTER:                  -4.013
REMARK INTRA:                   1.314
REMARK UNBOUND:                 0.952
REMARK SMILES CC1=CCC[C@H](C)C(=O)C[C@H](C(C)C)C(=O)C1
REMARK SMILES IDX 8 1 9 2 6 3 7 4 5 5 4 6 3 7 2 8 1 9 10 11 11 12 15 13 16 14
REMARK SMILES IDX 17 15 12 17 13 18 14 19
REMARK H PARENT
REMARK Flexibility Score: 70.00
ROOT
ATOM      1  C   UNL     1     166.946 200.055 301.210  1.00  0.00     0.136 C 
ATOM      2  O   UNL     1     167.604 199.037 301.365  1.00  0.00    -0.299 OA
ENDROOT
BRANCH   1   3
ATOM      3  C   UNL     1     167.552 201.205 300.425  1.00  0.00     0.053 C 
ATOM      4  C   UNL     1     167.629 200.865 298.932  1.00  0.00     0.016 C 
BRANCH   3   5
ATOM      5  C   UNL     1     166.782 202.518 300.656  1.00  0.00     0.015 C 
BRANCH   5   6
ATOM      6  C   UNL     1     166.064 202.998 299.381  1.00  0.00     0.028 C 
BRANCH   6   7
ATOM      7  C   UNL     1     164.590 202.700 299.455  1.00  0.00    -0.028 C 
ATOM      8  C   UNL     1     163.860 202.715 300.596  1.00  0.00    -0.070 CG0
ATOM      9  C   UNL     1     162.404 202.333 300.510  1.00  0.00     0.039 C 
ATOM     10  G   UNL     1     164.441 203.114 301.945  1.00  0.00     0.000 G0
ENDBRANCH   6   7
ENDBRANCH   5   6
ENDBRANCH   3   5
ENDBRANCH   1   3
BRANCH   1  11
ATOM     11  C   UNL     1     165.547 200.110 301.784  1.00  0.00     0.087 C 
BRANCH  11  12
ATOM     12  C   UNL     1     165.475 200.968 303.078  1.00  0.00     0.066 C 
BRANCH  12  13
ATOM     13  C   UNL     1     164.376 202.017 302.983  1.00  0.00     0.140 C 
ATOM     14  O   UNL     1     163.458 202.011 303.790  1.00  0.00    -0.299 OA
BRANCH  13  15
ATOM     15  C   UNL     1     164.442 203.123 301.956  1.00  0.00     0.106 CG0
ATOM     16  G   UNL     1     163.881 202.689 300.610  1.00  0.00     0.000 G0
ENDBRANCH  13  15
ENDBRANCH  12  13
BRANCH  12  17
ATOM     17  C   UNL     1     165.311 200.119 304.379  1.00  0.00    -0.006 C 
ATOM     18  C   UNL     1     166.601 200.112 305.217  1.00  0.00     0.008 C 
ATOM     19  C   UNL     1     164.840 198.675 304.131  1.00  0.00     0.008 C 
ENDBRANCH  12  17
ENDBRANCH  11  12
ENDBRANCH   1  11
TORSDOF 1
ENDMDL
