MODEL 1
REMARK VINA RESULT:    -4.217      0.000      0.000
REMARK INTER + INTRA:          -6.886
REMARK INTER:                  -6.436
REMARK INTRA:                  -0.450
REMARK UNBOUND:                -0.450
REMARK SMILES CCCCCCCCCCC(=O)[O-]
REMARK SMILES IDX 7 1 8 2 9 3 10 4 11 5 12 6 13 7 6 8 5 9 4 10 3 11 2 12 1 13
REMARK H PARENT
REMARK Flexibility Score: inf
ROOT
ATOM      1  C   UNL     1       3.864 -37.106  20.398  1.00  0.00     0.000 C 
ENDROOT
BRANCH   1   2
ATOM      2  C   UNL     1       3.987 -35.697  20.996  1.00  0.00     0.000 C 
BRANCH   2   3
ATOM      3  C   UNL     1       4.978 -35.682  22.168  1.00  0.00     0.006 C 
BRANCH   3   4
ATOM      4  C   UNL     1       5.005 -37.018  22.923  1.00  0.00     0.053 C 
BRANCH   4   5
ATOM      5  C   UNL     1       5.000 -36.815  24.408  1.00  0.00     0.041 C 
ATOM      6  O   UNL     1       4.912 -35.656  24.890  1.00  0.00    -0.550 OA
ATOM      7  O   UNL     1       5.125 -37.907  25.259  1.00  0.00    -0.550 OA
ENDBRANCH   4   5
ENDBRANCH   3   4
ENDBRANCH   2   3
ENDBRANCH   1   2
BRANCH   1   8
ATOM      8  C   UNL     1       3.682 -37.092  18.870  1.00  0.00     0.000 C 
BRANCH   8   9
ATOM      9  C   UNL     1       2.227 -37.247  18.380  1.00  0.00    -0.000 C 
BRANCH   9  10
ATOM     10  C   UNL     1       1.935 -36.655  16.989  1.00  0.00    -0.000 C 
BRANCH  10  11
ATOM     11  C   UNL     1       3.187 -36.066  16.318  1.00  0.00    -0.000 C 
BRANCH  11  12
ATOM     12  C   UNL     1       3.285 -36.435  14.828  1.00  0.00    -0.003 C 
ATOM     13  C   UNL     1       4.056 -37.733  14.589  1.00  0.00     0.004 C 
ENDBRANCH  11  12
ENDBRANCH  10  11
ENDBRANCH   9  10
ENDBRANCH   8   9
ENDBRANCH   1   8
TORSDOF 9
ENDMDL
MODEL 2
REMARK VINA RESULT:    -3.879      4.242      7.769
REMARK INTER + INTRA:          -6.370
REMARK INTER:                  -6.127
REMARK INTRA:                  -0.242
REMARK UNBOUND:                -0.450
REMARK SMILES CCCCCCCCCCC(=O)[O-]
REMARK SMILES IDX 7 1 8 2 9 3 10 4 11 5 12 6 13 7 6 8 5 9 4 10 3 11 2 12 1 13
REMARK H PARENT
REMARK Flexibility Score: inf
ROOT
ATOM      1  C   UNL     1       3.785 -36.979  19.595  1.00  0.00     0.000 C 
ENDROOT
BRANCH   1   2
ATOM      2  C   UNL     1       3.833 -36.672  18.091  1.00  0.00     0.000 C 
BRANCH   2   3
ATOM      3  C   UNL     1       2.522 -37.083  17.405  1.00  0.00     0.006 C 
BRANCH   3   4
ATOM      4  C   UNL     1       2.368 -36.445  16.018  1.00  0.00     0.053 C 
BRANCH   4   5
ATOM      5  C   UNL     1       3.339 -37.020  15.032  1.00  0.00     0.041 C 
ATOM      6  O   UNL     1       3.684 -38.227  15.112  1.00  0.00    -0.550 OA
ATOM      7  O   UNL     1       3.888 -36.211  14.045  1.00  0.00    -0.550 OA
ENDBRANCH   4   5
ENDBRANCH   3   4
ENDBRANCH   2   3
ENDBRANCH   1   2
BRANCH   1   8
ATOM      8  C   UNL     1       5.078 -36.580  20.327  1.00  0.00     0.000 C 
BRANCH   8   9
ATOM      9  C   UNL     1       5.066 -36.806  21.853  1.00  0.00    -0.000 C 
BRANCH   9  10
ATOM     10  C   UNL     1       5.010 -35.526  22.706  1.00  0.00    -0.000 C 
BRANCH  10  11
ATOM     11  C   UNL     1       5.118 -35.810  24.214  1.00  0.00    -0.000 C 
BRANCH  11  12
ATOM     12  C   UNL     1       4.949 -37.302  24.545  1.00  0.00    -0.003 C 
ATOM     13  C   UNL     1       4.954 -37.579  26.048  1.00  0.00     0.004 C 
ENDBRANCH  11  12
ENDBRANCH  10  11
ENDBRANCH   9  10
ENDBRANCH   8   9
ENDBRANCH   1   8
TORSDOF 9
ENDMDL
MODEL 3
REMARK VINA RESULT:    -3.841      4.306      7.575
REMARK INTER + INTRA:          -6.313
REMARK INTER:                  -5.985
REMARK INTRA:                  -0.328
REMARK UNBOUND:                -0.450
REMARK SMILES CCCCCCCCCCC(=O)[O-]
REMARK SMILES IDX 7 1 8 2 9 3 10 4 11 5 12 6 13 7 6 8 5 9 4 10 3 11 2 12 1 13
REMARK H PARENT
REMARK Flexibility Score: inf
ROOT
ATOM      1  C   UNL     1       4.592 -36.847  19.545  1.00  0.00     0.000 C 
ENDROOT
BRANCH   1   2
ATOM      2  C   UNL     1       3.147 -37.308  19.305  1.00  0.00     0.000 C 
BRANCH   2   3
ATOM      3  C   UNL     1       2.883 -37.529  17.808  1.00  0.00     0.006 C 
BRANCH   3   4
ATOM      4  C   UNL     1       3.327 -36.333  16.957  1.00  0.00     0.053 C 
BRANCH   4   5
ATOM      5  C   UNL     1       2.829 -36.439  15.548  1.00  0.00     0.041 C 
ATOM      6  O   UNL     1       3.622 -36.732  14.615  1.00  0.00    -0.550 OA
ATOM      7  O   UNL     1       1.494 -36.183  15.262  1.00  0.00    -0.550 OA
ENDBRANCH   4   5
ENDBRANCH   3   4
ENDBRANCH   2   3
ENDBRANCH   1   2
BRANCH   1   8
ATOM      8  C   UNL     1       5.103 -37.195  20.955  1.00  0.00     0.000 C 
BRANCH   8   9
ATOM      9  C   UNL     1       4.174 -38.106  21.784  1.00  0.00    -0.000 C 
BRANCH   9  10
ATOM     10  C   UNL     1       4.880 -39.236  22.555  1.00  0.00    -0.000 C 
BRANCH  10  11
ATOM     11  C   UNL     1       4.901 -38.997  24.075  1.00  0.00    -0.000 C 
BRANCH  11  12
ATOM     12  C   UNL     1       5.057 -37.511  24.435  1.00  0.00    -0.003 C 
ATOM     13  C   UNL     1       4.626 -37.199  25.868  1.00  0.00     0.004 C 
ENDBRANCH  11  12
ENDBRANCH  10  11
ENDBRANCH   9  10
ENDBRANCH   8   9
ENDBRANCH   1   8
TORSDOF 9
ENDMDL
MODEL 4
REMARK VINA RESULT:    -3.834      1.143      1.921
REMARK INTER + INTRA:          -6.301
REMARK INTER:                  -5.881
REMARK INTRA:                  -0.420
REMARK UNBOUND:                -0.450
REMARK SMILES CCCCCCCCCCC(=O)[O-]
REMARK SMILES IDX 7 1 8 2 9 3 10 4 11 5 12 6 13 7 6 8 5 9 4 10 3 11 2 12 1 13
REMARK H PARENT
REMARK Flexibility Score: inf
ROOT
ATOM      1  C   UNL     1       4.351 -35.871  21.002  1.00  0.00     0.000 C 
ENDROOT
BRANCH   1   2
ATOM      2  C   UNL     1       4.631 -34.981  22.222  1.00  0.00     0.000 C 
BRANCH   2   3
ATOM      3  C   UNL     1       4.850 -35.830  23.483  1.00  0.00     0.006 C 
BRANCH   3   4
ATOM      4  C   UNL     1       5.122 -37.303  23.152  1.00  0.00     0.053 C 
BRANCH   4   5
ATOM      5  C   UNL     1       5.082 -38.164  24.378  1.00  0.00     0.041 C 
ATOM      6  O   UNL     1       4.980 -39.414  24.272  1.00  0.00    -0.550 OA
ATOM      7  O   UNL     1       5.124 -37.581  25.638  1.00  0.00    -0.550 OA
ENDBRANCH   4   5
ENDBRANCH   3   4
ENDBRANCH   2   3
ENDBRANCH   1   2
BRANCH   1   8
ATOM      8  C   UNL     1       5.085 -35.397  19.735  1.00  0.00     0.000 C 
BRANCH   8   9
ATOM      9  C   UNL     1       4.352 -35.679  18.408  1.00  0.00    -0.000 C 
BRANCH   9  10
ATOM     10  C   UNL     1       3.578 -37.009  18.354  1.00  0.00    -0.000 C 
BRANCH  10  11
ATOM     11  C   UNL     1       2.846 -37.218  17.017  1.00  0.00    -0.000 C 
BRANCH  11  12
ATOM     12  C   UNL     1       2.905 -35.976  16.114  1.00  0.00    -0.003 C 
ATOM     13  C   UNL     1       2.741 -36.313  14.632  1.00  0.00     0.004 C 
ENDBRANCH  11  12
ENDBRANCH  10  11
ENDBRANCH   9  10
ENDBRANCH   8   9
ENDBRANCH   1   8
TORSDOF 9
ENDMDL
MODEL 5
REMARK VINA RESULT:    -2.431      1.322      2.103
REMARK INTER + INTRA:          -4.160
REMARK INTER:                  -3.688
REMARK INTRA:                  -0.472
REMARK UNBOUND:                -0.450
REMARK SMILES CCCCCCCCCCC(=O)[O-]
REMARK SMILES IDX 7 1 8 2 9 3 10 4 11 5 12 6 13 7 6 8 5 9 4 10 3 11 2 12 1 13
REMARK H PARENT
REMARK Flexibility Score: inf
ROOT
ATOM      1  C   UNL     1       3.846 -36.393  20.036  1.00  0.00     0.000 C 
ENDROOT
BRANCH   1   2
ATOM      2  C   UNL     1       4.939 -36.183  21.094  1.00  0.00     0.000 C 
BRANCH   2   3
ATOM      3  C   UNL     1       4.689 -37.067  22.325  1.00  0.00     0.006 C 
BRANCH   3   4
ATOM      4  C   UNL     1       4.993 -36.334  23.638  1.00  0.00     0.053 C 
BRANCH   4   5
ATOM      5  C   UNL     1       5.074 -37.282  24.796  1.00  0.00     0.041 C 
ATOM      6  O   UNL     1       5.125 -36.841  25.974  1.00  0.00    -0.550 OA
ATOM      7  O   UNL     1       5.125 -38.652  24.571  1.00  0.00    -0.550 OA
ENDBRANCH   4   5
ENDBRANCH   3   4
ENDBRANCH   2   3
ENDBRANCH   1   2
BRANCH   1   8
ATOM      8  C   UNL     1       4.416 -36.742  18.650  1.00  0.00     0.000 C 
BRANCH   8   9
ATOM      9  C   UNL     1       4.382 -35.595  17.619  1.00  0.00    -0.000 C 
BRANCH   9  10
ATOM     10  C   UNL     1       3.155 -35.581  16.691  1.00  0.00    -0.000 C 
BRANCH  10  11
ATOM     11  C   UNL     1       2.448 -36.946  16.616  1.00  0.00    -0.000 C 
BRANCH  11  12
ATOM     12  C   UNL     1       1.060 -36.926  17.277  1.00  0.00    -0.003 C 
ATOM     13  C   UNL     1       0.960 -37.874  18.472  1.00  0.00     0.004 C 
ENDBRANCH  11  12
ENDBRANCH  10  11
ENDBRANCH   9  10
ENDBRANCH   8   9
ENDBRANCH   1   8
TORSDOF 9
ENDMDL
MODEL 6
REMARK VINA RESULT:    -1.881      3.304      6.910
REMARK INTER + INTRA:          -3.321
REMARK INTER:                  -4.713
REMARK INTRA:                   1.392
REMARK UNBOUND:                -0.450
REMARK SMILES CCCCCCCCCCC(=O)[O-]
REMARK SMILES IDX 7 1 8 2 9 3 10 4 11 5 12 6 13 7 6 8 5 9 4 10 3 11 2 12 1 13
REMARK H PARENT
REMARK Flexibility Score: inf
ROOT
ATOM      1  C   UNL     1       4.583 -39.029  22.626  1.00  0.00     0.000 C 
ENDROOT
BRANCH   1   2
ATOM      2  C   UNL     1       4.950 -38.608  21.196  1.00  0.00     0.000 C 
BRANCH   2   3
ATOM      3  C   UNL     1       4.363 -37.229  20.862  1.00  0.00     0.006 C 
BRANCH   3   4
ATOM      4  C   UNL     1       4.363 -36.947  19.354  1.00  0.00     0.053 C 
BRANCH   4   5
ATOM      5  C   UNL     1       3.063 -37.333  18.718  1.00  0.00     0.041 C 
ATOM      6  O   UNL     1       2.051 -37.560  19.431  1.00  0.00    -0.550 OA
ATOM      7  O   UNL     1       2.979 -37.474  17.338  1.00  0.00    -0.550 OA
ENDBRANCH   4   5
ENDBRANCH   3   4
ENDBRANCH   2   3
ENDBRANCH   1   2
BRANCH   1   8
ATOM      8  C   UNL     1       5.090 -38.038  23.689  1.00  0.00     0.000 C 
BRANCH   8   9
ATOM      9  C   UNL     1       4.786 -38.429  25.150  1.00  0.00    -0.000 C 
BRANCH   9  10
ATOM     10  C   UNL     1       4.614 -37.250  26.124  1.00  0.00    -0.000 C 
BRANCH  10  11
ATOM     11  C   UNL     1       5.123 -35.919  25.545  1.00  0.00    -0.000 C 
BRANCH  11  12
ATOM     12  C   UNL     1       4.906 -35.817  24.026  1.00  0.00    -0.003 C 
ATOM     13  C   UNL     1       5.094 -34.396  23.495  1.00  0.00     0.004 C 
ENDBRANCH  11  12
ENDBRANCH  10  11
ENDBRANCH   9  10
ENDBRANCH   8   9
ENDBRANCH   1   8
TORSDOF 9
ENDMDL
