MODEL 1
REMARK VINA RESULT:    -5.918      0.000      0.000
REMARK INTER + INTRA:          -6.501
REMARK INTER:                  -6.437
REMARK INTRA:                  -0.064
REMARK UNBOUND:                -0.064
REMARK SMILES COc1cc2ccc(=O)oc2cc1O
REMARK SMILES IDX 3 1 13 2 12 3 11 4 5 5 4 6 6 7 7 8 8 9 9 10 10 11 2 12 1 13
REMARK SMILES IDX 14 14
REMARK H PARENT 14 15
REMARK Flexibility Score: inf
ROOT
ATOM      1  C   UNL     1      48.003  64.784   2.774  1.00  0.00     0.161 A 
ATOM      2  C   UNL     1      46.717  64.208   2.800  1.00  0.00     0.161 A 
ATOM      3  C   UNL     1      45.619  64.954   3.246  1.00  0.00     0.098 A 
ATOM      4  C   UNL     1      45.787  66.275   3.668  1.00  0.00     0.142 A 
ATOM      5  C   UNL     1      47.069  66.861   3.644  1.00  0.00     0.022 A 
ATOM      6  C   UNL     1      48.171  66.118   3.200  1.00  0.00     0.062 A 
ATOM      7  C   UNL     1      47.204  68.185   4.074  1.00  0.00     0.019 A 
ATOM      8  C   UNL     1      46.077  68.883   4.508  1.00  0.00     0.094 A 
ATOM      9  C   UNL     1      44.837  68.236   4.502  1.00  0.00     0.336 A 
ATOM     10  O   UNL     1      43.807  68.849   4.891  1.00  0.00    -0.246 OA
ATOM     11  O   UNL     1      44.737  66.976   4.090  1.00  0.00    -0.423 OA
ENDROOT
BRANCH   1  12
ATOM     12  O   UNL     1      49.082  64.008   2.322  1.00  0.00    -0.493 OA
ATOM     13  C   UNL     1      49.589  64.026   0.991  1.00  0.00     0.278 C 
ENDBRANCH   1  12
BRANCH   2  14
ATOM     14  O   UNL     1      46.511  62.893   2.387  1.00  0.00    -0.504 OA
ATOM     15  H   UNL     1      47.200  62.379   1.851  1.00  0.00     0.293 HD
ENDBRANCH   2  14
TORSDOF 2
ENDMDL
MODEL 2
REMARK VINA RESULT:    -5.807      7.857     10.260
REMARK INTER + INTRA:          -6.380
REMARK INTER:                  -6.325
REMARK INTRA:                  -0.056
REMARK UNBOUND:                -0.064
REMARK SMILES COc1cc2ccc(=O)oc2cc1O
REMARK SMILES IDX 3 1 13 2 12 3 11 4 5 5 4 6 6 7 7 8 8 9 9 10 10 11 2 12 1 13
REMARK SMILES IDX 14 14
REMARK H PARENT 14 15
REMARK Flexibility Score: inf
ROOT
ATOM      1  C   UNL     1      52.470  59.726   3.095  1.00  0.00     0.161 A 
ATOM      2  C   UNL     1      51.129  59.893   2.698  1.00  0.00     0.161 A 
ATOM      3  C   UNL     1      50.723  59.518   1.412  1.00  0.00     0.098 A 
ATOM      4  C   UNL     1      51.642  58.974   0.511  1.00  0.00     0.142 A 
ATOM      5  C   UNL     1      52.986  58.801   0.900  1.00  0.00     0.022 A 
ATOM      6  C   UNL     1      53.397  59.177   2.186  1.00  0.00     0.062 A 
ATOM      7  C   UNL     1      53.882  58.254  -0.024  1.00  0.00     0.019 A 
ATOM      8  C   UNL     1      53.425  57.897  -1.293  1.00  0.00     0.094 A 
ATOM      9  C   UNL     1      52.076  58.097  -1.607  1.00  0.00     0.336 A 
ATOM     10  O   UNL     1      51.644  57.781  -2.747  1.00  0.00    -0.246 OA
ATOM     11  O   UNL     1      51.246  58.620  -0.709  1.00  0.00    -0.423 OA
ENDROOT
BRANCH   1  12
ATOM     12  O   UNL     1      52.844  60.114   4.393  1.00  0.00    -0.493 OA
ATOM     13  C   UNL     1      53.452  59.253   5.350  1.00  0.00     0.278 C 
ENDBRANCH   1  12
BRANCH   2  14
ATOM     14  O   UNL     1      50.183  60.433   3.568  1.00  0.00    -0.504 OA
ATOM     15  H   UNL     1      49.390  60.972   3.240  1.00  0.00     0.293 HD
ENDBRANCH   2  14
TORSDOF 2
ENDMDL
MODEL 3
REMARK VINA RESULT:    -5.779      7.496      9.606
REMARK INTER + INTRA:          -6.349
REMARK INTER:                  -6.295
REMARK INTRA:                  -0.055
REMARK UNBOUND:                -0.064
REMARK SMILES COc1cc2ccc(=O)oc2cc1O
REMARK SMILES IDX 3 1 13 2 12 3 11 4 5 5 4 6 6 7 7 8 8 9 9 10 10 11 2 12 1 13
REMARK SMILES IDX 14 14
REMARK H PARENT 14 15
REMARK Flexibility Score: inf
ROOT
ATOM      1  C   UNL     1      52.562  59.919   4.125  1.00  0.00     0.161 A 
ATOM      2  C   UNL     1      51.950  61.121   4.530  1.00  0.00     0.161 A 
ATOM      3  C   UNL     1      52.156  61.617   5.823  1.00  0.00     0.098 A 
ATOM      4  C   UNL     1      52.971  60.926   6.723  1.00  0.00     0.142 A 
ATOM      5  C   UNL     1      53.590  59.722   6.326  1.00  0.00     0.022 A 
ATOM      6  C   UNL     1      53.385  59.222   5.034  1.00  0.00     0.062 A 
ATOM      7  C   UNL     1      54.400  59.054   7.251  1.00  0.00     0.019 A 
ATOM      8  C   UNL     1      54.572  59.592   8.526  1.00  0.00     0.094 A 
ATOM      9  C   UNL     1      53.927  60.791   8.847  1.00  0.00     0.336 A 
ATOM     10  O   UNL     1      54.070  61.293   9.993  1.00  0.00    -0.246 OA
ATOM     11  O   UNL     1      53.162  61.406   7.949  1.00  0.00    -0.423 OA
ENDROOT
BRANCH   1  12
ATOM     12  O   UNL     1      52.333  59.449   2.821  1.00  0.00    -0.493 OA
ATOM     13  C   UNL     1      53.358  59.137   1.883  1.00  0.00     0.278 C 
ENDBRANCH   1  12
BRANCH   2  14
ATOM     14  O   UNL     1      51.130  61.838   3.660  1.00  0.00    -0.504 OA
ATOM     15  H   UNL     1      50.498  62.562   3.984  1.00  0.00     0.293 HD
ENDBRANCH   2  14
TORSDOF 2
ENDMDL
MODEL 4
REMARK VINA RESULT:    -5.688      3.706      4.645
REMARK INTER + INTRA:          -6.251
REMARK INTER:                  -6.207
REMARK INTRA:                  -0.044
REMARK UNBOUND:                -0.064
REMARK SMILES COc1cc2ccc(=O)oc2cc1O
REMARK SMILES IDX 3 1 13 2 12 3 11 4 5 5 4 6 6 7 7 8 8 9 9 10 10 11 2 12 1 13
REMARK SMILES IDX 14 14
REMARK H PARENT 14 15
REMARK Flexibility Score: inf
ROOT
ATOM      1  C   UNL     1      48.284  61.376   6.075  1.00  0.00     0.161 A 
ATOM      2  C   UNL     1      47.108  60.639   5.835  1.00  0.00     0.161 A 
ATOM      3  C   UNL     1      46.083  61.182   5.052  1.00  0.00     0.098 A 
ATOM      4  C   UNL     1      46.215  62.459   4.500  1.00  0.00     0.142 A 
ATOM      5  C   UNL     1      47.389  63.204   4.734  1.00  0.00     0.022 A 
ATOM      6  C   UNL     1      48.417  62.665   5.518  1.00  0.00     0.062 A 
ATOM      7  C   UNL     1      47.492  64.480   4.168  1.00  0.00     0.019 A 
ATOM      8  C   UNL     1      46.440  64.973   3.396  1.00  0.00     0.094 A 
ATOM      9  C   UNL     1      45.307  64.176   3.207  1.00  0.00     0.336 A 
ATOM     10  O   UNL     1      44.347  64.603   2.513  1.00  0.00    -0.246 OA
ATOM     11  O   UNL     1      45.235  62.967   3.757  1.00  0.00    -0.423 OA
ENDROOT
BRANCH   1  12
ATOM     12  O   UNL     1      49.293  60.802   6.866  1.00  0.00    -0.493 OA
ATOM     13  C   UNL     1      50.655  61.216   6.865  1.00  0.00     0.278 C 
ENDBRANCH   1  12
BRANCH   2  14
ATOM     14  O   UNL     1      46.939  59.362   6.368  1.00  0.00    -0.504 OA
ATOM     15  H   UNL     1      46.310  59.177   7.140  1.00  0.00     0.293 HD
ENDBRANCH   2  14
TORSDOF 2
ENDMDL
MODEL 5
REMARK VINA RESULT:    -5.677      9.147     10.587
REMARK INTER + INTRA:          -6.239
REMARK INTER:                  -6.188
REMARK INTRA:                  -0.051
REMARK UNBOUND:                -0.064
REMARK SMILES COc1cc2ccc(=O)oc2cc1O
REMARK SMILES IDX 3 1 13 2 12 3 11 4 5 5 4 6 6 7 7 8 8 9 9 10 10 11 2 12 1 13
REMARK SMILES IDX 14 14
REMARK H PARENT 14 15
REMARK Flexibility Score: inf
ROOT
ATOM      1  C   UNL     1      53.118  59.460   0.708  1.00  0.00     0.161 A 
ATOM      2  C   UNL     1      52.960  58.668  -0.447  1.00  0.00     0.161 A 
ATOM      3  C   UNL     1      53.308  59.176  -1.704  1.00  0.00     0.098 A 
ATOM      4  C   UNL     1      53.816  60.472  -1.826  1.00  0.00     0.142 A 
ATOM      5  C   UNL     1      53.980  61.272  -0.676  1.00  0.00     0.022 A 
ATOM      6  C   UNL     1      53.632  60.767   0.583  1.00  0.00     0.062 A 
ATOM      7  C   UNL     1      54.491  62.564  -0.832  1.00  0.00     0.019 A 
ATOM      8  C   UNL     1      54.822  63.021  -2.108  1.00  0.00     0.094 A 
ATOM      9  C   UNL     1      54.633  62.170  -3.202  1.00  0.00     0.336 A 
ATOM     10  O   UNL     1      54.925  62.564  -4.362  1.00  0.00    -0.246 OA
ATOM     11  O   UNL     1      54.144  60.945  -3.026  1.00  0.00    -0.423 OA
ENDROOT
BRANCH   1  12
ATOM     12  O   UNL     1      52.759  58.919   1.953  1.00  0.00    -0.493 OA
ATOM     13  C   UNL     1      51.973  59.593   2.931  1.00  0.00     0.278 C 
ENDBRANCH   1  12
BRANCH   2  14
ATOM     14  O   UNL     1      52.456  57.371  -0.364  1.00  0.00    -0.504 OA
ATOM     15  H   UNL     1      52.401  56.866   0.512  1.00  0.00     0.293 HD
ENDBRANCH   2  14
TORSDOF 2
ENDMDL
MODEL 6
REMARK VINA RESULT:    -5.671      1.329      2.502
REMARK INTER + INTRA:          -6.232
REMARK INTER:                  -6.168
REMARK INTRA:                  -0.064
REMARK UNBOUND:                -0.064
REMARK SMILES COc1cc2ccc(=O)oc2cc1O
REMARK SMILES IDX 3 1 13 2 12 3 11 4 5 5 4 6 6 7 7 8 8 9 9 10 10 11 2 12 1 13
REMARK SMILES IDX 14 14
REMARK H PARENT 14 15
REMARK Flexibility Score: inf
ROOT
ATOM      1  C   UNL     1      46.594  64.470   2.699  1.00  0.00     0.161 A 
ATOM      2  C   UNL     1      47.525  65.492   2.974  1.00  0.00     0.161 A 
ATOM      3  C   UNL     1      47.098  66.699   3.539  1.00  0.00     0.098 A 
ATOM      4  C   UNL     1      45.749  66.903   3.836  1.00  0.00     0.142 A 
ATOM      5  C   UNL     1      44.810  65.886   3.565  1.00  0.00     0.022 A 
ATOM      6  C   UNL     1      45.232  64.676   2.999  1.00  0.00     0.062 A 
ATOM      7  C   UNL     1      43.466  66.121   3.874  1.00  0.00     0.019 A 
ATOM      8  C   UNL     1      43.096  67.343   4.436  1.00  0.00     0.094 A 
ATOM      9  C   UNL     1      44.083  68.304   4.677  1.00  0.00     0.336 A 
ATOM     10  O   UNL     1      43.768  69.413   5.184  1.00  0.00    -0.246 OA
ATOM     11  O   UNL     1      45.354  68.055   4.373  1.00  0.00    -0.423 OA
ENDROOT
BRANCH   1  12
ATOM     12  O   UNL     1      47.056  63.271   2.131  1.00  0.00    -0.493 OA
ATOM     13  C   UNL     1      47.371  62.095   2.871  1.00  0.00     0.278 C 
ENDBRANCH   1  12
BRANCH   2  14
ATOM     14  O   UNL     1      48.879  65.325   2.691  1.00  0.00    -0.504 OA
ATOM     15  H   UNL     1      49.401  65.988   2.130  1.00  0.00     0.293 HD
ENDBRANCH   2  14
TORSDOF 2
ENDMDL
MODEL 7
REMARK VINA RESULT:    -5.649      8.422      9.986
REMARK INTER + INTRA:          -6.208
REMARK INTER:                  -6.146
REMARK INTRA:                  -0.062
REMARK UNBOUND:                -0.064
REMARK SMILES COc1cc2ccc(=O)oc2cc1O
REMARK SMILES IDX 3 1 13 2 12 3 11 4 5 5 4 6 6 7 7 8 8 9 9 10 10 11 2 12 1 13
REMARK SMILES IDX 14 14
REMARK H PARENT 14 15
REMARK Flexibility Score: inf
ROOT
ATOM      1  C   UNL     1      53.460  58.842   8.182  1.00  0.00     0.161 A 
ATOM      2  C   UNL     1      53.341  60.043   7.454  1.00  0.00     0.161 A 
ATOM      3  C   UNL     1      52.078  60.515   7.075  1.00  0.00     0.098 A 
ATOM      4  C   UNL     1      50.926  59.803   7.416  1.00  0.00     0.142 A 
ATOM      5  C   UNL     1      51.035  58.601   8.145  1.00  0.00     0.022 A 
ATOM      6  C   UNL     1      52.296  58.124   8.525  1.00  0.00     0.062 A 
ATOM      7  C   UNL     1      49.862  57.911   8.470  1.00  0.00     0.019 A 
ATOM      8  C   UNL     1      48.630  58.426   8.068  1.00  0.00     0.094 A 
ATOM      9  C   UNL     1      48.600  59.625   7.347  1.00  0.00     0.336 A 
ATOM     10  O   UNL     1      47.498  60.106   6.976  1.00  0.00    -0.246 OA
ATOM     11  O   UNL     1      49.730  60.260   7.051  1.00  0.00    -0.423 OA
ENDROOT
BRANCH   1  12
ATOM     12  O   UNL     1      54.741  58.396   8.546  1.00  0.00    -0.493 OA
ATOM     13  C   UNL     1      55.516  57.465   7.797  1.00  0.00     0.278 C 
ENDBRANCH   1  12
BRANCH   2  14
ATOM     14  O   UNL     1      54.467  60.781   7.096  1.00  0.00    -0.504 OA
ATOM     15  H   UNL     1      54.487  61.377   6.277  1.00  0.00     0.293 HD
ENDBRANCH   2  14
TORSDOF 2
ENDMDL
MODEL 8
REMARK VINA RESULT:    -5.538      2.520      4.732
REMARK INTER + INTRA:          -6.087
REMARK INTER:                  -6.043
REMARK INTRA:                  -0.044
REMARK UNBOUND:                -0.064
REMARK SMILES COc1cc2ccc(=O)oc2cc1O
REMARK SMILES IDX 3 1 13 2 12 3 11 4 5 5 4 6 6 7 7 8 8 9 9 10 10 11 2 12 1 13
REMARK SMILES IDX 14 14
REMARK H PARENT 14 15
REMARK Flexibility Score: inf
ROOT
ATOM      1  C   UNL     1      47.366  65.023   3.515  1.00  0.00     0.161 A 
ATOM      2  C   UNL     1      47.971  63.863   4.038  1.00  0.00     0.161 A 
ATOM      3  C   UNL     1      47.214  62.702   4.239  1.00  0.00     0.098 A 
ATOM      4  C   UNL     1      45.853  62.682   3.922  1.00  0.00     0.142 A 
ATOM      5  C   UNL     1      45.239  63.838   3.398  1.00  0.00     0.022 A 
ATOM      6  C   UNL     1      45.992  65.002   3.196  1.00  0.00     0.062 A 
ATOM      7  C   UNL     1      43.875  63.786   3.091  1.00  0.00     0.019 A 
ATOM      8  C   UNL     1      43.168  62.604   3.311  1.00  0.00     0.094 A 
ATOM      9  C   UNL     1      43.845  61.497   3.834  1.00  0.00     0.336 A 
ATOM     10  O   UNL     1      43.225  60.421   4.039  1.00  0.00    -0.246 OA
ATOM     11  O   UNL     1      45.143  61.574   4.117  1.00  0.00    -0.423 OA
ENDROOT
BRANCH   1  12
ATOM     12  O   UNL     1      48.154  66.170   3.327  1.00  0.00    -0.493 OA
ATOM     13  C   UNL     1      47.641  67.494   3.218  1.00  0.00     0.278 C 
ENDBRANCH   1  12
BRANCH   2  14
ATOM     14  O   UNL     1      49.325  63.845   4.365  1.00  0.00    -0.504 OA
ATOM     15  H   UNL     1      49.955  64.596   4.109  1.00  0.00     0.293 HD
ENDBRANCH   2  14
TORSDOF 2
ENDMDL
MODEL 9
REMARK VINA RESULT:    -5.018      1.946      3.269
REMARK INTER + INTRA:          -5.522
REMARK INTER:                  -5.478
REMARK INTRA:                  -0.044
REMARK UNBOUND:                -0.064
REMARK SMILES COc1cc2ccc(=O)oc2cc1O
REMARK SMILES IDX 3 1 13 2 12 3 11 4 5 5 4 6 6 7 7 8 8 9 9 10 10 11 2 12 1 13
REMARK SMILES IDX 14 14
REMARK H PARENT 14 15
REMARK Flexibility Score: inf
ROOT
ATOM      1  C   UNL     1      45.195  64.030   3.216  1.00  0.00     0.161 A 
ATOM      2  C   UNL     1      46.536  63.831   2.832  1.00  0.00     0.161 A 
ATOM      3  C   UNL     1      47.461  64.877   2.936  1.00  0.00     0.098 A 
ATOM      4  C   UNL     1      47.065  66.125   3.423  1.00  0.00     0.142 A 
ATOM      5  C   UNL     1      45.725  66.333   3.811  1.00  0.00     0.022 A 
ATOM      6  C   UNL     1      44.796  65.290   3.707  1.00  0.00     0.062 A 
ATOM      7  C   UNL     1      45.359  67.594   4.294  1.00  0.00     0.019 A 
ATOM      8  C   UNL     1      46.321  68.601   4.378  1.00  0.00     0.094 A 
ATOM      9  C   UNL     1      47.631  68.321   3.975  1.00  0.00     0.336 A 
ATOM     10  O   UNL     1      48.514  69.216   4.043  1.00  0.00    -0.246 OA
ATOM     11  O   UNL     1      47.952  67.113   3.519  1.00  0.00    -0.423 OA
ENDROOT
BRANCH   1  12
ATOM     12  O   UNL     1      44.293  62.959   3.098  1.00  0.00    -0.493 OA
ATOM     13  C   UNL     1      42.875  63.091   3.118  1.00  0.00     0.278 C 
ENDBRANCH   1  12
BRANCH   2  14
ATOM     14  O   UNL     1      46.969  62.601   2.342  1.00  0.00    -0.504 OA
ATOM     15  H   UNL     1      47.450  62.509   1.455  1.00  0.00     0.293 HD
ENDBRANCH   2  14
TORSDOF 2
ENDMDL
