MODEL 1
REMARK VINA RESULT:    -4.685      0.000      0.000
REMARK INTER + INTRA:          -9.338
REMARK INTER:                  -8.520
REMARK INTRA:                  -0.818
REMARK UNBOUND:                -0.818
REMARK SMILES CCCCCCCCCCCCCCCC(=O)[O-]
REMARK SMILES IDX 9 1 10 2 11 3 12 4 13 5 14 6 15 7 16 8 17 9 18 10 8 11 7 12
REMARK SMILES IDX 6 13 5 14 4 15 3 16 2 17 1 18
REMARK H PARENT
REMARK Flexibility Score: inf
ROOT
ATOM      1  C   UNL     1      92.131  83.297  77.171  1.00  0.00     0.000 C 
ENDROOT
BRANCH   1   2
ATOM      2  C   UNL     1      91.362  83.002  78.473  1.00  0.00     0.000 C 
BRANCH   2   3
ATOM      3  C   UNL     1      90.246  84.010  78.818  1.00  0.00     0.000 C 
BRANCH   3   4
ATOM      4  C   UNL     1      88.910  83.377  79.247  1.00  0.00     0.000 C 
BRANCH   4   5
ATOM      5  C   UNL     1      88.094  82.843  78.059  1.00  0.00     0.000 C 
BRANCH   5   6
ATOM      6  C   UNL     1      86.829  82.120  78.542  1.00  0.00     0.006 C 
BRANCH   6   7
ATOM      7  C   UNL     1      86.142  81.334  77.417  1.00  0.00     0.053 C 
BRANCH   7   8
ATOM      8  C   UNL     1      85.308  80.212  77.953  1.00  0.00     0.041 C 
ATOM      9  O   UNL     1      84.724  80.330  79.062  1.00  0.00    -0.550 OA
ATOM     10  O   UNL     1      85.148  79.047  77.212  1.00  0.00    -0.550 OA
ENDBRANCH   7   8
ENDBRANCH   6   7
ENDBRANCH   5   6
ENDBRANCH   4   5
ENDBRANCH   3   4
ENDBRANCH   2   3
ENDBRANCH   1   2
BRANCH   1  11
ATOM     11  C   UNL     1      92.875  84.644  77.147  1.00  0.00     0.000 C 
BRANCH  11  12
ATOM     12  C   UNL     1      94.391  84.486  76.956  1.00  0.00    -0.000 C 
BRANCH  12  13
ATOM     13  C   UNL     1      95.161  85.178  78.090  1.00  0.00    -0.000 C 
BRANCH  13  14
ATOM     14  C   UNL     1      95.964  84.191  78.954  1.00  0.00    -0.000 C 
BRANCH  14  15
ATOM     15  C   UNL     1      95.410  82.757  78.879  1.00  0.00    -0.000 C 
BRANCH  15  16
ATOM     16  C   UNL     1      96.425  81.708  79.366  1.00  0.00    -0.000 C 
BRANCH  16  17
ATOM     17  C   UNL     1      97.872  82.070  79.001  1.00  0.00    -0.003 C 
ATOM     18  C   UNL     1      98.745  82.163  80.250  1.00  0.00     0.004 C 
ENDBRANCH  16  17
ENDBRANCH  15  16
ENDBRANCH  14  15
ENDBRANCH  13  14
ENDBRANCH  12  13
ENDBRANCH  11  12
ENDBRANCH   1  11
TORSDOF 14
ENDMDL
MODEL 2
REMARK VINA RESULT:    -4.556      5.942      9.628
REMARK INTER + INTRA:          -9.102
REMARK INTER:                  -7.360
REMARK INTRA:                  -1.743
REMARK UNBOUND:                -0.818
REMARK SMILES CCCCCCCCCCCCCCCC(=O)[O-]
REMARK SMILES IDX 9 1 10 2 11 3 12 4 13 5 14 6 15 7 16 8 17 9 18 10 8 11 7 12
REMARK SMILES IDX 6 13 5 14 4 15 3 16 2 17 1 18
REMARK H PARENT
REMARK Flexibility Score: inf
ROOT
ATOM      1  C   UNL     1      96.570  81.755  79.202  1.00  0.00     0.000 C 
ENDROOT
BRANCH   1   2
ATOM      2  C   UNL     1      98.094  81.887  79.014  1.00  0.00     0.000 C 
BRANCH   2   3
ATOM      3  C   UNL     1      98.902  82.077  80.314  1.00  0.00     0.000 C 
BRANCH   3   4
ATOM      4  C   UNL     1      99.204  83.540  80.683  1.00  0.00     0.000 C 
BRANCH   4   5
ATOM      5  C   UNL     1      98.261  84.089  81.766  1.00  0.00     0.000 C 
BRANCH   5   6
ATOM      6  C   UNL     1      99.052  84.806  82.870  1.00  0.00     0.006 C 
BRANCH   6   7
ATOM      7  C   UNL     1      99.932  83.842  83.675  1.00  0.00     0.053 C 
BRANCH   7   8
ATOM      8  C   UNL     1      99.144  82.687  84.211  1.00  0.00     0.041 C 
ATOM      9  O   UNL     1      99.380  81.517  83.809  1.00  0.00    -0.550 OA
ATOM     10  O   UNL     1      98.170  82.897  85.180  1.00  0.00    -0.550 OA
ENDBRANCH   7   8
ENDBRANCH   6   7
ENDBRANCH   5   6
ENDBRANCH   4   5
ENDBRANCH   3   4
ENDBRANCH   2   3
ENDBRANCH   1   2
BRANCH   1  11
ATOM     11  C   UNL     1      95.791  83.081  79.137  1.00  0.00     0.000 C 
BRANCH  11  12
ATOM     12  C   UNL     1      96.398  84.081  78.143  1.00  0.00    -0.000 C 
BRANCH  12  13
ATOM     13  C   UNL     1      96.086  85.527  78.561  1.00  0.00    -0.000 C 
BRANCH  13  14
ATOM     14  C   UNL     1      94.685  85.984  78.123  1.00  0.00    -0.000 C 
BRANCH  14  15
ATOM     15  C   UNL     1      94.327  85.511  76.703  1.00  0.00    -0.000 C 
BRANCH  15  16
ATOM     16  C   UNL     1      92.967  84.794  76.646  1.00  0.00    -0.000 C 
BRANCH  16  17
ATOM     17  C   UNL     1      92.456  84.382  78.034  1.00  0.00    -0.003 C 
ATOM     18  C   UNL     1      92.175  82.883  78.092  1.00  0.00     0.004 C 
ENDBRANCH  16  17
ENDBRANCH  15  16
ENDBRANCH  14  15
ENDBRANCH  13  14
ENDBRANCH  12  13
ENDBRANCH  11  12
ENDBRANCH   1  11
TORSDOF 14
ENDMDL
MODEL 3
REMARK VINA RESULT:    -4.529      4.747      8.460
REMARK INTER + INTRA:          -9.054
REMARK INTER:                  -7.020
REMARK INTRA:                  -2.034
REMARK UNBOUND:                -0.818
REMARK SMILES CCCCCCCCCCCCCCCC(=O)[O-]
REMARK SMILES IDX 9 1 10 2 11 3 12 4 13 5 14 6 15 7 16 8 17 9 18 10 8 11 7 12
REMARK SMILES IDX 6 13 5 14 4 15 3 16 2 17 1 18
REMARK H PARENT
REMARK Flexibility Score: inf
ROOT
ATOM      1  C   UNL     1      96.820  81.623  79.471  1.00  0.00     0.000 C 
ENDROOT
BRANCH   1   2
ATOM      2  C   UNL     1      98.303  81.952  79.215  1.00  0.00     0.000 C 
BRANCH   2   3
ATOM      3  C   UNL     1      99.140  82.241  80.478  1.00  0.00     0.000 C 
BRANCH   3   4
ATOM      4  C   UNL     1      98.357  82.870  81.645  1.00  0.00     0.000 C 
BRANCH   4   5
ATOM      5  C   UNL     1      98.105  84.373  81.453  1.00  0.00     0.000 C 
BRANCH   5   6
ATOM      6  C   UNL     1      96.784  84.797  82.113  1.00  0.00     0.006 C 
BRANCH   6   7
ATOM      7  C   UNL     1      95.881  83.597  82.429  1.00  0.00     0.053 C 
BRANCH   7   8
ATOM      8  C   UNL     1      95.508  83.550  83.878  1.00  0.00     0.041 C 
ATOM      9  O   UNL     1      94.296  83.502  84.219  1.00  0.00    -0.550 OA
ATOM     10  O   UNL     1      96.498  83.526  84.853  1.00  0.00    -0.550 OA
ENDBRANCH   7   8
ENDBRANCH   6   7
ENDBRANCH   5   6
ENDBRANCH   4   5
ENDBRANCH   3   4
ENDBRANCH   2   3
ENDBRANCH   1   2
BRANCH   1  11
ATOM     11  C   UNL     1      95.819  82.620  78.860  1.00  0.00     0.000 C 
BRANCH  11  12
ATOM     12  C   UNL     1      96.506  83.818  78.187  1.00  0.00    -0.000 C 
BRANCH  12  13
ATOM     13  C   UNL     1      95.536  85.003  78.057  1.00  0.00    -0.000 C 
BRANCH  13  14
ATOM     14  C   UNL     1      94.453  85.007  79.149  1.00  0.00    -0.000 C 
BRANCH  14  15
ATOM     15  C   UNL     1      93.029  84.989  78.566  1.00  0.00    -0.000 C 
BRANCH  15  16
ATOM     16  C   UNL     1      92.993  84.485  77.113  1.00  0.00    -0.000 C 
BRANCH  16  17
ATOM     17  C   UNL     1      91.983  83.346  76.906  1.00  0.00    -0.003 C 
ATOM     18  C   UNL     1      90.604  83.894  76.551  1.00  0.00     0.004 C 
ENDBRANCH  16  17
ENDBRANCH  15  16
ENDBRANCH  14  15
ENDBRANCH  13  14
ENDBRANCH  12  13
ENDBRANCH  11  12
ENDBRANCH   1  11
TORSDOF 14
ENDMDL
MODEL 4
REMARK VINA RESULT:    -4.502      3.436      5.228
REMARK INTER + INTRA:          -9.005
REMARK INTER:                  -6.782
REMARK INTRA:                  -2.223
REMARK UNBOUND:                -0.818
REMARK SMILES CCCCCCCCCCCCCCCC(=O)[O-]
REMARK SMILES IDX 9 1 10 2 11 3 12 4 13 5 14 6 15 7 16 8 17 9 18 10 8 11 7 12
REMARK SMILES IDX 6 13 5 14 4 15 3 16 2 17 1 18
REMARK H PARENT
REMARK Flexibility Score: inf
ROOT
ATOM      1  C   UNL     1      96.109  83.849  78.238  1.00  0.00     0.000 C 
ENDROOT
BRANCH   1   2
ATOM      2  C   UNL     1      95.118  84.686  77.405  1.00  0.00     0.000 C 
BRANCH   2   3
ATOM      3  C   UNL     1      94.755  86.061  78.004  1.00  0.00     0.000 C 
BRANCH   3   4
ATOM      4  C   UNL     1      94.398  86.044  79.501  1.00  0.00     0.000 C 
BRANCH   4   5
ATOM      5  C   UNL     1      92.894  85.857  79.753  1.00  0.00     0.000 C 
BRANCH   5   6
ATOM      6  C   UNL     1      92.591  84.428  80.228  1.00  0.00     0.006 C 
BRANCH   6   7
ATOM      7  C   UNL     1      91.180  83.972  79.834  1.00  0.00     0.053 C 
BRANCH   7   8
ATOM      8  C   UNL     1      91.133  83.467  78.425  1.00  0.00     0.041 C 
ATOM      9  O   UNL     1      90.148  83.736  77.688  1.00  0.00    -0.550 OA
ATOM     10  O   UNL     1      92.191  82.726  77.914  1.00  0.00    -0.550 OA
ENDBRANCH   7   8
ENDBRANCH   6   7
ENDBRANCH   5   6
ENDBRANCH   4   5
ENDBRANCH   3   4
ENDBRANCH   2   3
ENDBRANCH   1   2
BRANCH   1  11
ATOM     11  C   UNL     1      95.505  82.596  78.898  1.00  0.00     0.000 C 
BRANCH  11  12
ATOM     12  C   UNL     1      96.565  81.550  79.274  1.00  0.00    -0.000 C 
BRANCH  12  13
ATOM     13  C   UNL     1      97.977  82.062  78.954  1.00  0.00    -0.000 C 
BRANCH  13  14
ATOM     14  C   UNL     1      98.879  82.136  80.197  1.00  0.00    -0.000 C 
BRANCH  14  15
ATOM     15  C   UNL     1      98.897  83.538  80.830  1.00  0.00    -0.000 C 
BRANCH  15  16
ATOM     16  C   UNL     1      98.049  83.618  82.111  1.00  0.00    -0.000 C 
BRANCH  16  17
ATOM     17  C   UNL     1      96.746  84.408  81.910  1.00  0.00    -0.003 C 
ATOM     18  C   UNL     1      95.544  83.618  82.418  1.00  0.00     0.004 C 
ENDBRANCH  16  17
ENDBRANCH  15  16
ENDBRANCH  14  15
ENDBRANCH  13  14
ENDBRANCH  12  13
ENDBRANCH  11  12
ENDBRANCH   1  11
TORSDOF 14
ENDMDL
MODEL 5
REMARK VINA RESULT:    -4.480      3.910      4.771
REMARK INTER + INTRA:          -8.964
REMARK INTER:                  -7.108
REMARK INTRA:                  -1.856
REMARK UNBOUND:                -0.818
REMARK SMILES CCCCCCCCCCCCCCCC(=O)[O-]
REMARK SMILES IDX 9 1 10 2 11 3 12 4 13 5 14 6 15 7 16 8 17 9 18 10 8 11 7 12
REMARK SMILES IDX 6 13 5 14 4 15 3 16 2 17 1 18
REMARK H PARENT
REMARK Flexibility Score: inf
ROOT
ATOM      1  C   UNL     1      95.101  84.595  77.373  1.00  0.00     0.000 C 
ENDROOT
BRANCH   1   2
ATOM      2  C   UNL     1      93.921  85.361  76.743  1.00  0.00     0.000 C 
BRANCH   2   3
ATOM      3  C   UNL     1      92.604  84.566  76.636  1.00  0.00     0.000 C 
BRANCH   3   4
ATOM      4  C   UNL     1      92.715  83.073  76.993  1.00  0.00     0.000 C 
BRANCH   4   5
ATOM      5  C   UNL     1      91.970  82.712  78.287  1.00  0.00     0.000 C 
BRANCH   5   6
ATOM      6  C   UNL     1      90.702  83.564  78.446  1.00  0.00     0.006 C 
BRANCH   6   7
ATOM      7  C   UNL     1      90.435  83.942  79.909  1.00  0.00     0.053 C 
BRANCH   7   8
ATOM      8  C   UNL     1      91.612  84.631  80.528  1.00  0.00     0.041 C 
ATOM      9  O   UNL     1      92.126  85.635  79.967  1.00  0.00    -0.550 OA
ATOM     10  O   UNL     1      92.123  84.186  81.741  1.00  0.00    -0.550 OA
ENDBRANCH   7   8
ENDBRANCH   6   7
ENDBRANCH   5   6
ENDBRANCH   4   5
ENDBRANCH   3   4
ENDBRANCH   2   3
ENDBRANCH   1   2
BRANCH   1  11
ATOM     11  C   UNL     1      96.057  85.457  78.216  1.00  0.00     0.000 C 
BRANCH  11  12
ATOM     12  C   UNL     1      96.009  85.112  79.712  1.00  0.00    -0.000 C 
BRANCH  12  13
ATOM     13  C   UNL     1      95.205  83.825  79.952  1.00  0.00    -0.000 C 
BRANCH  13  14
ATOM     14  C   UNL     1      96.085  82.650  80.409  1.00  0.00    -0.000 C 
BRANCH  14  15
ATOM     15  C   UNL     1      96.736  81.907  79.228  1.00  0.00    -0.000 C 
BRANCH  15  16
ATOM     16  C   UNL     1      98.272  81.933  79.291  1.00  0.00    -0.000 C 
BRANCH  16  17
ATOM     17  C   UNL     1      98.802  82.469  80.629  1.00  0.00    -0.003 C 
ATOM     18  C   UNL     1     100.307  82.714  80.563  1.00  0.00     0.004 C 
ENDBRANCH  16  17
ENDBRANCH  15  16
ENDBRANCH  14  15
ENDBRANCH  13  14
ENDBRANCH  12  13
ENDBRANCH  11  12
ENDBRANCH   1  11
TORSDOF 14
ENDMDL
MODEL 6
REMARK VINA RESULT:    -4.477      2.651      4.905
REMARK INTER + INTRA:          -8.959
REMARK INTER:                  -7.301
REMARK INTRA:                  -1.658
REMARK UNBOUND:                -0.818
REMARK SMILES CCCCCCCCCCCCCCCC(=O)[O-]
REMARK SMILES IDX 9 1 10 2 11 3 12 4 13 5 14 6 15 7 16 8 17 9 18 10 8 11 7 12
REMARK SMILES IDX 6 13 5 14 4 15 3 16 2 17 1 18
REMARK H PARENT
REMARK Flexibility Score: inf
ROOT
ATOM      1  C   UNL     1      95.590  83.473  79.634  1.00  0.00     0.000 C 
ENDROOT
BRANCH   1   2
ATOM      2  C   UNL     1      95.842  84.666  78.692  1.00  0.00     0.000 C 
BRANCH   2   3
ATOM      3  C   UNL     1      95.040  84.642  77.374  1.00  0.00     0.000 C 
BRANCH   3   4
ATOM      4  C   UNL     1      93.511  84.604  77.545  1.00  0.00     0.000 C 
BRANCH   4   5
ATOM      5  C   UNL     1      92.890  83.281  77.072  1.00  0.00     0.000 C 
BRANCH   5   6
ATOM      6  C   UNL     1      91.926  82.718  78.126  1.00  0.00     0.006 C 
BRANCH   6   7
ATOM      7  C   UNL     1      91.013  83.801  78.715  1.00  0.00     0.053 C 
BRANCH   7   8
ATOM      8  C   UNL     1      89.568  83.517  78.442  1.00  0.00     0.041 C 
ATOM      9  O   UNL     1      88.764  83.347  79.396  1.00  0.00    -0.550 OA
ATOM     10  O   UNL     1      89.101  83.473  77.133  1.00  0.00    -0.550 OA
ENDBRANCH   7   8
ENDBRANCH   6   7
ENDBRANCH   5   6
ENDBRANCH   4   5
ENDBRANCH   3   4
ENDBRANCH   2   3
ENDBRANCH   1   2
BRANCH   1  11
ATOM     11  C   UNL     1      96.151  82.127  79.141  1.00  0.00     0.000 C 
BRANCH  11  12
ATOM     12  C   UNL     1      97.679  82.138  78.985  1.00  0.00    -0.000 C 
BRANCH  12  13
ATOM     13  C   UNL     1      98.370  82.019  80.352  1.00  0.00    -0.000 C 
BRANCH  13  14
ATOM     14  C   UNL     1      99.861  82.388  80.300  1.00  0.00    -0.000 C 
BRANCH  14  15
ATOM     15  C   UNL     1     100.194  83.624  81.154  1.00  0.00    -0.000 C 
BRANCH  15  16
ATOM     16  C   UNL     1      98.937  84.290  81.741  1.00  0.00    -0.000 C 
BRANCH  16  17
ATOM     17  C   UNL     1      98.793  85.759  81.316  1.00  0.00    -0.003 C 
ATOM     18  C   UNL     1      99.053  85.926  79.822  1.00  0.00     0.004 C 
ENDBRANCH  16  17
ENDBRANCH  15  16
ENDBRANCH  14  15
ENDBRANCH  13  14
ENDBRANCH  12  13
ENDBRANCH  11  12
ENDBRANCH   1  11
TORSDOF 14
ENDMDL
MODEL 7
REMARK VINA RESULT:    -4.467      4.884      7.561
REMARK INTER + INTRA:          -8.942
REMARK INTER:                  -6.945
REMARK INTRA:                  -1.996
REMARK UNBOUND:                -0.818
REMARK SMILES CCCCCCCCCCCCCCCC(=O)[O-]
REMARK SMILES IDX 9 1 10 2 11 3 12 4 13 5 14 6 15 7 16 8 17 9 18 10 8 11 7 12
REMARK SMILES IDX 6 13 5 14 4 15 3 16 2 17 1 18
REMARK H PARENT
REMARK Flexibility Score: inf
ROOT
ATOM      1  C   UNL     1     100.045  82.376  80.338  1.00  0.00     0.000 C 
ENDROOT
BRANCH   1   2
ATOM      2  C   UNL     1      98.540  82.043  80.346  1.00  0.00     0.000 C 
BRANCH   2   3
ATOM      3  C   UNL     1      97.879  81.960  78.954  1.00  0.00     0.000 C 
BRANCH   3   4
ATOM      4  C   UNL     1      96.610  82.816  78.787  1.00  0.00     0.000 C 
BRANCH   4   5
ATOM      5  C   UNL     1      96.916  84.263  78.371  1.00  0.00     0.000 C 
BRANCH   5   6
ATOM      6  C   UNL     1      95.634  84.998  77.956  1.00  0.00     0.006 C 
BRANCH   6   7
ATOM      7  C   UNL     1      94.378  84.144  78.173  1.00  0.00     0.053 C 
BRANCH   7   8
ATOM      8  C   UNL     1      93.458  84.199  76.993  1.00  0.00     0.041 C 
ATOM      9  O   UNL     1      93.588  85.106  76.129  1.00  0.00    -0.550 OA
ATOM     10  O   UNL     1      92.476  83.229  76.828  1.00  0.00    -0.550 OA
ENDBRANCH   7   8
ENDBRANCH   6   7
ENDBRANCH   5   6
ENDBRANCH   4   5
ENDBRANCH   3   4
ENDBRANCH   2   3
ENDBRANCH   1   2
BRANCH   1  11
ATOM     11  C   UNL     1     100.434  83.634  81.135  1.00  0.00     0.000 C 
BRANCH  11  12
ATOM     12  C   UNL     1      99.610  84.869  80.742  1.00  0.00    -0.000 C 
BRANCH  12  13
ATOM     13  C   UNL     1      98.860  85.436  81.957  1.00  0.00    -0.000 C 
BRANCH  13  14
ATOM     14  C   UNL     1      97.442  84.862  82.103  1.00  0.00    -0.000 C 
BRANCH  14  15
ATOM     15  C   UNL     1      97.314  83.901  83.298  1.00  0.00    -0.000 C 
BRANCH  15  16
ATOM     16  C   UNL     1      98.268  84.262  84.450  1.00  0.00    -0.000 C 
BRANCH  16  17
ATOM     17  C   UNL     1      98.965  83.032  85.050  1.00  0.00    -0.003 C 
ATOM     18  C   UNL     1      99.173  81.951  83.993  1.00  0.00     0.004 C 
ENDBRANCH  16  17
ENDBRANCH  15  16
ENDBRANCH  14  15
ENDBRANCH  13  14
ENDBRANCH  12  13
ENDBRANCH  11  12
ENDBRANCH   1  11
TORSDOF 14
ENDMDL
MODEL 8
REMARK VINA RESULT:    -4.466      7.149     10.015
REMARK INTER + INTRA:          -8.938
REMARK INTER:                  -6.651
REMARK INTRA:                  -2.287
REMARK UNBOUND:                -0.818
REMARK SMILES CCCCCCCCCCCCCCCC(=O)[O-]
REMARK SMILES IDX 9 1 10 2 11 3 12 4 13 5 14 6 15 7 16 8 17 9 18 10 8 11 7 12
REMARK SMILES IDX 6 13 5 14 4 15 3 16 2 17 1 18
REMARK H PARENT
REMARK Flexibility Score: inf
ROOT
ATOM      1  C   UNL     1     101.097  85.496  81.139  1.00  0.00     0.000 C 
ENDROOT
BRANCH   1   2
ATOM      2  C   UNL     1     100.262  86.192  80.047  1.00  0.00     0.000 C 
BRANCH   2   3
ATOM      3  C   UNL     1      98.770  85.800  80.011  1.00  0.00     0.000 C 
BRANCH   3   4
ATOM      4  C   UNL     1      98.014  86.003  81.336  1.00  0.00     0.000 C 
BRANCH   4   5
ATOM      5  C   UNL     1      97.395  84.703  81.875  1.00  0.00     0.000 C 
BRANCH   5   6
ATOM      6  C   UNL     1      97.397  84.689  83.410  1.00  0.00     0.006 C 
BRANCH   6   7
ATOM      7  C   UNL     1      98.811  84.543  83.988  1.00  0.00     0.053 C 
BRANCH   7   8
ATOM      8  C   UNL     1      98.968  83.266  84.756  1.00  0.00     0.041 C 
ATOM      9  O   UNL     1      99.206  83.295  85.992  1.00  0.00    -0.550 OA
ATOM     10  O   UNL     1      98.819  82.043  84.113  1.00  0.00    -0.550 OA
ENDBRANCH   7   8
ENDBRANCH   6   7
ENDBRANCH   5   6
ENDBRANCH   4   5
ENDBRANCH   3   4
ENDBRANCH   2   3
ENDBRANCH   1   2
BRANCH   1  11
ATOM     11  C   UNL     1     101.606  84.091  80.769  1.00  0.00     0.000 C 
BRANCH  11  12
ATOM     12  C   UNL     1     100.687  82.970  81.276  1.00  0.00    -0.000 C 
BRANCH  12  13
ATOM     13  C   UNL     1     100.041  82.220  80.101  1.00  0.00    -0.000 C 
BRANCH  13  14
ATOM     14  C   UNL     1      98.543  81.948  80.320  1.00  0.00    -0.000 C 
BRANCH  14  15
ATOM     15  C   UNL     1      97.724  82.080  79.025  1.00  0.00    -0.000 C 
BRANCH  15  16
ATOM     16  C   UNL     1      96.216  81.887  79.259  1.00  0.00    -0.000 C 
BRANCH  16  17
ATOM     17  C   UNL     1      95.391  83.117  78.853  1.00  0.00    -0.003 C 
ATOM     18  C   UNL     1      96.235  84.101  78.048  1.00  0.00     0.004 C 
ENDBRANCH  16  17
ENDBRANCH  15  16
ENDBRANCH  14  15
ENDBRANCH  13  14
ENDBRANCH  12  13
ENDBRANCH  11  12
ENDBRANCH   1  11
TORSDOF 14
ENDMDL
MODEL 9
REMARK VINA RESULT:    -4.447      5.242      9.425
REMARK INTER + INTRA:          -8.905
REMARK INTER:                  -7.804
REMARK INTRA:                  -1.101
REMARK UNBOUND:                -0.818
REMARK SMILES CCCCCCCCCCCCCCCC(=O)[O-]
REMARK SMILES IDX 9 1 10 2 11 3 12 4 13 5 14 6 15 7 16 8 17 9 18 10 8 11 7 12
REMARK SMILES IDX 6 13 5 14 4 15 3 16 2 17 1 18
REMARK H PARENT
REMARK Flexibility Score: inf
ROOT
ATOM      1  C   UNL     1      95.285  84.276  77.907  1.00  0.00     0.000 C 
ENDROOT
BRANCH   1   2
ATOM      2  C   UNL     1      96.554  83.530  78.363  1.00  0.00     0.000 C 
BRANCH   2   3
ATOM      3  C   UNL     1      96.318  82.108  78.912  1.00  0.00     0.000 C 
BRANCH   3   4
ATOM      4  C   UNL     1      97.320  81.654  79.989  1.00  0.00     0.000 C 
BRANCH   4   5
ATOM      5  C   UNL     1      98.720  82.256  79.794  1.00  0.00     0.000 C 
BRANCH   5   6
ATOM      6  C   UNL     1      99.469  82.348  81.131  1.00  0.00     0.006 C 
BRANCH   6   7
ATOM      7  C   UNL     1      98.690  83.153  82.180  1.00  0.00     0.053 C 
BRANCH   7   8
ATOM      8  C   UNL     1      98.733  82.500  83.527  1.00  0.00     0.041 C 
ATOM      9  O   UNL     1      97.794  82.675  84.346  1.00  0.00    -0.550 OA
ATOM     10  O   UNL     1      99.796  81.671  83.866  1.00  0.00    -0.550 OA
ENDBRANCH   7   8
ENDBRANCH   6   7
ENDBRANCH   5   6
ENDBRANCH   4   5
ENDBRANCH   3   4
ENDBRANCH   2   3
ENDBRANCH   1   2
BRANCH   1  11
ATOM     11  C   UNL     1      94.057  84.082  78.814  1.00  0.00     0.000 C 
BRANCH  11  12
ATOM     12  C   UNL     1      93.002  83.151  78.199  1.00  0.00    -0.000 C 
BRANCH  12  13
ATOM     13  C   UNL     1      92.658  83.585  76.765  1.00  0.00    -0.000 C 
BRANCH  13  14
ATOM     14  C   UNL     1      91.449  84.532  76.704  1.00  0.00    -0.000 C 
BRANCH  14  15
ATOM     15  C   UNL     1      90.108  83.786  76.814  1.00  0.00    -0.000 C 
BRANCH  15  16
ATOM     16  C   UNL     1      89.341  84.138  78.100  1.00  0.00    -0.000 C 
BRANCH  16  17
ATOM     17  C   UNL     1      89.395  83.016  79.147  1.00  0.00    -0.003 C 
ATOM     18  C   UNL     1      89.755  83.569  80.524  1.00  0.00     0.004 C 
ENDBRANCH  16  17
ENDBRANCH  15  16
ENDBRANCH  14  15
ENDBRANCH  13  14
ENDBRANCH  12  13
ENDBRANCH  11  12
ENDBRANCH   1  11
TORSDOF 14
ENDMDL
