MODEL 1
REMARK VINA RESULT:    -5.026      0.000      0.000
REMARK INTER + INTRA:         -12.170
REMARK INTER:                  -9.434
REMARK INTRA:                  -2.736
REMARK UNBOUND:                -2.736
REMARK SMILES CCCCCCCCC=CCCCCCCCC(=O)[O-]
REMARK SMILES IDX 10 1 9 2 11 3 12 4 13 5 14 6 15 7 16 8 17 9 18 10 19 11
REMARK SMILES IDX 20 12 8 13 7 14 6 15 5 16 4 17 3 18 2 19 1 20
REMARK H PARENT
REMARK Flexibility Score: inf
ROOT
ATOM      1  C   UNL     1      20.619  22.645   9.820  1.00  0.00    -0.031 C 
ATOM      2  C   UNL     1      20.421  21.710   8.880  1.00  0.00    -0.031 C 
ENDROOT
BRANCH   1   3
ATOM      3  C   UNL     1      19.559  22.978  10.836  1.00  0.00     0.027 C 
BRANCH   3   4
ATOM      4  C   UNL     1      18.689  21.764  11.194  1.00  0.00     0.004 C 
BRANCH   4   5
ATOM      5  C   UNL     1      17.189  22.084  11.119  1.00  0.00     0.000 C 
BRANCH   5   6
ATOM      6  C   UNL     1      16.942  23.367  10.313  1.00  0.00     0.000 C 
BRANCH   6   7
ATOM      7  C   UNL     1      16.876  23.119   8.796  1.00  0.00     0.000 C 
BRANCH   7   8
ATOM      8  C   UNL     1      17.011  24.379   7.917  1.00  0.00     0.006 C 
BRANCH   8   9
ATOM      9  C   UNL     1      18.357  25.111   8.073  1.00  0.00     0.053 C 
BRANCH   9  10
ATOM     10  C   UNL     1      18.197  26.487   8.644  1.00  0.00     0.041 C 
ATOM     11  O   UNL     1      17.093  26.850   9.126  1.00  0.00    -0.550 OA
ATOM     12  O   UNL     1      19.257  27.385   8.608  1.00  0.00    -0.550 OA
ENDBRANCH   9  10
ENDBRANCH   8   9
ENDBRANCH   7   8
ENDBRANCH   6   7
ENDBRANCH   5   6
ENDBRANCH   4   5
ENDBRANCH   3   4
ENDBRANCH   1   3
BRANCH   2  13
ATOM     13  C   UNL     1      21.480  21.376   7.863  1.00  0.00     0.027 C 
BRANCH  13  14
ATOM     14  C   UNL     1      21.349  22.213   6.579  1.00  0.00     0.004 C 
BRANCH  14  15
ATOM     15  C   UNL     1      21.298  21.378   5.285  1.00  0.00     0.000 C 
BRANCH  15  16
ATOM     16  C   UNL     1      19.932  21.370   4.574  1.00  0.00     0.000 C 
BRANCH  16  17
ATOM     17  C   UNL     1      18.852  22.203   5.297  1.00  0.00    -0.000 C 
BRANCH  17  18
ATOM     18  C   UNL     1      17.702  21.330   5.830  1.00  0.00    -0.000 C 
BRANCH  18  19
ATOM     19  C   UNL     1      18.167  19.922   6.231  1.00  0.00    -0.003 C 
ATOM     20  C   UNL     1      17.871  19.595   7.694  1.00  0.00     0.004 C 
ENDBRANCH  18  19
ENDBRANCH  17  18
ENDBRANCH  16  17
ENDBRANCH  15  16
ENDBRANCH  14  15
ENDBRANCH  13  14
ENDBRANCH   2  13
TORSDOF 15
ENDMDL
MODEL 2
REMARK VINA RESULT:    -4.953      4.352      7.579
REMARK INTER + INTRA:         -12.033
REMARK INTER:                 -10.476
REMARK INTRA:                  -1.557
REMARK UNBOUND:                -2.736
REMARK SMILES CCCCCCCCC=CCCCCCCCC(=O)[O-]
REMARK SMILES IDX 10 1 9 2 11 3 12 4 13 5 14 6 15 7 16 8 17 9 18 10 19 11
REMARK SMILES IDX 20 12 8 13 7 14 6 15 5 16 4 17 3 18 2 19 1 20
REMARK H PARENT
REMARK Flexibility Score: inf
ROOT
ATOM      1  C   UNL     1      20.885  22.961   7.861  1.00  0.00    -0.031 C 
ATOM      2  C   UNL     1      20.596  22.230   8.947  1.00  0.00    -0.031 C 
ENDROOT
BRANCH   1   3
ATOM      3  C   UNL     1      21.254  22.318   6.551  1.00  0.00     0.027 C 
BRANCH   3   4
ATOM      4  C   UNL     1      20.023  21.979   5.698  1.00  0.00     0.004 C 
BRANCH   4   5
ATOM      5  C   UNL     1      20.373  21.076   4.507  1.00  0.00     0.000 C 
BRANCH   5   6
ATOM      6  C   UNL     1      21.846  21.245   4.106  1.00  0.00     0.000 C 
BRANCH   6   7
ATOM      7  C   UNL     1      22.592  19.905   3.984  1.00  0.00     0.000 C 
BRANCH   7   8
ATOM      8  C   UNL     1      22.681  19.081   5.285  1.00  0.00     0.006 C 
BRANCH   8   9
ATOM      9  C   UNL     1      24.121  18.790   5.746  1.00  0.00     0.053 C 
BRANCH   9  10
ATOM     10  C   UNL     1      24.649  17.499   5.199  1.00  0.00     0.041 C 
ATOM     11  O   UNL     1      25.889  17.322   5.071  1.00  0.00    -0.550 OA
ATOM     12  O   UNL     1      23.770  16.503   4.790  1.00  0.00    -0.550 OA
ENDBRANCH   9  10
ENDBRANCH   8   9
ENDBRANCH   7   8
ENDBRANCH   6   7
ENDBRANCH   5   6
ENDBRANCH   4   5
ENDBRANCH   3   4
ENDBRANCH   1   3
BRANCH   2  13
ATOM     13  C   UNL     1      20.228  22.873  10.257  1.00  0.00     0.027 C 
BRANCH  13  14
ATOM     14  C   UNL     1      18.811  22.495  10.722  1.00  0.00     0.004 C 
BRANCH  14  15
ATOM     15  C   UNL     1      17.738  23.549  10.390  1.00  0.00     0.000 C 
BRANCH  15  16
ATOM     16  C   UNL     1      17.356  23.638   8.900  1.00  0.00     0.000 C 
BRANCH  16  17
ATOM     17  C   UNL     1      17.352  25.080   8.346  1.00  0.00    -0.000 C 
BRANCH  17  18
ATOM     18  C   UNL     1      18.717  25.770   8.510  1.00  0.00    -0.000 C 
BRANCH  18  19
ATOM     19  C   UNL     1      18.596  27.189   9.087  1.00  0.00    -0.003 C 
ATOM     20  C   UNL     1      17.172  27.739   9.014  1.00  0.00     0.004 C 
ENDBRANCH  18  19
ENDBRANCH  17  18
ENDBRANCH  16  17
ENDBRANCH  15  16
ENDBRANCH  14  15
ENDBRANCH  13  14
ENDBRANCH   2  13
TORSDOF 15
ENDMDL
MODEL 3
REMARK VINA RESULT:    -4.883      3.483      6.357
REMARK INTER + INTRA:         -11.902
REMARK INTER:                  -9.807
REMARK INTRA:                  -2.095
REMARK UNBOUND:                -2.736
REMARK SMILES CCCCCCCCC=CCCCCCCCC(=O)[O-]
REMARK SMILES IDX 10 1 9 2 11 3 12 4 13 5 14 6 15 7 16 8 17 9 18 10 19 11
REMARK SMILES IDX 20 12 8 13 7 14 6 15 5 16 4 17 3 18 2 19 1 20
REMARK H PARENT
REMARK Flexibility Score: inf
ROOT
ATOM      1  C   UNL     1      20.156  22.750  10.230  1.00  0.00    -0.031 C 
ATOM      2  C   UNL     1      19.320  21.758   9.889  1.00  0.00    -0.031 C 
ENDROOT
BRANCH   1   3
ATOM      3  C   UNL     1      21.454  22.973   9.503  1.00  0.00     0.027 C 
BRANCH   3   4
ATOM      4  C   UNL     1      21.244  23.278   8.012  1.00  0.00     0.004 C 
BRANCH   4   5
ATOM      5  C   UNL     1      21.687  22.113   7.114  1.00  0.00     0.000 C 
BRANCH   5   6
ATOM      6  C   UNL     1      20.490  21.524   6.353  1.00  0.00     0.000 C 
BRANCH   6   7
ATOM      7  C   UNL     1      20.646  21.618   4.825  1.00  0.00     0.000 C 
BRANCH   7   8
ATOM      8  C   UNL     1      21.868  20.880   4.242  1.00  0.00     0.006 C 
BRANCH   8   9
ATOM      9  C   UNL     1      22.044  19.444   4.770  1.00  0.00     0.053 C 
BRANCH   9  10
ATOM     10  C   UNL     1      23.416  19.201   5.323  1.00  0.00     0.041 C 
ATOM     11  O   UNL     1      24.396  19.052   4.547  1.00  0.00    -0.550 OA
ATOM     12  O   UNL     1      23.606  19.097   6.696  1.00  0.00    -0.550 OA
ENDBRANCH   9  10
ENDBRANCH   8   9
ENDBRANCH   7   8
ENDBRANCH   6   7
ENDBRANCH   5   6
ENDBRANCH   4   5
ENDBRANCH   3   4
ENDBRANCH   1   3
BRANCH   2  13
ATOM     13  C   UNL     1      18.022  21.534  10.617  1.00  0.00     0.027 C 
BRANCH  13  14
ATOM     14  C   UNL     1      17.755  22.602  11.692  1.00  0.00     0.004 C 
BRANCH  14  15
ATOM     15  C   UNL     1      16.875  23.771  11.213  1.00  0.00     0.000 C 
BRANCH  15  16
ATOM     16  C   UNL     1      17.651  24.971  10.637  1.00  0.00     0.000 C 
BRANCH  16  17
ATOM     17  C   UNL     1      17.071  25.504   9.308  1.00  0.00    -0.000 C 
BRANCH  17  18
ATOM     18  C   UNL     1      17.881  25.029   8.089  1.00  0.00    -0.000 C 
BRANCH  18  19
ATOM     19  C   UNL     1      17.446  23.640   7.595  1.00  0.00    -0.003 C 
ATOM     20  C   UNL     1      17.504  23.507   6.074  1.00  0.00     0.004 C 
ENDBRANCH  18  19
ENDBRANCH  17  18
ENDBRANCH  16  17
ENDBRANCH  15  16
ENDBRANCH  14  15
ENDBRANCH  13  14
ENDBRANCH   2  13
TORSDOF 15
ENDMDL
MODEL 4
REMARK VINA RESULT:    -4.867      1.110      3.706
REMARK INTER + INTRA:         -11.871
REMARK INTER:                  -9.205
REMARK INTRA:                  -2.666
REMARK UNBOUND:                -2.736
REMARK SMILES CCCCCCCCC=CCCCCCCCC(=O)[O-]
REMARK SMILES IDX 10 1 9 2 11 3 12 4 13 5 14 6 15 7 16 8 17 9 18 10 19 11
REMARK SMILES IDX 20 12 8 13 7 14 6 15 5 16 4 17 3 18 2 19 1 20
REMARK H PARENT
REMARK Flexibility Score: inf
ROOT
ATOM      1  C   UNL     1      21.425  22.825   7.855  1.00  0.00    -0.031 C 
ATOM      2  C   UNL     1      20.598  22.518   8.864  1.00  0.00    -0.031 C 
ENDROOT
BRANCH   1   3
ATOM      3  C   UNL     1      21.310  22.160   6.510  1.00  0.00     0.027 C 
BRANCH   3   4
ATOM      4  C   UNL     1      19.923  21.542   6.279  1.00  0.00     0.004 C 
BRANCH   4   5
ATOM      5  C   UNL     1      18.915  22.567   5.739  1.00  0.00     0.000 C 
BRANCH   5   6
ATOM      6  C   UNL     1      17.560  22.431   6.450  1.00  0.00     0.000 C 
BRANCH   6   7
ATOM      7  C   UNL     1      16.894  23.787   6.735  1.00  0.00     0.000 C 
BRANCH   7   8
ATOM      8  C   UNL     1      17.202  24.393   8.120  1.00  0.00     0.006 C 
BRANCH   8   9
ATOM      9  C   UNL     1      18.275  25.497   8.097  1.00  0.00     0.053 C 
BRANCH   9  10
ATOM     10  C   UNL     1      18.160  26.432   9.262  1.00  0.00     0.041 C 
ATOM     11  O   UNL     1      17.186  27.226   9.345  1.00  0.00    -0.550 OA
ATOM     12  O   UNL     1      19.149  26.457  10.238  1.00  0.00    -0.550 OA
ENDBRANCH   9  10
ENDBRANCH   8   9
ENDBRANCH   7   8
ENDBRANCH   6   7
ENDBRANCH   5   6
ENDBRANCH   4   5
ENDBRANCH   3   4
ENDBRANCH   1   3
BRANCH   2  13
ATOM     13  C   UNL     1      20.713  23.182  10.210  1.00  0.00     0.027 C 
BRANCH  13  14
ATOM     14  C   UNL     1      19.412  23.090  11.027  1.00  0.00     0.004 C 
BRANCH  14  15
ATOM     15  C   UNL     1      18.786  21.683  11.058  1.00  0.00     0.000 C 
BRANCH  15  16
ATOM     16  C   UNL     1      17.295  21.629  10.674  1.00  0.00     0.000 C 
BRANCH  16  17
ATOM     17  C   UNL     1      16.887  20.326   9.955  1.00  0.00    -0.000 C 
BRANCH  17  18
ATOM     18  C   UNL     1      17.812  20.000   8.769  1.00  0.00    -0.000 C 
BRANCH  18  19
ATOM     19  C   UNL     1      17.193  18.984   7.798  1.00  0.00    -0.003 C 
ATOM     20  C   UNL     1      18.237  18.273   6.939  1.00  0.00     0.004 C 
ENDBRANCH  18  19
ENDBRANCH  17  18
ENDBRANCH  16  17
ENDBRANCH  15  16
ENDBRANCH  14  15
ENDBRANCH  13  14
ENDBRANCH   2  13
TORSDOF 15
ENDMDL
MODEL 5
REMARK VINA RESULT:    -4.857      3.222      5.841
REMARK INTER + INTRA:         -11.853
REMARK INTER:                  -9.379
REMARK INTRA:                  -2.474
REMARK UNBOUND:                -2.736
REMARK SMILES CCCCCCCCC=CCCCCCCCC(=O)[O-]
REMARK SMILES IDX 10 1 9 2 11 3 12 4 13 5 14 6 15 7 16 8 17 9 18 10 19 11
REMARK SMILES IDX 20 12 8 13 7 14 6 15 5 16 4 17 3 18 2 19 1 20
REMARK H PARENT
REMARK Flexibility Score: inf
ROOT
ATOM      1  C   UNL     1      20.965  22.647   7.137  1.00  0.00    -0.031 C 
ATOM      2  C   UNL     1      21.377  22.014   8.245  1.00  0.00    -0.031 C 
ENDROOT
BRANCH   1   3
ATOM      3  C   UNL     1      20.622  21.893   5.880  1.00  0.00     0.027 C 
BRANCH   3   4
ATOM      4  C   UNL     1      19.218  22.235   5.358  1.00  0.00     0.004 C 
BRANCH   4   5
ATOM      5  C   UNL     1      18.429  23.108   6.346  1.00  0.00     0.000 C 
BRANCH   5   6
ATOM      6  C   UNL     1      16.994  22.587   6.512  1.00  0.00     0.000 C 
BRANCH   6   7
ATOM      7  C   UNL     1      16.880  21.469   7.563  1.00  0.00     0.000 C 
BRANCH   7   8
ATOM      8  C   UNL     1      16.963  20.033   7.007  1.00  0.00     0.006 C 
BRANCH   8   9
ATOM      9  C   UNL     1      18.233  19.270   7.428  1.00  0.00     0.053 C 
BRANCH   9  10
ATOM     10  C   UNL     1      18.836  18.492   6.298  1.00  0.00     0.041 C 
ATOM     11  O   UNL     1      19.710  17.615   6.525  1.00  0.00    -0.550 OA
ATOM     12  O   UNL     1      18.463  18.764   4.987  1.00  0.00    -0.550 OA
ENDBRANCH   9  10
ENDBRANCH   8   9
ENDBRANCH   7   8
ENDBRANCH   6   7
ENDBRANCH   5   6
ENDBRANCH   4   5
ENDBRANCH   3   4
ENDBRANCH   1   3
BRANCH   2  13
ATOM     13  C   UNL     1      21.722  22.767   9.502  1.00  0.00     0.027 C 
BRANCH  13  14
ATOM     14  C   UNL     1      20.475  23.293  10.236  1.00  0.00     0.004 C 
BRANCH  14  15
ATOM     15  C   UNL     1      19.270  22.335  10.195  1.00  0.00     0.000 C 
BRANCH  15  16
ATOM     16  C   UNL     1      18.051  22.794  11.017  1.00  0.00     0.000 C 
BRANCH  16  17
ATOM     17  C   UNL     1      17.058  23.667  10.220  1.00  0.00    -0.000 C 
BRANCH  17  18
ATOM     18  C   UNL     1      17.444  25.157  10.242  1.00  0.00    -0.000 C 
BRANCH  18  19
ATOM     19  C   UNL     1      17.987  25.647   8.891  1.00  0.00    -0.003 C 
ATOM     20  C   UNL     1      18.800  26.935   9.011  1.00  0.00     0.004 C 
ENDBRANCH  18  19
ENDBRANCH  17  18
ENDBRANCH  16  17
ENDBRANCH  15  16
ENDBRANCH  14  15
ENDBRANCH  13  14
ENDBRANCH   2  13
TORSDOF 15
ENDMDL
MODEL 6
REMARK VINA RESULT:    -4.824      3.808      6.759
REMARK INTER + INTRA:         -11.790
REMARK INTER:                  -9.645
REMARK INTRA:                  -2.145
REMARK UNBOUND:                -2.736
REMARK SMILES CCCCCCCCC=CCCCCCCCC(=O)[O-]
REMARK SMILES IDX 10 1 9 2 11 3 12 4 13 5 14 6 15 7 16 8 17 9 18 10 19 11
REMARK SMILES IDX 20 12 8 13 7 14 6 15 5 16 4 17 3 18 2 19 1 20
REMARK H PARENT
REMARK Flexibility Score: inf
ROOT
ATOM      1  C   UNL     1      17.905  23.957   7.530  1.00  0.00    -0.031 C 
ATOM      2  C   UNL     1      17.195  25.048   7.851  1.00  0.00    -0.031 C 
ENDROOT
BRANCH   1   3
ATOM      3  C   UNL     1      17.852  23.358   6.150  1.00  0.00     0.027 C 
BRANCH   3   4
ATOM      4  C   UNL     1      19.106  22.535   5.821  1.00  0.00     0.004 C 
BRANCH   4   5
ATOM      5  C   UNL     1      20.245  22.790   6.819  1.00  0.00     0.000 C 
BRANCH   5   6
ATOM      6  C   UNL     1      21.480  21.947   6.468  1.00  0.00     0.000 C 
BRANCH   6   7
ATOM      7  C   UNL     1      21.435  21.385   5.037  1.00  0.00     0.000 C 
BRANCH   7   8
ATOM      8  C   UNL     1      21.530  19.850   4.930  1.00  0.00     0.006 C 
BRANCH   8   9
ATOM      9  C   UNL     1      22.319  19.189   6.076  1.00  0.00     0.053 C 
BRANCH   9  10
ATOM     10  C   UNL     1      23.362  18.235   5.578  1.00  0.00     0.041 C 
ATOM     11  O   UNL     1      23.103  17.007   5.475  1.00  0.00    -0.550 OA
ATOM     12  O   UNL     1      24.635  18.694   5.265  1.00  0.00    -0.550 OA
ENDBRANCH   9  10
ENDBRANCH   8   9
ENDBRANCH   7   8
ENDBRANCH   6   7
ENDBRANCH   5   6
ENDBRANCH   4   5
ENDBRANCH   3   4
ENDBRANCH   1   3
BRANCH   2  13
ATOM     13  C   UNL     1      17.246  25.648   9.230  1.00  0.00     0.027 C 
BRANCH  13  14
ATOM     14  C   UNL     1      17.889  24.703  10.261  1.00  0.00     0.004 C 
BRANCH  14  15
ATOM     15  C   UNL     1      16.878  23.980  11.170  1.00  0.00     0.000 C 
BRANCH  15  16
ATOM     16  C   UNL     1      17.105  22.463  11.313  1.00  0.00     0.000 C 
BRANCH  16  17
ATOM     17  C   UNL     1      18.586  22.044  11.190  1.00  0.00    -0.000 C 
BRANCH  17  18
ATOM     18  C   UNL     1      18.882  21.341   9.854  1.00  0.00    -0.000 C 
BRANCH  18  19
ATOM     19  C   UNL     1      17.615  20.790   9.182  1.00  0.00    -0.003 C 
ATOM     20  C   UNL     1      17.920  19.926   7.959  1.00  0.00     0.004 C 
ENDBRANCH  18  19
ENDBRANCH  17  18
ENDBRANCH  16  17
ENDBRANCH  15  16
ENDBRANCH  14  15
ENDBRANCH  13  14
ENDBRANCH   2  13
TORSDOF 15
ENDMDL
MODEL 7
REMARK VINA RESULT:    -4.817      1.411      3.036
REMARK INTER + INTRA:         -11.778
REMARK INTER:                  -9.468
REMARK INTRA:                  -2.310
REMARK UNBOUND:                -2.736
REMARK SMILES CCCCCCCCC=CCCCCCCCC(=O)[O-]
REMARK SMILES IDX 10 1 9 2 11 3 12 4 13 5 14 6 15 7 16 8 17 9 18 10 19 11
REMARK SMILES IDX 20 12 8 13 7 14 6 15 5 16 4 17 3 18 2 19 1 20
REMARK H PARENT
REMARK Flexibility Score: inf
ROOT
ATOM      1  C   UNL     1      20.468  22.750   6.942  1.00  0.00    -0.031 C 
ATOM      2  C   UNL     1      19.203  23.187   6.861  1.00  0.00    -0.031 C 
ENDROOT
BRANCH   1   3
ATOM      3  C   UNL     1      21.387  23.194   8.048  1.00  0.00     0.027 C 
BRANCH   3   4
ATOM      4  C   UNL     1      21.177  22.393   9.342  1.00  0.00     0.004 C 
BRANCH   4   5
ATOM      5  C   UNL     1      20.326  23.158  10.366  1.00  0.00     0.000 C 
BRANCH   5   6
ATOM      6  C   UNL     1      19.085  22.345  10.763  1.00  0.00     0.000 C 
BRANCH   6   7
ATOM      7  C   UNL     1      17.792  22.869  10.115  1.00  0.00     0.000 C 
BRANCH   7   8
ATOM      8  C   UNL     1      17.470  24.351  10.394  1.00  0.00     0.006 C 
BRANCH   8   9
ATOM      9  C   UNL     1      17.159  25.175   9.130  1.00  0.00     0.053 C 
BRANCH   9  10
ATOM     10  C   UNL     1      18.041  26.379   8.999  1.00  0.00     0.041 C 
ATOM     11  O   UNL     1      17.551  27.536   9.073  1.00  0.00    -0.550 OA
ATOM     12  O   UNL     1      19.400  26.225   8.755  1.00  0.00    -0.550 OA
ENDBRANCH   9  10
ENDBRANCH   8   9
ENDBRANCH   7   8
ENDBRANCH   6   7
ENDBRANCH   5   6
ENDBRANCH   4   5
ENDBRANCH   3   4
ENDBRANCH   1   3
BRANCH   2  13
ATOM     13  C   UNL     1      18.284  22.744   5.755  1.00  0.00     0.027 C 
BRANCH  13  14
ATOM     14  C   UNL     1      17.886  21.263   5.876  1.00  0.00     0.004 C 
BRANCH  14  15
ATOM     15  C   UNL     1      18.169  20.429   4.612  1.00  0.00     0.000 C 
BRANCH  15  16
ATOM     16  C   UNL     1      19.472  20.793   3.876  1.00  0.00     0.000 C 
BRANCH  16  17
ATOM     17  C   UNL     1      20.543  19.681   3.924  1.00  0.00    -0.000 C 
BRANCH  17  18
ATOM     18  C   UNL     1      21.057  19.429   5.352  1.00  0.00    -0.000 C 
BRANCH  18  19
ATOM     19  C   UNL     1      22.531  19.821   5.527  1.00  0.00    -0.003 C 
ATOM     20  C   UNL     1      23.100  19.398   6.881  1.00  0.00     0.004 C 
ENDBRANCH  18  19
ENDBRANCH  17  18
ENDBRANCH  16  17
ENDBRANCH  15  16
ENDBRANCH  14  15
ENDBRANCH  13  14
ENDBRANCH   2  13
TORSDOF 15
ENDMDL
MODEL 8
REMARK VINA RESULT:    -4.798      1.438      2.489
REMARK INTER + INTRA:         -11.742
REMARK INTER:                  -9.033
REMARK INTRA:                  -2.709
REMARK UNBOUND:                -2.736
REMARK SMILES CCCCCCCCC=CCCCCCCCC(=O)[O-]
REMARK SMILES IDX 10 1 9 2 11 3 12 4 13 5 14 6 15 7 16 8 17 9 18 10 19 11
REMARK SMILES IDX 20 12 8 13 7 14 6 15 5 16 4 17 3 18 2 19 1 20
REMARK H PARENT
REMARK Flexibility Score: inf
ROOT
ATOM      1  C   UNL     1      20.638  23.035   7.815  1.00  0.00    -0.031 C 
ATOM      2  C   UNL     1      21.049  22.237   6.819  1.00  0.00    -0.031 C 
ENDROOT
BRANCH   1   3
ATOM      3  C   UNL     1      21.452  23.219   9.067  1.00  0.00     0.027 C 
BRANCH   3   4
ATOM      4  C   UNL     1      20.609  23.060  10.341  1.00  0.00     0.004 C 
BRANCH   4   5
ATOM      5  C   UNL     1      19.472  22.043  10.162  1.00  0.00     0.000 C 
BRANCH   5   6
ATOM      6  C   UNL     1      18.127  22.643  10.595  1.00  0.00     0.000 C 
BRANCH   6   7
ATOM      7  C   UNL     1      17.244  23.057   9.406  1.00  0.00     0.000 C 
BRANCH   7   8
ATOM      8  C   UNL     1      16.954  24.568   9.296  1.00  0.00     0.006 C 
BRANCH   8   9
ATOM      9  C   UNL     1      17.916  25.325   8.360  1.00  0.00     0.053 C 
BRANCH   9  10
ATOM     10  C   UNL     1      18.808  26.273   9.102  1.00  0.00     0.041 C 
ATOM     11  O   UNL     1      19.142  26.033  10.292  1.00  0.00    -0.550 OA
ATOM     12  O   UNL     1      19.241  27.445   8.493  1.00  0.00    -0.550 OA
ENDBRANCH   9  10
ENDBRANCH   8   9
ENDBRANCH   7   8
ENDBRANCH   6   7
ENDBRANCH   5   6
ENDBRANCH   4   5
ENDBRANCH   3   4
ENDBRANCH   1   3
BRANCH   2  13
ATOM     13  C   UNL     1      20.236  22.052   5.567  1.00  0.00     0.027 C 
BRANCH  13  14
ATOM     14  C   UNL     1      18.759  22.441   5.759  1.00  0.00     0.004 C 
BRANCH  14  15
ATOM     15  C   UNL     1      17.768  21.287   5.520  1.00  0.00     0.000 C 
BRANCH  15  16
ATOM     16  C   UNL     1      17.250  20.603   6.800  1.00  0.00     0.000 C 
BRANCH  16  17
ATOM     17  C   UNL     1      18.318  19.755   7.525  1.00  0.00    -0.000 C 
BRANCH  17  18
ATOM     18  C   UNL     1      18.590  18.423   6.806  1.00  0.00    -0.000 C 
BRANCH  18  19
ATOM     19  C   UNL     1      19.952  18.401   6.097  1.00  0.00    -0.003 C 
ATOM     20  C   UNL     1      20.326  17.016   5.573  1.00  0.00     0.004 C 
ENDBRANCH  18  19
ENDBRANCH  17  18
ENDBRANCH  16  17
ENDBRANCH  15  16
ENDBRANCH  14  15
ENDBRANCH  13  14
ENDBRANCH   2  13
TORSDOF 15
ENDMDL
MODEL 9
REMARK VINA RESULT:    -4.717      4.115      7.055
REMARK INTER + INTRA:         -11.589
REMARK INTER:                  -9.377
REMARK INTRA:                  -2.212
REMARK UNBOUND:                -2.736
REMARK SMILES CCCCCCCCC=CCCCCCCCC(=O)[O-]
REMARK SMILES IDX 10 1 9 2 11 3 12 4 13 5 14 6 15 7 16 8 17 9 18 10 19 11
REMARK SMILES IDX 20 12 8 13 7 14 6 15 5 16 4 17 3 18 2 19 1 20
REMARK H PARENT
REMARK Flexibility Score: inf
ROOT
ATOM      1  C   UNL     1      20.334  22.102   9.005  1.00  0.00    -0.031 C 
ATOM      2  C   UNL     1      19.175  21.466   8.787  1.00  0.00    -0.031 C 
ENDROOT
BRANCH   1   3
ATOM      3  C   UNL     1      21.294  22.400   7.884  1.00  0.00     0.027 C 
BRANCH   3   4
ATOM      4  C   UNL     1      20.630  22.300   6.503  1.00  0.00     0.004 C 
BRANCH   4   5
ATOM      5  C   UNL     1      21.420  21.398   5.543  1.00  0.00     0.000 C 
BRANCH   5   6
ATOM      6  C   UNL     1      21.882  20.117   6.252  1.00  0.00     0.000 C 
BRANCH   6   7
ATOM      7  C   UNL     1      21.334  18.838   5.596  1.00  0.00     0.000 C 
BRANCH   7   8
ATOM      8  C   UNL     1      21.946  17.520   6.113  1.00  0.00     0.006 C 
BRANCH   8   9
ATOM      9  C   UNL     1      21.092  16.273   5.816  1.00  0.00     0.053 C 
BRANCH   9  10
ATOM     10  C   UNL     1      20.044  16.035   6.861  1.00  0.00     0.041 C 
ATOM     11  O   UNL     1      20.263  15.237   7.810  1.00  0.00    -0.550 OA
ATOM     12  O   UNL     1      18.808  16.662   6.764  1.00  0.00    -0.550 OA
ENDBRANCH   9  10
ENDBRANCH   8   9
ENDBRANCH   7   8
ENDBRANCH   6   7
ENDBRANCH   5   6
ENDBRANCH   4   5
ENDBRANCH   3   4
ENDBRANCH   1   3
BRANCH   2  13
ATOM     13  C   UNL     1      18.215  21.167   9.907  1.00  0.00     0.027 C 
BRANCH  13  14
ATOM     14  C   UNL     1      18.329  22.172  11.067  1.00  0.00     0.004 C 
BRANCH  14  15
ATOM     15  C   UNL     1      17.020  22.918  11.385  1.00  0.00     0.000 C 
BRANCH  15  16
ATOM     16  C   UNL     1      16.880  24.296  10.712  1.00  0.00     0.000 C 
BRANCH  16  17
ATOM     17  C   UNL     1      18.217  24.874  10.198  1.00  0.00    -0.000 C 
BRANCH  17  18
ATOM     18  C   UNL     1      18.173  25.196   8.694  1.00  0.00    -0.000 C 
BRANCH  18  19
ATOM     19  C   UNL     1      16.930  24.616   8.002  1.00  0.00    -0.003 C 
ATOM     20  C   UNL     1      17.265  23.864   6.715  1.00  0.00     0.004 C 
ENDBRANCH  18  19
ENDBRANCH  17  18
ENDBRANCH  16  17
ENDBRANCH  15  16
ENDBRANCH  14  15
ENDBRANCH  13  14
ENDBRANCH   2  13
TORSDOF 15
ENDMDL
