MODEL 1
REMARK VINA RESULT:    -4.487      0.000      0.000
REMARK INTER + INTRA:          -6.976
REMARK INTER:                  -6.323
REMARK INTRA:                  -0.653
REMARK UNBOUND:                -0.653
REMARK SMILES CCCCCCCCC(=O)[O-]
REMARK SMILES IDX 6 1 7 2 8 3 9 4 10 5 11 6 5 7 4 8 3 9 2 10 1 11
REMARK H PARENT
REMARK Flexibility Score: inf
ROOT
ATOM      1  C   UNL     1     140.510 142.353 114.308  1.00  0.00     0.000 C 
ENDROOT
BRANCH   1   2
ATOM      2  C   UNL     1     139.762 142.605 115.622  1.00  0.00     0.006 C 
BRANCH   2   3
ATOM      3  C   UNL     1     139.540 141.296 116.386  1.00  0.00     0.053 C 
BRANCH   3   4
ATOM      4  C   UNL     1     140.199 141.355 117.727  1.00  0.00     0.041 C 
ATOM      5  O   UNL     1     140.852 142.377 118.069  1.00  0.00    -0.550 OA
ATOM      6  O   UNL     1     140.134 140.262 118.583  1.00  0.00    -0.550 OA
ENDBRANCH   3   4
ENDBRANCH   2   3
ENDBRANCH   1   2
BRANCH   1   7
ATOM      7  C   UNL     1     141.769 143.225 114.215  1.00  0.00     0.000 C 
BRANCH   7   8
ATOM      8  C   UNL     1     142.877 142.690 115.134  1.00  0.00    -0.000 C 
BRANCH   8   9
ATOM      9  C   UNL     1     143.089 141.175 114.986  1.00  0.00    -0.000 C 
BRANCH   9  10
ATOM     10  C   UNL     1     144.083 140.824 113.869  1.00  0.00    -0.003 C 
ATOM     11  C   UNL     1     143.393 140.068 112.737  1.00  0.00     0.004 C 
ENDBRANCH   9  10
ENDBRANCH   8   9
ENDBRANCH   7   8
ENDBRANCH   1   7
TORSDOF 7
ENDMDL
MODEL 2
REMARK VINA RESULT:    -4.461      1.560      2.887
REMARK INTER + INTRA:          -6.939
REMARK INTER:                  -6.428
REMARK INTRA:                  -0.512
REMARK UNBOUND:                -0.653
REMARK SMILES CCCCCCCCC(=O)[O-]
REMARK SMILES IDX 6 1 7 2 8 3 9 4 10 5 11 6 5 7 4 8 3 9 2 10 1 11
REMARK H PARENT
REMARK Flexibility Score: inf
ROOT
ATOM      1  C   UNL     1     142.253 139.904 116.317  1.00  0.00     0.000 C 
ENDROOT
BRANCH   1   2
ATOM      2  C   UNL     1     141.447 140.927 117.126  1.00  0.00     0.006 C 
BRANCH   2   3
ATOM      3  C   UNL     1     141.490 140.601 118.622  1.00  0.00     0.053 C 
BRANCH   3   4
ATOM      4  C   UNL     1     140.151 140.832 119.246  1.00  0.00     0.041 C 
ATOM      5  O   UNL     1     139.176 141.203 118.539  1.00  0.00    -0.550 OA
ATOM      6  O   UNL     1     139.989 140.687 120.618  1.00  0.00    -0.550 OA
ENDBRANCH   3   4
ENDBRANCH   2   3
ENDBRANCH   1   2
BRANCH   1   7
ATOM      7  C   UNL     1     142.308 140.293 114.835  1.00  0.00     0.000 C 
BRANCH   7   8
ATOM      8  C   UNL     1     143.249 141.487 114.614  1.00  0.00    -0.000 C 
BRANCH   8   9
ATOM      9  C   UNL     1     142.674 142.521 113.634  1.00  0.00    -0.000 C 
BRANCH   9  10
ATOM     10  C   UNL     1     141.137 142.523 113.611  1.00  0.00    -0.003 C 
ATOM     11  C   UNL     1     140.574 143.546 114.593  1.00  0.00     0.004 C 
ENDBRANCH   9  10
ENDBRANCH   8   9
ENDBRANCH   7   8
ENDBRANCH   1   7
TORSDOF 7
ENDMDL
MODEL 3
REMARK VINA RESULT:    -4.456      8.298      9.765
REMARK INTER + INTRA:          -6.933
REMARK INTER:                  -6.221
REMARK INTRA:                  -0.712
REMARK UNBOUND:                -0.653
REMARK SMILES CCCCCCCCC(=O)[O-]
REMARK SMILES IDX 6 1 7 2 8 3 9 4 10 5 11 6 5 7 4 8 3 9 2 10 1 11
REMARK H PARENT
REMARK Flexibility Score: inf
ROOT
ATOM      1  C   UNL     1     133.862 136.213 114.748  1.00  0.00     0.000 C 
ENDROOT
BRANCH   1   2
ATOM      2  C   UNL     1     134.309 136.466 116.193  1.00  0.00     0.006 C 
BRANCH   2   3
ATOM      3  C   UNL     1     135.793 136.134 116.374  1.00  0.00     0.053 C 
BRANCH   3   4
ATOM      4  C   UNL     1     135.993 135.275 117.582  1.00  0.00     0.041 C 
ATOM      5  O   UNL     1     136.944 135.506 118.375  1.00  0.00    -0.550 OA
ATOM      6  O   UNL     1     135.159 134.186 117.807  1.00  0.00    -0.550 OA
ENDBRANCH   3   4
ENDBRANCH   2   3
ENDBRANCH   1   2
BRANCH   1   7
ATOM      7  C   UNL     1     133.145 134.863 114.621  1.00  0.00     0.000 C 
BRANCH   7   8
ATOM      8  C   UNL     1     133.922 133.913 113.698  1.00  0.00    -0.000 C 
BRANCH   8   9
ATOM      9  C   UNL     1     134.696 132.836 114.474  1.00  0.00    -0.000 C 
BRANCH   9  10
ATOM     10  C   UNL     1     136.208 133.106 114.512  1.00  0.00    -0.003 C 
ATOM     11  C   UNL     1     136.943 132.011 115.279  1.00  0.00     0.004 C 
ENDBRANCH   9  10
ENDBRANCH   8   9
ENDBRANCH   7   8
ENDBRANCH   1   7
TORSDOF 7
ENDMDL
MODEL 4
REMARK VINA RESULT:    -4.426      1.213      1.718
REMARK INTER + INTRA:          -6.891
REMARK INTER:                  -6.255
REMARK INTRA:                  -0.636
REMARK UNBOUND:                -0.653
REMARK SMILES CCCCCCCCC(=O)[O-]
REMARK SMILES IDX 6 1 7 2 8 3 9 4 10 5 11 6 5 7 4 8 3 9 2 10 1 11
REMARK H PARENT
REMARK Flexibility Score: inf
ROOT
ATOM      1  C   UNL     1     139.706 143.103 115.688  1.00  0.00     0.000 C 
ENDROOT
BRANCH   1   2
ATOM      2  C   UNL     1     139.793 141.877 116.605  1.00  0.00     0.006 C 
BRANCH   2   3
ATOM      3  C   UNL     1     140.621 142.185 117.856  1.00  0.00     0.053 C 
BRANCH   3   4
ATOM      4  C   UNL     1     140.822 140.946 118.668  1.00  0.00     0.041 C 
ATOM      5  O   UNL     1     141.761 140.152 118.392  1.00  0.00    -0.550 OA
ATOM      6  O   UNL     1     139.945 140.640 119.700  1.00  0.00    -0.550 OA
ENDBRANCH   3   4
ENDBRANCH   2   3
ENDBRANCH   1   2
BRANCH   1   7
ATOM      7  C   UNL     1     140.413 142.844 114.352  1.00  0.00     0.000 C 
BRANCH   7   8
ATOM      8  C   UNL     1     141.748 143.599 114.281  1.00  0.00    -0.000 C 
BRANCH   8   9
ATOM      9  C   UNL     1     142.878 142.874 115.030  1.00  0.00    -0.000 C 
BRANCH   9  10
ATOM     10  C   UNL     1     143.350 141.605 114.303  1.00  0.00    -0.003 C 
ATOM     11  C   UNL     1     143.027 140.355 115.117  1.00  0.00     0.004 C 
ENDBRANCH   9  10
ENDBRANCH   8   9
ENDBRANCH   7   8
ENDBRANCH   1   7
TORSDOF 7
ENDMDL
MODEL 5
REMARK VINA RESULT:    -4.405      8.601     10.282
REMARK INTER + INTRA:          -6.861
REMARK INTER:                  -6.249
REMARK INTRA:                  -0.612
REMARK UNBOUND:                -0.653
REMARK SMILES CCCCCCCCC(=O)[O-]
REMARK SMILES IDX 6 1 7 2 8 3 9 4 10 5 11 6 5 7 4 8 3 9 2 10 1 11
REMARK H PARENT
REMARK Flexibility Score: inf
ROOT
ATOM      1  C   UNL     1     133.566 134.204 113.687  1.00  0.00     0.000 C 
ENDROOT
BRANCH   1   2
ATOM      2  C   UNL     1     134.356 133.281 114.623  1.00  0.00     0.006 C 
BRANCH   2   3
ATOM      3  C   UNL     1     135.811 133.150 114.164  1.00  0.00     0.053 C 
BRANCH   3   4
ATOM      4  C   UNL     1     136.696 132.815 115.322  1.00  0.00     0.041 C 
ATOM      5  O   UNL     1     137.221 131.672 115.409  1.00  0.00    -0.550 OA
ATOM      6  O   UNL     1     136.904 133.746 116.331  1.00  0.00    -0.550 OA
ENDBRANCH   3   4
ENDBRANCH   2   3
ENDBRANCH   1   2
BRANCH   1   7
ATOM      7  C   UNL     1     133.238 135.535 114.375  1.00  0.00     0.000 C 
BRANCH   7   8
ATOM      8  C   UNL     1     134.408 136.522 114.249  1.00  0.00    -0.000 C 
BRANCH   8   9
ATOM      9  C   UNL     1     135.168 136.712 115.571  1.00  0.00    -0.000 C 
BRANCH   9  10
ATOM     10  C   UNL     1     134.251 136.605 116.800  1.00  0.00    -0.003 C 
ATOM     11  C   UNL     1     135.032 136.150 118.030  1.00  0.00     0.004 C 
ENDBRANCH   9  10
ENDBRANCH   8   9
ENDBRANCH   7   8
ENDBRANCH   1   7
TORSDOF 7
ENDMDL
MODEL 6
REMARK VINA RESULT:    -4.375      7.989      9.785
REMARK INTER + INTRA:          -6.818
REMARK INTER:                  -6.318
REMARK INTRA:                  -0.500
REMARK UNBOUND:                -0.653
REMARK SMILES CCCCCCCCC(=O)[O-]
REMARK SMILES IDX 6 1 7 2 8 3 9 4 10 5 11 6 5 7 4 8 3 9 2 10 1 11
REMARK H PARENT
REMARK Flexibility Score: inf
ROOT
ATOM      1  C   UNL     1     136.784 134.960 115.052  1.00  0.00     0.000 C 
ENDROOT
BRANCH   1   2
ATOM      2  C   UNL     1     136.857 135.781 116.345  1.00  0.00     0.006 C 
BRANCH   2   3
ATOM      3  C   UNL     1     136.627 134.894 117.572  1.00  0.00     0.053 C 
BRANCH   3   4
ATOM      4  C   UNL     1     135.841 135.630 118.610  1.00  0.00     0.041 C 
ATOM      5  O   UNL     1     136.246 135.671 119.802  1.00  0.00    -0.550 OA
ATOM      6  O   UNL     1     134.634 136.229 118.273  1.00  0.00    -0.550 OA
ENDBRANCH   3   4
ENDBRANCH   2   3
ENDBRANCH   1   2
BRANCH   1   7
ATOM      7  C   UNL     1     136.053 133.632 115.283  1.00  0.00     0.000 C 
BRANCH   7   8
ATOM      8  C   UNL     1     134.814 133.522 114.383  1.00  0.00    -0.000 C 
BRANCH   8   9
ATOM      9  C   UNL     1     133.559 134.134 115.026  1.00  0.00    -0.000 C 
BRANCH   9  10
ATOM     10  C   UNL     1     133.328 135.593 114.601  1.00  0.00    -0.003 C 
ATOM     11  C   UNL     1     131.995 135.748 113.874  1.00  0.00     0.004 C 
ENDBRANCH   9  10
ENDBRANCH   8   9
ENDBRANCH   7   8
ENDBRANCH   1   7
TORSDOF 7
ENDMDL
MODEL 7
REMARK VINA RESULT:    -4.363      8.153      9.630
REMARK INTER + INTRA:          -6.801
REMARK INTER:                  -6.111
REMARK INTRA:                  -0.690
REMARK UNBOUND:                -0.653
REMARK SMILES CCCCCCCCC(=O)[O-]
REMARK SMILES IDX 6 1 7 2 8 3 9 4 10 5 11 6 5 7 4 8 3 9 2 10 1 11
REMARK H PARENT
REMARK Flexibility Score: inf
ROOT
ATOM      1  C   UNL     1     133.734 135.893 115.115  1.00  0.00     0.000 C 
ENDROOT
BRANCH   1   2
ATOM      2  C   UNL     1     134.533 136.232 116.379  1.00  0.00     0.006 C 
BRANCH   2   3
ATOM      3  C   UNL     1     136.038 136.103 116.128  1.00  0.00     0.053 C 
BRANCH   3   4
ATOM      4  C   UNL     1     136.620 135.019 116.979  1.00  0.00     0.041 C 
ATOM      5  O   UNL     1     137.182 135.303 118.071  1.00  0.00    -0.550 OA
ATOM      6  O   UNL     1     136.586 133.700 116.545  1.00  0.00    -0.550 OA
ENDBRANCH   3   4
ENDBRANCH   2   3
ENDBRANCH   1   2
BRANCH   1   7
ATOM      7  C   UNL     1     133.483 134.384 115.009  1.00  0.00     0.000 C 
BRANCH   7   8
ATOM      8  C   UNL     1     133.781 133.875 113.591  1.00  0.00    -0.000 C 
BRANCH   8   9
ATOM      9  C   UNL     1     135.281 133.894 113.258  1.00  0.00    -0.000 C 
BRANCH   9  10
ATOM     10  C   UNL     1     135.607 134.782 112.048  1.00  0.00    -0.003 C 
ATOM     11  C   UNL     1     134.342 135.141 111.273  1.00  0.00     0.004 C 
ENDBRANCH   9  10
ENDBRANCH   8   9
ENDBRANCH   7   8
ENDBRANCH   1   7
TORSDOF 7
ENDMDL
MODEL 8
REMARK VINA RESULT:    -4.316      8.937     10.281
REMARK INTER + INTRA:          -6.735
REMARK INTER:                  -6.079
REMARK INTRA:                  -0.656
REMARK UNBOUND:                -0.653
REMARK SMILES CCCCCCCCC(=O)[O-]
REMARK SMILES IDX 6 1 7 2 8 3 9 4 10 5 11 6 5 7 4 8 3 9 2 10 1 11
REMARK H PARENT
REMARK Flexibility Score: inf
ROOT
ATOM      1  C   UNL     1     133.856 133.827 115.305  1.00  0.00     0.000 C 
ENDROOT
BRANCH   1   2
ATOM      2  C   UNL     1     134.828 133.065 114.396  1.00  0.00     0.006 C 
BRANCH   2   3
ATOM      3  C   UNL     1     136.235 133.035 115.001  1.00  0.00     0.053 C 
BRANCH   3   4
ATOM      4  C   UNL     1     136.679 134.417 115.361  1.00  0.00     0.041 C 
ATOM      5  O   UNL     1     136.872 135.277 114.459  1.00  0.00    -0.550 OA
ATOM      6  O   UNL     1     136.930 134.744 116.687  1.00  0.00    -0.550 OA
ENDBRANCH   3   4
ENDBRANCH   2   3
ENDBRANCH   1   2
BRANCH   1   7
ATOM      7  C   UNL     1     133.135 134.939 114.532  1.00  0.00     0.000 C 
BRANCH   7   8
ATOM      8  C   UNL     1     133.119 134.639 113.026  1.00  0.00    -0.000 C 
BRANCH   8   9
ATOM      9  C   UNL     1     133.747 135.766 112.191  1.00  0.00    -0.000 C 
BRANCH   9  10
ATOM     10  C   UNL     1     134.412 135.249 110.906  1.00  0.00    -0.003 C 
ATOM     11  C   UNL     1     135.729 134.543 111.215  1.00  0.00     0.004 C 
ENDBRANCH   9  10
ENDBRANCH   8   9
ENDBRANCH   7   8
ENDBRANCH   1   7
TORSDOF 7
ENDMDL
MODEL 9
REMARK VINA RESULT:    -4.308      8.165      9.845
REMARK INTER + INTRA:          -6.724
REMARK INTER:                  -5.967
REMARK INTRA:                  -0.757
REMARK UNBOUND:                -0.653
REMARK SMILES CCCCCCCCC(=O)[O-]
REMARK SMILES IDX 6 1 7 2 8 3 9 4 10 5 11 6 5 7 4 8 3 9 2 10 1 11
REMARK H PARENT
REMARK Flexibility Score: inf
ROOT
ATOM      1  C   UNL     1     135.342 133.512 114.081  1.00  0.00     0.000 C 
ENDROOT
BRANCH   1   2
ATOM      2  C   UNL     1     136.473 133.603 115.112  1.00  0.00     0.006 C 
BRANCH   2   3
ATOM      3  C   UNL     1     136.876 135.060 115.356  1.00  0.00     0.053 C 
BRANCH   3   4
ATOM      4  C   UNL     1     136.469 135.493 116.729  1.00  0.00     0.041 C 
ATOM      5  O   UNL     1     137.170 135.177 117.727  1.00  0.00    -0.550 OA
ATOM      6  O   UNL     1     135.290 136.203 116.913  1.00  0.00    -0.550 OA
ENDBRANCH   3   4
ENDBRANCH   2   3
ENDBRANCH   1   2
BRANCH   1   7
ATOM      7  C   UNL     1     133.969 133.532 114.765  1.00  0.00     0.000 C 
BRANCH   7   8
ATOM      8  C   UNL     1     133.130 134.723 114.276  1.00  0.00    -0.000 C 
BRANCH   8   9
ATOM      9  C   UNL     1     133.429 135.099 112.817  1.00  0.00    -0.000 C 
BRANCH   9  10
ATOM     10  C   UNL     1     133.497 136.619 112.600  1.00  0.00    -0.003 C 
ATOM     11  C   UNL     1     134.698 137.223 113.322  1.00  0.00     0.004 C 
ENDBRANCH   9  10
ENDBRANCH   8   9
ENDBRANCH   7   8
ENDBRANCH   1   7
TORSDOF 7
ENDMDL
