MODEL 1
REMARK VINA RESULT:    -4.020      0.000      0.000
REMARK INTER + INTRA:          -5.716
REMARK INTER:                  -5.430
REMARK INTRA:                  -0.287
REMARK UNBOUND:                -0.287
REMARK SMILES CCCCCCCC(=O)[O-]
REMARK SMILES IDX 5 1 6 2 7 3 8 4 9 5 10 6 4 7 3 8 2 9 1 10
REMARK H PARENT
REMARK Flexibility Score: inf
ROOT
ATOM      1  C   UNL     1       5.358 -11.110   7.128  1.00  0.00     0.000 C 
ENDROOT
BRANCH   1   2
ATOM      2  C   UNL     1       3.835 -11.054   6.921  1.00  0.00     0.006 C 
BRANCH   2   3
ATOM      3  C   UNL     1       3.327  -9.614   6.757  1.00  0.00     0.053 C 
BRANCH   3   4
ATOM      4  C   UNL     1       3.809  -8.995   5.481  1.00  0.00     0.041 C 
ATOM      5  O   UNL     1       3.536  -9.529   4.375  1.00  0.00    -0.550 OA
ATOM      6  O   UNL     1       4.536  -7.811   5.514  1.00  0.00    -0.550 OA
ENDBRANCH   3   4
ENDBRANCH   2   3
ENDBRANCH   1   2
BRANCH   1   7
ATOM      7  C   UNL     1       5.946 -12.495   6.811  1.00  0.00     0.000 C 
BRANCH   7   8
ATOM      8  C   UNL     1       4.871 -13.513   6.394  1.00  0.00    -0.000 C 
BRANCH   8   9
ATOM      9  C   UNL     1       4.879 -13.791   4.882  1.00  0.00    -0.003 C 
ATOM     10  C   UNL     1       3.640 -14.554   4.415  1.00  0.00     0.004 C 
ENDBRANCH   8   9
ENDBRANCH   7   8
ENDBRANCH   1   7
TORSDOF 6
ENDMDL
MODEL 2
REMARK VINA RESULT:    -3.967      0.696      1.368
REMARK INTER + INTRA:          -5.645
REMARK INTER:                  -5.360
REMARK INTRA:                  -0.285
REMARK UNBOUND:                -0.287
REMARK SMILES CCCCCCCC(=O)[O-]
REMARK SMILES IDX 5 1 6 2 7 3 8 4 9 5 10 6 4 7 3 8 2 9 1 10
REMARK H PARENT
REMARK Flexibility Score: inf
ROOT
ATOM      1  C   UNL     1       6.008 -12.622   6.888  1.00  0.00     0.000 C 
ENDROOT
BRANCH   1   2
ATOM      2  C   UNL     1       5.672 -11.175   7.287  1.00  0.00     0.006 C 
BRANCH   2   3
ATOM      3  C   UNL     1       4.247 -10.778   6.875  1.00  0.00     0.053 C 
BRANCH   3   4
ATOM      4  C   UNL     1       4.240  -9.576   5.982  1.00  0.00     0.041 C 
ATOM      5  O   UNL     1       3.773  -9.655   4.816  1.00  0.00    -0.550 OA
ATOM      6  O   UNL     1       4.722  -8.359   6.449  1.00  0.00    -0.550 OA
ENDBRANCH   3   4
ENDBRANCH   2   3
ENDBRANCH   1   2
BRANCH   1   7
ATOM      7  C   UNL     1       4.769 -13.413   6.438  1.00  0.00     0.000 C 
BRANCH   7   8
ATOM      8  C   UNL     1       4.848 -13.850   4.965  1.00  0.00    -0.000 C 
BRANCH   8   9
ATOM      9  C   UNL     1       3.495 -13.737   4.245  1.00  0.00    -0.003 C 
ATOM     10  C   UNL     1       2.765 -15.075   4.146  1.00  0.00     0.004 C 
ENDBRANCH   8   9
ENDBRANCH   7   8
ENDBRANCH   1   7
TORSDOF 6
ENDMDL
MODEL 3
REMARK VINA RESULT:    -3.889      2.149      4.355
REMARK INTER + INTRA:          -5.539
REMARK INTER:                  -5.161
REMARK INTRA:                  -0.378
REMARK UNBOUND:                -0.287
REMARK SMILES CCCCCCCC(=O)[O-]
REMARK SMILES IDX 5 1 6 2 7 3 8 4 9 5 10 6 4 7 3 8 2 9 1 10
REMARK H PARENT
REMARK Flexibility Score: inf
ROOT
ATOM      1  C   UNL     1       6.025 -12.534   6.889  1.00  0.00     0.000 C 
ENDROOT
BRANCH   1   2
ATOM      2  C   UNL     1       4.842 -13.432   6.490  1.00  0.00     0.006 C 
BRANCH   2   3
ATOM      3  C   UNL     1       4.906 -13.852   5.014  1.00  0.00     0.053 C 
BRANCH   3   4
ATOM      4  C   UNL     1       3.541 -14.008   4.419  1.00  0.00     0.041 C 
ATOM      5  O   UNL     1       3.124 -15.147   4.079  1.00  0.00    -0.550 OA
ATOM      6  O   UNL     1       2.717 -12.900   4.266  1.00  0.00    -0.550 OA
ENDBRANCH   3   4
ENDBRANCH   2   3
ENDBRANCH   1   2
BRANCH   1   7
ATOM      7  C   UNL     1       5.608 -11.070   7.103  1.00  0.00     0.000 C 
BRANCH   7   8
ATOM      8  C   UNL     1       4.100 -10.846   6.890  1.00  0.00    -0.000 C 
BRANCH   8   9
ATOM      9  C   UNL     1       3.809  -9.837   5.769  1.00  0.00    -0.003 C 
ATOM     10  C   UNL     1       4.463  -8.478   6.013  1.00  0.00     0.004 C 
ENDBRANCH   8   9
ENDBRANCH   7   8
ENDBRANCH   1   7
TORSDOF 6
ENDMDL
MODEL 4
REMARK VINA RESULT:    -3.879      2.676      4.173
REMARK INTER + INTRA:          -5.527
REMARK INTER:                  -5.407
REMARK INTRA:                  -0.120
REMARK UNBOUND:                -0.287
REMARK SMILES CCCCCCCC(=O)[O-]
REMARK SMILES IDX 5 1 6 2 7 3 8 4 9 5 10 6 4 7 3 8 2 9 1 10
REMARK H PARENT
REMARK Flexibility Score: inf
ROOT
ATOM      1  C   UNL     1       4.222 -14.272   4.541  1.00  0.00     0.000 C 
ENDROOT
BRANCH   1   2
ATOM      2  C   UNL     1       4.613 -12.951   5.223  1.00  0.00     0.006 C 
BRANCH   2   3
ATOM      3  C   UNL     1       5.413 -13.181   6.514  1.00  0.00     0.053 C 
BRANCH   3   4
ATOM      4  C   UNL     1       5.740 -11.893   7.205  1.00  0.00     0.041 C 
ATOM      5  O   UNL     1       6.831 -11.763   7.819  1.00  0.00    -0.550 OA
ATOM      6  O   UNL     1       4.851 -10.827   7.145  1.00  0.00    -0.550 OA
ENDBRANCH   3   4
ENDBRANCH   2   3
ENDBRANCH   1   2
BRANCH   1   7
ATOM      7  C   UNL     1       2.739 -14.313   4.140  1.00  0.00     0.000 C 
BRANCH   7   8
ATOM      8  C   UNL     1       2.213 -15.748   3.961  1.00  0.00    -0.000 C 
BRANCH   8   9
ATOM      9  C   UNL     1       0.866 -15.972   4.666  1.00  0.00    -0.003 C 
ATOM     10  C   UNL     1       0.649 -17.427   5.078  1.00  0.00     0.004 C 
ENDBRANCH   8   9
ENDBRANCH   7   8
ENDBRANCH   1   7
TORSDOF 6
ENDMDL
MODEL 5
REMARK VINA RESULT:    -3.862      3.134      4.248
REMARK INTER + INTRA:          -5.503
REMARK INTER:                  -5.373
REMARK INTRA:                  -0.131
REMARK UNBOUND:                -0.287
REMARK SMILES CCCCCCCC(=O)[O-]
REMARK SMILES IDX 5 1 6 2 7 3 8 4 9 5 10 6 4 7 3 8 2 9 1 10
REMARK H PARENT
REMARK Flexibility Score: inf
ROOT
ATOM      1  C   UNL     1       4.679 -13.906   4.304  1.00  0.00     0.000 C 
ENDROOT
BRANCH   1   2
ATOM      2  C   UNL     1       4.368 -13.044   5.539  1.00  0.00     0.006 C 
BRANCH   2   3
ATOM      3  C   UNL     1       5.547 -12.994   6.521  1.00  0.00     0.053 C 
BRANCH   3   4
ATOM      4  C   UNL     1       5.632 -11.675   7.225  1.00  0.00     0.041 C 
ATOM      5  O   UNL     1       6.702 -11.322   7.785  1.00  0.00    -0.550 OA
ATOM      6  O   UNL     1       4.535 -10.822   7.237  1.00  0.00    -0.550 OA
ENDBRANCH   3   4
ENDBRANCH   2   3
ENDBRANCH   1   2
BRANCH   1   7
ATOM      7  C   UNL     1       4.485 -13.141   2.985  1.00  0.00     0.000 C 
BRANCH   7   8
ATOM      8  C   UNL     1       5.668 -13.317   2.018  1.00  0.00    -0.000 C 
BRANCH   8   9
ATOM      9  C   UNL     1       5.491 -12.514   0.720  1.00  0.00    -0.003 C 
ATOM     10  C   UNL     1       6.800 -12.336  -0.048  1.00  0.00     0.004 C 
ENDBRANCH   8   9
ENDBRANCH   7   8
ENDBRANCH   1   7
TORSDOF 6
ENDMDL
MODEL 6
REMARK VINA RESULT:    -3.847      1.337      2.163
REMARK INTER + INTRA:          -5.483
REMARK INTER:                  -5.142
REMARK INTRA:                  -0.341
REMARK UNBOUND:                -0.287
REMARK SMILES CCCCCCCC(=O)[O-]
REMARK SMILES IDX 5 1 6 2 7 3 8 4 9 5 10 6 4 7 3 8 2 9 1 10
REMARK H PARENT
REMARK Flexibility Score: inf
ROOT
ATOM      1  C   UNL     1       4.154 -10.549   6.888  1.00  0.00     0.000 C 
ENDROOT
BRANCH   1   2
ATOM      2  C   UNL     1       4.064  -9.658   5.637  1.00  0.00     0.006 C 
BRANCH   2   3
ATOM      3  C   UNL     1       4.509  -8.216   5.922  1.00  0.00     0.053 C 
BRANCH   3   4
ATOM      4  C   UNL     1       3.341  -7.309   6.159  1.00  0.00     0.041 C 
ATOM      5  O   UNL     1       3.528  -6.105   6.477  1.00  0.00    -0.550 OA
ATOM      6  O   UNL     1       2.046  -7.787   6.001  1.00  0.00    -0.550 OA
ENDBRANCH   3   4
ENDBRANCH   2   3
ENDBRANCH   1   2
BRANCH   1   7
ATOM      7  C   UNL     1       5.604 -10.904   7.256  1.00  0.00     0.000 C 
BRANCH   7   8
ATOM      8  C   UNL     1       6.017 -12.300   6.759  1.00  0.00    -0.000 C 
BRANCH   8   9
ATOM      9  C   UNL     1       4.811 -13.228   6.544  1.00  0.00    -0.003 C 
ATOM     10  C   UNL     1       4.755 -13.808   5.132  1.00  0.00     0.004 C 
ENDBRANCH   8   9
ENDBRANCH   7   8
ENDBRANCH   1   7
TORSDOF 6
ENDMDL
MODEL 7
REMARK VINA RESULT:    -3.833      1.244      1.430
REMARK INTER + INTRA:          -5.465
REMARK INTER:                  -5.015
REMARK INTRA:                  -0.449
REMARK UNBOUND:                -0.287
REMARK SMILES CCCCCCCC(=O)[O-]
REMARK SMILES IDX 5 1 6 2 7 3 8 4 9 5 10 6 4 7 3 8 2 9 1 10
REMARK H PARENT
REMARK Flexibility Score: inf
ROOT
ATOM      1  C   UNL     1       5.595 -11.116   7.247  1.00  0.00     0.000 C 
ENDROOT
BRANCH   1   2
ATOM      2  C   UNL     1       4.135 -10.776   6.905  1.00  0.00     0.006 C 
BRANCH   2   3
ATOM      3  C   UNL     1       4.032  -9.684   5.830  1.00  0.00     0.053 C 
BRANCH   3   4
ATOM      4  C   UNL     1       3.087 -10.068   4.733  1.00  0.00     0.041 C 
ATOM      5  O   UNL     1       1.903  -9.641   4.738  1.00  0.00    -0.550 OA
ATOM      6  O   UNL     1       3.524 -10.873   3.689  1.00  0.00    -0.550 OA
ENDBRANCH   3   4
ENDBRANCH   2   3
ENDBRANCH   1   2
BRANCH   1   7
ATOM      7  C   UNL     1       5.986 -12.539   6.816  1.00  0.00     0.000 C 
BRANCH   7   8
ATOM      8  C   UNL     1       4.770 -13.390   6.408  1.00  0.00    -0.000 C 
BRANCH   8   9
ATOM      9  C   UNL     1       4.849 -13.868   4.950  1.00  0.00    -0.003 C 
ATOM     10  C   UNL     1       3.513 -14.390   4.426  1.00  0.00     0.004 C 
ENDBRANCH   8   9
ENDBRANCH   7   8
ENDBRANCH   1   7
TORSDOF 6
ENDMDL
MODEL 8
REMARK VINA RESULT:    -3.810      3.125      4.931
REMARK INTER + INTRA:          -5.434
REMARK INTER:                  -5.231
REMARK INTRA:                  -0.203
REMARK UNBOUND:                -0.287
REMARK SMILES CCCCCCCC(=O)[O-]
REMARK SMILES IDX 5 1 6 2 7 3 8 4 9 5 10 6 4 7 3 8 2 9 1 10
REMARK H PARENT
REMARK Flexibility Score: inf
ROOT
ATOM      1  C   UNL     1       4.870 -14.171   4.095  1.00  0.00     0.000 C 
ENDROOT
BRANCH   1   2
ATOM      2  C   UNL     1       4.795 -13.147   2.950  1.00  0.00     0.006 C 
BRANCH   2   3
ATOM      3  C   UNL     1       5.918 -13.346   1.922  1.00  0.00     0.053 C 
BRANCH   3   4
ATOM      4  C   UNL     1       5.714 -12.501   0.703  1.00  0.00     0.041 C 
ATOM      5  O   UNL     1       6.506 -12.592  -0.271  1.00  0.00    -0.550 OA
ATOM      6  O   UNL     1       4.632 -11.633   0.631  1.00  0.00    -0.550 OA
ENDBRANCH   3   4
ENDBRANCH   2   3
ENDBRANCH   1   2
BRANCH   1   7
ATOM      7  C   UNL     1       4.267 -13.637   5.405  1.00  0.00     0.000 C 
BRANCH   7   8
ATOM      8  C   UNL     1       5.328 -13.410   6.496  1.00  0.00    -0.000 C 
BRANCH   8   9
ATOM      9  C   UNL     1       5.752 -11.938   6.606  1.00  0.00    -0.003 C 
ATOM     10  C   UNL     1       6.876 -11.720   7.618  1.00  0.00     0.004 C 
ENDBRANCH   8   9
ENDBRANCH   7   8
ENDBRANCH   1   7
TORSDOF 6
ENDMDL
MODEL 9
REMARK VINA RESULT:    -3.734      1.535      2.893
REMARK INTER + INTRA:          -5.330
REMARK INTER:                  -4.961
REMARK INTRA:                  -0.370
REMARK UNBOUND:                -0.287
REMARK SMILES CCCCCCCC(=O)[O-]
REMARK SMILES IDX 5 1 6 2 7 3 8 4 9 5 10 6 4 7 3 8 2 9 1 10
REMARK H PARENT
REMARK Flexibility Score: inf
ROOT
ATOM      1  C   UNL     1       4.392 -12.653   4.223  1.00  0.00     0.000 C 
ENDROOT
BRANCH   1   2
ATOM      2  C   UNL     1       3.078 -11.879   4.026  1.00  0.00     0.006 C 
BRANCH   2   3
ATOM      3  C   UNL     1       3.317 -10.375   3.830  1.00  0.00     0.053 C 
BRANCH   3   4
ATOM      4  C   UNL     1       3.404  -9.649   5.138  1.00  0.00     0.041 C 
ATOM      5  O   UNL     1       4.280  -8.763   5.314  1.00  0.00    -0.550 OA
ATOM      6  O   UNL     1       2.497  -9.932   6.151  1.00  0.00    -0.550 OA
ENDBRANCH   3   4
ENDBRANCH   2   3
ENDBRANCH   1   2
BRANCH   1   7
ATOM      7  C   UNL     1       4.287 -13.721   5.325  1.00  0.00     0.000 C 
BRANCH   7   8
ATOM      8  C   UNL     1       5.256 -13.465   6.492  1.00  0.00    -0.000 C 
BRANCH   8   9
ATOM      9  C   UNL     1       5.713 -11.999   6.566  1.00  0.00    -0.003 C 
ATOM     10  C   UNL     1       6.755 -11.760   7.658  1.00  0.00     0.004 C 
ENDBRANCH   8   9
ENDBRANCH   7   8
ENDBRANCH   1   7
TORSDOF 6
ENDMDL
