MODEL 1
REMARK VINA RESULT:    -3.143      0.000      0.000
REMARK INTER + INTRA:          -3.143
REMARK INTER:                  -3.143
REMARK INTRA:                   0.000
REMARK UNBOUND:                 0.000
REMARK SMILES CC(=O)[O-]
REMARK SMILES IDX 1 1 2 2 3 3 4 4
REMARK H PARENT
REMARK Flexibility Score: inf
ROOT
ATOM      1  C   UNL     1      -0.570   5.871  -1.123  1.00  0.00     0.063 C 
ATOM      2  C   UNL     1      -1.528   5.438  -2.180  1.00  0.00     0.038 C 
ATOM      3  O   UNL     1      -2.308   6.274  -2.707  1.00  0.00    -0.550 OA
ATOM      4  O   UNL     1      -1.601   4.100  -2.548  1.00  0.00    -0.550 OA
ENDROOT
TORSDOF 0
ENDMDL
MODEL 2
REMARK VINA RESULT:    -3.133      7.030      7.279
REMARK INTER + INTRA:          -3.133
REMARK INTER:                  -3.133
REMARK INTRA:                   0.000
REMARK UNBOUND:                 0.000
REMARK SMILES CC(=O)[O-]
REMARK SMILES IDX 1 1 2 2 3 3 4 4
REMARK H PARENT
REMARK Flexibility Score: inf
ROOT
ATOM      1  C   UNL     1      -3.863   8.318   4.866  1.00  0.00     0.063 C 
ATOM      2  C   UNL     1      -3.490   6.922   4.501  1.00  0.00     0.038 C 
ATOM      3  O   UNL     1      -4.250   5.965   4.803  1.00  0.00    -0.550 OA
ATOM      4  O   UNL     1      -2.276   6.666   3.875  1.00  0.00    -0.550 OA
ENDROOT
TORSDOF 0
ENDMDL
MODEL 3
REMARK VINA RESULT:    -3.095      1.568      1.865
REMARK INTER + INTRA:          -3.095
REMARK INTER:                  -3.095
REMARK INTRA:                   0.000
REMARK UNBOUND:                 0.000
REMARK SMILES CC(=O)[O-]
REMARK SMILES IDX 1 1 2 2 3 3 4 4
REMARK H PARENT
REMARK Flexibility Score: inf
ROOT
ATOM      1  C   UNL     1      -2.239   5.000  -2.235  1.00  0.00     0.063 C 
ATOM      2  C   UNL     1      -1.109   5.812  -1.699  1.00  0.00     0.038 C 
ATOM      3  O   UNL     1      -1.266   7.039  -1.468  1.00  0.00    -0.550 OA
ATOM      4  O   UNL     1       0.137   5.228  -1.505  1.00  0.00    -0.550 OA
ENDROOT
TORSDOF 0
ENDMDL
MODEL 4
REMARK VINA RESULT:    -2.969      7.786      8.029
REMARK INTER + INTRA:          -2.969
REMARK INTER:                  -2.969
REMARK INTRA:                   0.000
REMARK UNBOUND:                 0.000
REMARK SMILES CC(=O)[O-]
REMARK SMILES IDX 1 1 2 2 3 3 4 4
REMARK H PARENT
REMARK Flexibility Score: inf
ROOT
ATOM      1  C   UNL     1      -3.840   8.249   4.911  1.00  0.00     0.063 C 
ATOM      2  C   UNL     1      -4.057   6.792   5.139  1.00  0.00     0.038 C 
ATOM      3  O   UNL     1      -3.864   5.971   4.204  1.00  0.00    -0.550 OA
ATOM      4  O   UNL     1      -4.524   6.340   6.366  1.00  0.00    -0.550 OA
ENDROOT
TORSDOF 0
ENDMDL
MODEL 5
REMARK VINA RESULT:    -2.845      6.997      7.410
REMARK INTER + INTRA:          -2.845
REMARK INTER:                  -2.845
REMARK INTRA:                   0.000
REMARK UNBOUND:                 0.000
REMARK SMILES CC(=O)[O-]
REMARK SMILES IDX 1 1 2 2 3 3 4 4
REMARK H PARENT
REMARK Flexibility Score: inf
ROOT
ATOM      1  C   UNL     1      -3.926   6.026   5.475  1.00  0.00     0.063 C 
ATOM      2  C   UNL     1      -3.366   7.017   4.512  1.00  0.00     0.038 C 
ATOM      3  O   UNL     1      -2.327   6.743   3.856  1.00  0.00    -0.550 OA
ATOM      4  O   UNL     1      -3.958   8.266   4.375  1.00  0.00    -0.550 OA
ENDROOT
TORSDOF 0
ENDMDL
MODEL 6
REMARK VINA RESULT:    -2.697      8.270      8.652
REMARK INTER + INTRA:          -2.697
REMARK INTER:                  -2.697
REMARK INTRA:                   0.000
REMARK UNBOUND:                 0.000
REMARK SMILES CC(=O)[O-]
REMARK SMILES IDX 1 1 2 2 3 3 4 4
REMARK H PARENT
REMARK Flexibility Score: inf
ROOT
ATOM      1  C   UNL     1      -2.742   4.618   5.550  1.00  0.00     0.063 C 
ATOM      2  C   UNL     1      -2.368   3.243   5.986  1.00  0.00     0.038 C 
ATOM      3  O   UNL     1      -2.521   2.268   5.204  1.00  0.00    -0.550 OA
ATOM      4  O   UNL     1      -1.899   3.024   7.275  1.00  0.00    -0.550 OA
ENDROOT
TORSDOF 0
ENDMDL
MODEL 7
REMARK VINA RESULT:    -2.606      7.397      7.571
REMARK INTER + INTRA:          -2.606
REMARK INTER:                  -2.606
REMARK INTRA:                   0.000
REMARK UNBOUND:                 0.000
REMARK SMILES CC(=O)[O-]
REMARK SMILES IDX 1 1 2 2 3 3 4 4
REMARK H PARENT
REMARK Flexibility Score: inf
ROOT
ATOM      1  C   UNL     1      -4.284   6.414   5.733  1.00  0.00     0.063 C 
ATOM      2  C   UNL     1      -3.104   5.769   5.088  1.00  0.00     0.038 C 
ATOM      3  O   UNL     1      -2.454   6.383   4.202  1.00  0.00    -0.550 OA
ATOM      4  O   UNL     1      -2.752   4.468   5.424  1.00  0.00    -0.550 OA
ENDROOT
TORSDOF 0
ENDMDL
MODEL 8
REMARK VINA RESULT:    -2.565     11.624     12.117
REMARK INTER + INTRA:          -2.565
REMARK INTER:                  -2.565
REMARK INTRA:                   0.000
REMARK UNBOUND:                 0.000
REMARK SMILES CC(=O)[O-]
REMARK SMILES IDX 1 1 2 2 3 3 4 4
REMARK H PARENT
REMARK Flexibility Score: inf
ROOT
ATOM      1  C   UNL     1       0.151  -4.375  -6.438  1.00  0.00     0.063 C 
ATOM      2  C   UNL     1       1.103  -5.522  -6.397  1.00  0.00     0.038 C 
ATOM      3  O   UNL     1       2.344  -5.316  -6.453  1.00  0.00    -0.550 OA
ATOM      4  O   UNL     1       0.623  -6.825  -6.351  1.00  0.00    -0.550 OA
ENDROOT
TORSDOF 0
ENDMDL
MODEL 9
REMARK VINA RESULT:    -2.492     11.733     11.997
REMARK INTER + INTRA:          -2.492
REMARK INTER:                  -2.492
REMARK INTRA:                   0.000
REMARK UNBOUND:                 0.000
REMARK SMILES CC(=O)[O-]
REMARK SMILES IDX 1 1 2 2 3 3 4 4
REMARK H PARENT
REMARK Flexibility Score: inf
ROOT
ATOM      1  C   UNL     1       0.534  -4.912  -6.033  1.00  0.00     0.063 C 
ATOM      2  C   UNL     1       1.750  -4.965  -6.894  1.00  0.00     0.038 C 
ATOM      3  O   UNL     1       2.858  -5.304  -6.402  1.00  0.00    -0.550 OA
ATOM      4  O   UNL     1       1.675  -4.590  -8.229  1.00  0.00    -0.550 OA
ENDROOT
TORSDOF 0
ENDMDL
