MODEL 1
REMARK VINA RESULT:     4.025      0.000      0.000
REMARK INTER + INTRA:           5.009
REMARK INTER:                   4.849
REMARK INTRA:                   0.160
REMARK UNBOUND:                 0.160
REMARK SMILES CC[C@H](C)[C@H]([NH3+])C(=O)[O-]
REMARK SMILES IDX 3 1 4 2 5 3 6 4 7 8 8 9 9 10 2 11 1 12
REMARK H PARENT 6 5 6 6 6 7
REMARK Flexibility Score: inf
ROOT
ATOM      1  C   UNL     1      27.340  15.723  32.055  1.00  0.00     0.050 C 
ATOM      2  C   UNL     1      27.522  15.021  30.694  1.00  0.00     0.014 C 
ENDROOT
BRANCH   1   3
ATOM      3  C   UNL     1      26.767  14.775  33.155  1.00  0.00     0.230 C 
BRANCH   3   4
ATOM      4  N   UNL     1      26.441  13.443  32.622  1.00  0.00    -0.350 N 
ATOM      5  H   UNL     1      26.616  12.692  33.326  1.00  0.00     0.345 HD
ATOM      6  H   UNL     1      27.034  13.251  31.782  1.00  0.00     0.345 HD
ATOM      7  H   UNL     1      25.439  13.410  32.325  1.00  0.00     0.345 HD
ENDBRANCH   3   4
BRANCH   3   8
ATOM      8  C   UNL     1      25.582  15.371  33.877  1.00  0.00     0.099 C 
ATOM      9  O   UNL     1      25.742  16.069  34.912  1.00  0.00    -0.544 OA
ATOM     10  O   UNL     1      24.295  15.120  33.416  1.00  0.00    -0.544 OA
ENDBRANCH   3   8
ENDBRANCH   1   3
BRANCH   1  11
ATOM     11  C   UNL     1      26.460  16.991  31.917  1.00  0.00     0.006 C 
ATOM     12  C   UNL     1      27.175  18.144  31.208  1.00  0.00     0.004 C 
ENDBRANCH   1  11
TORSDOF 4
ENDMDL
MODEL 2
REMARK VINA RESULT:     4.235      7.054      8.308
REMARK INTER + INTRA:           5.261
REMARK INTER:                   5.093
REMARK INTRA:                   0.168
REMARK UNBOUND:                 0.160
REMARK SMILES CC[C@H](C)[C@H]([NH3+])C(=O)[O-]
REMARK SMILES IDX 3 1 4 2 5 3 6 4 7 8 8 9 9 10 2 11 1 12
REMARK H PARENT 6 5 6 6 6 7
REMARK Flexibility Score: inf
ROOT
ATOM      1  C   UNL     1      25.191  20.281  28.435  1.00  0.00     0.050 C 
ATOM      2  C   UNL     1      25.957  19.917  29.722  1.00  0.00     0.014 C 
ENDROOT
BRANCH   1   3
ATOM      3  C   UNL     1      26.079  21.030  27.392  1.00  0.00     0.230 C 
BRANCH   3   4
ATOM      4  N   UNL     1      26.660  22.263  27.944  1.00  0.00    -0.350 N 
ATOM      5  H   UNL     1      26.166  22.567  28.813  1.00  0.00     0.345 HD
ATOM      6  H   UNL     1      26.584  23.030  27.237  1.00  0.00     0.345 HD
ATOM      7  H   UNL     1      27.673  22.119  28.158  1.00  0.00     0.345 HD
ENDBRANCH   3   4
BRANCH   3   8
ATOM      8  C   UNL     1      25.347  21.310  26.101  1.00  0.00     0.099 C 
ATOM      9  O   UNL     1      24.350  20.622  25.761  1.00  0.00    -0.544 OA
ATOM     10  O   UNL     1      25.799  22.319  25.256  1.00  0.00    -0.544 OA
ENDBRANCH   3   8
ENDBRANCH   1   3
BRANCH   1  11
ATOM     11  C   UNL     1      23.917  21.103  28.755  1.00  0.00     0.006 C 
ATOM     12  C   UNL     1      22.823  20.275  29.433  1.00  0.00     0.004 C 
ENDBRANCH   1  11
TORSDOF 4
ENDMDL
MODEL 3
REMARK VINA RESULT:     4.476      1.721      1.951
REMARK INTER + INTRA:           5.552
REMARK INTER:                   4.195
REMARK INTRA:                   1.356
REMARK UNBOUND:                 0.160
REMARK SMILES CC[C@H](C)[C@H]([NH3+])C(=O)[O-]
REMARK SMILES IDX 3 1 4 2 5 3 6 4 7 8 8 9 9 10 2 11 1 12
REMARK H PARENT 6 5 6 6 6 7
REMARK Flexibility Score: inf
ROOT
ATOM      1  C   UNL     1      26.981  15.352  32.707  1.00  0.00     0.050 C 
ATOM      2  C   UNL     1      26.981  13.853  32.346  1.00  0.00     0.014 C 
ENDROOT
BRANCH   1   3
ATOM      3  C   UNL     1      25.736  15.774  33.549  1.00  0.00     0.230 C 
BRANCH   3   4
ATOM      4  N   UNL     1      26.093  16.109  34.935  1.00  0.00    -0.350 N 
ATOM      5  H   UNL     1      25.263  16.071  35.568  1.00  0.00     0.345 HD
ATOM      6  H   UNL     1      26.488  17.078  34.968  1.00  0.00     0.345 HD
ATOM      7  H   UNL     1      26.824  15.450  35.288  1.00  0.00     0.345 HD
ENDBRANCH   3   4
BRANCH   3   8
ATOM      8  C   UNL     1      24.633  14.743  33.511  1.00  0.00     0.099 C 
ATOM      9  O   UNL     1      24.871  13.555  33.166  1.00  0.00    -0.544 OA
ATOM     10  O   UNL     1      23.330  15.113  33.826  1.00  0.00    -0.544 OA
ENDBRANCH   3   8
ENDBRANCH   1   3
BRANCH   1  11
ATOM     11  C   UNL     1      27.106  16.233  31.438  1.00  0.00     0.006 C 
ATOM     12  C   UNL     1      26.959  17.728  31.729  1.00  0.00     0.004 C 
ENDBRANCH   1  11
TORSDOF 4
ENDMDL
MODEL 4
REMARK VINA RESULT:     4.480      2.377      3.616
REMARK INTER + INTRA:           5.556
REMARK INTER:                   5.595
REMARK INTRA:                  -0.039
REMARK UNBOUND:                 0.160
REMARK SMILES CC[C@H](C)[C@H]([NH3+])C(=O)[O-]
REMARK SMILES IDX 3 1 4 2 5 3 6 4 7 8 8 9 9 10 2 11 1 12
REMARK H PARENT 6 5 6 6 6 7
REMARK Flexibility Score: inf
ROOT
ATOM      1  C   UNL     1      26.526  15.529  33.066  1.00  0.00     0.050 C 
ATOM      2  C   UNL     1      25.106  15.345  33.639  1.00  0.00     0.014 C 
ENDROOT
BRANCH   1   3
ATOM      3  C   UNL     1      26.548  16.395  31.767  1.00  0.00     0.230 C 
BRANCH   3   4
ATOM      4  N   UNL     1      27.341  15.769  30.699  1.00  0.00    -0.350 N 
ATOM      5  H   UNL     1      28.276  16.223  30.594  1.00  0.00     0.345 HD
ATOM      6  H   UNL     1      26.830  15.856  29.790  1.00  0.00     0.345 HD
ATOM      7  H   UNL     1      27.475  14.751  30.898  1.00  0.00     0.345 HD
ENDBRANCH   3   4
BRANCH   3   8
ATOM      8  C   UNL     1      27.008  17.811  32.020  1.00  0.00     0.099 C 
ATOM      9  O   UNL     1      27.028  18.284  33.187  1.00  0.00    -0.544 OA
ATOM     10  O   UNL     1      27.382  18.617  30.951  1.00  0.00    -0.544 OA
ENDBRANCH   3   8
ENDBRANCH   1   3
BRANCH   1  11
ATOM     11  C   UNL     1      27.212  14.161  32.821  1.00  0.00     0.006 C 
ATOM     12  C   UNL     1      26.220  13.040  32.505  1.00  0.00     0.004 C 
ENDBRANCH   1  11
TORSDOF 4
ENDMDL
MODEL 5
REMARK VINA RESULT:     4.484      6.300      7.229
REMARK INTER + INTRA:           5.562
REMARK INTER:                   5.464
REMARK INTRA:                   0.098
REMARK UNBOUND:                 0.160
REMARK SMILES CC[C@H](C)[C@H]([NH3+])C(=O)[O-]
REMARK SMILES IDX 3 1 4 2 5 3 6 4 7 8 8 9 9 10 2 11 1 12
REMARK H PARENT 6 5 6 6 6 7
REMARK Flexibility Score: inf
ROOT
ATOM      1  C   UNL     1      25.581  21.508  27.924  1.00  0.00     0.050 C 
ATOM      2  C   UNL     1      27.053  21.913  28.141  1.00  0.00     0.014 C 
ENDROOT
BRANCH   1   3
ATOM      3  C   UNL     1      24.967  20.767  29.153  1.00  0.00     0.230 C 
BRANCH   3   4
ATOM      4  N   UNL     1      25.702  19.535  29.479  1.00  0.00    -0.350 N 
ATOM      5  H   UNL     1      25.098  18.688  29.386  1.00  0.00     0.345 HD
ATOM      6  H   UNL     1      26.046  19.587  30.466  1.00  0.00     0.345 HD
ATOM      7  H   UNL     1      26.533  19.435  28.853  1.00  0.00     0.345 HD
ENDBRANCH   3   4
BRANCH   3   8
ATOM      8  C   UNL     1      23.493  20.486  28.986  1.00  0.00     0.099 C 
ATOM      9  O   UNL     1      22.780  21.202  28.234  1.00  0.00    -0.544 OA
ATOM     10  O   UNL     1      22.903  19.446  29.696  1.00  0.00    -0.544 OA
ENDBRANCH   3   8
ENDBRANCH   1   3
BRANCH   1  11
ATOM     11  C   UNL     1      25.418  20.658  26.638  1.00  0.00     0.006 C 
ATOM     12  C   UNL     1      25.383  21.501  25.362  1.00  0.00     0.004 C 
ENDBRANCH   1  11
TORSDOF 4
ENDMDL
MODEL 6
REMARK VINA RESULT:     4.581      2.477      3.654
REMARK INTER + INTRA:           5.678
REMARK INTER:                   5.698
REMARK INTRA:                  -0.021
REMARK UNBOUND:                 0.160
REMARK SMILES CC[C@H](C)[C@H]([NH3+])C(=O)[O-]
REMARK SMILES IDX 3 1 4 2 5 3 6 4 7 8 8 9 9 10 2 11 1 12
REMARK H PARENT 6 5 6 6 6 7
REMARK Flexibility Score: inf
ROOT
ATOM      1  C   UNL     1      25.903  15.359  33.711  1.00  0.00     0.050 C 
ATOM      2  C   UNL     1      26.159  16.492  34.726  1.00  0.00     0.014 C 
ENDROOT
BRANCH   1   3
ATOM      3  C   UNL     1      27.022  15.249  32.629  1.00  0.00     0.230 C 
BRANCH   3   4
ATOM      4  N   UNL     1      26.940  16.331  31.637  1.00  0.00    -0.350 N 
ATOM      5  H   UNL     1      26.701  17.246  32.082  1.00  0.00     0.345 HD
ATOM      6  H   UNL     1      26.199  16.104  30.934  1.00  0.00     0.345 HD
ATOM      7  H   UNL     1      27.849  16.424  31.129  1.00  0.00     0.345 HD
ENDBRANCH   3   4
BRANCH   3   8
ATOM      8  C   UNL     1      27.046  13.899  31.953  1.00  0.00     0.099 C 
ATOM      9  O   UNL     1      26.458  12.910  32.464  1.00  0.00    -0.544 OA
ATOM     10  O   UNL     1      27.754  13.733  30.768  1.00  0.00    -0.544 OA
ENDBRANCH   3   8
ENDBRANCH   1   3
BRANCH   1  11
ATOM     11  C   UNL     1      24.512  15.511  33.044  1.00  0.00     0.006 C 
ATOM     12  C   UNL     1      23.389  14.839  33.837  1.00  0.00     0.004 C 
ENDBRANCH   1  11
TORSDOF 4
ENDMDL
MODEL 7
REMARK VINA RESULT:     4.868      1.404      2.258
REMARK INTER + INTRA:           6.024
REMARK INTER:                   6.102
REMARK INTRA:                  -0.078
REMARK UNBOUND:                 0.160
REMARK SMILES CC[C@H](C)[C@H]([NH3+])C(=O)[O-]
REMARK SMILES IDX 3 1 4 2 5 3 6 4 7 8 8 9 9 10 2 11 1 12
REMARK H PARENT 6 5 6 6 6 7
REMARK Flexibility Score: inf
ROOT
ATOM      1  C   UNL     1      25.923  15.833  33.345  1.00  0.00     0.050 C 
ATOM      2  C   UNL     1      26.370  16.517  34.653  1.00  0.00     0.014 C 
ENDROOT
BRANCH   1   3
ATOM      3  C   UNL     1      25.438  14.365  33.563  1.00  0.00     0.230 C 
BRANCH   3   4
ATOM      4  N   UNL     1      26.094  13.423  32.643  1.00  0.00    -0.350 N 
ATOM      5  H   UNL     1      26.012  12.437  32.978  1.00  0.00     0.345 HD
ATOM      6  H   UNL     1      27.109  13.662  32.567  1.00  0.00     0.345 HD
ATOM      7  H   UNL     1      25.672  13.498  31.690  1.00  0.00     0.345 HD
ENDBRANCH   3   4
BRANCH   3   8
ATOM      8  C   UNL     1      23.935  14.233  33.488  1.00  0.00     0.099 C 
ATOM      9  O   UNL     1      23.186  15.201  33.786  1.00  0.00    -0.544 OA
ATOM     10  O   UNL     1      23.366  13.019  33.120  1.00  0.00    -0.544 OA
ENDBRANCH   3   8
ENDBRANCH   1   3
BRANCH   1  11
ATOM     11  C   UNL     1      27.044  15.882  32.276  1.00  0.00     0.006 C 
ATOM     12  C   UNL     1      27.122  17.227  31.549  1.00  0.00     0.004 C 
ENDBRANCH   1  11
TORSDOF 4
ENDMDL
MODEL 8
REMARK VINA RESULT:     4.942      6.982      7.966
REMARK INTER + INTRA:           6.113
REMARK INTER:                   5.886
REMARK INTRA:                   0.227
REMARK UNBOUND:                 0.160
REMARK SMILES CC[C@H](C)[C@H]([NH3+])C(=O)[O-]
REMARK SMILES IDX 3 1 4 2 5 3 6 4 7 8 8 9 9 10 2 11 1 12
REMARK H PARENT 6 5 6 6 6 7
REMARK Flexibility Score: inf
ROOT
ATOM      1  C   UNL     1      26.623  21.685  26.788  1.00  0.00     0.050 C 
ATOM      2  C   UNL     1      26.263  22.720  25.703  1.00  0.00     0.014 C 
ENDROOT
BRANCH   1   3
ATOM      3  C   UNL     1      25.498  20.628  27.016  1.00  0.00     0.230 C 
BRANCH   3   4
ATOM      4  N   UNL     1      24.392  20.783  26.059  1.00  0.00    -0.350 N 
ATOM      5  H   UNL     1      23.970  21.738  26.107  1.00  0.00     0.345 HD
ATOM      6  H   UNL     1      23.645  20.082  26.274  1.00  0.00     0.345 HD
ATOM      7  H   UNL     1      24.730  20.606  25.086  1.00  0.00     0.345 HD
ENDBRANCH   3   4
BRANCH   3   8
ATOM      8  C   UNL     1      24.984  20.624  28.436  1.00  0.00     0.099 C 
ATOM      9  O   UNL     1      25.602  20.008  29.345  1.00  0.00    -0.544 OA
ATOM     10  O   UNL     1      23.796  21.278  28.743  1.00  0.00    -0.544 OA
ENDBRANCH   3   8
ENDBRANCH   1   3
BRANCH   1  11
ATOM     11  C   UNL     1      26.998  22.380  28.121  1.00  0.00     0.006 C 
ATOM     12  C   UNL     1      28.132  23.396  27.971  1.00  0.00     0.004 C 
ENDBRANCH   1  11
TORSDOF 4
ENDMDL
MODEL 9
REMARK VINA RESULT:     4.969      6.710      7.908
REMARK INTER + INTRA:           6.146
REMARK INTER:                   6.188
REMARK INTRA:                  -0.042
REMARK UNBOUND:                 0.160
REMARK SMILES CC[C@H](C)[C@H]([NH3+])C(=O)[O-]
REMARK SMILES IDX 3 1 4 2 5 3 6 4 7 8 8 9 9 10 2 11 1 12
REMARK H PARENT 6 5 6 6 6 7
REMARK Flexibility Score: inf
ROOT
ATOM      1  C   UNL     1      25.480  20.907  26.525  1.00  0.00     0.050 C 
ATOM      2  C   UNL     1      24.044  20.697  26.001  1.00  0.00     0.014 C 
ENDROOT
BRANCH   1   3
ATOM      3  C   UNL     1      25.518  21.512  27.963  1.00  0.00     0.230 C 
BRANCH   3   4
ATOM      4  N   UNL     1      26.865  21.972  28.334  1.00  0.00    -0.350 N 
ATOM      5  H   UNL     1      27.288  22.571  27.589  1.00  0.00     0.345 HD
ATOM      6  H   UNL     1      27.487  21.143  28.481  1.00  0.00     0.345 HD
ATOM      7  H   UNL     1      26.829  22.511  29.229  1.00  0.00     0.345 HD
ENDBRANCH   3   4
BRANCH   3   8
ATOM      8  C   UNL     1      24.965  20.570  29.006  1.00  0.00     0.099 C 
ATOM      9  O   UNL     1      25.702  19.709  29.555  1.00  0.00    -0.544 OA
ATOM     10  O   UNL     1      23.617  20.627  29.342  1.00  0.00    -0.544 OA
ENDBRANCH   3   8
ENDBRANCH   1   3
BRANCH   1  11
ATOM     11  C   UNL     1      26.311  21.774  25.546  1.00  0.00     0.006 C 
ATOM     12  C   UNL     1      25.446  22.647  24.634  1.00  0.00     0.004 C 
ENDBRANCH   1  11
TORSDOF 4
ENDMDL
