MODEL 1
REMARK VINA RESULT:    -3.792      0.000      0.000
REMARK INTER + INTRA:          -7.456
REMARK INTER:                  -6.008
REMARK INTRA:                  -1.448
REMARK UNBOUND:                -1.448
REMARK SMILES CCCCCCCCCCCC(=O)[O-]
REMARK SMILES IDX 7 1 8 2 9 3 10 4 11 5 12 6 13 7 14 8 6 9 5 10 4 11 3 12 2 13
REMARK SMILES IDX 1 14
REMARK H PARENT
REMARK Flexibility Score: inf
ROOT
ATOM      1  C   UNL     1     -13.180   3.835  18.297  1.00  0.00     0.000 C 
ENDROOT
BRANCH   1   2
ATOM      2  C   UNL     1     -12.841   3.545  16.827  1.00  0.00     0.000 C 
BRANCH   2   3
ATOM      3  C   UNL     1     -11.361   3.823  16.540  1.00  0.00     0.000 C 
BRANCH   3   4
ATOM      4  C   UNL     1     -10.748   2.709  15.678  1.00  0.00     0.006 C 
BRANCH   4   5
ATOM      5  C   UNL     1     -11.623   1.449  15.649  1.00  0.00     0.053 C 
BRANCH   5   6
ATOM      6  C   UNL     1     -11.284   0.566  14.488  1.00  0.00     0.041 C 
ATOM      7  O   UNL     1     -10.084   0.399  14.146  1.00  0.00    -0.550 OA
ATOM      8  O   UNL     1     -12.298  -0.049  13.763  1.00  0.00    -0.550 OA
ENDBRANCH   5   6
ENDBRANCH   4   5
ENDBRANCH   3   4
ENDBRANCH   2   3
ENDBRANCH   1   2
BRANCH   1   9
ATOM      9  C   UNL     1     -11.929   4.080  19.157  1.00  0.00     0.000 C 
BRANCH   9  10
ATOM     10  C   UNL     1     -11.844   3.134  20.363  1.00  0.00    -0.000 C 
BRANCH  10  11
ATOM     11  C   UNL     1     -11.552   1.695  19.912  1.00  0.00    -0.000 C 
BRANCH  11  12
ATOM     12  C   UNL     1     -10.070   1.317  20.057  1.00  0.00    -0.000 C 
BRANCH  12  13
ATOM     13  C   UNL     1      -9.304   1.405  18.729  1.00  0.00    -0.003 C 
ATOM     14  C   UNL     1      -8.464   2.678  18.662  1.00  0.00     0.004 C 
ENDBRANCH  12  13
ENDBRANCH  11  12
ENDBRANCH  10  11
ENDBRANCH   9  10
ENDBRANCH   1   9
TORSDOF 10
ENDMDL
MODEL 2
REMARK VINA RESULT:    -3.772      0.654      1.427
REMARK INTER + INTRA:          -7.425
REMARK INTER:                  -5.834
REMARK INTRA:                  -1.591
REMARK UNBOUND:                -1.448
REMARK SMILES CCCCCCCCCCCC(=O)[O-]
REMARK SMILES IDX 7 1 8 2 9 3 10 4 11 5 12 6 13 7 14 8 6 9 5 10 4 11 3 12 2 13
REMARK SMILES IDX 1 14
REMARK H PARENT
REMARK Flexibility Score: inf
ROOT
ATOM      1  C   UNL     1     -12.600   3.941  18.675  1.00  0.00     0.000 C 
ENDROOT
BRANCH   1   2
ATOM      2  C   UNL     1     -12.470   3.206  17.331  1.00  0.00     0.000 C 
BRANCH   2   3
ATOM      3  C   UNL     1     -11.474   3.920  16.411  1.00  0.00     0.000 C 
BRANCH   3   4
ATOM      4  C   UNL     1     -10.676   2.910  15.573  1.00  0.00     0.006 C 
BRANCH   4   5
ATOM      5  C   UNL     1     -11.239   1.487  15.687  1.00  0.00     0.053 C 
BRANCH   5   6
ATOM      6  C   UNL     1     -10.936   0.672  14.467  1.00  0.00     0.041 C 
ATOM      7  O   UNL     1     -11.873   0.226  13.753  1.00  0.00    -0.550 OA
ATOM      8  O   UNL     1      -9.619   0.379  14.137  1.00  0.00    -0.550 OA
ENDBRANCH   5   6
ENDBRANCH   4   5
ENDBRANCH   3   4
ENDBRANCH   2   3
ENDBRANCH   1   2
BRANCH   1   9
ATOM      9  C   UNL     1     -12.209   3.059  19.872  1.00  0.00     0.000 C 
BRANCH   9  10
ATOM     10  C   UNL     1     -11.534   1.747  19.447  1.00  0.00    -0.000 C 
BRANCH  10  11
ATOM     11  C   UNL     1     -10.071   1.706  19.916  1.00  0.00    -0.000 C 
BRANCH  11  12
ATOM     12  C   UNL     1      -9.073   1.738  18.749  1.00  0.00    -0.000 C 
BRANCH  12  13
ATOM     13  C   UNL     1      -8.473   3.133  18.522  1.00  0.00    -0.003 C 
ATOM     14  C   UNL     1      -8.574   3.988  19.781  1.00  0.00     0.004 C 
ENDBRANCH  12  13
ENDBRANCH  11  12
ENDBRANCH  10  11
ENDBRANCH   9  10
ENDBRANCH   1   9
TORSDOF 10
ENDMDL
MODEL 3
REMARK VINA RESULT:    -3.671      1.091      1.736
REMARK INTER + INTRA:          -7.264
REMARK INTER:                  -6.032
REMARK INTRA:                  -1.233
REMARK UNBOUND:                -1.448
REMARK SMILES CCCCCCCCCCCC(=O)[O-]
REMARK SMILES IDX 7 1 8 2 9 3 10 4 11 5 12 6 13 7 14 8 6 9 5 10 4 11 3 12 2 13
REMARK SMILES IDX 1 14
REMARK H PARENT
REMARK Flexibility Score: inf
ROOT
ATOM      1  C   UNL     1     -12.860   3.673  18.020  1.00  0.00     0.000 C 
ENDROOT
BRANCH   1   2
ATOM      2  C   UNL     1     -12.442   3.005  16.700  1.00  0.00     0.000 C 
BRANCH   2   3
ATOM      3  C   UNL     1     -11.313   3.789  16.022  1.00  0.00     0.000 C 
BRANCH   3   4
ATOM      4  C   UNL     1     -10.067   2.911  15.834  1.00  0.00     0.006 C 
BRANCH   4   5
ATOM      5  C   UNL     1     -10.391   1.414  15.933  1.00  0.00     0.053 C 
BRANCH   5   6
ATOM      6  C   UNL     1     -10.383   0.756  14.587  1.00  0.00     0.041 C 
ATOM      7  O   UNL     1      -9.297   0.561  13.981  1.00  0.00    -0.550 OA
ATOM      8  O   UNL     1     -11.581   0.385  13.989  1.00  0.00    -0.550 OA
ENDBRANCH   5   6
ENDBRANCH   4   5
ENDBRANCH   3   4
ENDBRANCH   2   3
ENDBRANCH   1   2
BRANCH   1   9
ATOM      9  C   UNL     1     -12.096   3.117  19.232  1.00  0.00     0.000 C 
BRANCH   9  10
ATOM     10  C   UNL     1     -10.803   3.891  19.525  1.00  0.00    -0.000 C 
BRANCH  10  11
ATOM     11  C   UNL     1      -9.633   2.928  19.776  1.00  0.00    -0.000 C 
BRANCH  11  12
ATOM     12  C   UNL     1     -10.041   1.453  19.649  1.00  0.00    -0.000 C 
BRANCH  12  13
ATOM     13  C   UNL     1      -9.976   0.703  20.988  1.00  0.00    -0.003 C 
ATOM     14  C   UNL     1     -11.203  -0.183  21.182  1.00  0.00     0.004 C 
ENDBRANCH  12  13
ENDBRANCH  11  12
ENDBRANCH  10  11
ENDBRANCH   9  10
ENDBRANCH   1   9
TORSDOF 10
ENDMDL
MODEL 4
REMARK VINA RESULT:    -3.658      3.002      5.359
REMARK INTER + INTRA:          -7.244
REMARK INTER:                  -5.822
REMARK INTRA:                  -1.422
REMARK UNBOUND:                -1.448
REMARK SMILES CCCCCCCCCCCC(=O)[O-]
REMARK SMILES IDX 7 1 8 2 9 3 10 4 11 5 12 6 13 7 14 8 6 9 5 10 4 11 3 12 2 13
REMARK SMILES IDX 1 14
REMARK H PARENT
REMARK Flexibility Score: inf
ROOT
ATOM      1  C   UNL     1      -9.586   1.740  17.797  1.00  0.00     0.000 C 
ENDROOT
BRANCH   1   2
ATOM      2  C   UNL     1      -9.114   2.709  18.893  1.00  0.00     0.000 C 
BRANCH   2   3
ATOM      3  C   UNL     1      -9.816   2.417  20.224  1.00  0.00     0.000 C 
BRANCH   3   4
ATOM      4  C   UNL     1     -10.651   1.130  20.135  1.00  0.00     0.006 C 
BRANCH   4   5
ATOM      5  C   UNL     1     -10.409   0.198  21.330  1.00  0.00     0.053 C 
BRANCH   5   6
ATOM      6  C   UNL     1      -9.188  -0.646  21.137  1.00  0.00     0.041 C 
ATOM      7  O   UNL     1      -8.788  -0.929  19.976  1.00  0.00    -0.550 OA
ATOM      8  O   UNL     1      -8.507  -1.147  22.240  1.00  0.00    -0.550 OA
ENDBRANCH   5   6
ENDBRANCH   4   5
ENDBRANCH   3   4
ENDBRANCH   2   3
ENDBRANCH   1   2
BRANCH   1   9
ATOM      9  C   UNL     1      -9.637   2.397  16.408  1.00  0.00     0.000 C 
BRANCH   9  10
ATOM     10  C   UNL     1     -11.013   2.267  15.741  1.00  0.00    -0.000 C 
BRANCH  10  11
ATOM     11  C   UNL     1     -12.130   2.205  16.794  1.00  0.00    -0.000 C 
BRANCH  11  12
ATOM     12  C   UNL     1     -12.864   3.544  16.959  1.00  0.00    -0.000 C 
BRANCH  12  13
ATOM     13  C   UNL     1     -12.454   4.291  18.237  1.00  0.00    -0.003 C 
ATOM     14  C   UNL     1     -13.309   3.861  19.425  1.00  0.00     0.004 C 
ENDBRANCH  12  13
ENDBRANCH  11  12
ENDBRANCH  10  11
ENDBRANCH   9  10
ENDBRANCH   1   9
TORSDOF 10
ENDMDL
MODEL 5
REMARK VINA RESULT:    -3.572      0.880      2.970
REMARK INTER + INTRA:          -7.109
REMARK INTER:                  -5.761
REMARK INTRA:                  -1.347
REMARK UNBOUND:                -1.448
REMARK SMILES CCCCCCCCCCCC(=O)[O-]
REMARK SMILES IDX 7 1 8 2 9 3 10 4 11 5 12 6 13 7 14 8 6 9 5 10 4 11 3 12 2 13
REMARK SMILES IDX 1 14
REMARK H PARENT
REMARK Flexibility Score: inf
ROOT
ATOM      1  C   UNL     1      -9.360   1.300  19.143  1.00  0.00     0.000 C 
ENDROOT
BRANCH   1   2
ATOM      2  C   UNL     1      -8.703   2.565  18.570  1.00  0.00     0.000 C 
BRANCH   2   3
ATOM      3  C   UNL     1      -9.243   2.879  17.171  1.00  0.00     0.000 C 
BRANCH   3   4
ATOM      4  C   UNL     1      -9.881   1.636  16.534  1.00  0.00     0.006 C 
BRANCH   4   5
ATOM      5  C   UNL     1     -10.246   1.860  15.061  1.00  0.00     0.053 C 
BRANCH   5   6
ATOM      6  C   UNL     1     -10.425   0.564  14.331  1.00  0.00     0.041 C 
ATOM      7  O   UNL     1      -9.429  -0.161  14.071  1.00  0.00    -0.550 OA
ATOM      8  O   UNL     1     -11.690   0.172  13.911  1.00  0.00    -0.550 OA
ENDBRANCH   5   6
ENDBRANCH   4   5
ENDBRANCH   3   4
ENDBRANCH   2   3
ENDBRANCH   1   2
BRANCH   1   9
ATOM      9  C   UNL     1     -10.201   1.585  20.398  1.00  0.00     0.000 C 
BRANCH   9  10
ATOM     10  C   UNL     1     -11.710   1.566  20.118  1.00  0.00    -0.000 C 
BRANCH  10  11
ATOM     11  C   UNL     1     -12.342   2.932  20.427  1.00  0.00    -0.000 C 
BRANCH  11  12
ATOM     12  C   UNL     1     -12.144   3.947  19.291  1.00  0.00    -0.000 C 
BRANCH  12  13
ATOM     13  C   UNL     1     -12.916   3.571  18.018  1.00  0.00    -0.003 C 
ATOM     14  C   UNL     1     -12.437   4.387  16.822  1.00  0.00     0.004 C 
ENDBRANCH  12  13
ENDBRANCH  11  12
ENDBRANCH  10  11
ENDBRANCH   9  10
ENDBRANCH   1   9
TORSDOF 10
ENDMDL
MODEL 6
REMARK VINA RESULT:    -3.537      1.260      2.250
REMARK INTER + INTRA:          -7.052
REMARK INTER:                  -5.920
REMARK INTRA:                  -1.132
REMARK UNBOUND:                -1.448
REMARK SMILES CCCCCCCCCCCC(=O)[O-]
REMARK SMILES IDX 7 1 8 2 9 3 10 4 11 5 12 6 13 7 14 8 6 9 5 10 4 11 3 12 2 13
REMARK SMILES IDX 1 14
REMARK H PARENT
REMARK Flexibility Score: inf
ROOT
ATOM      1  C   UNL     1     -11.236   4.204  16.261  1.00  0.00     0.000 C 
ENDROOT
BRANCH   1   2
ATOM      2  C   UNL     1     -10.076   3.271  16.646  1.00  0.00     0.000 C 
BRANCH   2   3
ATOM      3  C   UNL     1      -9.570   2.493  15.427  1.00  0.00     0.000 C 
BRANCH   3   4
ATOM      4  C   UNL     1     -10.043   1.033  15.470  1.00  0.00     0.006 C 
BRANCH   4   5
ATOM      5  C   UNL     1     -10.575   0.554  14.112  1.00  0.00     0.053 C 
BRANCH   5   6
ATOM      6  C   UNL     1     -11.990   0.072  14.210  1.00  0.00     0.041 C 
ATOM      7  O   UNL     1     -12.461  -0.696  13.330  1.00  0.00    -0.550 OA
ATOM      8  O   UNL     1     -12.797   0.496  15.257  1.00  0.00    -0.550 OA
ENDBRANCH   5   6
ENDBRANCH   4   5
ENDBRANCH   3   4
ENDBRANCH   2   3
ENDBRANCH   1   2
BRANCH   1   9
ATOM      9  C   UNL     1     -12.593   3.710  16.789  1.00  0.00     0.000 C 
BRANCH   9  10
ATOM     10  C   UNL     1     -12.452   2.724  17.956  1.00  0.00    -0.000 C 
BRANCH  10  11
ATOM     11  C   UNL     1     -12.403   3.468  19.300  1.00  0.00    -0.000 C 
BRANCH  11  12
ATOM     12  C   UNL     1     -11.377   2.869  20.273  1.00  0.00    -0.000 C 
BRANCH  12  13
ATOM     13  C   UNL     1     -11.075   1.392  19.980  1.00  0.00    -0.003 C 
ATOM     14  C   UNL     1      -9.597   1.186  19.661  1.00  0.00     0.004 C 
ENDBRANCH  12  13
ENDBRANCH  11  12
ENDBRANCH  10  11
ENDBRANCH   9  10
ENDBRANCH   1   9
TORSDOF 10
ENDMDL
MODEL 7
REMARK VINA RESULT:    -3.502      3.066      4.734
REMARK INTER + INTRA:          -6.997
REMARK INTER:                  -5.340
REMARK INTRA:                  -1.656
REMARK UNBOUND:                -1.448
REMARK SMILES CCCCCCCCCCCC(=O)[O-]
REMARK SMILES IDX 7 1 8 2 9 3 10 4 11 5 12 6 13 7 14 8 6 9 5 10 4 11 3 12 2 13
REMARK SMILES IDX 1 14
REMARK H PARENT
REMARK Flexibility Score: inf
ROOT
ATOM      1  C   UNL     1      -9.815   4.872  18.126  1.00  0.00     0.000 C 
ENDROOT
BRANCH   1   2
ATOM      2  C   UNL     1      -9.486   3.849  19.225  1.00  0.00     0.000 C 
BRANCH   2   3
ATOM      3  C   UNL     1      -8.693   2.668  18.656  1.00  0.00     0.000 C 
BRANCH   3   4
ATOM      4  C   UNL     1      -9.417   1.339  18.920  1.00  0.00     0.006 C 
BRANCH   4   5
ATOM      5  C   UNL     1     -10.702   1.530  19.736  1.00  0.00     0.053 C 
BRANCH   5   6
ATOM      6  C   UNL     1     -10.671   0.745  21.012  1.00  0.00     0.041 C 
ATOM      7  O   UNL     1      -9.904   1.089  21.950  1.00  0.00    -0.550 OA
ATOM      8  O   UNL     1     -11.466  -0.385  21.152  1.00  0.00    -0.550 OA
ENDBRANCH   5   6
ENDBRANCH   4   5
ENDBRANCH   3   4
ENDBRANCH   2   3
ENDBRANCH   1   2
BRANCH   1   9
ATOM      9  C   UNL     1     -11.325   5.124  17.984  1.00  0.00     0.000 C 
BRANCH   9  10
ATOM     10  C   UNL     1     -11.910   4.512  16.704  1.00  0.00    -0.000 C 
BRANCH  10  11
ATOM     11  C   UNL     1     -12.552   3.146  16.993  1.00  0.00    -0.000 C 
BRANCH  11  12
ATOM     12  C   UNL     1     -12.028   2.036  16.068  1.00  0.00    -0.000 C 
BRANCH  12  13
ATOM     13  C   UNL     1     -10.648   2.361  15.477  1.00  0.00    -0.003 C 
ATOM     14  C   UNL     1      -9.858   1.087  15.195  1.00  0.00     0.004 C 
ENDBRANCH  12  13
ENDBRANCH  11  12
ENDBRANCH  10  11
ENDBRANCH   9  10
ENDBRANCH   1   9
TORSDOF 10
ENDMDL
MODEL 8
REMARK VINA RESULT:    -3.470      1.651      2.684
REMARK INTER + INTRA:          -6.947
REMARK INTER:                  -6.096
REMARK INTRA:                  -0.851
REMARK UNBOUND:                -1.448
REMARK SMILES CCCCCCCCCCCC(=O)[O-]
REMARK SMILES IDX 7 1 8 2 9 3 10 4 11 5 12 6 13 7 14 8 6 9 5 10 4 11 3 12 2 13
REMARK SMILES IDX 1 14
REMARK H PARENT
REMARK Flexibility Score: inf
ROOT
ATOM      1  C   UNL     1      -9.536   2.283  19.600  1.00  0.00     0.000 C 
ENDROOT
BRANCH   1   2
ATOM      2  C   UNL     1      -8.808   2.549  18.273  1.00  0.00     0.000 C 
BRANCH   2   3
ATOM      3  C   UNL     1      -9.770   3.115  17.223  1.00  0.00     0.000 C 
BRANCH   3   4
ATOM      4  C   UNL     1      -9.661   2.341  15.901  1.00  0.00     0.006 C 
BRANCH   4   5
ATOM      5  C   UNL     1     -10.976   1.646  15.525  1.00  0.00     0.053 C 
BRANCH   5   6
ATOM      6  C   UNL     1     -10.781   0.651  14.422  1.00  0.00     0.041 C 
ATOM      7  O   UNL     1      -9.621   0.285  14.095  1.00  0.00    -0.550 OA
ATOM      8  O   UNL     1     -11.880   0.151  13.735  1.00  0.00    -0.550 OA
ENDBRANCH   5   6
ENDBRANCH   4   5
ENDBRANCH   3   4
ENDBRANCH   2   3
ENDBRANCH   1   2
BRANCH   1   9
ATOM      9  C   UNL     1     -10.960   1.739  19.396  1.00  0.00     0.000 C 
BRANCH   9  10
ATOM     10  C   UNL     1     -11.724   1.566  20.716  1.00  0.00    -0.000 C 
BRANCH  10  11
ATOM     11  C   UNL     1     -11.416   0.202  21.353  1.00  0.00    -0.000 C 
BRANCH  11  12
ATOM     12  C   UNL     1     -10.487   0.313  22.572  1.00  0.00    -0.000 C 
BRANCH  12  13
ATOM     13  C   UNL     1      -9.162  -0.437  22.376  1.00  0.00    -0.003 C 
ATOM     14  C   UNL     1      -9.114  -1.126  21.016  1.00  0.00     0.004 C 
ENDBRANCH  12  13
ENDBRANCH  11  12
ENDBRANCH  10  11
ENDBRANCH   9  10
ENDBRANCH   1   9
TORSDOF 10
ENDMDL
MODEL 9
REMARK VINA RESULT:    -3.453      1.291      2.673
REMARK INTER + INTRA:          -6.919
REMARK INTER:                  -5.374
REMARK INTRA:                  -1.545
REMARK UNBOUND:                -1.448
REMARK SMILES CCCCCCCCCCCC(=O)[O-]
REMARK SMILES IDX 7 1 8 2 9 3 10 4 11 5 12 6 13 7 14 8 6 9 5 10 4 11 3 12 2 13
REMARK SMILES IDX 1 14
REMARK H PARENT
REMARK Flexibility Score: inf
ROOT
ATOM      1  C   UNL     1     -10.687   4.769  18.332  1.00  0.00     0.000 C 
ENDROOT
BRANCH   1   2
ATOM      2  C   UNL     1     -12.088   4.700  18.959  1.00  0.00     0.000 C 
BRANCH   2   3
ATOM      3  C   UNL     1     -12.977   3.704  18.206  1.00  0.00     0.000 C 
BRANCH   3   4
ATOM      4  C   UNL     1     -12.485   3.505  16.765  1.00  0.00     0.006 C 
BRANCH   4   5
ATOM      5  C   UNL     1     -12.313   2.022  16.409  1.00  0.00     0.053 C 
BRANCH   5   6
ATOM      6  C   UNL     1     -11.160   1.807  15.476  1.00  0.00     0.041 C 
ATOM      7  O   UNL     1     -11.018   0.703  14.887  1.00  0.00    -0.550 OA
ATOM      8  O   UNL     1     -10.225   2.816  15.283  1.00  0.00    -0.550 OA
ENDBRANCH   5   6
ENDBRANCH   4   5
ENDBRANCH   3   4
ENDBRANCH   2   3
ENDBRANCH   1   2
BRANCH   1   9
ATOM      9  C   UNL     1      -9.611   4.114  19.214  1.00  0.00     0.000 C 
BRANCH   9  10
ATOM     10  C   UNL     1      -8.868   2.978  18.497  1.00  0.00    -0.000 C 
BRANCH  10  11
ATOM     11  C   UNL     1      -9.482   1.613  18.847  1.00  0.00    -0.000 C 
BRANCH  11  12
ATOM     12  C   UNL     1     -10.024   1.558  20.284  1.00  0.00    -0.000 C 
BRANCH  12  13
ATOM     13  C   UNL     1     -11.467   1.038  20.353  1.00  0.00    -0.003 C 
ATOM     14  C   UNL     1     -11.810   0.555  21.759  1.00  0.00     0.004 C 
ENDBRANCH  12  13
ENDBRANCH  11  12
ENDBRANCH  10  11
ENDBRANCH   9  10
ENDBRANCH   1   9
TORSDOF 10
ENDMDL
