MODEL 1
REMARK VINA RESULT:    -2.805      0.000      0.000
REMARK INTER + INTRA:          -5.839
REMARK INTER:                  -4.527
REMARK INTRA:                  -1.311
REMARK UNBOUND:                -1.311
REMARK SMILES CCCCCCCCCCCCO
REMARK SMILES IDX 7 1 6 2 5 3 4 4 3 5 2 6 1 7 8 8 9 9 10 10 11 11 12 12 13 13
REMARK H PARENT 13 14
REMARK Flexibility Score: inf
ROOT
ATOM      1  C   UNL     1     153.905 141.873 139.845  1.00  0.00     0.000 C 
ENDROOT
BRANCH   1   2
ATOM      2  C   UNL     1     152.712 141.430 138.983  1.00  0.00    -0.000 C 
BRANCH   2   3
ATOM      3  C   UNL     1     151.376 142.005 139.485  1.00  0.00    -0.000 C 
BRANCH   3   4
ATOM      4  C   UNL     1     150.597 142.739 138.384  1.00  0.00    -0.000 C 
BRANCH   4   5
ATOM      5  C   UNL     1     150.476 144.248 138.651  1.00  0.00    -0.000 C 
BRANCH   5   6
ATOM      6  C   UNL     1     150.769 144.569 140.120  1.00  0.00    -0.003 C 
ATOM      7  C   UNL     1     151.736 145.743 140.246  1.00  0.00     0.004 C 
ENDBRANCH   5   6
ENDBRANCH   4   5
ENDBRANCH   3   4
ENDBRANCH   2   3
ENDBRANCH   1   2
BRANCH   1   8
ATOM      8  C   UNL     1     154.382 143.297 139.504  1.00  0.00     0.000 C 
BRANCH   8   9
ATOM      9  C   UNL     1     154.441 143.555 137.989  1.00  0.00     0.000 C 
BRANCH   9  10
ATOM     10  C   UNL     1     154.847 144.999 137.652  1.00  0.00     0.002 C 
BRANCH  10  11
ATOM     11  C   UNL     1     155.286 145.801 138.890  1.00  0.00     0.028 C 
BRANCH  11  12
ATOM     12  C   UNL     1     156.348 146.866 138.587  1.00  0.00     0.156 C 
BRANCH  12  13
ATOM     13  O   UNL     1     157.272 146.943 139.636  1.00  0.00    -0.396 OA
ATOM     14  H   UNL     1     157.522 146.007 139.851  1.00  0.00     0.210 HD
ENDBRANCH  12  13
ENDBRANCH  11  12
ENDBRANCH  10  11
ENDBRANCH   9  10
ENDBRANCH   8   9
ENDBRANCH   1   8
TORSDOF 11
ENDMDL
MODEL 2
REMARK VINA RESULT:    -2.644     12.444     14.482
REMARK INTER + INTRA:          -5.578
REMARK INTER:                  -4.292
REMARK INTRA:                  -1.286
REMARK UNBOUND:                -1.311
REMARK SMILES CCCCCCCCCCCCO
REMARK SMILES IDX 7 1 6 2 5 3 4 4 3 5 2 6 1 7 8 8 9 9 10 10 11 11 12 12 13 13
REMARK H PARENT 13 14
REMARK Flexibility Score: inf
ROOT
ATOM      1  C   UNL     1     146.143 155.675 138.653  1.00  0.00     0.000 C 
ENDROOT
BRANCH   1   2
ATOM      2  C   UNL     1     146.913 154.664 137.789  1.00  0.00    -0.000 C 
BRANCH   2   3
ATOM      3  C   UNL     1     148.146 155.286 137.112  1.00  0.00    -0.000 C 
BRANCH   3   4
ATOM      4  C   UNL     1     149.439 155.052 137.909  1.00  0.00    -0.000 C 
BRANCH   4   5
ATOM      5  C   UNL     1     150.168 156.360 138.251  1.00  0.00    -0.000 C 
BRANCH   5   6
ATOM      6  C   UNL     1     150.527 156.415 139.739  1.00  0.00    -0.003 C 
ATOM      7  C   UNL     1     149.515 155.642 140.580  1.00  0.00     0.004 C 
ENDBRANCH   5   6
ENDBRANCH   4   5
ENDBRANCH   3   4
ENDBRANCH   2   3
ENDBRANCH   1   2
BRANCH   1   8
ATOM      8  C   UNL     1     146.490 157.134 138.302  1.00  0.00     0.000 C 
BRANCH   8   9
ATOM      9  C   UNL     1     146.944 157.946 139.526  1.00  0.00     0.000 C 
BRANCH   9  10
ATOM     10  C   UNL     1     147.539 159.311 139.140  1.00  0.00     0.002 C 
BRANCH  10  11
ATOM     11  C   UNL     1     147.577 160.302 140.317  1.00  0.00     0.028 C 
BRANCH  11  12
ATOM     12  C   UNL     1     148.977 160.857 140.608  1.00  0.00     0.156 C 
BRANCH  12  13
ATOM     13  O   UNL     1     149.932 159.837 140.521  1.00  0.00    -0.396 OA
ATOM     14  H   UNL     1     149.769 159.380 139.655  1.00  0.00     0.210 HD
ENDBRANCH  12  13
ENDBRANCH  11  12
ENDBRANCH  10  11
ENDBRANCH   9  10
ENDBRANCH   8   9
ENDBRANCH   1   8
TORSDOF 11
ENDMDL
MODEL 3
REMARK VINA RESULT:    -2.633      7.929     10.723
REMARK INTER + INTRA:          -5.561
REMARK INTER:                  -4.319
REMARK INTRA:                  -1.242
REMARK UNBOUND:                -1.311
REMARK SMILES CCCCCCCCCCCCO
REMARK SMILES IDX 7 1 6 2 5 3 4 4 3 5 2 6 1 7 8 8 9 9 10 10 11 11 12 12 13 13
REMARK H PARENT 13 14
REMARK Flexibility Score: inf
ROOT
ATOM      1  C   UNL     1     158.498 154.389 140.268  1.00  0.00     0.000 C 
ENDROOT
BRANCH   1   2
ATOM      2  C   UNL     1     160.002 154.069 140.256  1.00  0.00    -0.000 C 
BRANCH   2   3
ATOM      3  C   UNL     1     160.371 153.009 139.204  1.00  0.00    -0.000 C 
BRANCH   3   4
ATOM      4  C   UNL     1     160.224 151.574 139.735  1.00  0.00    -0.000 C 
BRANCH   4   5
ATOM      5  C   UNL     1     159.812 150.578 138.640  1.00  0.00    -0.000 C 
BRANCH   5   6
ATOM      6  C   UNL     1     159.648 151.285 137.290  1.00  0.00    -0.003 C 
ATOM      7  C   UNL     1     158.244 151.081 136.728  1.00  0.00     0.004 C 
ENDBRANCH   5   6
ENDBRANCH   4   5
ENDBRANCH   3   4
ENDBRANCH   2   3
ENDBRANCH   1   2
BRANCH   1   8
ATOM      8  C   UNL     1     157.850 154.220 138.882  1.00  0.00     0.000 C 
BRANCH   8   9
ATOM      9  C   UNL     1     156.313 154.232 138.940  1.00  0.00     0.000 C 
BRANCH   9  10
ATOM     10  C   UNL     1     155.707 152.824 138.817  1.00  0.00     0.002 C 
BRANCH  10  11
ATOM     11  C   UNL     1     155.759 152.034 140.136  1.00  0.00     0.028 C 
BRANCH  11  12
ATOM     12  C   UNL     1     156.577 150.739 140.044  1.00  0.00     0.156 C 
BRANCH  12  13
ATOM     13  O   UNL     1     156.882 150.264 141.326  1.00  0.00    -0.396 OA
ATOM     14  H   UNL     1     156.181 150.627 141.927  1.00  0.00     0.210 HD
ENDBRANCH  12  13
ENDBRANCH  11  12
ENDBRANCH  10  11
ENDBRANCH   9  10
ENDBRANCH   8   9
ENDBRANCH   1   8
TORSDOF 11
ENDMDL
MODEL 4
REMARK VINA RESULT:    -2.616     13.004     14.858
REMARK INTER + INTRA:          -5.534
REMARK INTER:                  -4.017
REMARK INTRA:                  -1.517
REMARK UNBOUND:                -1.311
REMARK SMILES CCCCCCCCCCCCO
REMARK SMILES IDX 7 1 6 2 5 3 4 4 3 5 2 6 1 7 8 8 9 9 10 10 11 11 12 12 13 13
REMARK H PARENT 13 14
REMARK Flexibility Score: inf
ROOT
ATOM      1  C   UNL     1     150.639 156.928 140.030  1.00  0.00     0.000 C 
ENDROOT
BRANCH   1   2
ATOM      2  C   UNL     1     149.694 155.718 139.954  1.00  0.00    -0.000 C 
BRANCH   2   3
ATOM      3  C   UNL     1     148.212 156.123 140.042  1.00  0.00    -0.000 C 
BRANCH   3   4
ATOM      4  C   UNL     1     147.453 155.877 138.729  1.00  0.00    -0.000 C 
BRANCH   4   5
ATOM      5  C   UNL     1     146.443 156.990 138.413  1.00  0.00    -0.000 C 
BRANCH   5   6
ATOM      6  C   UNL     1     146.632 157.513 136.985  1.00  0.00    -0.003 C 
ATOM      7  C   UNL     1     147.974 157.070 136.408  1.00  0.00     0.004 C 
ENDBRANCH   5   6
ENDBRANCH   4   5
ENDBRANCH   3   4
ENDBRANCH   2   3
ENDBRANCH   1   2
BRANCH   1   8
ATOM      8  C   UNL     1     150.966 157.508 138.642  1.00  0.00     0.000 C 
BRANCH   8   9
ATOM      9  C   UNL     1     150.433 158.939 138.456  1.00  0.00     0.000 C 
BRANCH   9  10
ATOM     10  C   UNL     1     149.569 159.404 139.641  1.00  0.00     0.002 C 
BRANCH  10  11
ATOM     11  C   UNL     1     148.297 160.148 139.198  1.00  0.00     0.028 C 
BRANCH  11  12
ATOM     12  C   UNL     1     147.368 160.521 140.360  1.00  0.00     0.156 C 
BRANCH  12  13
ATOM     13  O   UNL     1     146.881 159.366 140.985  1.00  0.00    -0.396 OA
ATOM     14  H   UNL     1     146.009 159.617 141.386  1.00  0.00     0.210 HD
ENDBRANCH  12  13
ENDBRANCH  11  12
ENDBRANCH  10  11
ENDBRANCH   9  10
ENDBRANCH   8   9
ENDBRANCH   1   8
TORSDOF 11
ENDMDL
MODEL 5
REMARK VINA RESULT:    -2.615      3.194      4.414
REMARK INTER + INTRA:          -5.532
REMARK INTER:                  -5.043
REMARK INTRA:                  -0.489
REMARK UNBOUND:                -1.311
REMARK SMILES CCCCCCCCCCCCO
REMARK SMILES IDX 7 1 6 2 5 3 4 4 3 5 2 6 1 7 8 8 9 9 10 10 11 11 12 12 13 13
REMARK H PARENT 13 14
REMARK Flexibility Score: inf
ROOT
ATOM      1  C   UNL     1     150.644 144.656 140.058  1.00  0.00     0.000 C 
ENDROOT
BRANCH   1   2
ATOM      2  C   UNL     1     150.213 144.702 138.583  1.00  0.00    -0.000 C 
BRANCH   2   3
ATOM      3  C   UNL     1     148.779 144.187 138.372  1.00  0.00    -0.000 C 
BRANCH   3   4
ATOM      4  C   UNL     1     147.814 145.294 137.919  1.00  0.00    -0.000 C 
BRANCH   4   5
ATOM      5  C   UNL     1     146.501 145.297 138.717  1.00  0.00    -0.000 C 
BRANCH   5   6
ATOM      6  C   UNL     1     145.537 146.361 138.182  1.00  0.00    -0.003 C 
ATOM      7  C   UNL     1     144.329 146.523 139.101  1.00  0.00     0.004 C 
ENDBRANCH   5   6
ENDBRANCH   4   5
ENDBRANCH   3   4
ENDBRANCH   2   3
ENDBRANCH   1   2
BRANCH   1   8
ATOM      8  C   UNL     1     151.959 145.416 140.312  1.00  0.00     0.000 C 
BRANCH   8   9
ATOM      9  C   UNL     1     152.872 145.450 139.075  1.00  0.00     0.000 C 
BRANCH   9  10
ATOM     10  C   UNL     1     154.229 144.770 139.325  1.00  0.00     0.002 C 
BRANCH  10  11
ATOM     11  C   UNL     1     154.246 143.293 138.894  1.00  0.00     0.028 C 
BRANCH  11  12
ATOM     12  C   UNL     1     154.113 142.310 140.064  1.00  0.00     0.156 C 
BRANCH  12  13
ATOM     13  O   UNL     1     154.903 142.728 141.143  1.00  0.00    -0.396 OA
ATOM     14  H   UNL     1     154.578 142.222 141.933  1.00  0.00     0.210 HD
ENDBRANCH  12  13
ENDBRANCH  11  12
ENDBRANCH  10  11
ENDBRANCH   9  10
ENDBRANCH   8   9
ENDBRANCH   1   8
TORSDOF 11
ENDMDL
MODEL 6
REMARK VINA RESULT:    -2.583      8.064     10.382
REMARK INTER + INTRA:          -5.480
REMARK INTER:                  -4.059
REMARK INTRA:                  -1.421
REMARK UNBOUND:                -1.311
REMARK SMILES CCCCCCCCCCCCO
REMARK SMILES IDX 7 1 6 2 5 3 4 4 3 5 2 6 1 7 8 8 9 9 10 10 11 11 12 12 13 13
REMARK H PARENT 13 14
REMARK Flexibility Score: inf
ROOT
ATOM      1  C   UNL     1     142.519 147.888 137.582  1.00  0.00     0.000 C 
ENDROOT
BRANCH   1   2
ATOM      2  C   UNL     1     143.506 146.714 137.470  1.00  0.00    -0.000 C 
BRANCH   2   3
ATOM      3  C   UNL     1     144.236 146.430 138.794  1.00  0.00    -0.000 C 
BRANCH   3   4
ATOM      4  C   UNL     1     145.735 146.156 138.597  1.00  0.00    -0.000 C 
BRANCH   4   5
ATOM      5  C   UNL     1     146.246 146.627 137.226  1.00  0.00    -0.000 C 
BRANCH   5   6
ATOM      6  C   UNL     1     146.995 147.958 137.349  1.00  0.00    -0.003 C 
ATOM      7  C   UNL     1     146.314 149.052 136.531  1.00  0.00     0.004 C 
ENDBRANCH   5   6
ENDBRANCH   4   5
ENDBRANCH   3   4
ENDBRANCH   2   3
ENDBRANCH   1   2
BRANCH   1   8
ATOM      8  C   UNL     1     142.160 148.218 139.042  1.00  0.00     0.000 C 
BRANCH   8   9
ATOM      9  C   UNL     1     142.427 149.689 139.400  1.00  0.00     0.000 C 
BRANCH   9  10
ATOM     10  C   UNL     1     143.625 150.275 138.635  1.00  0.00     0.002 C 
BRANCH  10  11
ATOM     11  C   UNL     1     144.761 150.736 139.564  1.00  0.00     0.028 C 
BRANCH  11  12
ATOM     12  C   UNL     1     145.430 149.589 140.332  1.00  0.00     0.156 C 
BRANCH  12  13
ATOM     13  O   UNL     1     146.812 149.799 140.414  1.00  0.00    -0.396 OA
ATOM     14  H   UNL     1     147.106 150.059 139.502  1.00  0.00     0.210 HD
ENDBRANCH  12  13
ENDBRANCH  11  12
ENDBRANCH  10  11
ENDBRANCH   9  10
ENDBRANCH   8   9
ENDBRANCH   1   8
TORSDOF 11
ENDMDL
MODEL 7
REMARK VINA RESULT:    -2.579      1.899      4.066
REMARK INTER + INTRA:          -5.473
REMARK INTER:                  -4.111
REMARK INTRA:                  -1.362
REMARK UNBOUND:                -1.311
REMARK SMILES CCCCCCCCCCCCO
REMARK SMILES IDX 7 1 6 2 5 3 4 4 3 5 2 6 1 7 8 8 9 9 10 10 11 11 12 12 13 13
REMARK H PARENT 13 14
REMARK Flexibility Score: inf
ROOT
ATOM      1  C   UNL     1     151.776 141.616 137.960  1.00  0.00     0.000 C 
ENDROOT
BRANCH   1   2
ATOM      2  C   UNL     1     152.392 141.590 139.369  1.00  0.00    -0.000 C 
BRANCH   2   3
ATOM      3  C   UNL     1     153.893 141.924 139.362  1.00  0.00    -0.000 C 
BRANCH   3   4
ATOM      4  C   UNL     1     154.165 143.423 139.160  1.00  0.00    -0.000 C 
BRANCH   4   5
ATOM      5  C   UNL     1     154.685 143.745 137.751  1.00  0.00    -0.000 C 
BRANCH   5   6
ATOM      6  C   UNL     1     154.672 145.256 137.494  1.00  0.00    -0.003 C 
ATOM      7  C   UNL     1     155.398 146.011 138.604  1.00  0.00     0.004 C 
ENDBRANCH   5   6
ENDBRANCH   4   5
ENDBRANCH   3   4
ENDBRANCH   2   3
ENDBRANCH   1   2
BRANCH   1   8
ATOM      8  C   UNL     1     150.629 142.635 137.838  1.00  0.00     0.000 C 
BRANCH   8   9
ATOM      9  C   UNL     1     151.011 143.861 136.992  1.00  0.00     0.000 C 
BRANCH   9  10
ATOM     10  C   UNL     1     150.938 145.174 137.791  1.00  0.00     0.002 C 
BRANCH  10  11
ATOM     11  C   UNL     1     150.823 144.946 139.308  1.00  0.00     0.028 C 
BRANCH  11  12
ATOM     12  C   UNL     1     151.726 145.869 140.137  1.00  0.00     0.156 C 
BRANCH  12  13
ATOM     13  O   UNL     1     151.581 145.591 141.502  1.00  0.00    -0.396 OA
ATOM     14  H   UNL     1     152.389 145.962 141.945  1.00  0.00     0.210 HD
ENDBRANCH  12  13
ENDBRANCH  11  12
ENDBRANCH  10  11
ENDBRANCH   9  10
ENDBRANCH   8   9
ENDBRANCH   1   8
TORSDOF 11
ENDMDL
MODEL 8
REMARK VINA RESULT:    -2.552      8.648     11.026
REMARK INTER + INTRA:          -5.430
REMARK INTER:                  -3.941
REMARK INTRA:                  -1.489
REMARK UNBOUND:                -1.311
REMARK SMILES CCCCCCCCCCCCO
REMARK SMILES IDX 7 1 6 2 5 3 4 4 3 5 2 6 1 7 8 8 9 9 10 10 11 11 12 12 13 13
REMARK H PARENT 13 14
REMARK Flexibility Score: inf
ROOT
ATOM      1  C   UNL     1     141.787 149.284 138.063  1.00  0.00     0.000 C 
ENDROOT
BRANCH   1   2
ATOM      2  C   UNL     1     141.293 148.627 139.362  1.00  0.00    -0.000 C 
BRANCH   2   3
ATOM      3  C   UNL     1     142.138 147.405 139.763  1.00  0.00    -0.000 C 
BRANCH   3   4
ATOM      4  C   UNL     1     143.129 146.986 138.665  1.00  0.00    -0.000 C 
BRANCH   4   5
ATOM      5  C   UNL     1     144.482 146.531 139.233  1.00  0.00    -0.000 C 
BRANCH   5   6
ATOM      6  C   UNL     1     145.589 146.662 138.182  1.00  0.00    -0.003 C 
ATOM      7  C   UNL     1     145.050 147.255 136.883  1.00  0.00     0.004 C 
ENDBRANCH   5   6
ENDBRANCH   4   5
ENDBRANCH   3   4
ENDBRANCH   2   3
ENDBRANCH   1   2
BRANCH   1   8
ATOM      8  C   UNL     1     142.451 150.651 138.309  1.00  0.00     0.000 C 
BRANCH   8   9
ATOM      9  C   UNL     1     143.786 150.806 137.562  1.00  0.00     0.000 C 
BRANCH   9  10
ATOM     10  C   UNL     1     145.002 150.675 138.494  1.00  0.00     0.002 C 
BRANCH  10  11
ATOM     11  C   UNL     1     144.612 150.330 139.942  1.00  0.00     0.028 C 
BRANCH  11  12
ATOM     12  C   UNL     1     145.679 149.518 140.688  1.00  0.00     0.156 C 
BRANCH  12  13
ATOM     13  O   UNL     1     146.956 149.838 140.211  1.00  0.00    -0.396 OA
ATOM     14  H   UNL     1     147.418 148.972 140.061  1.00  0.00     0.210 HD
ENDBRANCH  12  13
ENDBRANCH  11  12
ENDBRANCH  10  11
ENDBRANCH   9  10
ENDBRANCH   8   9
ENDBRANCH   1   8
TORSDOF 11
ENDMDL
MODEL 9
REMARK VINA RESULT:    -2.543      8.064     10.072
REMARK INTER + INTRA:          -5.416
REMARK INTER:                  -3.900
REMARK INTRA:                  -1.515
REMARK UNBOUND:                -1.311
REMARK SMILES CCCCCCCCCCCCO
REMARK SMILES IDX 7 1 6 2 5 3 4 4 3 5 2 6 1 7 8 8 9 9 10 10 11 11 12 12 13 13
REMARK H PARENT 13 14
REMARK Flexibility Score: inf
ROOT
ATOM      1  C   UNL     1     156.766 150.596 138.608  1.00  0.00     0.000 C 
ENDROOT
BRANCH   1   2
ATOM      2  C   UNL     1     156.348 151.048 140.017  1.00  0.00    -0.000 C 
BRANCH   2   3
ATOM      3  C   UNL     1     156.186 152.574 140.122  1.00  0.00    -0.000 C 
BRANCH   3   4
ATOM      4  C   UNL     1     155.836 153.226 138.775  1.00  0.00    -0.000 C 
BRANCH   4   5
ATOM      5  C   UNL     1     156.666 154.488 138.495  1.00  0.00    -0.000 C 
BRANCH   5   6
ATOM      6  C   UNL     1     156.869 154.688 136.989  1.00  0.00    -0.003 C 
ATOM      7  C   UNL     1     158.352 154.770 136.638  1.00  0.00     0.004 C 
ENDBRANCH   5   6
ENDBRANCH   4   5
ENDBRANCH   3   4
ENDBRANCH   2   3
ENDBRANCH   1   2
BRANCH   1   8
ATOM      8  C   UNL     1     158.278 150.327 138.500  1.00  0.00     0.000 C 
BRANCH   8   9
ATOM      9  C   UNL     1     159.012 151.391 137.666  1.00  0.00     0.000 C 
BRANCH   9  10
ATOM     10  C   UNL     1     160.237 151.969 138.393  1.00  0.00     0.002 C 
BRANCH  10  11
ATOM     11  C   UNL     1     159.906 152.492 139.801  1.00  0.00     0.028 C 
BRANCH  11  12
ATOM     12  C   UNL     1     160.060 154.012 139.944  1.00  0.00     0.156 C 
BRANCH  12  13
ATOM     13  O   UNL     1     159.241 154.489 140.975  1.00  0.00    -0.396 OA
ATOM     14  H   UNL     1     159.532 155.423 141.146  1.00  0.00     0.210 HD
ENDBRANCH  12  13
ENDBRANCH  11  12
ENDBRANCH  10  11
ENDBRANCH   9  10
ENDBRANCH   8   9
ENDBRANCH   1   8
TORSDOF 11
ENDMDL
