MODEL 1
REMARK VINA RESULT:    -4.945      0.000      0.000
REMARK INTER + INTRA:          -6.690
REMARK INTER:                  -6.390
REMARK INTRA:                  -0.300
REMARK UNBOUND:                -0.300
REMARK SMILES CCO[C@H]1O[C@H](CO)[C@H](O)[C@@H](O)[C@H]1O
REMARK SMILES IDX 4 1 13 2 11 3 9 4 6 5 5 6 3 7 2 8 1 9 14 10 12 12 7 14 8 15
REMARK SMILES IDX 10 17
REMARK H PARENT 14 11 12 13 8 16 10 18
REMARK Flexibility Score: inf
ROOT
ATOM      1  C   UNL     1    -128.995 107.993  41.467  1.00  0.00     0.281 C 
ATOM      2  C   UNL     1    -129.023 108.845  40.181  1.00  0.00     0.202 C 
ATOM      3  C   UNL     1    -129.967 108.258  39.106  1.00  0.00     0.179 C 
ATOM      4  C   UNL     1    -129.783 106.730  38.972  1.00  0.00     0.177 C 
ATOM      5  C   UNL     1    -129.758 106.062  40.369  1.00  0.00     0.178 C 
ATOM      6  O   UNL     1    -128.734 106.628  41.172  1.00  0.00    -0.341 OA
ENDROOT
BRANCH   1   7
ATOM      7  O   UNL     1    -130.200 108.153  42.201  1.00  0.00    -0.350 OA
BRANCH   7   8
ATOM      8  C   UNL     1    -129.927 108.674  43.485  1.00  0.00     0.160 C 
ATOM      9  C   UNL     1    -131.090 108.349  44.409  1.00  0.00     0.035 C 
ENDBRANCH   7   8
ENDBRANCH   1   7
BRANCH   2  10
ATOM     10  O   UNL     1    -129.387 110.165  40.493  1.00  0.00    -0.385 OA
ATOM     11  H   UNL     1    -128.877 110.755  39.879  1.00  0.00     0.211 HD
ENDBRANCH   2  10
BRANCH   3  12
ATOM     12  O   UNL     1    -131.313 108.604  39.338  1.00  0.00    -0.387 OA
ATOM     13  H   UNL     1    -131.612 109.214  38.617  1.00  0.00     0.211 HD
ENDBRANCH   3  12
BRANCH   5  14
ATOM     14  C   UNL     1    -129.515 104.551  40.267  1.00  0.00     0.191 C 
BRANCH  14  15
ATOM     15  O   UNL     1    -129.770 104.106  38.963  1.00  0.00    -0.394 OA
ATOM     16  H   UNL     1    -129.820 104.921  38.399  1.00  0.00     0.210 HD
ENDBRANCH  14  15
ENDBRANCH   5  14
BRANCH   4  17
ATOM     17  O   UNL     1    -128.578 106.460  38.300  1.00  0.00    -0.387 OA
ATOM     18  H   UNL     1    -128.490 105.472  38.251  1.00  0.00     0.211 HD
ENDBRANCH   4  17
TORSDOF 7
ENDMDL
MODEL 2
REMARK VINA RESULT:    -4.753      1.536      3.346
REMARK INTER + INTRA:          -6.443
REMARK INTER:                  -6.105
REMARK INTRA:                  -0.338
REMARK UNBOUND:                -0.300
REMARK SMILES CCO[C@H]1O[C@H](CO)[C@H](O)[C@@H](O)[C@H]1O
REMARK SMILES IDX 4 1 13 2 11 3 9 4 6 5 5 6 3 7 2 8 1 9 14 10 12 12 7 14 8 15
REMARK SMILES IDX 10 17
REMARK H PARENT 14 11 12 13 8 16 10 18
REMARK Flexibility Score: inf
ROOT
ATOM      1  C   UNL     1    -130.203 108.673  39.980  1.00  0.00     0.281 C 
ATOM      2  C   UNL     1    -130.195 108.236  41.460  1.00  0.00     0.202 C 
ATOM      3  C   UNL     1    -129.192 107.090  41.731  1.00  0.00     0.179 C 
ATOM      4  C   UNL     1    -129.283 105.998  40.642  1.00  0.00     0.177 C 
ATOM      5  C   UNL     1    -129.302 106.637  39.233  1.00  0.00     0.178 C 
ATOM      6  O   UNL     1    -130.376 107.557  39.118  1.00  0.00    -0.341 OA
ENDROOT
BRANCH   1   7
ATOM      7  O   UNL     1    -129.027 109.404  39.666  1.00  0.00    -0.350 OA
BRANCH   7   8
ATOM      8  C   UNL     1    -129.363 110.668  39.134  1.00  0.00     0.160 C 
ATOM      9  C   UNL     1    -128.181 111.203  38.342  1.00  0.00     0.035 C 
ENDBRANCH   7   8
ENDBRANCH   1   7
BRANCH   2  10
ATOM     10  O   UNL     1    -129.917 109.343  42.280  1.00  0.00    -0.385 OA
ATOM     11  H   UNL     1    -130.130 110.154  41.748  1.00  0.00     0.211 HD
ENDBRANCH   2  10
BRANCH   3  12
ATOM     12  O   UNL     1    -127.876 107.565  41.887  1.00  0.00    -0.387 OA
ATOM     13  H   UNL     1    -127.260 106.956  41.409  1.00  0.00     0.211 HD
ENDBRANCH   3  12
BRANCH   5  14
ATOM     14  C   UNL     1    -129.453 105.576  38.135  1.00  0.00     0.191 C 
BRANCH  14  15
ATOM     15  O   UNL     1    -129.086 104.315  38.625  1.00  0.00    -0.394 OA
ATOM     16  H   UNL     1    -129.791 103.686  38.321  1.00  0.00     0.210 HD
ENDBRANCH  14  15
ENDBRANCH   5  14
BRANCH   4  17
ATOM     17  O   UNL     1    -130.454 105.243  40.832  1.00  0.00    -0.387 OA
ATOM     18  H   UNL     1    -131.218 105.834  40.604  1.00  0.00     0.211 HD
ENDBRANCH   4  17
TORSDOF 7
ENDMDL
MODEL 3
REMARK VINA RESULT:    -4.380      1.484      4.031
REMARK INTER + INTRA:          -5.960
REMARK INTER:                  -5.956
REMARK INTRA:                  -0.004
REMARK UNBOUND:                -0.300
REMARK SMILES CCO[C@H]1O[C@H](CO)[C@H](O)[C@@H](O)[C@H]1O
REMARK SMILES IDX 4 1 13 2 11 3 9 4 6 5 5 6 3 7 2 8 1 9 14 10 12 12 7 14 8 15
REMARK SMILES IDX 10 17
REMARK H PARENT 14 11 12 13 8 16 10 18
REMARK Flexibility Score: inf
ROOT
ATOM      1  C   UNL     1    -129.999 107.712  39.058  1.00  0.00     0.281 C 
ATOM      2  C   UNL     1    -129.301 106.340  38.941  1.00  0.00     0.202 C 
ATOM      3  C   UNL     1    -129.480 105.478  40.212  1.00  0.00     0.179 C 
ATOM      4  C   UNL     1    -129.252 106.312  41.492  1.00  0.00     0.177 C 
ATOM      5  C   UNL     1    -130.014 107.657  41.406  1.00  0.00     0.178 C 
ATOM      6  O   UNL     1    -129.616 108.381  40.252  1.00  0.00    -0.341 OA
ENDROOT
BRANCH   1   7
ATOM      7  O   UNL     1    -131.407 107.568  38.962  1.00  0.00    -0.350 OA
BRANCH   7   8
ATOM      8  C   UNL     1    -131.977 108.707  38.353  1.00  0.00     0.160 C 
ATOM      9  C   UNL     1    -131.962 109.859  39.345  1.00  0.00     0.035 C 
ENDBRANCH   7   8
ENDBRANCH   1   7
BRANCH   2  10
ATOM     10  O   UNL     1    -129.778 105.660  37.808  1.00  0.00    -0.385 OA
ATOM     11  H   UNL     1    -130.764 105.606  37.902  1.00  0.00     0.211 HD
ENDBRANCH   2  10
BRANCH   3  12
ATOM     12  O   UNL     1    -130.724 104.818  40.232  1.00  0.00    -0.387 OA
ATOM     13  H   UNL     1    -131.441 105.489  40.110  1.00  0.00     0.211 HD
ENDBRANCH   3  12
BRANCH   5  14
ATOM     14  C   UNL     1    -129.755 108.531  42.640  1.00  0.00     0.191 C 
BRANCH  14  15
ATOM     15  O   UNL     1    -128.573 109.265  42.475  1.00  0.00    -0.394 OA
ATOM     16  H   UNL     1    -128.365 109.655  43.364  1.00  0.00     0.210 HD
ENDBRANCH  14  15
ENDBRANCH   5  14
BRANCH   4  17
ATOM     17  O   UNL     1    -127.877 106.560  41.652  1.00  0.00    -0.387 OA
ATOM     18  H   UNL     1    -127.580 107.066  40.852  1.00  0.00     0.211 HD
ENDBRANCH   4  17
TORSDOF 7
ENDMDL
MODEL 4
REMARK VINA RESULT:    -4.369     15.079     16.673
REMARK INTER + INTRA:          -5.945
REMARK INTER:                  -5.764
REMARK INTRA:                  -0.182
REMARK UNBOUND:                -0.300
REMARK SMILES CCO[C@H]1O[C@H](CO)[C@H](O)[C@@H](O)[C@H]1O
REMARK SMILES IDX 4 1 13 2 11 3 9 4 6 5 5 6 3 7 2 8 1 9 14 10 12 12 7 14 8 15
REMARK SMILES IDX 10 17
REMARK H PARENT 14 11 12 13 8 16 10 18
REMARK Flexibility Score: inf
ROOT
ATOM      1  C   UNL     1    -143.424 100.606  34.542  1.00  0.00     0.281 C 
ATOM      2  C   UNL     1    -144.044 100.257  33.173  1.00  0.00     0.202 C 
ATOM      3  C   UNL     1    -143.401 101.055  32.015  1.00  0.00     0.179 C 
ATOM      4  C   UNL     1    -143.230 102.544  32.386  1.00  0.00     0.177 C 
ATOM      5  C   UNL     1    -142.616 102.683  33.801  1.00  0.00     0.178 C 
ATOM      6  O   UNL     1    -143.418 102.011  34.759  1.00  0.00    -0.341 OA
ENDROOT
BRANCH   1   7
ATOM      7  O   UNL     1    -142.124 100.049  34.660  1.00  0.00    -0.350 OA
BRANCH   7   8
ATOM      8  C   UNL     1    -142.162  98.875  35.445  1.00  0.00     0.160 C 
ATOM      9  C   UNL     1    -143.178  99.058  36.561  1.00  0.00     0.035 C 
ENDBRANCH   7   8
ENDBRANCH   1   7
BRANCH   2  10
ATOM     10  O   UNL     1    -143.939  98.875  32.942  1.00  0.00    -0.385 OA
ATOM     11  H   UNL     1    -143.082  98.729  32.464  1.00  0.00     0.211 HD
ENDBRANCH   2  10
BRANCH   3  12
ATOM     12  O   UNL     1    -142.188 100.479  31.586  1.00  0.00    -0.387 OA
ATOM     13  H   UNL     1    -142.245 100.308  30.613  1.00  0.00     0.211 HD
ENDBRANCH   3  12
BRANCH   5  14
ATOM     14  C   UNL     1    -142.492 104.154  34.219  1.00  0.00     0.191 C 
BRANCH  14  15
ATOM     15  O   UNL     1    -142.468 104.980  33.087  1.00  0.00    -0.394 OA
ATOM     16  H   UNL     1    -141.748 105.645  33.248  1.00  0.00     0.210 HD
ENDBRANCH  14  15
ENDBRANCH   5  14
BRANCH   4  17
ATOM     17  O   UNL     1    -144.482 103.183  32.352  1.00  0.00    -0.387 OA
ATOM     18  H   UNL     1    -144.377 104.049  32.824  1.00  0.00     0.211 HD
ENDBRANCH   4  17
TORSDOF 7
ENDMDL
MODEL 5
REMARK VINA RESULT:    -4.341     14.647     15.825
REMARK INTER + INTRA:          -5.910
REMARK INTER:                  -5.474
REMARK INTRA:                  -0.437
REMARK UNBOUND:                -0.300
REMARK SMILES CCO[C@H]1O[C@H](CO)[C@H](O)[C@@H](O)[C@H]1O
REMARK SMILES IDX 4 1 13 2 11 3 9 4 6 5 5 6 3 7 2 8 1 9 14 10 12 12 7 14 8 15
REMARK SMILES IDX 10 17
REMARK H PARENT 14 11 12 13 8 16 10 18
REMARK Flexibility Score: inf
ROOT
ATOM      1  C   UNL     1    -142.335 103.220  33.890  1.00  0.00     0.281 C 
ATOM      2  C   UNL     1    -142.794 103.284  32.418  1.00  0.00     0.202 C 
ATOM      3  C   UNL     1    -143.851 102.207  32.082  1.00  0.00     0.179 C 
ATOM      4  C   UNL     1    -143.457 100.834  32.670  1.00  0.00     0.177 C 
ATOM      5  C   UNL     1    -143.006 100.983  34.143  1.00  0.00     0.178 C 
ATOM      6  O   UNL     1    -141.931 101.903  34.243  1.00  0.00    -0.341 OA
ENDROOT
BRANCH   1   7
ATOM      7  O   UNL     1    -143.350 103.708  34.754  1.00  0.00    -0.350 OA
BRANCH   7   8
ATOM      8  C   UNL     1    -142.783 104.489  35.785  1.00  0.00     0.160 C 
ATOM      9  C   UNL     1    -141.962 105.608  35.165  1.00  0.00     0.035 C 
ENDBRANCH   7   8
ENDBRANCH   1   7
BRANCH   2  10
ATOM     10  O   UNL     1    -143.285 104.569  32.131  1.00  0.00    -0.385 OA
ATOM     11  H   UNL     1    -144.261 104.549  32.313  1.00  0.00     0.211 HD
ENDBRANCH   2  10
BRANCH   3  12
ATOM     12  O   UNL     1    -145.145 102.595  32.479  1.00  0.00    -0.387 OA
ATOM     13  H   UNL     1    -145.190 102.584  33.468  1.00  0.00     0.211 HD
ENDBRANCH   3  12
BRANCH   5  14
ATOM     14  C   UNL     1    -142.552  99.641  34.732  1.00  0.00     0.191 C 
BRANCH  14  15
ATOM     15  O   UNL     1    -141.267  99.320  34.274  1.00  0.00    -0.394 OA
ATOM     16  H   UNL     1    -140.656  99.989  34.679  1.00  0.00     0.210 HD
ENDBRANCH  14  15
ENDBRANCH   5  14
BRANCH   4  17
ATOM     17  O   UNL     1    -142.410 100.281  31.911  1.00  0.00    -0.387 OA
ATOM     18  H   UNL     1    -141.812 101.031  31.656  1.00  0.00     0.211 HD
ENDBRANCH   4  17
TORSDOF 7
ENDMDL
MODEL 6
REMARK VINA RESULT:    -3.608     15.007     16.393
REMARK INTER + INTRA:          -4.963
REMARK INTER:                  -4.604
REMARK INTRA:                  -0.358
REMARK UNBOUND:                -0.300
REMARK SMILES CCO[C@H]1O[C@H](CO)[C@H](O)[C@@H](O)[C@H]1O
REMARK SMILES IDX 4 1 13 2 11 3 9 4 6 5 5 6 3 7 2 8 1 9 14 10 12 12 7 14 8 15
REMARK SMILES IDX 10 17
REMARK H PARENT 14 11 12 13 8 16 10 18
REMARK Flexibility Score: inf
ROOT
ATOM      1  C   UNL     1    -143.535 102.299  33.553  1.00  0.00     0.281 C 
ATOM      2  C   UNL     1    -143.995 101.302  34.637  1.00  0.00     0.202 C 
ATOM      3  C   UNL     1    -143.120 100.027  34.675  1.00  0.00     0.179 C 
ATOM      4  C   UNL     1    -142.848  99.492  33.252  1.00  0.00     0.177 C 
ATOM      5  C   UNL     1    -142.422 100.644  32.311  1.00  0.00     0.178 C 
ATOM      6  O   UNL     1    -143.413 101.660  32.289  1.00  0.00    -0.341 OA
ENDROOT
BRANCH   1   7
ATOM      7  O   UNL     1    -142.328 102.938  33.938  1.00  0.00    -0.350 OA
BRANCH   7   8
ATOM      8  C   UNL     1    -142.457 104.340  33.821  1.00  0.00     0.160 C 
ATOM      9  C   UNL     1    -142.171 104.979  35.170  1.00  0.00     0.035 C 
ENDBRANCH   7   8
ENDBRANCH   1   7
BRANCH   2  10
ATOM     10  O   UNL     1    -144.004 101.935  35.891  1.00  0.00    -0.385 OA
ATOM     11  H   UNL     1    -144.106 102.908  35.719  1.00  0.00     0.211 HD
ENDBRANCH   2  10
BRANCH   3  12
ATOM     12  O   UNL     1    -141.926 100.227  35.397  1.00  0.00    -0.387 OA
ATOM     13  H   UNL     1    -142.156 100.443  36.335  1.00  0.00     0.211 HD
ENDBRANCH   3  12
BRANCH   5  14
ATOM     14  C   UNL     1    -142.205 100.148  30.875  1.00  0.00     0.191 C 
BRANCH  14  15
ATOM     15  O   UNL     1    -141.401  99.001  30.875  1.00  0.00    -0.394 OA
ATOM     16  H   UNL     1    -140.618  99.214  30.303  1.00  0.00     0.210 HD
ENDBRANCH  14  15
ENDBRANCH   5  14
BRANCH   4  17
ATOM     17  O   UNL     1    -144.010  98.880  32.751  1.00  0.00    -0.387 OA
ATOM     18  H   UNL     1    -144.527  99.584  32.280  1.00  0.00     0.211 HD
ENDBRANCH   4  17
TORSDOF 7
ENDMDL
MODEL 7
REMARK VINA RESULT:    -3.333     15.249     16.752
REMARK INTER + INTRA:          -4.607
REMARK INTER:                  -4.562
REMARK INTRA:                  -0.046
REMARK UNBOUND:                -0.300
REMARK SMILES CCO[C@H]1O[C@H](CO)[C@H](O)[C@@H](O)[C@H]1O
REMARK SMILES IDX 4 1 13 2 11 3 9 4 6 5 5 6 3 7 2 8 1 9 14 10 12 12 7 14 8 15
REMARK SMILES IDX 10 17
REMARK H PARENT 14 11 12 13 8 16 10 18
REMARK Flexibility Score: inf
ROOT
ATOM      1  C   UNL     1    -143.990 100.850  34.760  1.00  0.00     0.281 C 
ATOM      2  C   UNL     1    -143.626  99.352  34.679  1.00  0.00     0.202 C 
ATOM      3  C   UNL     1    -142.480  99.078  33.678  1.00  0.00     0.179 C 
ATOM      4  C   UNL     1    -142.688  99.856  32.360  1.00  0.00     0.177 C 
ATOM      5  C   UNL     1    -143.068 101.327  32.653  1.00  0.00     0.178 C 
ATOM      6  O   UNL     1    -144.229 101.389  33.466  1.00  0.00    -0.341 OA
ENDROOT
BRANCH   1   7
ATOM      7  O   UNL     1    -142.987 101.573  35.455  1.00  0.00    -0.350 OA
BRANCH   7   8
ATOM      8  C   UNL     1    -143.439 102.878  35.750  1.00  0.00     0.160 C 
ATOM      9  C   UNL     1    -142.565 103.883  35.017  1.00  0.00     0.035 C 
ENDBRANCH   7   8
ENDBRANCH   1   7
BRANCH   2  10
ATOM     10  O   UNL     1    -143.294  98.875  35.958  1.00  0.00    -0.385 OA
ATOM     11  H   UNL     1    -143.204  99.671  36.545  1.00  0.00     0.211 HD
ENDBRANCH   2  10
BRANCH   3  12
ATOM     12  O   UNL     1    -141.214  99.332  34.242  1.00  0.00    -0.387 OA
ATOM     13  H   UNL     1    -140.541  99.346  33.516  1.00  0.00     0.211 HD
ENDBRANCH   3  12
BRANCH   5  14
ATOM     14  C   UNL     1    -143.340 102.107  31.360  1.00  0.00     0.191 C 
BRANCH  14  15
ATOM     15  O   UNL     1    -143.355 103.485  31.619  1.00  0.00    -0.394 OA
ATOM     16  H   UNL     1    -142.429 103.805  31.456  1.00  0.00     0.210 HD
ENDBRANCH  14  15
ENDBRANCH   5  14
BRANCH   4  17
ATOM     17  O   UNL     1    -143.710  99.246  31.612  1.00  0.00    -0.387 OA
ATOM     18  H   UNL     1    -143.379  98.348  31.350  1.00  0.00     0.211 HD
ENDBRANCH   4  17
TORSDOF 7
ENDMDL
MODEL 8
REMARK VINA RESULT:    -3.269      6.570      9.334
REMARK INTER + INTRA:          -4.524
REMARK INTER:                  -4.077
REMARK INTRA:                  -0.447
REMARK UNBOUND:                -0.300
REMARK SMILES CCO[C@H]1O[C@H](CO)[C@H](O)[C@@H](O)[C@H]1O
REMARK SMILES IDX 4 1 13 2 11 3 9 4 6 5 5 6 3 7 2 8 1 9 14 10 12 12 7 14 8 15
REMARK SMILES IDX 10 17
REMARK H PARENT 14 11 12 13 8 16 10 18
REMARK Flexibility Score: inf
ROOT
ATOM      1  C   UNL     1    -129.211 114.098  43.172  1.00  0.00     0.281 C 
ATOM      2  C   UNL     1    -128.938 113.960  44.684  1.00  0.00     0.202 C 
ATOM      3  C   UNL     1    -129.710 115.007  45.520  1.00  0.00     0.179 C 
ATOM      4  C   UNL     1    -129.620 116.411  44.883  1.00  0.00     0.177 C 
ATOM      5  C   UNL     1    -129.901 116.335  43.363  1.00  0.00     0.178 C 
ATOM      6  O   UNL     1    -129.002 115.434  42.734  1.00  0.00    -0.341 OA
ENDROOT
BRANCH   1   7
ATOM      7  O   UNL     1    -130.514 113.636  42.853  1.00  0.00    -0.350 OA
BRANCH   7   8
ATOM      8  C   UNL     1    -130.570 113.221  41.504  1.00  0.00     0.160 C 
ATOM      9  C   UNL     1    -129.819 111.907  41.358  1.00  0.00     0.035 C 
ENDBRANCH   7   8
ENDBRANCH   1   7
BRANCH   2  10
ATOM     10  O   UNL     1    -129.254 112.657  45.106  1.00  0.00    -0.385 OA
ATOM     11  H   UNL     1    -129.554 112.161  44.301  1.00  0.00     0.211 HD
ENDBRANCH   2  10
BRANCH   3  12
ATOM     12  O   UNL     1    -131.046 114.621  45.748  1.00  0.00    -0.387 OA
ATOM     13  H   UNL     1    -131.048 113.779  46.268  1.00  0.00     0.211 HD
ENDBRANCH   3  12
BRANCH   5  14
ATOM     14  C   UNL     1    -129.757 117.709  42.693  1.00  0.00     0.191 C 
BRANCH  14  15
ATOM     15  O   UNL     1    -128.430 117.917  42.295  1.00  0.00    -0.394 OA
ATOM     16  H   UNL     1    -127.866 117.639  43.063  1.00  0.00     0.210 HD
ENDBRANCH  14  15
ENDBRANCH   5  14
BRANCH   4  17
ATOM     17  O   UNL     1    -128.335 116.941  45.097  1.00  0.00    -0.387 OA
ATOM     18  H   UNL     1    -128.071 116.692  46.021  1.00  0.00     0.211 HD
ENDBRANCH   4  17
TORSDOF 7
ENDMDL
