MODEL 1
REMARK VINA RESULT:    -4.306      0.000      0.000
REMARK INTER + INTRA:         -10.216
REMARK INTER:                  -8.082
REMARK INTRA:                  -2.134
REMARK UNBOUND:                -2.134
REMARK SMILES O=C([O-])CCCCCCCCCCCCCCC(=O)[O-]
REMARK SMILES IDX 10 1 9 2 8 3 7 4 6 5 5 6 4 7 2 8 1 9 3 10 11 11 12 12 13 13
REMARK SMILES IDX 14 14 15 15 16 16 17 17 18 18 19 19 20 20
REMARK H PARENT
REMARK Flexibility Score: inf
ROOT
ATOM      1  C   UNL     1     -34.993  20.941 -28.537  1.00  0.00     0.000 C 
ENDROOT
BRANCH   1   2
ATOM      2  C   UNL     1     -35.075  19.401 -28.541  1.00  0.00     0.000 C 
BRANCH   2   3
ATOM      3  C   UNL     1     -36.459  18.823 -28.194  1.00  0.00     0.000 C 
BRANCH   3   4
ATOM      4  C   UNL     1     -36.994  17.868 -29.271  1.00  0.00     0.000 C 
BRANCH   4   5
ATOM      5  C   UNL     1     -35.966  17.684 -30.399  1.00  0.00     0.000 C 
BRANCH   5   6
ATOM      6  C   UNL     1     -35.821  16.216 -30.840  1.00  0.00     0.006 C 
BRANCH   6   7
ATOM      7  C   UNL     1     -36.655  15.223 -30.016  1.00  0.00     0.053 C 
BRANCH   7   8
ATOM      8  C   UNL     1     -36.356  13.801 -30.379  1.00  0.00     0.041 C 
ATOM      9  O   UNL     1     -37.110  12.874 -29.982  1.00  0.00    -0.550 OA
ATOM     10  O   UNL     1     -35.225  13.497 -31.125  1.00  0.00    -0.550 OA
ENDBRANCH   7   8
ENDBRANCH   6   7
ENDBRANCH   5   6
ENDBRANCH   4   5
ENDBRANCH   3   4
ENDBRANCH   2   3
ENDBRANCH   1   2
BRANCH   1  11
ATOM     11  C   UNL     1     -34.074  21.547 -29.616  1.00  0.00     0.000 C 
BRANCH  11  12
ATOM     12  C   UNL     1     -34.508  21.277 -31.071  1.00  0.00     0.000 C 
BRANCH  12  13
ATOM     13  C   UNL     1     -35.874  21.869 -31.458  1.00  0.00     0.000 C 
BRANCH  13  14
ATOM     14  C   UNL     1     -36.731  20.898 -32.288  1.00  0.00     0.000 C 
BRANCH  14  15
ATOM     15  C   UNL     1     -38.087  20.582 -31.630  1.00  0.00     0.000 C 
BRANCH  15  16
ATOM     16  C   UNL     1     -38.315  21.256 -30.264  1.00  0.00     0.006 C 
BRANCH  16  17
ATOM     17  C   UNL     1     -39.748  21.081 -29.743  1.00  0.00     0.053 C 
BRANCH  17  18
ATOM     18  C   UNL     1     -40.518  22.354 -29.896  1.00  0.00     0.041 C 
ATOM     19  O   UNL     1     -40.244  23.350 -29.176  1.00  0.00    -0.550 OA
ATOM     20  O   UNL     1     -41.505  22.458 -30.868  1.00  0.00    -0.550 OA
ENDBRANCH  17  18
ENDBRANCH  16  17
ENDBRANCH  15  16
ENDBRANCH  14  15
ENDBRANCH  13  14
ENDBRANCH  12  13
ENDBRANCH  11  12
ENDBRANCH   1  11
TORSDOF 15
ENDMDL
MODEL 2
REMARK VINA RESULT:    -4.278      2.276      3.700
REMARK INTER + INTRA:         -10.163
REMARK INTER:                  -8.279
REMARK INTRA:                  -1.884
REMARK UNBOUND:                -2.134
REMARK SMILES O=C([O-])CCCCCCCCCCCCCCC(=O)[O-]
REMARK SMILES IDX 10 1 9 2 8 3 7 4 6 5 5 6 4 7 2 8 1 9 3 10 11 11 12 12 13 13
REMARK SMILES IDX 14 14 15 15 16 16 17 17 18 18 19 19 20 20
REMARK H PARENT
REMARK Flexibility Score: inf
ROOT
ATOM      1  C   UNL     1     -39.640  19.822 -28.890  1.00  0.00     0.000 C 
ENDROOT
BRANCH   1   2
ATOM      2  C   UNL     1     -38.777  18.575 -28.609  1.00  0.00     0.000 C 
BRANCH   2   3
ATOM      3  C   UNL     1     -37.286  18.861 -28.358  1.00  0.00     0.000 C 
BRANCH   3   4
ATOM      4  C   UNL     1     -36.373  17.711 -28.809  1.00  0.00     0.000 C 
BRANCH   4   5
ATOM      5  C   UNL     1     -36.533  17.445 -30.314  1.00  0.00     0.000 C 
BRANCH   5   6
ATOM      6  C   UNL     1     -36.105  16.021 -30.717  1.00  0.00     0.006 C 
BRANCH   6   7
ATOM      7  C   UNL     1     -36.572  14.924 -29.748  1.00  0.00     0.053 C 
BRANCH   7   8
ATOM      8  C   UNL     1     -36.572  13.571 -30.390  1.00  0.00     0.041 C 
ATOM      9  O   UNL     1     -35.533  13.137 -30.953  1.00  0.00    -0.550 OA
ATOM     10  O   UNL     1     -37.730  12.804 -30.397  1.00  0.00    -0.550 OA
ENDBRANCH   7   8
ENDBRANCH   6   7
ENDBRANCH   5   6
ENDBRANCH   4   5
ENDBRANCH   3   4
ENDBRANCH   2   3
ENDBRANCH   1   2
BRANCH   1  11
ATOM     11  C   UNL     1     -38.866  21.043 -29.425  1.00  0.00     0.000 C 
BRANCH  11  12
ATOM     12  C   UNL     1     -38.912  21.228 -30.955  1.00  0.00     0.000 C 
BRANCH  12  13
ATOM     13  C   UNL     1     -37.829  20.459 -31.731  1.00  0.00     0.000 C 
BRANCH  13  14
ATOM     14  C   UNL     1     -36.532  21.267 -31.903  1.00  0.00     0.000 C 
BRANCH  14  15
ATOM     15  C   UNL     1     -35.308  20.579 -31.270  1.00  0.00     0.000 C 
BRANCH  15  16
ATOM     16  C   UNL     1     -34.583  21.410 -30.195  1.00  0.00     0.006 C 
BRANCH  16  17
ATOM     17  C   UNL     1     -35.536  22.283 -29.369  1.00  0.00     0.053 C 
BRANCH  17  18
ATOM     18  C   UNL     1     -34.829  22.845 -28.177  1.00  0.00     0.041 C 
ATOM     19  O   UNL     1     -34.978  24.056 -27.866  1.00  0.00    -0.550 OA
ATOM     20  O   UNL     1     -34.044  22.022 -27.381  1.00  0.00    -0.550 OA
ENDBRANCH  17  18
ENDBRANCH  16  17
ENDBRANCH  15  16
ENDBRANCH  14  15
ENDBRANCH  13  14
ENDBRANCH  12  13
ENDBRANCH  11  12
ENDBRANCH   1  11
TORSDOF 15
ENDMDL
MODEL 3
REMARK VINA RESULT:    -4.277      1.810      6.112
REMARK INTER + INTRA:         -10.162
REMARK INTER:                  -8.500
REMARK INTRA:                  -1.662
REMARK UNBOUND:                -2.134
REMARK SMILES O=C([O-])CCCCCCCCCCCCCCC(=O)[O-]
REMARK SMILES IDX 10 1 9 2 8 3 7 4 6 5 5 6 4 7 2 8 1 9 3 10 11 11 12 12 13 13
REMARK SMILES IDX 14 14 15 15 16 16 17 17 18 18 19 19 20 20
REMARK H PARENT
REMARK Flexibility Score: inf
ROOT
ATOM      1  C   UNL     1     -35.875  21.789 -28.986  1.00  0.00     0.000 C 
ENDROOT
BRANCH   1   2
ATOM      2  C   UNL     1     -35.989  22.364 -30.412  1.00  0.00     0.000 C 
BRANCH   2   3
ATOM      3  C   UNL     1     -35.820  21.334 -31.544  1.00  0.00     0.000 C 
BRANCH   3   4
ATOM      4  C   UNL     1     -37.152  20.950 -32.205  1.00  0.00     0.000 C 
BRANCH   4   5
ATOM      5  C   UNL     1     -37.971  20.026 -31.289  1.00  0.00     0.000 C 
BRANCH   5   6
ATOM      6  C   UNL     1     -39.181  20.736 -30.654  1.00  0.00     0.006 C 
BRANCH   6   7
ATOM      7  C   UNL     1     -39.191  20.713 -29.117  1.00  0.00     0.053 C 
BRANCH   7   8
ATOM      8  C   UNL     1     -39.526  19.356 -28.578  1.00  0.00     0.041 C 
ATOM      9  O   UNL     1     -38.608  18.565 -28.238  1.00  0.00    -0.550 OA
ATOM     10  O   UNL     1     -40.852  18.953 -28.486  1.00  0.00    -0.550 OA
ENDBRANCH   7   8
ENDBRANCH   6   7
ENDBRANCH   5   6
ENDBRANCH   4   5
ENDBRANCH   3   4
ENDBRANCH   2   3
ENDBRANCH   1   2
BRANCH   1  11
ATOM     11  C   UNL     1     -34.542  21.080 -28.675  1.00  0.00     0.000 C 
BRANCH  11  12
ATOM     12  C   UNL     1     -34.655  19.569 -28.394  1.00  0.00     0.000 C 
BRANCH  12  13
ATOM     13  C   UNL     1     -33.967  18.665 -29.432  1.00  0.00     0.000 C 
BRANCH  13  14
ATOM     14  C   UNL     1     -34.956  18.052 -30.438  1.00  0.00     0.000 C 
BRANCH  14  15
ATOM     15  C   UNL     1     -36.102  17.281 -29.757  1.00  0.00     0.000 C 
BRANCH  15  16
ATOM     16  C   UNL     1     -36.685  16.123 -30.588  1.00  0.00     0.006 C 
BRANCH  16  17
ATOM     17  C   UNL     1     -35.731  14.927 -30.699  1.00  0.00     0.053 C 
BRANCH  17  18
ATOM     18  C   UNL     1     -36.350  13.707 -30.093  1.00  0.00     0.041 C 
ATOM     19  O   UNL     1     -36.825  13.752 -28.928  1.00  0.00    -0.550 OA
ATOM     20  O   UNL     1     -36.446  12.535 -30.831  1.00  0.00    -0.550 OA
ENDBRANCH  17  18
ENDBRANCH  16  17
ENDBRANCH  15  16
ENDBRANCH  14  15
ENDBRANCH  13  14
ENDBRANCH  12  13
ENDBRANCH  11  12
ENDBRANCH   1  11
TORSDOF 15
ENDMDL
MODEL 4
REMARK VINA RESULT:    -4.271     13.939     15.609
REMARK INTER + INTRA:         -10.150
REMARK INTER:                  -8.274
REMARK INTRA:                  -1.876
REMARK UNBOUND:                -2.134
REMARK SMILES O=C([O-])CCCCCCCCCCCCCCC(=O)[O-]
REMARK SMILES IDX 10 1 9 2 8 3 7 4 6 5 5 6 4 7 2 8 1 9 3 10 11 11 12 12 13 13
REMARK SMILES IDX 14 14 15 15 16 16 17 17 18 18 19 19 20 20
REMARK H PARENT
REMARK Flexibility Score: inf
ROOT
ATOM      1  C   UNL     1     -50.571  13.828 -31.430  1.00  0.00     0.000 C 
ENDROOT
BRANCH   1   2
ATOM      2  C   UNL     1     -49.297  13.329 -30.718  1.00  0.00     0.000 C 
BRANCH   2   3
ATOM      3  C   UNL     1     -49.538  12.295 -29.603  1.00  0.00     0.000 C 
BRANCH   3   4
ATOM      4  C   UNL     1     -48.281  11.481 -29.263  1.00  0.00     0.000 C 
BRANCH   4   5
ATOM      5  C   UNL     1     -48.470  10.001 -29.632  1.00  0.00     0.000 C 
BRANCH   5   6
ATOM      6  C   UNL     1     -49.555   9.788 -30.702  1.00  0.00     0.006 C 
BRANCH   6   7
ATOM      7  C   UNL     1     -49.019   9.716 -32.141  1.00  0.00     0.053 C 
BRANCH   7   8
ATOM      8  C   UNL     1     -48.679   8.314 -32.544  1.00  0.00     0.041 C 
ATOM      9  O   UNL     1     -49.241   7.338 -31.981  1.00  0.00    -0.550 OA
ATOM     10  O   UNL     1     -47.715   8.085 -33.517  1.00  0.00    -0.550 OA
ENDBRANCH   7   8
ENDBRANCH   6   7
ENDBRANCH   5   6
ENDBRANCH   4   5
ENDBRANCH   3   4
ENDBRANCH   2   3
ENDBRANCH   1   2
BRANCH   1  11
ATOM     11  C   UNL     1     -51.543  12.718 -31.878  1.00  0.00     0.000 C 
BRANCH  11  12
ATOM     12  C   UNL     1     -52.932  12.757 -31.211  1.00  0.00     0.000 C 
BRANCH  12  13
ATOM     13  C   UNL     1     -53.083  11.847 -29.979  1.00  0.00     0.000 C 
BRANCH  13  14
ATOM     14  C   UNL     1     -53.137  12.634 -28.659  1.00  0.00     0.000 C 
BRANCH  14  15
ATOM     15  C   UNL     1     -53.300  14.150 -28.872  1.00  0.00     0.000 C 
BRANCH  15  16
ATOM     16  C   UNL     1     -52.164  15.011 -28.289  1.00  0.00     0.006 C 
BRANCH  16  17
ATOM     17  C   UNL     1     -52.656  16.351 -27.727  1.00  0.00     0.053 C 
BRANCH  17  18
ATOM     18  C   UNL     1     -52.520  17.430 -28.755  1.00  0.00     0.041 C 
ATOM     19  O   UNL     1     -53.426  18.293 -28.890  1.00  0.00    -0.550 OA
ATOM     20  O   UNL     1     -51.371  17.511 -29.531  1.00  0.00    -0.550 OA
ENDBRANCH  17  18
ENDBRANCH  16  17
ENDBRANCH  15  16
ENDBRANCH  14  15
ENDBRANCH  13  14
ENDBRANCH  12  13
ENDBRANCH  11  12
ENDBRANCH   1  11
TORSDOF 15
ENDMDL
MODEL 5
REMARK VINA RESULT:    -4.267     13.807     16.575
REMARK INTER + INTRA:         -10.143
REMARK INTER:                  -8.458
REMARK INTRA:                  -1.685
REMARK UNBOUND:                -2.134
REMARK SMILES O=C([O-])CCCCCCCCCCCCCCC(=O)[O-]
REMARK SMILES IDX 10 1 9 2 8 3 7 4 6 5 5 6 4 7 2 8 1 9 3 10 11 11 12 12 13 13
REMARK SMILES IDX 14 14 15 15 16 16 17 17 18 18 19 19 20 20
REMARK H PARENT
REMARK Flexibility Score: inf
ROOT
ATOM      1  C   UNL     1     -49.640  10.787 -29.502  1.00  0.00     0.000 C 
ENDROOT
BRANCH   1   2
ATOM      2  C   UNL     1     -48.865  12.117 -29.582  1.00  0.00     0.000 C 
BRANCH   2   3
ATOM      3  C   UNL     1     -49.717  13.344 -29.957  1.00  0.00     0.000 C 
BRANCH   3   4
ATOM      4  C   UNL     1     -49.569  13.745 -31.432  1.00  0.00     0.000 C 
BRANCH   4   5
ATOM      5  C   UNL     1     -50.732  14.646 -31.874  1.00  0.00     0.000 C 
BRANCH   5   6
ATOM      6  C   UNL     1     -51.864  14.713 -30.831  1.00  0.00     0.006 C 
BRANCH   6   7
ATOM      7  C   UNL     1     -52.591  16.066 -30.776  1.00  0.00     0.053 C 
BRANCH   7   8
ATOM      8  C   UNL     1     -51.719  17.150 -30.222  1.00  0.00     0.041 C 
ATOM      9  O   UNL     1     -51.517  17.230 -28.982  1.00  0.00    -0.550 OA
ATOM     10  O   UNL     1     -51.159  18.094 -31.073  1.00  0.00    -0.550 OA
ENDBRANCH   7   8
ENDBRANCH   6   7
ENDBRANCH   5   6
ENDBRANCH   4   5
ENDBRANCH   3   4
ENDBRANCH   2   3
ENDBRANCH   1   2
BRANCH   1  11
ATOM     11  C   UNL     1     -51.171  10.917 -29.624  1.00  0.00     0.000 C 
BRANCH  11  12
ATOM     12  C   UNL     1     -51.781  10.288 -30.893  1.00  0.00     0.000 C 
BRANCH  12  13
ATOM     13  C   UNL     1     -50.826  10.207 -32.097  1.00  0.00     0.000 C 
BRANCH  13  14
ATOM     14  C   UNL     1     -50.543   8.761 -32.537  1.00  0.00     0.000 C 
BRANCH  14  15
ATOM     15  C   UNL     1     -49.255   8.629 -33.370  1.00  0.00     0.000 C 
BRANCH  15  16
ATOM     16  C   UNL     1     -48.255   7.578 -32.853  1.00  0.00     0.006 C 
BRANCH  16  17
ATOM     17  C   UNL     1     -46.994   8.202 -32.241  1.00  0.00     0.053 C 
BRANCH  17  18
ATOM     18  C   UNL     1     -47.191   8.448 -30.778  1.00  0.00     0.041 C 
ATOM     19  O   UNL     1     -48.019   7.758 -30.127  1.00  0.00    -0.550 OA
ATOM     20  O   UNL     1     -46.426   9.404 -30.124  1.00  0.00    -0.550 OA
ENDBRANCH  17  18
ENDBRANCH  16  17
ENDBRANCH  15  16
ENDBRANCH  14  15
ENDBRANCH  13  14
ENDBRANCH  12  13
ENDBRANCH  11  12
ENDBRANCH   1  11
TORSDOF 15
ENDMDL
MODEL 6
REMARK VINA RESULT:    -4.220     14.183     16.647
REMARK INTER + INTRA:         -10.055
REMARK INTER:                  -8.470
REMARK INTRA:                  -1.585
REMARK UNBOUND:                -2.134
REMARK SMILES O=C([O-])CCCCCCCCCCCCCCC(=O)[O-]
REMARK SMILES IDX 10 1 9 2 8 3 7 4 6 5 5 6 4 7 2 8 1 9 3 10 11 11 12 12 13 13
REMARK SMILES IDX 14 14 15 15 16 16 17 17 18 18 19 19 20 20
REMARK H PARENT
REMARK Flexibility Score: inf
ROOT
ATOM      1  C   UNL     1     -49.605  13.168 -31.140  1.00  0.00     0.000 C 
ENDROOT
BRANCH   1   2
ATOM      2  C   UNL     1     -50.800  14.142 -31.179  1.00  0.00     0.000 C 
BRANCH   2   3
ATOM      3  C   UNL     1     -52.185  13.476 -31.093  1.00  0.00     0.000 C 
BRANCH   3   4
ATOM      4  C   UNL     1     -53.071  14.083 -29.995  1.00  0.00     0.000 C 
BRANCH   4   5
ATOM      5  C   UNL     1     -52.214  14.708 -28.883  1.00  0.00     0.000 C 
BRANCH   5   6
ATOM      6  C   UNL     1     -52.728  16.090 -28.440  1.00  0.00     0.006 C 
BRANCH   6   7
ATOM      7  C   UNL     1     -51.780  17.253 -28.774  1.00  0.00     0.053 C 
BRANCH   7   8
ATOM      8  C   UNL     1     -51.757  17.555 -30.241  1.00  0.00     0.041 C 
ATOM      9  O   UNL     1     -50.662  17.748 -30.831  1.00  0.00    -0.550 OA
ATOM     10  O   UNL     1     -52.948  17.660 -30.948  1.00  0.00    -0.550 OA
ENDBRANCH   7   8
ENDBRANCH   6   7
ENDBRANCH   5   6
ENDBRANCH   4   5
ENDBRANCH   3   4
ENDBRANCH   2   3
ENDBRANCH   1   2
BRANCH   1  11
ATOM     11  C   UNL     1     -49.213  12.674 -29.733  1.00  0.00     0.000 C 
BRANCH  11  12
ATOM     12  C   UNL     1     -49.156  11.142 -29.571  1.00  0.00     0.000 C 
BRANCH  12  13
ATOM     13  C   UNL     1     -47.766  10.580 -29.225  1.00  0.00     0.000 C 
BRANCH  13  14
ATOM     14  C   UNL     1     -47.453   9.267 -29.962  1.00  0.00     0.000 C 
BRANCH  14  15
ATOM     15  C   UNL     1     -48.719   8.498 -30.380  1.00  0.00     0.000 C 
BRANCH  15  16
ATOM     16  C   UNL     1     -48.766   8.088 -31.864  1.00  0.00     0.006 C 
BRANCH  16  17
ATOM     17  C   UNL     1     -49.202   9.233 -32.788  1.00  0.00     0.053 C 
BRANCH  17  18
ATOM     18  C   UNL     1     -50.695   9.326 -32.835  1.00  0.00     0.041 C 
ATOM     19  O   UNL     1     -51.279  10.349 -32.388  1.00  0.00    -0.550 OA
ATOM     20  O   UNL     1     -51.438   8.307 -33.415  1.00  0.00    -0.550 OA
ENDBRANCH  17  18
ENDBRANCH  16  17
ENDBRANCH  15  16
ENDBRANCH  14  15
ENDBRANCH  13  14
ENDBRANCH  12  13
ENDBRANCH  11  12
ENDBRANCH   1  11
TORSDOF 15
ENDMDL
MODEL 7
REMARK VINA RESULT:    -4.198     14.066     16.855
REMARK INTER + INTRA:         -10.013
REMARK INTER:                  -8.126
REMARK INTRA:                  -1.887
REMARK UNBOUND:                -2.134
REMARK SMILES O=C([O-])CCCCCCCCCCCCCCC(=O)[O-]
REMARK SMILES IDX 10 1 9 2 8 3 7 4 6 5 5 6 4 7 2 8 1 9 3 10 11 11 12 12 13 13
REMARK SMILES IDX 14 14 15 15 16 16 17 17 18 18 19 19 20 20
REMARK H PARENT
REMARK Flexibility Score: inf
ROOT
ATOM      1  C   UNL     1     -52.021  12.180 -31.889  1.00  0.00     0.000 C 
ENDROOT
BRANCH   1   2
ATOM      2  C   UNL     1     -52.740  11.560 -30.674  1.00  0.00     0.000 C 
BRANCH   2   3
ATOM      3  C   UNL     1     -53.697  12.510 -29.931  1.00  0.00     0.000 C 
BRANCH   3   4
ATOM      4  C   UNL     1     -53.184  12.906 -28.539  1.00  0.00     0.000 C 
BRANCH   4   5
ATOM      5  C   UNL     1     -53.339  14.417 -28.307  1.00  0.00     0.000 C 
BRANCH   5   6
ATOM      6  C   UNL     1     -52.019  15.188 -28.490  1.00  0.00     0.006 C 
BRANCH   6   7
ATOM      7  C   UNL     1     -52.197  16.689 -28.769  1.00  0.00     0.053 C 
BRANCH   7   8
ATOM      8  C   UNL     1     -52.003  17.018 -30.218  1.00  0.00     0.041 C 
ATOM      9  O   UNL     1     -52.748  16.500 -31.090  1.00  0.00    -0.550 OA
ATOM     10  O   UNL     1     -50.976  17.868 -30.606  1.00  0.00    -0.550 OA
ENDBRANCH   7   8
ENDBRANCH   6   7
ENDBRANCH   5   6
ENDBRANCH   4   5
ENDBRANCH   3   4
ENDBRANCH   2   3
ENDBRANCH   1   2
BRANCH   1  11
ATOM     11  C   UNL     1     -51.120  13.389 -31.566  1.00  0.00     0.000 C 
BRANCH  11  12
ATOM     12  C   UNL     1     -49.670  13.038 -31.179  1.00  0.00     0.000 C 
BRANCH  12  13
ATOM     13  C   UNL     1     -49.443  12.793 -29.677  1.00  0.00     0.000 C 
BRANCH  13  14
ATOM     14  C   UNL     1     -49.231  11.308 -29.340  1.00  0.00     0.000 C 
BRANCH  14  15
ATOM     15  C   UNL     1     -48.727  10.487 -30.541  1.00  0.00     0.000 C 
BRANCH  15  16
ATOM     16  C   UNL     1     -49.429   9.130 -30.738  1.00  0.00     0.006 C 
BRANCH  16  17
ATOM     17  C   UNL     1     -48.569   7.941 -30.289  1.00  0.00     0.053 C 
BRANCH  17  18
ATOM     18  C   UNL     1     -47.187   8.055 -30.851  1.00  0.00     0.041 C 
ATOM     19  O   UNL     1     -47.001   7.973 -32.093  1.00  0.00    -0.550 OA
ATOM     20  O   UNL     1     -46.111   8.300 -30.008  1.00  0.00    -0.550 OA
ENDBRANCH  17  18
ENDBRANCH  16  17
ENDBRANCH  15  16
ENDBRANCH  14  15
ENDBRANCH  13  14
ENDBRANCH  12  13
ENDBRANCH  11  12
ENDBRANCH   1  11
TORSDOF 15
ENDMDL
MODEL 8
REMARK VINA RESULT:    -4.163     13.847     15.356
REMARK INTER + INTRA:          -9.947
REMARK INTER:                  -8.658
REMARK INTRA:                  -1.289
REMARK UNBOUND:                -2.134
REMARK SMILES O=C([O-])CCCCCCCCCCCCCCC(=O)[O-]
REMARK SMILES IDX 10 1 9 2 8 3 7 4 6 5 5 6 4 7 2 8 1 9 3 10 11 11 12 12 13 13
REMARK SMILES IDX 14 14 15 15 16 16 17 17 18 18 19 19 20 20
REMARK H PARENT
REMARK Flexibility Score: inf
ROOT
ATOM      1  C   UNL     1     -47.016   9.969 -29.970  1.00  0.00     0.000 C 
ENDROOT
BRANCH   1   2
ATOM      2  C   UNL     1     -46.791   8.509 -30.409  1.00  0.00     0.000 C 
BRANCH   2   3
ATOM      3  C   UNL     1     -46.964   8.249 -31.917  1.00  0.00     0.000 C 
BRANCH   3   4
ATOM      4  C   UNL     1     -48.083   7.243 -32.224  1.00  0.00     0.000 C 
BRANCH   4   5
ATOM      5  C   UNL     1     -49.109   7.846 -33.196  1.00  0.00     0.000 C 
BRANCH   5   6
ATOM      6  C   UNL     1     -49.586   9.246 -32.769  1.00  0.00     0.006 C 
BRANCH   6   7
ATOM      7  C   UNL     1     -51.098   9.472 -32.920  1.00  0.00     0.053 C 
BRANCH   7   8
ATOM      8  C   UNL     1     -51.886   8.693 -31.912  1.00  0.00     0.041 C 
ATOM      9  O   UNL     1     -51.532   8.680 -30.704  1.00  0.00    -0.550 OA
ATOM     10  O   UNL     1     -52.990   7.953 -32.314  1.00  0.00    -0.550 OA
ENDBRANCH   7   8
ENDBRANCH   6   7
ENDBRANCH   5   6
ENDBRANCH   4   5
ENDBRANCH   3   4
ENDBRANCH   2   3
ENDBRANCH   1   2
BRANCH   1  11
ATOM     11  C   UNL     1     -48.210  10.187 -29.019  1.00  0.00     0.000 C 
BRANCH  11  12
ATOM     12  C   UNL     1     -49.317  11.112 -29.561  1.00  0.00     0.000 C 
BRANCH  12  13
ATOM     13  C   UNL     1     -48.839  12.510 -29.990  1.00  0.00     0.000 C 
BRANCH  13  14
ATOM     14  C   UNL     1     -49.990  13.417 -30.457  1.00  0.00     0.000 C 
BRANCH  14  15
ATOM     15  C   UNL     1     -49.561  14.414 -31.549  1.00  0.00     0.000 C 
BRANCH  15  16
ATOM     16  C   UNL     1     -50.602  15.500 -31.879  1.00  0.00     0.006 C 
BRANCH  16  17
ATOM     17  C   UNL     1     -51.577  15.765 -30.724  1.00  0.00     0.053 C 
BRANCH  17  18
ATOM     18  C   UNL     1     -51.378  17.143 -30.178  1.00  0.00     0.041 C 
ATOM     19  O   UNL     1     -50.719  17.993 -30.832  1.00  0.00    -0.550 OA
ATOM     20  O   UNL     1     -51.962  17.505 -28.971  1.00  0.00    -0.550 OA
ENDBRANCH  17  18
ENDBRANCH  16  17
ENDBRANCH  15  16
ENDBRANCH  14  15
ENDBRANCH  13  14
ENDBRANCH  12  13
ENDBRANCH  11  12
ENDBRANCH   1  11
TORSDOF 15
ENDMDL
MODEL 9
REMARK VINA RESULT:    -4.142     14.101     16.716
REMARK INTER + INTRA:          -9.908
REMARK INTER:                  -7.950
REMARK INTRA:                  -1.958
REMARK UNBOUND:                -2.134
REMARK SMILES O=C([O-])CCCCCCCCCCCCCCC(=O)[O-]
REMARK SMILES IDX 10 1 9 2 8 3 7 4 6 5 5 6 4 7 2 8 1 9 3 10 11 11 12 12 13 13
REMARK SMILES IDX 14 14 15 15 16 16 17 17 18 18 19 19 20 20
REMARK H PARENT
REMARK Flexibility Score: inf
ROOT
ATOM      1  C   UNL     1     -48.993  12.322 -29.635  1.00  0.00     0.000 C 
ENDROOT
BRANCH   1   2
ATOM      2  C   UNL     1     -49.636  12.211 -31.032  1.00  0.00     0.000 C 
BRANCH   2   3
ATOM      3  C   UNL     1     -51.174  12.162 -31.038  1.00  0.00     0.000 C 
BRANCH   3   4
ATOM      4  C   UNL     1     -51.780  12.281 -29.631  1.00  0.00     0.000 C 
BRANCH   4   5
ATOM      5  C   UNL     1     -52.464  13.644 -29.443  1.00  0.00     0.000 C 
BRANCH   5   6
ATOM      6  C   UNL     1     -52.672  14.396 -30.771  1.00  0.00     0.006 C 
BRANCH   6   7
ATOM      7  C   UNL     1     -52.435  15.911 -30.682  1.00  0.00     0.053 C 
BRANCH   7   8
ATOM      8  C   UNL     1     -51.091  16.302 -31.215  1.00  0.00     0.041 C 
ATOM      9  O   UNL     1     -50.464  15.526 -31.984  1.00  0.00    -0.550 OA
ATOM     10  O   UNL     1     -50.515  17.507 -30.835  1.00  0.00    -0.550 OA
ENDBRANCH   7   8
ENDBRANCH   6   7
ENDBRANCH   5   6
ENDBRANCH   4   5
ENDBRANCH   3   4
ENDBRANCH   2   3
ENDBRANCH   1   2
BRANCH   1  11
ATOM     11  C   UNL     1     -48.105  11.129 -29.230  1.00  0.00     0.000 C 
BRANCH  11  12
ATOM     12  C   UNL     1     -48.473   9.786 -29.892  1.00  0.00     0.000 C 
BRANCH  12  13
ATOM     13  C   UNL     1     -47.271   8.941 -30.348  1.00  0.00     0.000 C 
BRANCH  13  14
ATOM     14  C   UNL     1     -47.406   8.445 -31.798  1.00  0.00     0.000 C 
BRANCH  14  15
ATOM     15  C   UNL     1     -48.533   9.154 -32.571  1.00  0.00     0.000 C 
BRANCH  15  16
ATOM     16  C   UNL     1     -49.689   8.239 -33.015  1.00  0.00     0.006 C 
BRANCH  16  17
ATOM     17  C   UNL     1     -51.071   8.816 -32.683  1.00  0.00     0.053 C 
BRANCH  17  18
ATOM     18  C   UNL     1     -51.549   8.300 -31.363  1.00  0.00     0.041 C 
ATOM     19  O   UNL     1     -50.947   7.348 -30.801  1.00  0.00    -0.550 OA
ATOM     20  O   UNL     1     -52.629   8.900 -30.730  1.00  0.00    -0.550 OA
ENDBRANCH  17  18
ENDBRANCH  16  17
ENDBRANCH  15  16
ENDBRANCH  14  15
ENDBRANCH  13  14
ENDBRANCH  12  13
ENDBRANCH  11  12
ENDBRANCH   1  11
TORSDOF 15
ENDMDL
