MODEL 1
REMARK VINA RESULT:    -4.903      0.000      0.000
REMARK INTER + INTRA:          -5.409
REMARK INTER:                  -5.190
REMARK INTRA:                  -0.219
REMARK UNBOUND:                -0.219
REMARK SMILES C=C1CC[C@]2(C(C)C)C[C@H]12
REMARK SMILES IDX 5 1 4 2 3 3 2 4 1 5 10 6 9 7 6 8 7 9 8 10
REMARK H PARENT
REMARK Flexibility Score: inf
ROOT
ATOM      1  C   UNL     1       5.737   7.116  12.379  1.00  0.00    -0.020 C 
ATOM      2  C   UNL     1       6.298   7.913  11.190  1.00  0.00     0.012 C 
ATOM      3  C   UNL     1       5.371   9.110  10.962  1.00  0.00     0.031 C 
ATOM      4  C   UNL     1       4.277   8.949  11.963  1.00  0.00    -0.074 C 
ATOM      5  C   UNL     1       3.234   9.779  12.050  1.00  0.00     0.008 C 
ATOM      6  C   UNL     1       4.442   7.764  12.845  1.00  0.00     0.021 C 
ATOM      7  C   UNL     1       4.401   6.411  12.139  1.00  0.00     0.016 C 
ENDROOT
BRANCH   1   8
ATOM      8  C   UNL     1       6.733   6.456  13.379  1.00  0.00    -0.011 C 
ATOM      9  C   UNL     1       7.698   5.419  12.778  1.00  0.00     0.008 C 
ATOM     10  C   UNL     1       7.517   7.542  14.124  1.00  0.00     0.008 C 
ENDBRANCH   1   8
TORSDOF 1
ENDMDL
MODEL 2
REMARK VINA RESULT:    -4.887      1.459      2.766
REMARK INTER + INTRA:          -5.393
REMARK INTER:                  -5.259
REMARK INTRA:                  -0.133
REMARK UNBOUND:                -0.219
REMARK SMILES C=C1CC[C@]2(C(C)C)C[C@H]12
REMARK SMILES IDX 5 1 4 2 3 3 2 4 1 5 10 6 9 7 6 8 7 9 8 10
REMARK H PARENT
REMARK Flexibility Score: inf
ROOT
ATOM      1  C   UNL     1       7.182   6.956  12.906  1.00  0.00    -0.020 C 
ATOM      2  C   UNL     1       6.295   7.953  12.142  1.00  0.00     0.012 C 
ATOM      3  C   UNL     1       4.925   7.295  11.951  1.00  0.00     0.031 C 
ATOM      4  C   UNL     1       5.065   5.932  12.541  1.00  0.00    -0.074 C 
ATOM      5  C   UNL     1       4.087   5.023  12.526  1.00  0.00     0.008 C 
ATOM      6  C   UNL     1       6.404   5.669  13.131  1.00  0.00     0.021 C 
ATOM      7  C   UNL     1       7.569   5.687  12.145  1.00  0.00     0.016 C 
ENDROOT
BRANCH   1   8
ATOM      8  C   UNL     1       8.191   7.503  13.961  1.00  0.00    -0.011 C 
ATOM      9  C   UNL     1       9.427   8.225  13.396  1.00  0.00     0.008 C 
ATOM     10  C   UNL     1       7.459   8.405  14.961  1.00  0.00     0.008 C 
ENDBRANCH   1   8
TORSDOF 1
ENDMDL
MODEL 3
REMARK VINA RESULT:    -4.630      1.359      3.903
REMARK INTER + INTRA:          -5.120
REMARK INTER:                  -4.951
REMARK INTRA:                  -0.169
REMARK UNBOUND:                -0.219
REMARK SMILES C=C1CC[C@]2(C(C)C)C[C@H]12
REMARK SMILES IDX 5 1 4 2 3 3 2 4 1 5 10 6 9 7 6 8 7 9 8 10
REMARK H PARENT
REMARK Flexibility Score: inf
ROOT
ATOM      1  C   UNL     1       6.418   6.404  12.921  1.00  0.00    -0.020 C 
ATOM      2  C   UNL     1       6.311   6.878  14.380  1.00  0.00     0.012 C 
ATOM      3  C   UNL     1       7.558   7.713  14.683  1.00  0.00     0.031 C 
ATOM      4  C   UNL     1       8.377   7.653  13.438  1.00  0.00    -0.074 C 
ATOM      5  C   UNL     1       9.578   8.226  13.321  1.00  0.00     0.008 C 
ATOM      6  C   UNL     1       7.742   6.877  12.340  1.00  0.00     0.021 C 
ATOM      7  C   UNL     1       7.527   5.393  12.627  1.00  0.00     0.016 C 
ENDROOT
BRANCH   1   8
ATOM      8  C   UNL     1       5.122   6.327  12.059  1.00  0.00    -0.011 C 
ATOM      9  C   UNL     1       4.104   5.250  12.472  1.00  0.00     0.008 C 
ATOM     10  C   UNL     1       4.449   7.703  12.009  1.00  0.00     0.008 C 
ENDBRANCH   1   8
TORSDOF 1
ENDMDL
MODEL 4
REMARK VINA RESULT:    -4.236      1.425      3.587
REMARK INTER + INTRA:          -4.703
REMARK INTER:                  -4.515
REMARK INTRA:                  -0.189
REMARK UNBOUND:                -0.219
REMARK SMILES C=C1CC[C@]2(C(C)C)C[C@H]12
REMARK SMILES IDX 5 1 4 2 3 3 2 4 1 5 10 6 9 7 6 8 7 9 8 10
REMARK H PARENT
REMARK Flexibility Score: inf
ROOT
ATOM      1  C   UNL     1       5.934   6.946  12.244  1.00  0.00    -0.020 C 
ATOM      2  C   UNL     1       6.868   5.725  12.261  1.00  0.00     0.012 C 
ATOM      3  C   UNL     1       8.146   6.135  12.999  1.00  0.00     0.031 C 
ATOM      4  C   UNL     1       7.954   7.577  13.331  1.00  0.00    -0.074 C 
ATOM      5  C   UNL     1       8.882   8.318  13.943  1.00  0.00     0.008 C 
ATOM      6  C   UNL     1       6.640   8.122  12.900  1.00  0.00     0.021 C 
ATOM      7  C   UNL     1       6.397   8.129  11.393  1.00  0.00     0.016 C 
ENDROOT
BRANCH   1   8
ATOM      8  C   UNL     1       4.399   6.720  12.394  1.00  0.00    -0.011 C 
ATOM      9  C   UNL     1       3.938   5.252  12.429  1.00  0.00     0.008 C 
ATOM     10  C   UNL     1       3.881   7.469  13.626  1.00  0.00     0.008 C 
ENDBRANCH   1   8
TORSDOF 1
ENDMDL
MODEL 5
REMARK VINA RESULT:    -4.073      0.995      3.899
REMARK INTER + INTRA:          -4.531
REMARK INTER:                  -4.535
REMARK INTRA:                   0.004
REMARK UNBOUND:                -0.219
REMARK SMILES C=C1CC[C@]2(C(C)C)C[C@H]12
REMARK SMILES IDX 5 1 4 2 3 3 2 4 1 5 10 6 9 7 6 8 7 9 8 10
REMARK H PARENT
REMARK Flexibility Score: inf
ROOT
ATOM      1  C   UNL     1       5.394   7.706  12.635  1.00  0.00    -0.020 C 
ATOM      2  C   UNL     1       6.706   8.365  13.091  1.00  0.00     0.012 C 
ATOM      3  C   UNL     1       7.810   7.308  12.989  1.00  0.00     0.031 C 
ATOM      4  C   UNL     1       7.114   6.064  12.547  1.00  0.00    -0.074 C 
ATOM      5  C   UNL     1       7.737   4.893  12.387  1.00  0.00     0.008 C 
ATOM      6  C   UNL     1       5.656   6.241  12.319  1.00  0.00     0.021 C 
ATOM      7  C   UNL     1       4.841   6.615  13.554  1.00  0.00     0.016 C 
ENDROOT
BRANCH   1   8
ATOM      8  C   UNL     1       4.370   8.553  11.822  1.00  0.00    -0.011 C 
ATOM      9  C   UNL     1       3.335   9.333  12.651  1.00  0.00     0.008 C 
ATOM     10  C   UNL     1       5.116   9.501  10.875  1.00  0.00     0.008 C 
ENDBRANCH   1   8
TORSDOF 1
ENDMDL
MODEL 6
REMARK VINA RESULT:    -4.067      1.117      3.935
REMARK INTER + INTRA:          -4.524
REMARK INTER:                  -4.634
REMARK INTRA:                   0.111
REMARK UNBOUND:                -0.219
REMARK SMILES C=C1CC[C@]2(C(C)C)C[C@H]12
REMARK SMILES IDX 5 1 4 2 3 3 2 4 1 5 10 6 9 7 6 8 7 9 8 10
REMARK H PARENT
REMARK Flexibility Score: inf
ROOT
ATOM      1  C   UNL     1       5.962   7.405  12.406  1.00  0.00    -0.020 C 
ATOM      2  C   UNL     1       6.093   6.306  13.473  1.00  0.00     0.012 C 
ATOM      3  C   UNL     1       7.369   6.590  14.270  1.00  0.00     0.031 C 
ATOM      4  C   UNL     1       7.974   7.788  13.618  1.00  0.00    -0.074 C 
ATOM      5  C   UNL     1       9.136   8.322  14.000  1.00  0.00     0.008 C 
ATOM      6  C   UNL     1       7.172   8.324  12.487  1.00  0.00     0.021 C 
ATOM      7  C   UNL     1       7.013   7.384  11.295  1.00  0.00     0.016 C 
ENDROOT
BRANCH   1   8
ATOM      8  C   UNL     1       4.543   7.942  12.049  1.00  0.00    -0.011 C 
ATOM      9  C   UNL     1       3.481   7.814  13.155  1.00  0.00     0.008 C 
ATOM     10  C   UNL     1       4.642   9.395  11.572  1.00  0.00     0.008 C 
ENDBRANCH   1   8
TORSDOF 1
ENDMDL
MODEL 7
REMARK VINA RESULT:    -3.327      4.758      6.408
REMARK INTER + INTRA:          -3.741
REMARK INTER:                  -3.524
REMARK INTRA:                  -0.216
REMARK UNBOUND:                -0.219
REMARK SMILES C=C1CC[C@]2(C(C)C)C[C@H]12
REMARK SMILES IDX 5 1 4 2 3 3 2 4 1 5 10 6 9 7 6 8 7 9 8 10
REMARK H PARENT
REMARK Flexibility Score: inf
ROOT
ATOM      1  C   UNL     1       2.941  12.671  11.993  1.00  0.00    -0.020 C 
ATOM      2  C   UNL     1       2.057  13.333  10.923  1.00  0.00     0.012 C 
ATOM      3  C   UNL     1       0.708  12.609  10.932  1.00  0.00     0.031 C 
ATOM      4  C   UNL     1       0.858  11.522  11.942  1.00  0.00    -0.074 C 
ATOM      5  C   UNL     1      -0.100  10.631  12.209  1.00  0.00     0.008 C 
ATOM      6  C   UNL     1       2.184  11.508  12.615  1.00  0.00     0.021 C 
ATOM      7  C   UNL     1       3.377  11.234  11.704  1.00  0.00     0.016 C 
ENDROOT
BRANCH   1   8
ATOM      8  C   UNL     1       3.906  13.566  12.828  1.00  0.00    -0.011 C 
ATOM      9  C   UNL     1       4.048  15.023  12.356  1.00  0.00     0.008 C 
ATOM     10  C   UNL     1       3.505  13.523  14.307  1.00  0.00     0.008 C 
ENDBRANCH   1   8
TORSDOF 1
ENDMDL
