MODEL 1
REMARK VINA RESULT:    -5.794      0.000      0.000
REMARK INTER + INTRA:          -7.314
REMARK INTER:                  -6.810
REMARK INTRA:                  -0.504
REMARK UNBOUND:                -0.504
REMARK SMILES CCC=Cc1oc(O)c2c(O)cccc12
REMARK SMILES IDX 7 1 6 2 5 3 15 4 14 5 13 6 12 7 10 8 9 9 8 10 4 12 3 13 2 14
REMARK SMILES IDX 1 15 11 16
REMARK H PARENT 8 11 11 17
REMARK Flexibility Score: inf
ROOT
ATOM      1  C   UNL     1      -7.906 -23.492 -16.487  1.00  0.00     0.294 A 
ATOM      2  O   UNL     1      -8.708 -23.929 -17.438  1.00  0.00    -0.425 OA
ATOM      3  C   UNL     1      -8.278 -23.475 -18.603  1.00  0.00     0.138 A 
ATOM      4  C   UNL     1      -7.145 -22.706 -18.387  1.00  0.00     0.035 A 
ATOM      5  C   UNL     1      -6.314 -22.008 -19.266  1.00  0.00     0.013 A 
ATOM      6  C   UNL     1      -5.219 -21.311 -18.721  1.00  0.00     0.005 A 
ATOM      7  C   UNL     1      -4.979 -21.325 -17.329  1.00  0.00     0.047 A 
ATOM      8  C   UNL     1      -5.834 -22.040 -16.466  1.00  0.00     0.130 A 
ATOM      9  C   UNL     1      -6.911 -22.719 -17.037  1.00  0.00     0.108 A 
ENDROOT
BRANCH   1  10
ATOM     10  O   UNL     1      -8.064 -23.781 -15.136  1.00  0.00    -0.480 OA
ATOM     11  H   UNL     1      -7.255 -23.948 -14.551  1.00  0.00     0.297 HD
ENDBRANCH   1  10
BRANCH   3  12
ATOM     12  C   UNL     1      -8.911 -23.736 -19.914  1.00  0.00     0.043 C 
ATOM     13  C   UNL     1      -8.490 -24.630 -20.823  1.00  0.00    -0.023 C 
BRANCH  13  14
ATOM     14  C   UNL     1      -7.271 -25.502 -20.693  1.00  0.00     0.024 C 
ATOM     15  C   UNL     1      -6.250 -25.201 -21.788  1.00  0.00     0.008 C 
ENDBRANCH  13  14
ENDBRANCH   3  12
BRANCH   8  16
ATOM     16  O   UNL     1      -5.618 -22.069 -15.090  1.00  0.00    -0.507 OA
ATOM     17  H   UNL     1      -5.924 -21.311 -14.492  1.00  0.00     0.293 HD
ENDBRANCH   8  16
TORSDOF 4
ENDMDL
MODEL 2
REMARK VINA RESULT:    -5.346      1.896      4.067
REMARK INTER + INTRA:          -6.787
REMARK INTER:                  -6.441
REMARK INTRA:                  -0.346
REMARK UNBOUND:                -0.504
REMARK SMILES CCC=Cc1oc(O)c2c(O)cccc12
REMARK SMILES IDX 7 1 6 2 5 3 15 4 14 5 13 6 12 7 10 8 9 9 8 10 4 12 3 13 2 14
REMARK SMILES IDX 1 15 11 16
REMARK H PARENT 8 11 11 17
REMARK Flexibility Score: inf
ROOT
ATOM      1  C   UNL     1      -7.669 -23.527 -18.736  1.00  0.00     0.294 A 
ATOM      2  O   UNL     1      -7.005 -22.950 -19.718  1.00  0.00    -0.425 OA
ATOM      3  C   UNL     1      -6.058 -22.186 -19.203  1.00  0.00     0.138 A 
ATOM      4  C   UNL     1      -6.119 -22.275 -17.821  1.00  0.00     0.035 A 
ATOM      5  C   UNL     1      -5.356 -21.677 -16.816  1.00  0.00     0.013 A 
ATOM      6  C   UNL     1      -5.677 -21.980 -15.479  1.00  0.00     0.005 A 
ATOM      7  C   UNL     1      -6.738 -22.863 -15.177  1.00  0.00     0.047 A 
ATOM      8  C   UNL     1      -7.490 -23.453 -16.213  1.00  0.00     0.130 A 
ATOM      9  C   UNL     1      -7.148 -23.131 -17.527  1.00  0.00     0.108 A 
ENDROOT
BRANCH   1  10
ATOM     10  O   UNL     1      -8.735 -24.402 -18.919  1.00  0.00    -0.480 OA
ATOM     11  H   UNL     1      -9.531 -24.376 -18.295  1.00  0.00     0.297 HD
ENDBRANCH   1  10
BRANCH   3  12
ATOM     12  C   UNL     1      -5.101 -21.364 -19.976  1.00  0.00     0.043 C 
ATOM     13  C   UNL     1      -5.046 -20.022 -19.980  1.00  0.00    -0.023 C 
BRANCH  13  14
ATOM     14  C   UNL     1      -5.974 -19.106 -19.231  1.00  0.00     0.024 C 
ATOM     15  C   UNL     1      -5.204 -18.012 -18.495  1.00  0.00     0.008 C 
ENDBRANCH  13  14
ENDBRANCH   3  12
BRANCH   8  16
ATOM     16  O   UNL     1      -8.540 -24.327 -15.941  1.00  0.00    -0.507 OA
ATOM     17  H   UNL     1      -9.404 -23.999 -15.526  1.00  0.00     0.293 HD
ENDBRANCH   8  16
TORSDOF 4
ENDMDL
MODEL 3
REMARK VINA RESULT:    -5.262      2.521      3.553
REMARK INTER + INTRA:          -6.689
REMARK INTER:                  -6.342
REMARK INTRA:                  -0.347
REMARK UNBOUND:                -0.504
REMARK SMILES CCC=Cc1oc(O)c2c(O)cccc12
REMARK SMILES IDX 7 1 6 2 5 3 15 4 14 5 13 6 12 7 10 8 9 9 8 10 4 12 3 13 2 14
REMARK SMILES IDX 1 15 11 16
REMARK H PARENT 8 11 11 17
REMARK Flexibility Score: inf
ROOT
ATOM      1  C   UNL     1      -8.349 -24.577 -20.054  1.00  0.00     0.294 A 
ATOM      2  O   UNL     1      -7.952 -24.479 -21.308  1.00  0.00    -0.425 OA
ATOM      3  C   UNL     1      -7.017 -23.548 -21.389  1.00  0.00     0.138 A 
ATOM      4  C   UNL     1      -6.806 -23.020 -20.125  1.00  0.00     0.035 A 
ATOM      5  C   UNL     1      -5.940 -22.026 -19.665  1.00  0.00     0.013 A 
ATOM      6  C   UNL     1      -5.966 -21.716 -18.292  1.00  0.00     0.005 A 
ATOM      7  C   UNL     1      -6.844 -22.395 -17.418  1.00  0.00     0.047 A 
ATOM      8  C   UNL     1      -7.706 -23.396 -17.911  1.00  0.00     0.130 A 
ATOM      9  C   UNL     1      -7.657 -23.679 -19.276  1.00  0.00     0.108 A 
ENDROOT
BRANCH   1  10
ATOM     10  O   UNL     1      -9.324 -25.462 -19.609  1.00  0.00    -0.480 OA
ATOM     11  H   UNL     1      -9.327 -25.778 -18.647  1.00  0.00     0.297 HD
ENDBRANCH   1  10
BRANCH   3  12
ATOM     12  C   UNL     1      -6.324 -23.132 -22.628  1.00  0.00     0.043 C 
ATOM     13  C   UNL     1      -6.840 -22.352 -23.591  1.00  0.00    -0.023 C 
BRANCH  13  14
ATOM     14  C   UNL     1      -8.235 -21.790 -23.608  1.00  0.00     0.024 C 
ATOM     15  C   UNL     1      -8.459 -20.887 -24.819  1.00  0.00     0.008 C 
ENDBRANCH  13  14
ENDBRANCH   3  12
BRANCH   8  16
ATOM     16  O   UNL     1      -8.580 -24.080 -17.069  1.00  0.00    -0.507 OA
ATOM     17  H   UNL     1      -9.050 -23.612 -16.304  1.00  0.00     0.293 HD
ENDBRANCH   8  16
TORSDOF 4
ENDMDL
MODEL 4
REMARK VINA RESULT:    -5.255      1.696      2.900
REMARK INTER + INTRA:          -6.680
REMARK INTER:                  -6.387
REMARK INTRA:                  -0.294
REMARK UNBOUND:                -0.504
REMARK SMILES CCC=Cc1oc(O)c2c(O)cccc12
REMARK SMILES IDX 7 1 6 2 5 3 15 4 14 5 13 6 12 7 10 8 9 9 8 10 4 12 3 13 2 14
REMARK SMILES IDX 1 15 11 16
REMARK H PARENT 8 11 11 17
REMARK Flexibility Score: inf
ROOT
ATOM      1  C   UNL     1      -7.968 -23.660 -18.588  1.00  0.00     0.294 A 
ATOM      2  O   UNL     1      -7.481 -23.084 -19.670  1.00  0.00    -0.425 OA
ATOM      3  C   UNL     1      -6.519 -22.250 -19.314  1.00  0.00     0.138 A 
ATOM      4  C   UNL     1      -6.383 -22.293 -17.935  1.00  0.00     0.035 A 
ATOM      5  C   UNL     1      -5.525 -21.618 -17.064  1.00  0.00     0.013 A 
ATOM      6  C   UNL     1      -5.639 -21.890 -15.688  1.00  0.00     0.005 A 
ATOM      7  C   UNL     1      -6.594 -22.818 -15.215  1.00  0.00     0.047 A 
ATOM      8  C   UNL     1      -7.447 -23.486 -16.119  1.00  0.00     0.130 A 
ATOM      9  C   UNL     1      -7.309 -23.193 -17.476  1.00  0.00     0.108 A 
ENDROOT
BRANCH   1  10
ATOM     10  O   UNL     1      -8.995 -24.597 -18.595  1.00  0.00    -0.480 OA
ATOM     11  H   UNL     1      -9.451 -24.864 -17.732  1.00  0.00     0.297 HD
ENDBRANCH   1  10
BRANCH   3  12
ATOM     12  C   UNL     1      -5.729 -21.406 -20.236  1.00  0.00     0.043 C 
ATOM     13  C   UNL     1      -5.025 -21.844 -21.292  1.00  0.00    -0.023 C 
BRANCH  13  14
ATOM     14  C   UNL     1      -4.875 -23.283 -21.708  1.00  0.00     0.024 C 
ATOM     15  C   UNL     1      -5.758 -23.611 -22.909  1.00  0.00     0.008 C 
ENDBRANCH  13  14
ENDBRANCH   3  12
BRANCH   8  16
ATOM     16  O   UNL     1      -8.395 -24.405 -15.677  1.00  0.00    -0.507 OA
ATOM     17  H   UNL     1      -8.362 -25.376 -15.966  1.00  0.00     0.293 HD
ENDBRANCH   8  16
TORSDOF 4
ENDMDL
MODEL 5
REMARK VINA RESULT:    -5.117      2.955      4.407
REMARK INTER + INTRA:          -6.518
REMARK INTER:                  -6.173
REMARK INTRA:                  -0.346
REMARK UNBOUND:                -0.504
REMARK SMILES CCC=Cc1oc(O)c2c(O)cccc12
REMARK SMILES IDX 7 1 6 2 5 3 15 4 14 5 13 6 12 7 10 8 9 9 8 10 4 12 3 13 2 14
REMARK SMILES IDX 1 15 11 16
REMARK H PARENT 8 11 11 17
REMARK Flexibility Score: inf
ROOT
ATOM      1  C   UNL     1      -6.586 -21.595 -19.620  1.00  0.00     0.294 A 
ATOM      2  O   UNL     1      -6.011 -21.395 -20.789  1.00  0.00    -0.425 OA
ATOM      3  C   UNL     1      -6.428 -22.320 -21.636  1.00  0.00     0.138 A 
ATOM      4  C   UNL     1      -7.314 -23.158 -20.976  1.00  0.00     0.035 A 
ATOM      5  C   UNL     1      -8.030 -24.277 -21.405  1.00  0.00     0.013 A 
ATOM      6  C   UNL     1      -8.865 -24.921 -20.472  1.00  0.00     0.005 A 
ATOM      7  C   UNL     1      -8.965 -24.440 -19.147  1.00  0.00     0.047 A 
ATOM      8  C   UNL     1      -8.230 -23.307 -18.742  1.00  0.00     0.130 A 
ATOM      9  C   UNL     1      -7.412 -22.693 -19.691  1.00  0.00     0.108 A 
ENDROOT
BRANCH   1  10
ATOM     10  O   UNL     1      -6.375 -20.804 -18.497  1.00  0.00    -0.480 OA
ATOM     11  H   UNL     1      -5.528 -20.258 -18.408  1.00  0.00     0.297 HD
ENDBRANCH   1  10
BRANCH   3  12
ATOM     12  C   UNL     1      -6.008 -22.444 -23.049  1.00  0.00     0.043 C 
ATOM     13  C   UNL     1      -6.771 -22.175 -24.120  1.00  0.00    -0.023 C 
BRANCH  13  14
ATOM     14  C   UNL     1      -8.210 -21.735 -24.082  1.00  0.00     0.024 C 
ATOM     15  C   UNL     1      -8.434 -20.484 -24.926  1.00  0.00     0.008 C 
ENDBRANCH  13  14
ENDBRANCH   3  12
BRANCH   8  16
ATOM     16  O   UNL     1      -8.313 -22.814 -17.442  1.00  0.00    -0.507 OA
ATOM     17  H   UNL     1      -8.999 -23.170 -16.786  1.00  0.00     0.293 HD
ENDBRANCH   8  16
TORSDOF 4
ENDMDL
MODEL 6
REMARK VINA RESULT:    -4.889      3.118      5.523
REMARK INTER + INTRA:          -6.251
REMARK INTER:                  -5.873
REMARK INTRA:                  -0.377
REMARK UNBOUND:                -0.504
REMARK SMILES CCC=Cc1oc(O)c2c(O)cccc12
REMARK SMILES IDX 7 1 6 2 5 3 15 4 14 5 13 6 12 7 10 8 9 9 8 10 4 12 3 13 2 14
REMARK SMILES IDX 1 15 11 16
REMARK H PARENT 8 11 11 17
REMARK Flexibility Score: inf
ROOT
ATOM      1  C   UNL     1      -7.251 -22.688 -22.542  1.00  0.00     0.294 A 
ATOM      2  O   UNL     1      -8.195 -22.577 -21.628  1.00  0.00    -0.425 OA
ATOM      3  C   UNL     1      -8.104 -23.597 -20.793  1.00  0.00     0.138 A 
ATOM      4  C   UNL     1      -7.050 -24.404 -21.193  1.00  0.00     0.035 A 
ATOM      5  C   UNL     1      -6.533 -25.589 -20.665  1.00  0.00     0.013 A 
ATOM      6  C   UNL     1      -5.432 -26.174 -21.316  1.00  0.00     0.005 A 
ATOM      7  C   UNL     1      -4.875 -25.572 -22.467  1.00  0.00     0.047 A 
ATOM      8  C   UNL     1      -5.416 -24.375 -22.977  1.00  0.00     0.130 A 
ATOM      9  C   UNL     1      -6.508 -23.821 -22.309  1.00  0.00     0.108 A 
ENDROOT
BRANCH   1  10
ATOM     10  O   UNL     1      -7.055 -21.782 -23.579  1.00  0.00    -0.480 OA
ATOM     11  H   UNL     1      -7.595 -21.856 -24.432  1.00  0.00     0.297 HD
ENDBRANCH   1  10
BRANCH   3  12
ATOM     12  C   UNL     1      -8.988 -23.840 -19.632  1.00  0.00     0.043 C 
ATOM     13  C   UNL     1      -8.672 -23.622 -18.346  1.00  0.00    -0.023 C 
BRANCH  13  14
ATOM     14  C   UNL     1      -7.342 -23.128 -17.844  1.00  0.00     0.024 C 
ATOM     15  C   UNL     1      -7.308 -23.069 -16.319  1.00  0.00     0.008 C 
ENDBRANCH  13  14
ENDBRANCH   3  12
BRANCH   8  16
ATOM     16  O   UNL     1      -4.884 -23.762 -24.109  1.00  0.00    -0.507 OA
ATOM     17  H   UNL     1      -4.678 -22.770 -24.124  1.00  0.00     0.293 HD
ENDBRANCH   8  16
TORSDOF 4
ENDMDL
MODEL 7
REMARK VINA RESULT:    -4.833      1.698      4.590
REMARK INTER + INTRA:          -6.184
REMARK INTER:                  -5.796
REMARK INTRA:                  -0.388
REMARK UNBOUND:                -0.504
REMARK SMILES CCC=Cc1oc(O)c2c(O)cccc12
REMARK SMILES IDX 7 1 6 2 5 3 15 4 14 5 13 6 12 7 10 8 9 9 8 10 4 12 3 13 2 14
REMARK SMILES IDX 1 15 11 16
REMARK H PARENT 8 11 11 17
REMARK Flexibility Score: inf
ROOT
ATOM      1  C   UNL     1      -7.791 -23.504 -17.743  1.00  0.00     0.294 A 
ATOM      2  O   UNL     1      -6.932 -22.666 -17.197  1.00  0.00    -0.425 OA
ATOM      3  C   UNL     1      -6.037 -22.318 -18.106  1.00  0.00     0.138 A 
ATOM      4  C   UNL     1      -6.336 -22.969 -19.293  1.00  0.00     0.035 A 
ATOM      5  C   UNL     1      -5.716 -22.951 -20.544  1.00  0.00     0.013 A 
ATOM      6  C   UNL     1      -6.279 -23.738 -21.567  1.00  0.00     0.005 A 
ATOM      7  C   UNL     1      -7.432 -24.515 -21.323  1.00  0.00     0.047 A 
ATOM      8  C   UNL     1      -8.037 -24.513 -20.050  1.00  0.00     0.130 A 
ATOM      9  C   UNL     1      -7.455 -23.723 -19.058  1.00  0.00     0.108 A 
ENDROOT
BRANCH   1  10
ATOM     10  O   UNL     1      -8.868 -24.069 -17.070  1.00  0.00    -0.480 OA
ATOM     11  H   UNL     1      -8.734 -24.877 -16.475  1.00  0.00     0.297 HD
ENDBRANCH   1  10
BRANCH   3  12
ATOM     12  C   UNL     1      -4.900 -21.398 -17.885  1.00  0.00     0.043 C 
ATOM     13  C   UNL     1      -4.875 -20.094 -18.199  1.00  0.00    -0.023 C 
BRANCH  13  14
ATOM     14  C   UNL     1      -5.986 -19.335 -18.873  1.00  0.00     0.024 C 
ATOM     15  C   UNL     1      -5.746 -17.828 -18.818  1.00  0.00     0.008 C 
ENDBRANCH  13  14
ENDBRANCH   3  12
BRANCH   8  16
ATOM     16  O   UNL     1      -9.176 -25.271 -19.785  1.00  0.00    -0.507 OA
ATOM     17  H   UNL     1      -9.287 -26.204 -20.164  1.00  0.00     0.293 HD
ENDBRANCH   8  16
TORSDOF 4
ENDMDL
MODEL 8
REMARK VINA RESULT:    -4.767      3.799      5.541
REMARK INTER + INTRA:          -6.108
REMARK INTER:                  -5.593
REMARK INTRA:                  -0.515
REMARK UNBOUND:                -0.504
REMARK SMILES CCC=Cc1oc(O)c2c(O)cccc12
REMARK SMILES IDX 7 1 6 2 5 3 15 4 14 5 13 6 12 7 10 8 9 9 8 10 4 12 3 13 2 14
REMARK SMILES IDX 1 15 11 16
REMARK H PARENT 8 11 11 17
REMARK Flexibility Score: inf
ROOT
ATOM      1  C   UNL     1      -6.042 -25.446 -22.129  1.00  0.00     0.294 A 
ATOM      2  O   UNL     1      -5.196 -24.568 -22.629  1.00  0.00    -0.425 OA
ATOM      3  C   UNL     1      -5.593 -23.352 -22.294  1.00  0.00     0.138 A 
ATOM      4  C   UNL     1      -6.755 -23.457 -21.544  1.00  0.00     0.035 A 
ATOM      5  C   UNL     1      -7.570 -22.490 -20.953  1.00  0.00     0.013 A 
ATOM      6  C   UNL     1      -8.702 -22.930 -20.241  1.00  0.00     0.005 A 
ATOM      7  C   UNL     1      -8.993 -24.308 -20.136  1.00  0.00     0.047 A 
ATOM      8  C   UNL     1      -8.151 -25.263 -20.742  1.00  0.00     0.130 A 
ATOM      9  C   UNL     1      -7.038 -24.794 -21.441  1.00  0.00     0.108 A 
ENDROOT
BRANCH   1  10
ATOM     10  O   UNL     1      -5.926 -26.823 -22.287  1.00  0.00    -0.480 OA
ATOM     11  H   UNL     1      -5.047 -27.233 -22.574  1.00  0.00     0.297 HD
ENDBRANCH   1  10
BRANCH   3  12
ATOM     12  C   UNL     1      -4.916 -22.092 -22.670  1.00  0.00     0.043 C 
ATOM     13  C   UNL     1      -5.141 -21.385 -23.788  1.00  0.00    -0.023 C 
BRANCH  13  14
ATOM     14  C   UNL     1      -6.095 -21.766 -24.888  1.00  0.00     0.024 C 
ATOM     15  C   UNL     1      -7.534 -21.404 -24.528  1.00  0.00     0.008 C 
ENDBRANCH  13  14
ENDBRANCH   3  12
BRANCH   8  16
ATOM     16  O   UNL     1      -8.416 -26.627 -20.652  1.00  0.00    -0.507 OA
ATOM     17  H   UNL     1      -8.677 -27.056 -19.771  1.00  0.00     0.293 HD
ENDBRANCH   8  16
TORSDOF 4
ENDMDL
