MODEL 1
REMARK VINA RESULT:    -3.899      0.000      0.000
REMARK INTER + INTRA:          -9.709
REMARK INTER:                  -7.547
REMARK INTRA:                  -2.162
REMARK UNBOUND:                -2.162
REMARK SMILES CCCCCCCCCCCCCCCCCC(=O)[O-]
REMARK SMILES IDX 10 1 11 2 12 3 13 4 14 5 15 6 16 7 17 8 18 9 19 10 20 11
REMARK SMILES IDX 9 12 8 13 7 14 6 15 5 16 4 17 3 18 2 19 1 20
REMARK H PARENT
REMARK Flexibility Score: inf
ROOT
ATOM      1  C   UNL     1      41.859  22.549 223.891  1.00  0.00     0.000 C 
ENDROOT
BRANCH   1   2
ATOM      2  C   UNL     1      42.115  21.429 222.872  1.00  0.00     0.000 C 
BRANCH   2   3
ATOM      3  C   UNL     1      41.808  20.033 223.441  1.00  0.00     0.000 C 
BRANCH   3   4
ATOM      4  C   UNL     1      42.516  19.767 224.782  1.00  0.00     0.000 C 
BRANCH   4   5
ATOM      5  C   UNL     1      41.587  19.310 225.922  1.00  0.00     0.000 C 
BRANCH   5   6
ATOM      6  C   UNL     1      40.097  19.513 225.597  1.00  0.00     0.000 C 
BRANCH   6   7
ATOM      7  C   UNL     1      39.290  18.209 225.691  1.00  0.00     0.006 C 
BRANCH   7   8
ATOM      8  C   UNL     1      37.778  18.460 225.762  1.00  0.00     0.053 C 
BRANCH   8   9
ATOM      9  C   UNL     1      37.398  18.975 227.113  1.00  0.00     0.041 C 
ATOM     10  O   UNL     1      37.347  18.192 228.100  1.00  0.00    -0.550 OA
ATOM     11  O   UNL     1      37.147  20.329 227.297  1.00  0.00    -0.550 OA
ENDBRANCH   8   9
ENDBRANCH   7   8
ENDBRANCH   6   7
ENDBRANCH   5   6
ENDBRANCH   4   5
ENDBRANCH   3   4
ENDBRANCH   2   3
ENDBRANCH   1   2
BRANCH   1  12
ATOM     12  C   UNL     1      41.006  23.692 223.310  1.00  0.00     0.000 C 
BRANCH  12  13
ATOM     13  C   UNL     1      39.562  23.244 223.003  1.00  0.00    -0.000 C 
BRANCH  13  14
ATOM     14  C   UNL     1      38.875  22.537 224.184  1.00  0.00    -0.000 C 
BRANCH  14  15
ATOM     15  C   UNL     1      37.341  22.579 224.095  1.00  0.00    -0.000 C 
BRANCH  15  16
ATOM     16  C   UNL     1      36.831  23.703 223.179  1.00  0.00    -0.000 C 
BRANCH  16  17
ATOM     17  C   UNL     1      35.861  24.662 223.893  1.00  0.00    -0.000 C 
BRANCH  17  18
ATOM     18  C   UNL     1      36.588  25.581 224.898  1.00  0.00    -0.000 C 
BRANCH  18  19
ATOM     19  C   UNL     1      37.911  26.153 224.363  1.00  0.00    -0.003 C 
ATOM     20  C   UNL     1      39.020  26.177 225.412  1.00  0.00     0.004 C 
ENDBRANCH  18  19
ENDBRANCH  17  18
ENDBRANCH  16  17
ENDBRANCH  15  16
ENDBRANCH  14  15
ENDBRANCH  13  14
ENDBRANCH  12  13
ENDBRANCH   1  12
TORSDOF 16
ENDMDL
MODEL 2
REMARK VINA RESULT:    -3.893      3.458      6.488
REMARK INTER + INTRA:          -9.697
REMARK INTER:                  -6.799
REMARK INTRA:                  -2.898
REMARK UNBOUND:                -2.162
REMARK SMILES CCCCCCCCCCCCCCCCCC(=O)[O-]
REMARK SMILES IDX 10 1 11 2 12 3 13 4 14 5 15 6 16 7 17 8 18 9 19 10 20 11
REMARK SMILES IDX 9 12 8 13 7 14 6 15 5 16 4 17 3 18 2 19 1 20
REMARK H PARENT
REMARK Flexibility Score: inf
ROOT
ATOM      1  C   UNL     1      39.559  25.635 227.026  1.00  0.00     0.000 C 
ENDROOT
BRANCH   1   2
ATOM      2  C   UNL     1      38.198  24.927 227.107  1.00  0.00     0.000 C 
BRANCH   2   3
ATOM      3  C   UNL     1      37.225  25.392 226.012  1.00  0.00     0.000 C 
BRANCH   3   4
ATOM      4  C   UNL     1      37.945  25.971 224.780  1.00  0.00     0.000 C 
BRANCH   4   5
ATOM      5  C   UNL     1      37.315  25.592 223.427  1.00  0.00     0.000 C 
BRANCH   5   6
ATOM      6  C   UNL     1      36.021  24.774 223.578  1.00  0.00     0.000 C 
BRANCH   6   7
ATOM      7  C   UNL     1      35.663  23.997 222.302  1.00  0.00     0.006 C 
BRANCH   7   8
ATOM      8  C   UNL     1      36.902  23.451 221.581  1.00  0.00     0.053 C 
BRANCH   8   9
ATOM      9  C   UNL     1      36.838  23.769 220.121  1.00  0.00     0.041 C 
ATOM     10  O   UNL     1      37.579  23.158 219.305  1.00  0.00    -0.550 OA
ATOM     11  O   UNL     1      35.924  24.704 219.652  1.00  0.00    -0.550 OA
ENDBRANCH   8   9
ENDBRANCH   7   8
ENDBRANCH   6   7
ENDBRANCH   5   6
ENDBRANCH   4   5
ENDBRANCH   3   4
ENDBRANCH   2   3
ENDBRANCH   1   2
BRANCH   1  12
ATOM     12  C   UNL     1      40.736  24.644 226.954  1.00  0.00     0.000 C 
BRANCH  12  13
ATOM     13  C   UNL     1      41.587  24.842 225.682  1.00  0.00    -0.000 C 
BRANCH  13  14
ATOM     14  C   UNL     1      41.075  24.045 224.470  1.00  0.00    -0.000 C 
BRANCH  14  15
ATOM     15  C   UNL     1      40.448  22.697 224.863  1.00  0.00    -0.000 C 
BRANCH  15  16
ATOM     16  C   UNL     1      39.148  22.402 224.099  1.00  0.00    -0.000 C 
BRANCH  16  17
ATOM     17  C   UNL     1      38.023  21.881 225.012  1.00  0.00    -0.000 C 
BRANCH  17  18
ATOM     18  C   UNL     1      38.570  21.304 226.335  1.00  0.00    -0.000 C 
BRANCH  18  19
ATOM     19  C   UNL     1      38.534  19.768 226.399  1.00  0.00    -0.003 C 
ATOM     20  C   UNL     1      37.243  19.177 225.836  1.00  0.00     0.004 C 
ENDBRANCH  18  19
ENDBRANCH  17  18
ENDBRANCH  16  17
ENDBRANCH  15  16
ENDBRANCH  14  15
ENDBRANCH  13  14
ENDBRANCH  12  13
ENDBRANCH   1  12
TORSDOF 16
ENDMDL
MODEL 3
REMARK VINA RESULT:    -3.860      3.474      6.777
REMARK INTER + INTRA:          -9.633
REMARK INTER:                  -7.512
REMARK INTRA:                  -2.121
REMARK UNBOUND:                -2.162
REMARK SMILES CCCCCCCCCCCCCCCCCC(=O)[O-]
REMARK SMILES IDX 10 1 11 2 12 3 13 4 14 5 15 6 16 7 17 8 18 9 19 10 20 11
REMARK SMILES IDX 9 12 8 13 7 14 6 15 5 16 4 17 3 18 2 19 1 20
REMARK H PARENT
REMARK Flexibility Score: inf
ROOT
ATOM      1  C   UNL     1      40.639  23.490 223.611  1.00  0.00     0.000 C 
ENDROOT
BRANCH   1   2
ATOM      2  C   UNL     1      39.693  24.669 223.338  1.00  0.00     0.000 C 
BRANCH   2   3
ATOM      3  C   UNL     1      39.334  25.446 224.615  1.00  0.00     0.000 C 
BRANCH   3   4
ATOM      4  C   UNL     1      37.883  25.205 225.072  1.00  0.00     0.000 C 
BRANCH   4   5
ATOM      5  C   UNL     1      36.860  25.072 223.929  1.00  0.00     0.000 C 
BRANCH   5   6
ATOM      6  C   UNL     1      36.367  23.627 223.734  1.00  0.00     0.000 C 
BRANCH   6   7
ATOM      7  C   UNL     1      36.223  23.249 222.252  1.00  0.00     0.006 C 
BRANCH   7   8
ATOM      8  C   UNL     1      36.381  24.458 221.321  1.00  0.00     0.053 C 
BRANCH   8   9
ATOM      9  C   UNL     1      35.894  24.124 219.946  1.00  0.00     0.041 C 
ATOM     10  O   UNL     1      36.712  23.803 219.044  1.00  0.00    -0.550 OA
ATOM     11  O   UNL     1      34.531  24.118 219.673  1.00  0.00    -0.550 OA
ENDBRANCH   8   9
ENDBRANCH   7   8
ENDBRANCH   6   7
ENDBRANCH   5   6
ENDBRANCH   4   5
ENDBRANCH   3   4
ENDBRANCH   2   3
ENDBRANCH   1   2
BRANCH   1  12
ATOM     12  C   UNL     1      41.594  23.761 224.788  1.00  0.00     0.000 C 
BRANCH  12  13
ATOM     13  C   UNL     1      41.442  22.718 225.916  1.00  0.00    -0.000 C 
BRANCH  13  14
ATOM     14  C   UNL     1      40.050  22.063 225.963  1.00  0.00    -0.000 C 
BRANCH  14  15
ATOM     15  C   UNL     1      40.099  20.589 226.394  1.00  0.00    -0.000 C 
BRANCH  15  16
ATOM     16  C   UNL     1      41.528  20.025 226.422  1.00  0.00    -0.000 C 
BRANCH  16  17
ATOM     17  C   UNL     1      41.764  18.940 225.355  1.00  0.00    -0.000 C 
BRANCH  17  18
ATOM     18  C   UNL     1      42.729  19.415 224.248  1.00  0.00    -0.000 C 
BRANCH  18  19
ATOM     19  C   UNL     1      42.021  19.816 222.944  1.00  0.00    -0.003 C 
ATOM     20  C   UNL     1      42.771  20.893 222.162  1.00  0.00     0.004 C 
ENDBRANCH  18  19
ENDBRANCH  17  18
ENDBRANCH  16  17
ENDBRANCH  15  16
ENDBRANCH  14  15
ENDBRANCH  13  14
ENDBRANCH  12  13
ENDBRANCH   1  12
TORSDOF 16
ENDMDL
MODEL 4
REMARK VINA RESULT:    -3.746      3.374      6.743
REMARK INTER + INTRA:          -9.412
REMARK INTER:                  -7.667
REMARK INTRA:                  -1.746
REMARK UNBOUND:                -2.162
REMARK SMILES CCCCCCCCCCCCCCCCCC(=O)[O-]
REMARK SMILES IDX 10 1 11 2 12 3 13 4 14 5 15 6 16 7 17 8 18 9 19 10 20 11
REMARK SMILES IDX 9 12 8 13 7 14 6 15 5 16 4 17 3 18 2 19 1 20
REMARK H PARENT
REMARK Flexibility Score: inf
ROOT
ATOM      1  C   UNL     1      39.264  26.084 225.724  1.00  0.00     0.000 C 
ENDROOT
BRANCH   1   2
ATOM      2  C   UNL     1      38.333  25.350 226.701  1.00  0.00     0.000 C 
BRANCH   2   3
ATOM      3  C   UNL     1      37.233  24.552 225.981  1.00  0.00     0.000 C 
BRANCH   3   4
ATOM      4  C   UNL     1      37.772  23.290 225.282  1.00  0.00     0.000 C 
BRANCH   4   5
ATOM      5  C   UNL     1      37.100  22.961 223.936  1.00  0.00     0.000 C 
BRANCH   5   6
ATOM      6  C   UNL     1      36.376  24.170 223.319  1.00  0.00     0.000 C 
BRANCH   6   7
ATOM      7  C   UNL     1      35.555  23.794 222.076  1.00  0.00     0.006 C 
BRANCH   7   8
ATOM      8  C   UNL     1      36.041  24.514 220.812  1.00  0.00     0.053 C 
BRANCH   8   9
ATOM      9  C   UNL     1      36.943  23.623 220.018  1.00  0.00     0.041 C 
ATOM     10  O   UNL     1      36.594  23.224 218.875  1.00  0.00    -0.550 OA
ATOM     11  O   UNL     1      38.191  23.274 220.518  1.00  0.00    -0.550 OA
ENDBRANCH   8   9
ENDBRANCH   7   8
ENDBRANCH   6   7
ENDBRANCH   5   6
ENDBRANCH   4   5
ENDBRANCH   3   4
ENDBRANCH   2   3
ENDBRANCH   1   2
BRANCH   1  12
ATOM     12  C   UNL     1      40.750  25.776 225.983  1.00  0.00     0.000 C 
BRANCH  12  13
ATOM     13  C   UNL     1      40.985  24.295 226.345  1.00  0.00    -0.000 C 
BRANCH  13  14
ATOM     14  C   UNL     1      41.786  23.522 225.283  1.00  0.00    -0.000 C 
BRANCH  14  15
ATOM     15  C   UNL     1      41.344  23.848 223.848  1.00  0.00    -0.000 C 
BRANCH  15  16
ATOM     16  C   UNL     1      40.865  22.608 223.077  1.00  0.00    -0.000 C 
BRANCH  16  17
ATOM     17  C   UNL     1      41.997  21.600 222.803  1.00  0.00    -0.000 C 
BRANCH  17  18
ATOM     18  C   UNL     1      41.630  20.175 223.269  1.00  0.00    -0.000 C 
BRANCH  18  19
ATOM     19  C   UNL     1      42.610  19.593 224.301  1.00  0.00    -0.003 C 
ATOM     20  C   UNL     1      43.885  19.038 223.669  1.00  0.00     0.004 C 
ENDBRANCH  18  19
ENDBRANCH  17  18
ENDBRANCH  16  17
ENDBRANCH  15  16
ENDBRANCH  14  15
ENDBRANCH  13  14
ENDBRANCH  12  13
ENDBRANCH   1  12
TORSDOF 16
ENDMDL
MODEL 5
REMARK VINA RESULT:    -3.727      2.077      3.851
REMARK INTER + INTRA:          -9.376
REMARK INTER:                  -7.236
REMARK INTRA:                  -2.140
REMARK UNBOUND:                -2.162
REMARK SMILES CCCCCCCCCCCCCCCCCC(=O)[O-]
REMARK SMILES IDX 10 1 11 2 12 3 13 4 14 5 15 6 16 7 17 8 18 9 19 10 20 11
REMARK SMILES IDX 9 12 8 13 7 14 6 15 5 16 4 17 3 18 2 19 1 20
REMARK H PARENT
REMARK Flexibility Score: inf
ROOT
ATOM      1  C   UNL     1      39.302  26.084 227.102  1.00  0.00     0.000 C 
ENDROOT
BRANCH   1   2
ATOM      2  C   UNL     1      39.890  24.678 227.297  1.00  0.00     0.000 C 
BRANCH   2   3
ATOM      3  C   UNL     1      38.929  23.735 228.040  1.00  0.00     0.000 C 
BRANCH   3   4
ATOM      4  C   UNL     1      38.545  22.497 227.208  1.00  0.00     0.000 C 
BRANCH   4   5
ATOM      5  C   UNL     1      39.603  22.057 226.180  1.00  0.00     0.000 C 
BRANCH   5   6
ATOM      6  C   UNL     1      39.315  20.669 225.582  1.00  0.00     0.000 C 
BRANCH   6   7
ATOM      7  C   UNL     1      37.889  20.183 225.883  1.00  0.00     0.006 C 
BRANCH   7   8
ATOM      8  C   UNL     1      37.810  18.659 226.040  1.00  0.00     0.053 C 
BRANCH   8   9
ATOM      9  C   UNL     1      36.610  18.280 226.848  1.00  0.00     0.041 C 
ATOM     10  O   UNL     1      35.583  19.010 226.842  1.00  0.00    -0.550 OA
ATOM     11  O   UNL     1      36.604  17.093 227.571  1.00  0.00    -0.550 OA
ENDBRANCH   8   9
ENDBRANCH   7   8
ENDBRANCH   6   7
ENDBRANCH   5   6
ENDBRANCH   4   5
ENDBRANCH   3   4
ENDBRANCH   2   3
ENDBRANCH   1   2
BRANCH   1  12
ATOM     12  C   UNL     1      39.229  26.491 225.619  1.00  0.00     0.000 C 
BRANCH  12  13
ATOM     13  C   UNL     1      38.471  25.454 224.765  1.00  0.00    -0.000 C 
BRANCH  13  14
ATOM     14  C   UNL     1      39.349  24.774 223.700  1.00  0.00    -0.000 C 
BRANCH  14  15
ATOM     15  C   UNL     1      38.623  23.636 222.966  1.00  0.00    -0.000 C 
BRANCH  15  16
ATOM     16  C   UNL     1      37.241  23.328 223.565  1.00  0.00    -0.000 C 
BRANCH  16  17
ATOM     17  C   UNL     1      36.122  23.306 222.509  1.00  0.00    -0.000 C 
BRANCH  17  18
ATOM     18  C   UNL     1      36.211  24.509 221.545  1.00  0.00    -0.000 C 
BRANCH  18  19
ATOM     19  C   UNL     1      36.087  24.121 220.062  1.00  0.00    -0.003 C 
ATOM     20  C   UNL     1      37.314  23.381 219.534  1.00  0.00     0.004 C 
ENDBRANCH  18  19
ENDBRANCH  17  18
ENDBRANCH  16  17
ENDBRANCH  15  16
ENDBRANCH  14  15
ENDBRANCH  13  14
ENDBRANCH  12  13
ENDBRANCH   1  12
TORSDOF 16
ENDMDL
MODEL 6
REMARK VINA RESULT:    -3.726      3.210      6.399
REMARK INTER + INTRA:          -9.374
REMARK INTER:                  -7.071
REMARK INTRA:                  -2.303
REMARK UNBOUND:                -2.162
REMARK SMILES CCCCCCCCCCCCCCCCCC(=O)[O-]
REMARK SMILES IDX 10 1 11 2 12 3 13 4 14 5 15 6 16 7 17 8 18 9 19 10 20 11
REMARK SMILES IDX 9 12 8 13 7 14 6 15 5 16 4 17 3 18 2 19 1 20
REMARK H PARENT
REMARK Flexibility Score: inf
ROOT
ATOM      1  C   UNL     1      41.747  23.078 225.335  1.00  0.00     0.000 C 
ENDROOT
BRANCH   1   2
ATOM      2  C   UNL     1      41.627  22.879 223.817  1.00  0.00     0.000 C 
BRANCH   2   3
ATOM      3  C   UNL     1      40.837  24.008 223.134  1.00  0.00     0.000 C 
BRANCH   3   4
ATOM      4  C   UNL     1      39.388  23.605 222.800  1.00  0.00     0.000 C 
BRANCH   4   5
ATOM      5  C   UNL     1      38.379  23.817 223.943  1.00  0.00     0.000 C 
BRANCH   5   6
ATOM      6  C   UNL     1      36.931  23.504 223.526  1.00  0.00     0.000 C 
BRANCH   6   7
ATOM      7  C   UNL     1      36.351  24.560 222.573  1.00  0.00     0.006 C 
BRANCH   7   8
ATOM      8  C   UNL     1      35.567  23.934 221.413  1.00  0.00     0.053 C 
BRANCH   8   9
ATOM      9  C   UNL     1      36.378  23.970 220.156  1.00  0.00     0.041 C 
ATOM     10  O   UNL     1      36.090  24.784 219.238  1.00  0.00    -0.550 OA
ATOM     11  O   UNL     1      37.484  23.141 220.017  1.00  0.00    -0.550 OA
ENDBRANCH   8   9
ENDBRANCH   7   8
ENDBRANCH   6   7
ENDBRANCH   5   6
ENDBRANCH   4   5
ENDBRANCH   3   4
ENDBRANCH   2   3
ENDBRANCH   1   2
BRANCH   1  12
ATOM     12  C   UNL     1      41.108  21.927 226.133  1.00  0.00     0.000 C 
BRANCH  12  13
ATOM     13  C   UNL     1      40.539  20.826 225.214  1.00  0.00    -0.000 C 
BRANCH  13  14
ATOM     14  C   UNL     1      39.077  20.461 225.525  1.00  0.00    -0.000 C 
BRANCH  14  15
ATOM     15  C   UNL     1      38.449  21.370 226.593  1.00  0.00    -0.000 C 
BRANCH  15  16
ATOM     16  C   UNL     1      37.502  20.611 227.536  1.00  0.00    -0.000 C 
BRANCH  16  17
ATOM     17  C   UNL     1      37.635  19.083 227.415  1.00  0.00    -0.000 C 
BRANCH  17  18
ATOM     18  C   UNL     1      38.410  18.472 228.602  1.00  0.00    -0.000 C 
BRANCH  18  19
ATOM     19  C   UNL     1      39.832  18.012 228.238  1.00  0.00    -0.003 C 
ATOM     20  C   UNL     1      40.911  18.995 228.686  1.00  0.00     0.004 C 
ENDBRANCH  18  19
ENDBRANCH  17  18
ENDBRANCH  16  17
ENDBRANCH  15  16
ENDBRANCH  14  15
ENDBRANCH  13  14
ENDBRANCH  12  13
ENDBRANCH   1  12
TORSDOF 16
ENDMDL
MODEL 7
REMARK VINA RESULT:    -3.674      3.132      6.771
REMARK INTER + INTRA:          -9.274
REMARK INTER:                  -7.120
REMARK INTRA:                  -2.154
REMARK UNBOUND:                -2.162
REMARK SMILES CCCCCCCCCCCCCCCCCC(=O)[O-]
REMARK SMILES IDX 10 1 11 2 12 3 13 4 14 5 15 6 16 7 17 8 18 9 19 10 20 11
REMARK SMILES IDX 9 12 8 13 7 14 6 15 5 16 4 17 3 18 2 19 1 20
REMARK H PARENT
REMARK Flexibility Score: inf
ROOT
ATOM      1  C   UNL     1      40.147  23.598 225.144  1.00  0.00     0.000 C 
ENDROOT
BRANCH   1   2
ATOM      2  C   UNL     1      38.764  23.279 225.733  1.00  0.00     0.000 C 
BRANCH   2   3
ATOM      3  C   UNL     1      37.931  24.543 226.002  1.00  0.00     0.000 C 
BRANCH   3   4
ATOM      4  C   UNL     1      38.191  25.659 224.973  1.00  0.00     0.000 C 
BRANCH   4   5
ATOM      5  C   UNL     1      37.417  25.511 223.650  1.00  0.00     0.000 C 
BRANCH   5   6
ATOM      6  C   UNL     1      36.093  24.745 223.815  1.00  0.00     0.000 C 
BRANCH   6   7
ATOM      7  C   UNL     1      35.872  23.704 222.707  1.00  0.00     0.006 C 
BRANCH   7   8
ATOM      8  C   UNL     1      36.735  23.975 221.468  1.00  0.00     0.053 C 
BRANCH   8   9
ATOM      9  C   UNL     1      35.879  24.060 220.245  1.00  0.00     0.041 C 
ATOM     10  O   UNL     1      34.624  24.061 220.347  1.00  0.00    -0.550 OA
ATOM     11  O   UNL     1      36.467  24.189 218.992  1.00  0.00    -0.550 OA
ENDBRANCH   8   9
ENDBRANCH   7   8
ENDBRANCH   6   7
ENDBRANCH   5   6
ENDBRANCH   4   5
ENDBRANCH   3   4
ENDBRANCH   2   3
ENDBRANCH   1   2
BRANCH   1  12
ATOM     12  C   UNL     1      40.364  22.949 223.765  1.00  0.00     0.000 C 
BRANCH  12  13
ATOM     13  C   UNL     1      41.687  22.157 223.696  1.00  0.00    -0.000 C 
BRANCH  13  14
ATOM     14  C   UNL     1      41.496  20.632 223.775  1.00  0.00    -0.000 C 
BRANCH  14  15
ATOM     15  C   UNL     1      42.303  19.988 224.913  1.00  0.00    -0.000 C 
BRANCH  15  16
ATOM     16  C   UNL     1      42.014  20.624 226.281  1.00  0.00    -0.000 C 
BRANCH  16  17
ATOM     17  C   UNL     1      40.667  20.176 226.876  1.00  0.00    -0.000 C 
BRANCH  17  18
ATOM     18  C   UNL     1      40.417  18.666 226.673  1.00  0.00    -0.000 C 
BRANCH  18  19
ATOM     19  C   UNL     1      39.075  18.351 225.991  1.00  0.00    -0.003 C 
ATOM     20  C   UNL     1      38.163  19.571 225.874  1.00  0.00     0.004 C 
ENDBRANCH  18  19
ENDBRANCH  17  18
ENDBRANCH  16  17
ENDBRANCH  15  16
ENDBRANCH  14  15
ENDBRANCH  13  14
ENDBRANCH  12  13
ENDBRANCH   1  12
TORSDOF 16
ENDMDL
MODEL 8
REMARK VINA RESULT:    -3.652      2.922      5.738
REMARK INTER + INTRA:          -9.231
REMARK INTER:                  -6.499
REMARK INTRA:                  -2.732
REMARK UNBOUND:                -2.162
REMARK SMILES CCCCCCCCCCCCCCCCCC(=O)[O-]
REMARK SMILES IDX 10 1 11 2 12 3 13 4 14 5 15 6 16 7 17 8 18 9 19 10 20 11
REMARK SMILES IDX 9 12 8 13 7 14 6 15 5 16 4 17 3 18 2 19 1 20
REMARK H PARENT
REMARK Flexibility Score: inf
ROOT
ATOM      1  C   UNL     1      41.173  22.652 223.855  1.00  0.00     0.000 C 
ENDROOT
BRANCH   1   2
ATOM      2  C   UNL     1      40.370  23.962 223.841  1.00  0.00     0.000 C 
BRANCH   2   3
ATOM      3  C   UNL     1      40.441  24.711 225.182  1.00  0.00     0.000 C 
BRANCH   3   4
ATOM      4  C   UNL     1      39.446  25.884 225.265  1.00  0.00     0.000 C 
BRANCH   4   5
ATOM      5  C   UNL     1      37.970  25.469 225.401  1.00  0.00     0.000 C 
BRANCH   5   6
ATOM      6  C   UNL     1      37.168  25.678 224.104  1.00  0.00     0.000 C 
BRANCH   6   7
ATOM      7  C   UNL     1      35.970  24.724 223.992  1.00  0.00     0.006 C 
BRANCH   7   8
ATOM      8  C   UNL     1      36.207  23.602 222.973  1.00  0.00     0.053 C 
BRANCH   8   9
ATOM      9  C   UNL     1      35.574  23.946 221.662  1.00  0.00     0.041 C 
ATOM     10  O   UNL     1      36.270  24.429 220.728  1.00  0.00    -0.550 OA
ATOM     11  O   UNL     1      34.226  23.686 221.451  1.00  0.00    -0.550 OA
ENDBRANCH   8   9
ENDBRANCH   7   8
ENDBRANCH   6   7
ENDBRANCH   5   6
ENDBRANCH   4   5
ENDBRANCH   3   4
ENDBRANCH   2   3
ENDBRANCH   1   2
BRANCH   1  12
ATOM     12  C   UNL     1      41.833  22.380 225.218  1.00  0.00     0.000 C 
BRANCH  12  13
ATOM     13  C   UNL     1      41.651  20.917 225.673  1.00  0.00    -0.000 C 
BRANCH  13  14
ATOM     14  C   UNL     1      40.898  20.045 224.652  1.00  0.00    -0.000 C 
BRANCH  14  15
ATOM     15  C   UNL     1      40.046  18.951 225.315  1.00  0.00    -0.000 C 
BRANCH  15  16
ATOM     16  C   UNL     1      39.041  19.515 226.331  1.00  0.00    -0.000 C 
BRANCH  16  17
ATOM     17  C   UNL     1      37.922  20.340 225.670  1.00  0.00    -0.000 C 
BRANCH  17  18
ATOM     18  C   UNL     1      38.091  21.854 225.922  1.00  0.00    -0.000 C 
BRANCH  18  19
ATOM     19  C   UNL     1      37.961  22.250 227.402  1.00  0.00    -0.003 C 
ATOM     20  C   UNL     1      39.284  22.698 228.020  1.00  0.00     0.004 C 
ENDBRANCH  18  19
ENDBRANCH  17  18
ENDBRANCH  16  17
ENDBRANCH  15  16
ENDBRANCH  14  15
ENDBRANCH  13  14
ENDBRANCH  12  13
ENDBRANCH   1  12
TORSDOF 16
ENDMDL
MODEL 9
REMARK VINA RESULT:    -3.630      3.386      6.300
REMARK INTER + INTRA:          -9.187
REMARK INTER:                  -6.372
REMARK INTRA:                  -2.815
REMARK UNBOUND:                -2.162
REMARK SMILES CCCCCCCCCCCCCCCCCC(=O)[O-]
REMARK SMILES IDX 10 1 11 2 12 3 13 4 14 5 15 6 16 7 17 8 18 9 19 10 20 11
REMARK SMILES IDX 9 12 8 13 7 14 6 15 5 16 4 17 3 18 2 19 1 20
REMARK H PARENT
REMARK Flexibility Score: inf
ROOT
ATOM      1  C   UNL     1      40.162  22.642 223.811  1.00  0.00     0.000 C 
ENDROOT
BRANCH   1   2
ATOM      2  C   UNL     1      40.453  24.093 224.224  1.00  0.00     0.000 C 
BRANCH   2   3
ATOM      3  C   UNL     1      39.525  24.584 225.348  1.00  0.00     0.000 C 
BRANCH   3   4
ATOM      4  C   UNL     1      38.658  25.785 224.926  1.00  0.00     0.000 C 
BRANCH   4   5
ATOM      5  C   UNL     1      37.656  25.492 223.794  1.00  0.00     0.000 C 
BRANCH   5   6
ATOM      6  C   UNL     1      36.629  24.410 224.172  1.00  0.00     0.000 C 
BRANCH   6   7
ATOM      7  C   UNL     1      36.372  23.417 223.028  1.00  0.00     0.006 C 
BRANCH   7   8
ATOM      8  C   UNL     1      35.589  24.046 221.869  1.00  0.00     0.053 C 
BRANCH   8   9
ATOM      9  C   UNL     1      36.385  23.979 220.605  1.00  0.00     0.041 C 
ATOM     10  O   UNL     1      35.922  24.462 219.537  1.00  0.00    -0.550 OA
ATOM     11  O   UNL     1      37.661  23.429 220.614  1.00  0.00    -0.550 OA
ENDBRANCH   8   9
ENDBRANCH   7   8
ENDBRANCH   6   7
ENDBRANCH   5   6
ENDBRANCH   4   5
ENDBRANCH   3   4
ENDBRANCH   2   3
ENDBRANCH   1   2
BRANCH   1  12
ATOM     12  C   UNL     1      39.280  21.904 224.834  1.00  0.00     0.000 C 
BRANCH  12  13
ATOM     13  C   UNL     1      39.892  20.555 225.266  1.00  0.00    -0.000 C 
BRANCH  13  14
ATOM     14  C   UNL     1      41.431  20.557 225.286  1.00  0.00    -0.000 C 
BRANCH  14  15
ATOM     15  C   UNL     1      42.010  20.768 226.693  1.00  0.00    -0.000 C 
BRANCH  15  16
ATOM     16  C   UNL     1      42.194  22.253 227.043  1.00  0.00    -0.000 C 
BRANCH  16  17
ATOM     17  C   UNL     1      41.189  22.748 228.099  1.00  0.00    -0.000 C 
BRANCH  17  18
ATOM     18  C   UNL     1      40.569  21.583 228.900  1.00  0.00    -0.000 C 
BRANCH  18  19
ATOM     19  C   UNL     1      39.041  21.480 228.754  1.00  0.00    -0.003 C 
ATOM     20  C   UNL     1      38.388  22.802 228.359  1.00  0.00     0.004 C 
ENDBRANCH  18  19
ENDBRANCH  17  18
ENDBRANCH  16  17
ENDBRANCH  15  16
ENDBRANCH  14  15
ENDBRANCH  13  14
ENDBRANCH  12  13
ENDBRANCH   1  12
TORSDOF 16
ENDMDL
