MODEL 1
REMARK VINA RESULT:     3.629      0.000      0.000
REMARK INTER + INTRA:           3.629
REMARK INTER:                   3.629
REMARK INTRA:                   0.000
REMARK UNBOUND:                 0.000
REMARK SMILES CC1(C)O[C@]2(C)CC[C@H]1CC2
REMARK SMILES IDX 1 1 2 2 9 3 8 4 7 5 5 6 4 7 11 8 10 9 6 10 3 11
REMARK H PARENT
REMARK Flexibility Score: inf
ROOT
ATOM      1  C   UNL     1       7.066   1.323  17.885  1.00  0.00     0.042 C 
ATOM      2  C   UNL     1       7.088   2.398  18.994  1.00  0.00     0.066 C 
ATOM      3  C   UNL     1       8.519   2.494  19.649  1.00  0.00     0.021 C 
ATOM      4  C   UNL     1       8.497   3.618  20.713  1.00  0.00     0.009 C 
ATOM      5  C   UNL     1       7.934   4.910  20.075  1.00  0.00     0.035 C 
ATOM      6  C   UNL     1       7.664   4.676  18.560  1.00  0.00     0.066 C 
ATOM      7  O   UNL     1       6.684   3.647  18.412  1.00  0.00    -0.369 OA
ATOM      8  C   UNL     1       8.987   4.225  17.875  1.00  0.00     0.035 C 
ATOM      9  C   UNL     1       9.525   2.949  18.565  1.00  0.00     0.009 C 
ATOM     10  C   UNL     1       7.136   5.958  17.908  1.00  0.00     0.042 C 
ATOM     11  C   UNL     1       6.032   1.995  20.045  1.00  0.00     0.042 C 
ENDROOT
TORSDOF 0
ENDMDL
MODEL 2
REMARK VINA RESULT:     3.963      0.864      3.166
REMARK INTER + INTRA:           3.963
REMARK INTER:                   3.963
REMARK INTRA:                   0.000
REMARK UNBOUND:                 0.000
REMARK SMILES CC1(C)O[C@]2(C)CC[C@H]1CC2
REMARK SMILES IDX 1 1 2 2 9 3 8 4 7 5 5 6 4 7 11 8 10 9 6 10 3 11
REMARK H PARENT
REMARK Flexibility Score: inf
ROOT
ATOM      1  C   UNL     1       6.021   5.201  20.017  1.00  0.00     0.042 C 
ATOM      2  C   UNL     1       7.112   4.859  18.978  1.00  0.00     0.066 C 
ATOM      3  C   UNL     1       8.536   4.833  19.653  1.00  0.00     0.021 C 
ATOM      4  C   UNL     1       9.580   4.437  18.581  1.00  0.00     0.009 C 
ATOM      5  C   UNL     1       9.116   3.138  17.877  1.00  0.00     0.035 C 
ATOM      6  C   UNL     1       7.809   2.617  18.541  1.00  0.00     0.066 C 
ATOM      7  O   UNL     1       6.780   3.595  18.384  1.00  0.00    -0.369 OA
ATOM      8  C   UNL     1       8.070   2.388  20.058  1.00  0.00     0.035 C 
ATOM      9  C   UNL     1       8.558   3.704  20.710  1.00  0.00     0.009 C 
ATOM     10  C   UNL     1       7.357   1.313  17.876  1.00  0.00     0.042 C 
ATOM     11  C   UNL     1       7.049   5.938  17.876  1.00  0.00     0.042 C 
ENDROOT
TORSDOF 0
ENDMDL
MODEL 3
REMARK VINA RESULT:     4.192      1.187      2.487
REMARK INTER + INTRA:           4.192
REMARK INTER:                   4.192
REMARK INTRA:                   0.000
REMARK UNBOUND:                 0.000
REMARK SMILES CC1(C)O[C@]2(C)CC[C@H]1CC2
REMARK SMILES IDX 1 1 2 2 9 3 8 4 7 5 5 6 4 7 11 8 10 9 6 10 3 11
REMARK H PARENT
REMARK Flexibility Score: inf
ROOT
ATOM      1  C   UNL     1       6.591   1.154  20.019  1.00  0.00     0.042 C 
ATOM      2  C   UNL     1       6.753   2.284  18.978  1.00  0.00     0.066 C 
ATOM      3  C   UNL     1       6.548   3.695  19.652  1.00  0.00     0.021 C 
ATOM      4  C   UNL     1       6.771   4.788  18.578  1.00  0.00     0.009 C 
ATOM      5  C   UNL     1       8.128   4.539  17.875  1.00  0.00     0.035 C 
ATOM      6  C   UNL     1       8.853   3.334  18.540  1.00  0.00     0.066 C 
ATOM      7  O   UNL     1       8.054   2.161  18.385  1.00  0.00    -0.369 OA
ATOM      8  C   UNL     1       9.037   3.631  20.057  1.00  0.00     0.035 C 
ATOM      9  C   UNL     1       7.659   3.900  20.709  1.00  0.00     0.009 C 
ATOM     10  C   UNL     1      10.214   3.098  17.876  1.00  0.00     0.042 C 
ATOM     11  C   UNL     1       5.699   2.046  17.876  1.00  0.00     0.042 C 
ENDROOT
TORSDOF 0
ENDMDL
MODEL 4
REMARK VINA RESULT:     4.242      0.828      3.317
REMARK INTER + INTRA:           4.242
REMARK INTER:                   4.242
REMARK INTRA:                   0.000
REMARK UNBOUND:                 0.000
REMARK SMILES CC1(C)O[C@]2(C)CC[C@H]1CC2
REMARK SMILES IDX 1 1 2 2 9 3 8 4 7 5 5 6 4 7 11 8 10 9 6 10 3 11
REMARK H PARENT
REMARK Flexibility Score: inf
ROOT
ATOM      1  C   UNL     1       6.495   5.887  18.436  1.00  0.00     0.042 C 
ATOM      2  C   UNL     1       7.648   4.870  18.580  1.00  0.00     0.066 C 
ATOM      3  C   UNL     1       7.956   4.587  20.100  1.00  0.00     0.021 C 
ATOM      4  C   UNL     1       9.081   3.527  20.184  1.00  0.00     0.009 C 
ATOM      5  C   UNL     1       8.696   2.308  19.311  1.00  0.00     0.035 C 
ATOM      6  C   UNL     1       7.273   2.514  18.715  1.00  0.00     0.066 C 
ATOM      7  O   UNL     1       7.278   3.673  17.879  1.00  0.00    -0.369 OA
ATOM      8  C   UNL     1       6.264   2.728  19.881  1.00  0.00     0.035 C 
ATOM      9  C   UNL     1       6.706   3.937  20.741  1.00  0.00     0.009 C 
ATOM     10  C   UNL     1       6.866   1.300  17.875  1.00  0.00     0.042 C 
ATOM     11  C   UNL     1       8.883   5.473  17.876  1.00  0.00     0.042 C 
ENDROOT
TORSDOF 0
ENDMDL
MODEL 5
REMARK VINA RESULT:     6.072      1.414      2.507
REMARK INTER + INTRA:           6.072
REMARK INTER:                   6.072
REMARK INTRA:                   0.000
REMARK UNBOUND:                 0.000
REMARK SMILES CC1(C)O[C@]2(C)CC[C@H]1CC2
REMARK SMILES IDX 1 1 2 2 9 3 8 4 7 5 5 6 4 7 11 8 10 9 6 10 3 11
REMARK H PARENT
REMARK Flexibility Score: inf
ROOT
ATOM      1  C   UNL     1       6.980   3.134  20.897  1.00  0.00     0.042 C 
ATOM      2  C   UNL     1       8.182   3.657  20.080  1.00  0.00     0.066 C 
ATOM      3  C   UNL     1       8.251   2.948  18.673  1.00  0.00     0.021 C 
ATOM      4  C   UNL     1       9.439   3.545  17.881  1.00  0.00     0.009 C 
ATOM      5  C   UNL     1       9.325   5.089  17.880  1.00  0.00     0.035 C 
ATOM      6  C   UNL     1       8.011   5.520  18.594  1.00  0.00     0.066 C 
ATOM      7  O   UNL     1       8.050   5.081  19.953  1.00  0.00    -0.369 OA
ATOM      8  C   UNL     1       6.803   4.853  17.875  1.00  0.00     0.035 C 
ATOM      9  C   UNL     1       6.977   3.315  17.876  1.00  0.00     0.009 C 
ATOM     10  C   UNL     1       7.868   7.045  18.572  1.00  0.00     0.042 C 
ATOM     11  C   UNL     1       9.456   3.366  20.902  1.00  0.00     0.042 C 
ENDROOT
TORSDOF 0
ENDMDL
