MODEL 1
REMARK VINA RESULT:    -4.149      0.000      0.000
REMARK INTER + INTRA:          -4.943
REMARK INTER:                  -4.877
REMARK INTRA:                  -0.066
REMARK UNBOUND:                -0.066
REMARK SMILES O=C([O-])CCC(=O)[O-]
REMARK SMILES IDX 4 1 2 2 1 3 3 4 5 5 6 6 7 7 8 8
REMARK H PARENT
REMARK Flexibility Score: inf
ROOT
ATOM      1  C   UNL     1      95.126 122.605 122.776  1.00  0.00     0.059 C 
ENDROOT
BRANCH   1   2
ATOM      2  C   UNL     1      94.571 123.284 123.991  1.00  0.00     0.042 C 
ATOM      3  O   UNL     1      95.330 123.938 124.753  1.00  0.00    -0.550 OA
ATOM      4  O   UNL     1      93.223 123.161 124.302  1.00  0.00    -0.550 OA
ENDBRANCH   1   2
BRANCH   1   5
ATOM      5  C   UNL     1      94.312 121.362 122.401  1.00  0.00     0.059 C 
BRANCH   5   6
ATOM      6  C   UNL     1      93.937 121.364 120.951  1.00  0.00     0.042 C 
ATOM      7  O   UNL     1      92.786 121.729 120.595  1.00  0.00    -0.550 OA
ATOM      8  O   UNL     1      94.873 121.002 119.990  1.00  0.00    -0.550 OA
ENDBRANCH   5   6
ENDBRANCH   1   5
TORSDOF 3
ENDMDL
MODEL 2
REMARK VINA RESULT:    -4.128      0.240      4.152
REMARK INTER + INTRA:          -4.918
REMARK INTER:                  -4.848
REMARK INTRA:                  -0.070
REMARK UNBOUND:                -0.066
REMARK SMILES O=C([O-])CCC(=O)[O-]
REMARK SMILES IDX 4 1 2 2 1 3 3 4 5 5 6 6 7 7 8 8
REMARK H PARENT
REMARK Flexibility Score: inf
ROOT
ATOM      1  C   UNL     1      94.324 121.350 122.430  1.00  0.00     0.059 C 
ENDROOT
BRANCH   1   2
ATOM      2  C   UNL     1      93.895 121.417 120.996  1.00  0.00     0.042 C 
ATOM      3  O   UNL     1      92.733 121.799 120.700  1.00  0.00    -0.550 OA
ATOM      4  O   UNL     1      94.766 121.018 119.990  1.00  0.00    -0.550 OA
ENDBRANCH   1   2
BRANCH   1   5
ATOM      5  C   UNL     1      95.279 122.494 122.788  1.00  0.00     0.059 C 
BRANCH   5   6
ATOM      6  C   UNL     1      94.747 123.324 123.916  1.00  0.00     0.042 C 
ATOM      7  O   UNL     1      95.431 124.273 124.382  1.00  0.00    -0.550 OA
ATOM      8  O   UNL     1      93.479 123.074 124.426  1.00  0.00    -0.550 OA
ENDBRANCH   5   6
ENDBRANCH   1   5
TORSDOF 3
ENDMDL
MODEL 3
REMARK VINA RESULT:    -4.106      0.742      1.310
REMARK INTER + INTRA:          -4.892
REMARK INTER:                  -4.840
REMARK INTRA:                  -0.052
REMARK UNBOUND:                -0.066
REMARK SMILES O=C([O-])CCC(=O)[O-]
REMARK SMILES IDX 4 1 2 2 1 3 3 4 5 5 6 6 7 7 8 8
REMARK H PARENT
REMARK Flexibility Score: inf
ROOT
ATOM      1  C   UNL     1      95.686 122.467 122.777  1.00  0.00     0.059 C 
ENDROOT
BRANCH   1   2
ATOM      2  C   UNL     1      95.370 123.493 123.823  1.00  0.00     0.042 C 
ATOM      3  O   UNL     1      94.326 123.387 124.518  1.00  0.00    -0.550 OA
ATOM      4  O   UNL     1      96.209 124.585 124.001  1.00  0.00    -0.550 OA
ENDBRANCH   1   2
BRANCH   1   5
ATOM      5  C   UNL     1      94.523 121.489 122.576  1.00  0.00     0.059 C 
BRANCH   5   6
ATOM      6  C   UNL     1      94.111 121.412 121.138  1.00  0.00     0.042 C 
ATOM      7  O   UNL     1      92.927 121.682 120.803  1.00  0.00    -0.550 OA
ATOM      8  O   UNL     1      95.043 121.081 120.163  1.00  0.00    -0.550 OA
ENDBRANCH   5   6
ENDBRANCH   1   5
TORSDOF 3
ENDMDL
MODEL 4
REMARK VINA RESULT:    -4.090      0.240      4.070
REMARK INTER + INTRA:          -4.873
REMARK INTER:                  -4.820
REMARK INTRA:                  -0.053
REMARK UNBOUND:                -0.066
REMARK SMILES O=C([O-])CCC(=O)[O-]
REMARK SMILES IDX 4 1 2 2 1 3 3 4 5 5 6 6 7 7 8 8
REMARK H PARENT
REMARK Flexibility Score: inf
ROOT
ATOM      1  C   UNL     1      94.224 121.306 122.229  1.00  0.00     0.059 C 
ENDROOT
BRANCH   1   2
ATOM      2  C   UNL     1      94.020 121.336 120.744  1.00  0.00     0.042 C 
ATOM      3  O   UNL     1      94.966 121.040 119.969  1.00  0.00    -0.550 OA
ATOM      4  O   UNL     1      92.796 121.731 120.218  1.00  0.00    -0.550 OA
ENDBRANCH   1   2
BRANCH   1   5
ATOM      5  C   UNL     1      95.121 122.456 122.699  1.00  0.00     0.059 C 
BRANCH   5   6
ATOM      6  C   UNL     1      94.512 123.193 123.852  1.00  0.00     0.042 C 
ATOM      7  O   UNL     1      95.184 124.054 124.480  1.00  0.00    -0.550 OA
ATOM      8  O   UNL     1      93.190 122.958 124.209  1.00  0.00    -0.550 OA
ENDBRANCH   5   6
ENDBRANCH   1   5
TORSDOF 3
ENDMDL
MODEL 5
REMARK VINA RESULT:    -4.022      1.806      4.411
REMARK INTER + INTRA:          -4.794
REMARK INTER:                  -4.737
REMARK INTRA:                  -0.056
REMARK UNBOUND:                -0.066
REMARK SMILES O=C([O-])CCC(=O)[O-]
REMARK SMILES IDX 4 1 2 2 1 3 3 4 5 5 6 6 7 7 8 8
REMARK H PARENT
REMARK Flexibility Score: inf
ROOT
ATOM      1  C   UNL     1      94.561 120.994 119.932  1.00  0.00     0.059 C 
ENDROOT
BRANCH   1   2
ATOM      2  C   UNL     1      93.608 121.313 118.820  1.00  0.00     0.042 C 
ATOM      3  O   UNL     1      93.851 120.924 117.647  1.00  0.00    -0.550 OA
ATOM      4  O   UNL     1      92.474 122.074 119.072  1.00  0.00    -0.550 OA
ENDBRANCH   1   2
BRANCH   1   5
ATOM      5  C   UNL     1      93.982 121.375 121.299  1.00  0.00     0.059 C 
BRANCH   5   6
ATOM      6  C   UNL     1      94.990 122.092 122.144  1.00  0.00     0.042 C 
ATOM      7  O   UNL     1      94.667 122.533 123.278  1.00  0.00    -0.550 OA
ATOM      8  O   UNL     1      96.297 122.238 121.695  1.00  0.00    -0.550 OA
ENDBRANCH   5   6
ENDBRANCH   1   5
TORSDOF 3
ENDMDL
MODEL 6
REMARK VINA RESULT:    -3.958      2.900      5.443
REMARK INTER + INTRA:          -4.718
REMARK INTER:                  -4.689
REMARK INTRA:                  -0.029
REMARK UNBOUND:                -0.066
REMARK SMILES O=C([O-])CCC(=O)[O-]
REMARK SMILES IDX 4 1 2 2 1 3 3 4 5 5 6 6 7 7 8 8
REMARK H PARENT
REMARK Flexibility Score: inf
ROOT
ATOM      1  C   UNL     1      92.474 121.945 118.632  1.00  0.00     0.059 C 
ENDROOT
BRANCH   1   2
ATOM      2  C   UNL     1      92.548 122.418 117.212  1.00  0.00     0.042 C 
ATOM      3  O   UNL     1      92.617 123.650 116.959  1.00  0.00    -0.550 OA
ATOM      4  O   UNL     1      92.500 121.502 116.170  1.00  0.00    -0.550 OA
ENDBRANCH   1   2
BRANCH   1   5
ATOM      5  C   UNL     1      93.723 121.150 119.028  1.00  0.00     0.059 C 
BRANCH   5   6
ATOM      6  C   UNL     1      94.043 121.315 120.482  1.00  0.00     0.042 C 
ATOM      7  O   UNL     1      95.239 121.281 120.876  1.00  0.00    -0.550 OA
ATOM      8  O   UNL     1      93.024 121.546 121.398  1.00  0.00    -0.550 OA
ENDBRANCH   5   6
ENDBRANCH   1   5
TORSDOF 3
ENDMDL
MODEL 7
REMARK VINA RESULT:    -3.814      2.200      3.020
REMARK INTER + INTRA:          -4.549
REMARK INTER:                  -4.516
REMARK INTRA:                  -0.033
REMARK UNBOUND:                -0.066
REMARK SMILES O=C([O-])CCC(=O)[O-]
REMARK SMILES IDX 4 1 2 2 1 3 3 4 5 5 6 6 7 7 8 8
REMARK H PARENT
REMARK Flexibility Score: inf
ROOT
ATOM      1  C   UNL     1      93.862 121.162 120.523  1.00  0.00     0.059 C 
ENDROOT
BRANCH   1   2
ATOM      2  C   UNL     1      94.152 121.723 121.882  1.00  0.00     0.042 C 
ATOM      3  O   UNL     1      93.210 121.960 122.683  1.00  0.00    -0.550 OA
ATOM      4  O   UNL     1      95.458 122.020 122.248  1.00  0.00    -0.550 OA
ENDBRANCH   1   2
BRANCH   1   5
ATOM      5  C   UNL     1      92.737 121.932 119.823  1.00  0.00     0.059 C 
BRANCH   5   6
ATOM      6  C   UNL     1      92.653 121.584 118.368  1.00  0.00     0.042 C 
ATOM      7  O   UNL     1      91.609 121.845 117.714  1.00  0.00    -0.550 OA
ATOM      8  O   UNL     1      93.742 121.009 117.726  1.00  0.00    -0.550 OA
ENDBRANCH   5   6
ENDBRANCH   1   5
TORSDOF 3
ENDMDL
MODEL 8
REMARK VINA RESULT:    -3.764      1.429      4.410
REMARK INTER + INTRA:          -4.490
REMARK INTER:                  -4.459
REMARK INTRA:                  -0.032
REMARK UNBOUND:                -0.066
REMARK SMILES O=C([O-])CCC(=O)[O-]
REMARK SMILES IDX 4 1 2 2 1 3 3 4 5 5 6 6 7 7 8 8
REMARK H PARENT
REMARK Flexibility Score: inf
ROOT
ATOM      1  C   UNL     1      95.782 122.376 122.625  1.00  0.00     0.059 C 
ENDROOT
BRANCH   1   2
ATOM      2  C   UNL     1      94.738 121.747 121.754  1.00  0.00     0.042 C 
ATOM      3  O   UNL     1      93.554 121.631 122.167  1.00  0.00    -0.550 OA
ATOM      4  O   UNL     1      95.082 121.252 120.502  1.00  0.00    -0.550 OA
ENDBRANCH   1   2
BRANCH   1   5
ATOM      5  C   UNL     1      95.154 123.226 123.736  1.00  0.00     0.059 C 
BRANCH   5   6
ATOM      6  C   UNL     1      96.185 124.032 124.463  1.00  0.00     0.042 C 
ATOM      7  O   UNL     1      96.800 123.537 125.445  1.00  0.00    -0.550 OA
ATOM      8  O   UNL     1      96.496 125.316 124.033  1.00  0.00    -0.550 OA
ENDBRANCH   5   6
ENDBRANCH   1   5
TORSDOF 3
ENDMDL
MODEL 9
REMARK VINA RESULT:    -3.737      1.574      2.390
REMARK INTER + INTRA:          -4.458
REMARK INTER:                  -4.425
REMARK INTRA:                  -0.033
REMARK UNBOUND:                -0.066
REMARK SMILES O=C([O-])CCC(=O)[O-]
REMARK SMILES IDX 4 1 2 2 1 3 3 4 5 5 6 6 7 7 8 8
REMARK H PARENT
REMARK Flexibility Score: inf
ROOT
ATOM      1  C   UNL     1      95.215 123.552 124.233  1.00  0.00     0.059 C 
ENDROOT
BRANCH   1   2
ATOM      2  C   UNL     1      96.461 124.158 124.802  1.00  0.00     0.042 C 
ATOM      3  O   UNL     1      97.148 123.521 125.643  1.00  0.00    -0.550 OA
ATOM      4  O   UNL     1      96.841 125.443 124.435  1.00  0.00    -0.550 OA
ENDBRANCH   1   2
BRANCH   1   5
ATOM      5  C   UNL     1      95.510 122.736 122.969  1.00  0.00     0.059 C 
BRANCH   5   6
ATOM      6  C   UNL     1      94.290 122.018 122.480  1.00  0.00     0.042 C 
ATOM      7  O   UNL     1      93.177 122.205 123.039  1.00  0.00    -0.550 OA
ATOM      8  O   UNL     1      94.374 121.173 121.380  1.00  0.00    -0.550 OA
ENDBRANCH   5   6
ENDBRANCH   1   5
TORSDOF 3
ENDMDL
