MODEL 1
REMARK VINA RESULT:    -5.858      0.000      0.000
REMARK INTER + INTRA:          -7.380
REMARK INTER:                  -6.715
REMARK INTRA:                  -0.665
REMARK UNBOUND:                -0.665
REMARK SMILES C=C(C)[C@@H]1CC[C@@]2(C(=O)[O-])CC[C@@]3(C)[C@H](CC[C@H]4[C@@]5(C)CC[C@@H](O)C(C)(C)[C@H]5CC[C@@]43C)[C@@H]12
REMARK SMILES IDX 7 1 6 2 33 3 11 4 5 5 15 6 4 7 12 8 16 9 13 10 17 11 31 12
REMARK SMILES IDX 14 13 18 14 30 15 32 16 19 17 29 18 21 19 20 20 28 21 22 22
REMARK SMILES IDX 25 23 23 24 26 25 27 26 8 27 9 28 10 29 2 30 3 31 1 32 24 33
REMARK H PARENT 24 34
REMARK Flexibility Score: inf
ROOT
ATOM      1  C   UNL     1      15.972  29.470  30.642  1.00  0.00     0.014 C 
ATOM      2  C   UNL     1      14.435  29.634  30.583  1.00  0.00     0.014 C 
ATOM      3  C   UNL     1      16.564  30.912  30.887  1.00  0.00     0.012 C 
ATOM      4  C   UNL     1      16.467  28.885  29.295  1.00  0.00     0.014 C 
ATOM      5  C   UNL     1      14.150  31.100  30.346  1.00  0.00     0.009 C 
ATOM      6  C   UNL     1      17.613  31.370  29.803  1.00  0.00     0.000 C 
ATOM      7  C   UNL     1      15.334  31.873  30.914  1.00  0.00     0.018 C 
ATOM      8  C   UNL     1      17.994  28.848  29.242  1.00  0.00     0.008 C 
ATOM      9  C   UNL     1      18.271  32.737  30.142  1.00  0.00     0.005 C 
ATOM     10  C   UNL     1      18.656  30.279  29.279  1.00  0.00    -0.024 C 
ATOM     11  C   UNL     1      19.559  32.641  30.957  1.00  0.00     0.005 C 
ATOM     12  C   UNL     1      20.043  30.281  30.135  1.00  0.00    -0.024 C 
ATOM     13  C   UNL     1      18.909  30.633  27.767  1.00  0.00     0.012 C 
ATOM     14  C   UNL     1      20.606  31.749  30.243  1.00  0.00     0.002 C 
ATOM     15  C   UNL     1      21.127  29.434  29.429  1.00  0.00     0.008 C 
ATOM     16  C   UNL     1      19.817  29.657  31.552  1.00  0.00     0.012 C 
ATOM     17  C   UNL     1      22.123  31.990  30.727  1.00  0.00    -0.026 C 
ATOM     18  C   UNL     1      22.450  29.421  30.189  1.00  0.00     0.005 C 
ATOM     19  C   UNL     1      22.188  32.241  32.273  1.00  0.00     0.010 C 
ATOM     20  C   UNL     1      22.576  33.328  30.035  1.00  0.00     0.012 C 
ATOM     21  C   UNL     1      23.119  30.821  30.256  1.00  0.00     0.003 C 
ATOM     22  C   UNL     1      23.599  32.264  32.867  1.00  0.00     0.033 C 
ATOM     23  C   UNL     1      24.533  30.771  31.002  1.00  0.00    -0.006 C 
ATOM     24  C   UNL     1      24.375  30.985  32.537  1.00  0.00     0.120 C 
ATOM     25  C   UNL     1      25.511  31.830  30.412  1.00  0.00     0.014 C 
ATOM     26  C   UNL     1      25.270  29.415  30.784  1.00  0.00     0.014 C 
ENDROOT
BRANCH   1  27
ATOM     27  C   UNL     1      16.284  28.474  31.756  1.00  0.00     0.048 C 
ATOM     28  O   UNL     1      16.814  28.831  32.841  1.00  0.00    -0.550 OA
ATOM     29  O   UNL     1      15.912  27.140  31.601  1.00  0.00    -0.550 OA
ENDBRANCH   1  27
BRANCH   7  30
ATOM     30  C   UNL     1      15.043  32.439  32.306  1.00  0.00    -0.077 C 
ATOM     31  C   UNL     1      16.073  33.289  33.004  1.00  0.00     0.039 C 
ATOM     32  C   UNL     1      13.891  32.180  32.950  1.00  0.00     0.008 C 
ENDBRANCH   7  30
BRANCH  24  33
ATOM     33  O   UNL     1      23.733  29.878  33.122  1.00  0.00    -0.393 OA
ATOM     34  H   UNL     1      23.488  30.134  34.048  1.00  0.00     0.210 HD
ENDBRANCH  24  33
TORSDOF 3
ENDMDL
MODEL 2
REMARK VINA RESULT:    -4.448      2.690      7.951
REMARK INTER + INTRA:          -5.764
REMARK INTER:                  -5.297
REMARK INTRA:                  -0.466
REMARK UNBOUND:                -0.665
REMARK SMILES C=C(C)[C@@H]1CC[C@@]2(C(=O)[O-])CC[C@@]3(C)[C@H](CC[C@H]4[C@@]5(C)CC[C@@H](O)C(C)(C)[C@H]5CC[C@@]43C)[C@@H]12
REMARK SMILES IDX 7 1 6 2 33 3 11 4 5 5 15 6 4 7 12 8 16 9 13 10 17 11 31 12
REMARK SMILES IDX 14 13 18 14 30 15 32 16 19 17 29 18 21 19 20 20 28 21 22 22
REMARK SMILES IDX 25 23 23 24 26 25 27 26 8 27 9 28 10 29 2 30 3 31 1 32 24 33
REMARK H PARENT 24 34
REMARK Flexibility Score: inf
ROOT
ATOM      1  C   UNL     1      25.370  30.390  30.889  1.00  0.00     0.014 C 
ATOM      2  C   UNL     1      26.846  30.245  31.330  1.00  0.00     0.014 C 
ATOM      3  C   UNL     1      24.805  31.658  31.638  1.00  0.00     0.012 C 
ATOM      4  C   UNL     1      24.597  29.110  31.297  1.00  0.00     0.014 C 
ATOM      5  C   UNL     1      27.021  31.070  32.584  1.00  0.00     0.009 C 
ATOM      6  C   UNL     1      23.520  31.374  32.506  1.00  0.00     0.000 C 
ATOM      7  C   UNL     1      25.977  32.178  32.529  1.00  0.00     0.018 C 
ATOM      8  C   UNL     1      23.101  29.265  31.025  1.00  0.00     0.008 C 
ATOM      9  C   UNL     1      22.915  32.666  33.125  1.00  0.00     0.005 C 
ATOM     10  C   UNL     1      22.420  30.391  31.894  1.00  0.00    -0.024 C 
ATOM     11  C   UNL     1      21.854  33.349  32.265  1.00  0.00     0.005 C 
ATOM     12  C   UNL     1      21.268  31.186  31.058  1.00  0.00    -0.024 C 
ATOM     13  C   UNL     1      21.813  29.622  33.125  1.00  0.00     0.012 C 
ATOM     14  C   UNL     1      20.699  32.373  31.923  1.00  0.00     0.002 C 
ATOM     15  C   UNL     1      20.078  30.253  30.735  1.00  0.00     0.008 C 
ATOM     16  C   UNL     1      21.836  31.703  29.693  1.00  0.00     0.012 C 
ATOM     17  C   UNL     1      19.328  33.096  31.485  1.00  0.00    -0.026 C 
ATOM     18  C   UNL     1      18.968  30.961  29.965  1.00  0.00     0.005 C 
ATOM     19  C   UNL     1      19.614  34.359  30.602  1.00  0.00     0.010 C 
ATOM     20  C   UNL     1      18.685  33.618  32.822  1.00  0.00     0.012 C 
ATOM     21  C   UNL     1      18.288  32.087  30.791  1.00  0.00     0.003 C 
ATOM     22  C   UNL     1      18.378  34.989  29.954  1.00  0.00     0.033 C 
ATOM     23  C   UNL     1      17.087  32.774  29.987  1.00  0.00    -0.006 C 
ATOM     24  C   UNL     1      17.588  33.971  29.126  1.00  0.00     0.120 C 
ATOM     25  C   UNL     1      15.966  33.245  30.960  1.00  0.00     0.014 C 
ATOM     26  C   UNL     1      16.363  31.772  29.036  1.00  0.00     0.014 C 
ENDROOT
BRANCH   1  27
ATOM     27  C   UNL     1      25.357  30.510  29.367  1.00  0.00     0.048 C 
ATOM     28  O   UNL     1      25.941  31.450  28.767  1.00  0.00    -0.550 OA
ATOM     29  O   UNL     1      24.738  29.516  28.611  1.00  0.00    -0.550 OA
ENDBRANCH   1  27
BRANCH   7  30
ATOM     30  C   UNL     1      26.563  33.504  32.039  1.00  0.00    -0.077 C 
ATOM     31  C   UNL     1      25.720  34.441  31.212  1.00  0.00     0.039 C 
ATOM     32  C   UNL     1      27.832  33.859  32.305  1.00  0.00     0.008 C 
ENDBRANCH   7  30
BRANCH  24  33
ATOM     33  O   UNL     1      18.383  33.509  28.060  1.00  0.00    -0.393 OA
ATOM     34  H   UNL     1      19.028  34.229  27.839  1.00  0.00     0.210 HD
ENDBRANCH  24  33
TORSDOF 3
ENDMDL
MODEL 3
REMARK VINA RESULT:    -4.106      5.690     12.122
REMARK INTER + INTRA:          -5.371
REMARK INTER:                  -5.038
REMARK INTRA:                  -0.333
REMARK UNBOUND:                -0.665
REMARK SMILES C=C(C)[C@@H]1CC[C@@]2(C(=O)[O-])CC[C@@]3(C)[C@H](CC[C@H]4[C@@]5(C)CC[C@@H](O)C(C)(C)[C@H]5CC[C@@]43C)[C@@H]12
REMARK SMILES IDX 7 1 6 2 33 3 11 4 5 5 15 6 4 7 12 8 16 9 13 10 17 11 31 12
REMARK SMILES IDX 14 13 18 14 30 15 32 16 19 17 29 18 21 19 20 20 28 21 22 22
REMARK SMILES IDX 25 23 23 24 26 25 27 26 8 27 9 28 10 29 2 30 3 31 1 32 24 33
REMARK H PARENT 24 34
REMARK Flexibility Score: inf
ROOT
ATOM      1  C   UNL     1      31.883  31.223  29.124  1.00  0.00     0.014 C 
ATOM      2  C   UNL     1      33.398  31.263  28.813  1.00  0.00     0.014 C 
ATOM      3  C   UNL     1      31.506  32.648  29.685  1.00  0.00     0.012 C 
ATOM      4  C   UNL     1      31.617  30.119  30.179  1.00  0.00     0.014 C 
ATOM      5  C   UNL     1      33.976  32.448  29.553  1.00  0.00     0.009 C 
ATOM      6  C   UNL     1      30.828  32.622  31.108  1.00  0.00     0.000 C 
ATOM      7  C   UNL     1      32.844  33.453  29.721  1.00  0.00     0.018 C 
ATOM      8  C   UNL     1      30.159  30.142  30.638  1.00  0.00     0.008 C 
ATOM      9  C   UNL     1      30.353  34.027  31.575  1.00  0.00     0.005 C 
ATOM     10  C   UNL     1      29.761  31.467  31.394  1.00  0.00    -0.024 C 
ATOM     11  C   UNL     1      28.916  34.375  31.193  1.00  0.00     0.005 C 
ATOM     12  C   UNL     1      28.236  31.926  31.046  1.00  0.00    -0.024 C 
ATOM     13  C   UNL     1      29.925  31.113  32.918  1.00  0.00     0.012 C 
ATOM     14  C   UNL     1      27.923  33.312  31.728  1.00  0.00     0.002 C 
ATOM     15  C   UNL     1      27.214  30.910  31.603  1.00  0.00     0.008 C 
ATOM     16  C   UNL     1      28.022  31.999  29.497  1.00  0.00     0.012 C 
ATOM     17  C   UNL     1      26.400  33.824  31.838  1.00  0.00    -0.026 C 
ATOM     18  C   UNL     1      25.770  31.309  31.313  1.00  0.00     0.005 C 
ATOM     19  C   UNL     1      26.028  34.748  30.628  1.00  0.00     0.010 C 
ATOM     20  C   UNL     1      26.353  34.726  33.125  1.00  0.00     0.012 C 
ATOM     21  C   UNL     1      25.354  32.621  32.032  1.00  0.00     0.003 C 
ATOM     22  C   UNL     1      24.544  35.109  30.522  1.00  0.00     0.033 C 
ATOM     23  C   UNL     1      23.819  32.986  31.765  1.00  0.00    -0.006 C 
ATOM     24  C   UNL     1      23.656  33.861  30.486  1.00  0.00     0.120 C 
ATOM     25  C   UNL     1      23.198  33.713  32.994  1.00  0.00     0.014 C 
ATOM     26  C   UNL     1      22.930  31.717  31.590  1.00  0.00     0.014 C 
ENDROOT
BRANCH   1  27
ATOM     27  C   UNL     1      31.159  30.854  27.831  1.00  0.00     0.048 C 
ATOM     28  O   UNL     1      30.029  31.327  27.542  1.00  0.00    -0.550 OA
ATOM     29  O   UNL     1      31.792  30.022  26.910  1.00  0.00    -0.550 OA
ENDBRANCH   1  27
BRANCH   7  30
ATOM     30  C   UNL     1      32.902  34.570  28.676  1.00  0.00    -0.077 C 
ATOM     31  C   UNL     1      31.629  35.093  28.061  1.00  0.00     0.039 C 
ATOM     32  C   UNL     1      34.068  35.095  28.263  1.00  0.00     0.008 C 
ENDBRANCH   7  30
BRANCH  24  33
ATOM     33  O   UNL     1      23.948  33.106  29.335  1.00  0.00    -0.393 OA
ATOM     34  H   UNL     1      24.855  33.367  29.032  1.00  0.00     0.210 HD
ENDBRANCH  24  33
TORSDOF 3
ENDMDL
MODEL 4
REMARK VINA RESULT:    -4.102      3.505      6.227
REMARK INTER + INTRA:          -5.366
REMARK INTER:                  -4.997
REMARK INTRA:                  -0.369
REMARK UNBOUND:                -0.665
REMARK SMILES C=C(C)[C@@H]1CC[C@@]2(C(=O)[O-])CC[C@@]3(C)[C@H](CC[C@H]4[C@@]5(C)CC[C@@H](O)C(C)(C)[C@H]5CC[C@@]43C)[C@@H]12
REMARK SMILES IDX 7 1 6 2 33 3 11 4 5 5 15 6 4 7 12 8 16 9 13 10 17 11 31 12
REMARK SMILES IDX 14 13 18 14 30 15 32 16 19 17 29 18 21 19 20 20 28 21 22 22
REMARK SMILES IDX 25 23 23 24 26 25 27 26 8 27 9 28 10 29 2 30 3 31 1 32 24 33
REMARK H PARENT 24 34
REMARK Flexibility Score: inf
ROOT
ATOM      1  C   UNL     1      15.483  24.566  28.522  1.00  0.00     0.014 C 
ATOM      2  C   UNL     1      14.725  23.223  28.397  1.00  0.00     0.014 C 
ATOM      3  C   UNL     1      15.411  24.977  30.043  1.00  0.00     0.012 C 
ATOM      4  C   UNL     1      14.787  25.620  27.624  1.00  0.00     0.014 C 
ATOM      5  C   UNL     1      13.875  23.072  29.638  1.00  0.00     0.009 C 
ATOM      6  C   UNL     1      14.787  26.403  30.296  1.00  0.00     0.000 C 
ATOM      7  C   UNL     1      14.564  23.866  30.740  1.00  0.00     0.018 C 
ATOM      8  C   UNL     1      15.401  27.005  27.830  1.00  0.00     0.008 C 
ATOM      9  C   UNL     1      14.849  26.830  31.789  1.00  0.00     0.005 C 
ATOM     10  C   UNL     1      15.190  27.573  29.286  1.00  0.00    -0.024 C 
ATOM     11  C   UNL     1      16.104  27.608  32.179  1.00  0.00     0.005 C 
ATOM     12  C   UNL     1      16.485  28.420  29.797  1.00  0.00    -0.024 C 
ATOM     13  C   UNL     1      13.912  28.484  29.169  1.00  0.00     0.012 C 
ATOM     14  C   UNL     1      16.278  28.868  31.294  1.00  0.00     0.002 C 
ATOM     15  C   UNL     1      16.665  29.709  28.963  1.00  0.00     0.008 C 
ATOM     16  C   UNL     1      17.794  27.577  29.636  1.00  0.00     0.012 C 
ATOM     17  C   UNL     1      17.232  29.998  31.930  1.00  0.00    -0.026 C 
ATOM     18  C   UNL     1      17.860  30.542  29.418  1.00  0.00     0.005 C 
ATOM     19  C   UNL     1      18.452  29.353  32.674  1.00  0.00     0.010 C 
ATOM     20  C   UNL     1      16.362  30.713  33.028  1.00  0.00     0.012 C 
ATOM     21  C   UNL     1      17.687  31.103  30.856  1.00  0.00     0.003 C 
ATOM     22  C   UNL     1      19.532  30.340  33.124  1.00  0.00     0.033 C 
ATOM     23  C   UNL     1      18.922  32.025  31.289  1.00  0.00    -0.006 C 
ATOM     24  C   UNL     1      20.052  31.185  31.957  1.00  0.00     0.120 C 
ATOM     25  C   UNL     1      18.459  33.160  32.247  1.00  0.00     0.014 C 
ATOM     26  C   UNL     1      19.545  32.785  30.078  1.00  0.00     0.014 C 
ENDROOT
BRANCH   1  27
ATOM     27  C   UNL     1      16.902  24.340  28.006  1.00  0.00     0.048 C 
ATOM     28  O   UNL     1      17.914  24.722  28.651  1.00  0.00    -0.550 OA
ATOM     29  O   UNL     1      17.092  23.633  26.820  1.00  0.00    -0.550 OA
ENDBRANCH   1  27
BRANCH   7  30
ATOM     30  C   UNL     1      15.391  22.973  31.668  1.00  0.00    -0.077 C 
ATOM     31  C   UNL     1      15.680  21.545  31.278  1.00  0.00     0.039 C 
ATOM     32  C   UNL     1      15.857  23.415  32.849  1.00  0.00     0.008 C 
ENDBRANCH   7  30
BRANCH  24  33
ATOM     33  O   UNL     1      20.670  30.352  31.007  1.00  0.00    -0.393 OA
ATOM     34  H   UNL     1      20.641  30.825  30.136  1.00  0.00     0.210 HD
ENDBRANCH  24  33
TORSDOF 3
ENDMDL
MODEL 5
REMARK VINA RESULT:    -3.710      1.451      7.682
REMARK INTER + INTRA:          -4.917
REMARK INTER:                  -4.839
REMARK INTRA:                  -0.078
REMARK UNBOUND:                -0.665
REMARK SMILES C=C(C)[C@@H]1CC[C@@]2(C(=O)[O-])CC[C@@]3(C)[C@H](CC[C@H]4[C@@]5(C)CC[C@@H](O)C(C)(C)[C@H]5CC[C@@]43C)[C@@H]12
REMARK SMILES IDX 7 1 6 2 33 3 11 4 5 5 15 6 4 7 12 8 16 9 13 10 17 11 31 12
REMARK SMILES IDX 14 13 18 14 30 15 32 16 19 17 29 18 21 19 20 20 28 21 22 22
REMARK SMILES IDX 25 23 23 24 26 25 27 26 8 27 9 28 10 29 2 30 3 31 1 32 24 33
REMARK H PARENT 24 34
REMARK Flexibility Score: inf
ROOT
ATOM      1  C   UNL     1      23.727  30.632  31.012  1.00  0.00     0.014 C 
ATOM      2  C   UNL     1      25.185  30.510  30.510  1.00  0.00     0.014 C 
ATOM      3  C   UNL     1      22.816  29.994  29.894  1.00  0.00     0.012 C 
ATOM      4  C   UNL     1      23.392  32.132  31.216  1.00  0.00     0.014 C 
ATOM      5  C   UNL     1      25.125  30.245  29.023  1.00  0.00     0.009 C 
ATOM      6  C   UNL     1      21.698  30.960  29.344  1.00  0.00     0.000 C 
ATOM      7  C   UNL     1      23.790  29.562  28.753  1.00  0.00     0.018 C 
ATOM      8  C   UNL     1      21.915  32.321  31.562  1.00  0.00     0.008 C 
ATOM      9  C   UNL     1      20.739  30.261  28.340  1.00  0.00     0.005 C 
ATOM     10  C   UNL     1      20.940  31.887  30.401  1.00  0.00    -0.024 C 
ATOM     11  C   UNL     1      19.502  29.628  28.973  1.00  0.00     0.005 C 
ATOM     12  C   UNL     1      19.583  31.193  30.979  1.00  0.00    -0.024 C 
ATOM     13  C   UNL     1      20.624  33.225  29.635  1.00  0.00     0.012 C 
ATOM     14  C   UNL     1      18.695  30.672  29.786  1.00  0.00     0.002 C 
ATOM     15  C   UNL     1      18.730  32.219  31.761  1.00  0.00     0.008 C 
ATOM     16  C   UNL     1      19.936  30.033  31.968  1.00  0.00     0.012 C 
ATOM     17  C   UNL     1      17.160  30.265  30.050  1.00  0.00    -0.026 C 
ATOM     18  C   UNL     1      17.440  31.614  32.308  1.00  0.00     0.005 C 
ATOM     19  C   UNL     1      17.027  28.730  30.339  1.00  0.00     0.010 C 
ATOM     20  C   UNL     1      16.415  30.533  28.690  1.00  0.00     0.012 C 
ATOM     21  C   UNL     1      16.465  31.163  31.186  1.00  0.00     0.003 C 
ATOM     22  C   UNL     1      15.644  28.279  30.817  1.00  0.00     0.033 C 
ATOM     23  C   UNL     1      15.095  30.591  31.781  1.00  0.00    -0.006 C 
ATOM     24  C   UNL     1      15.187  29.060  32.053  1.00  0.00     0.120 C 
ATOM     25  C   UNL     1      13.904  30.895  30.825  1.00  0.00     0.014 C 
ATOM     26  C   UNL     1      14.693  31.289  33.117  1.00  0.00     0.014 C 
ENDROOT
BRANCH   1  27
ATOM     27  C   UNL     1      23.646  29.922  32.361  1.00  0.00     0.048 C 
ATOM     28  O   UNL     1      22.575  29.410  32.780  1.00  0.00    -0.550 OA
ATOM     29  O   UNL     1      24.802  29.774  33.125  1.00  0.00    -0.550 OA
ENDBRANCH   1  27
BRANCH   7  30
ATOM     30  C   UNL     1      23.932  28.043  28.626  1.00  0.00    -0.077 C 
ATOM     31  C   UNL     1      22.711  27.189  28.398  1.00  0.00     0.039 C 
ATOM     32  C   UNL     1      25.123  27.430  28.735  1.00  0.00     0.008 C 
ENDBRANCH   7  30
BRANCH  24  33
ATOM     33  O   UNL     1      16.062  28.805  33.125  1.00  0.00    -0.393 OA
ATOM     34  H   UNL     1      16.903  29.298  32.943  1.00  0.00     0.210 HD
ENDBRANCH  24  33
TORSDOF 3
ENDMDL
MODEL 6
REMARK VINA RESULT:    -3.645      2.820      5.281
REMARK INTER + INTRA:          -4.842
REMARK INTER:                  -4.931
REMARK INTRA:                   0.088
REMARK UNBOUND:                -0.665
REMARK SMILES C=C(C)[C@@H]1CC[C@@]2(C(=O)[O-])CC[C@@]3(C)[C@H](CC[C@H]4[C@@]5(C)CC[C@@H](O)C(C)(C)[C@H]5CC[C@@]43C)[C@@H]12
REMARK SMILES IDX 7 1 6 2 33 3 11 4 5 5 15 6 4 7 12 8 16 9 13 10 17 11 31 12
REMARK SMILES IDX 14 13 18 14 30 15 32 16 19 17 29 18 21 19 20 20 28 21 22 22
REMARK SMILES IDX 25 23 23 24 26 25 27 26 8 27 9 28 10 29 2 30 3 31 1 32 24 33
REMARK H PARENT 24 34
REMARK Flexibility Score: inf
ROOT
ATOM      1  C   UNL     1      18.143  27.861  28.365  1.00  0.00     0.014 C 
ATOM      2  C   UNL     1      17.430  26.562  27.920  1.00  0.00     0.014 C 
ATOM      3  C   UNL     1      19.514  27.418  29.006  1.00  0.00     0.012 C 
ATOM      4  C   UNL     1      17.252  28.591  29.403  1.00  0.00     0.014 C 
ATOM      5  C   UNL     1      18.097  25.415  28.644  1.00  0.00     0.009 C 
ATOM      6  C   UNL     1      19.729  27.927  30.483  1.00  0.00     0.000 C 
ATOM      7  C   UNL     1      19.523  25.858  28.947  1.00  0.00     0.018 C 
ATOM      8  C   UNL     1      17.977  29.800  29.993  1.00  0.00     0.008 C 
ATOM      9  C   UNL     1      21.141  27.584  31.037  1.00  0.00     0.005 C 
ATOM     10  C   UNL     1      19.260  29.415  30.826  1.00  0.00    -0.024 C 
ATOM     11  C   UNL     1      22.199  28.660  30.799  1.00  0.00     0.005 C 
ATOM     12  C   UNL     1      20.455  30.506  30.633  1.00  0.00    -0.024 C 
ATOM     13  C   UNL     1      18.758  29.363  32.316  1.00  0.00     0.012 C 
ATOM     14  C   UNL     1      21.752  30.022  31.386  1.00  0.00     0.002 C 
ATOM     15  C   UNL     1      20.060  31.869  31.246  1.00  0.00     0.008 C 
ATOM     16  C   UNL     1      20.742  30.747  29.113  1.00  0.00     0.012 C 
ATOM     17  C   UNL     1      22.956  31.058  31.651  1.00  0.00    -0.026 C 
ATOM     18  C   UNL     1      21.158  32.919  31.101  1.00  0.00     0.005 C 
ATOM     19  C   UNL     1      24.029  30.977  30.511  1.00  0.00     0.010 C 
ATOM     20  C   UNL     1      23.658  30.557  32.967  1.00  0.00     0.012 C 
ATOM     21  C   UNL     1      22.442  32.559  31.899  1.00  0.00     0.003 C 
ATOM     22  C   UNL     1      25.101  32.069  30.552  1.00  0.00     0.033 C 
ATOM     23  C   UNL     1      23.555  33.703  31.784  1.00  0.00    -0.006 C 
ATOM     24  C   UNL     1      24.485  33.471  30.556  1.00  0.00     0.120 C 
ATOM     25  C   UNL     1      24.402  33.787  33.088  1.00  0.00     0.014 C 
ATOM     26  C   UNL     1      22.931  35.125  31.649  1.00  0.00     0.014 C 
ENDROOT
BRANCH   1  27
ATOM     27  C   UNL     1      18.291  28.748  27.132  1.00  0.00     0.048 C 
ATOM     28  O   UNL     1      18.737  29.923  27.207  1.00  0.00    -0.550 OA
ATOM     29  O   UNL     1      17.987  28.227  25.876  1.00  0.00    -0.550 OA
ENDBRANCH   1  27
BRANCH   7  30
ATOM     30  C   UNL     1      20.530  25.300  27.939  1.00  0.00    -0.077 C 
ATOM     31  C   UNL     1      20.144  24.147  27.047  1.00  0.00     0.039 C 
ATOM     32  C   UNL     1      21.777  25.792  27.835  1.00  0.00     0.008 C 
ENDBRANCH   7  30
BRANCH  24  33
ATOM     33  O   UNL     1      23.774  33.679  29.359  1.00  0.00    -0.393 OA
ATOM     34  H   UNL     1      22.936  34.155  29.591  1.00  0.00     0.210 HD
ENDBRANCH  24  33
TORSDOF 3
ENDMDL
MODEL 7
REMARK VINA RESULT:    -3.503      2.158      7.482
REMARK INTER + INTRA:          -4.680
REMARK INTER:                  -4.752
REMARK INTRA:                   0.071
REMARK UNBOUND:                -0.665
REMARK SMILES C=C(C)[C@@H]1CC[C@@]2(C(=O)[O-])CC[C@@]3(C)[C@H](CC[C@H]4[C@@]5(C)CC[C@@H](O)C(C)(C)[C@H]5CC[C@@]43C)[C@@H]12
REMARK SMILES IDX 7 1 6 2 33 3 11 4 5 5 15 6 4 7 12 8 16 9 13 10 17 11 31 12
REMARK SMILES IDX 14 13 18 14 30 15 32 16 19 17 29 18 21 19 20 20 28 21 22 22
REMARK SMILES IDX 25 23 23 24 26 25 27 26 8 27 9 28 10 29 2 30 3 31 1 32 24 33
REMARK H PARENT 24 34
REMARK Flexibility Score: inf
ROOT
ATOM      1  C   UNL     1      23.586  29.172  29.973  1.00  0.00     0.014 C 
ATOM      2  C   UNL     1      25.115  28.951  30.039  1.00  0.00     0.014 C 
ATOM      3  C   UNL     1      23.306  30.563  30.661  1.00  0.00     0.012 C 
ATOM      4  C   UNL     1      22.879  28.021  30.734  1.00  0.00     0.014 C 
ATOM      5  C   UNL     1      25.659  29.899  31.083  1.00  0.00     0.009 C 
ATOM      6  C   UNL     1      22.282  30.497  31.857  1.00  0.00     0.000 C 
ATOM      7  C   UNL     1      24.698  31.079  31.146  1.00  0.00     0.018 C 
ATOM      8  C   UNL     1      21.375  28.273  30.834  1.00  0.00     0.008 C 
ATOM      9  C   UNL     1      21.932  31.900  32.428  1.00  0.00     0.005 C 
ATOM     10  C   UNL     1      21.008  29.548  31.685  1.00  0.00    -0.024 C 
ATOM     11  C   UNL     1      20.720  32.568  31.782  1.00  0.00     0.005 C 
ATOM     12  C   UNL     1      19.722  30.337  31.069  1.00  0.00    -0.024 C 
ATOM     13  C   UNL     1      20.708  28.985  33.123  1.00  0.00     0.012 C 
ATOM     14  C   UNL     1      19.466  31.663  31.881  1.00  0.00     0.002 C 
ATOM     15  C   UNL     1      18.441  29.480  31.191  1.00  0.00     0.008 C 
ATOM     16  C   UNL     1      19.937  30.638  29.548  1.00  0.00     0.012 C 
ATOM     17  C   UNL     1      18.069  32.446  31.712  1.00  0.00    -0.026 C 
ATOM     18  C   UNL     1      17.207  30.188  30.639  1.00  0.00     0.005 C 
ATOM     19  C   UNL     1      18.179  33.567  30.622  1.00  0.00     0.010 C 
ATOM     20  C   UNL     1      17.829  33.177  33.085  1.00  0.00     0.012 C 
ATOM     21  C   UNL     1      16.830  31.458  31.449  1.00  0.00     0.003 C 
ATOM     22  C   UNL     1      16.852  34.223  30.230  1.00  0.00     0.033 C 
ATOM     23  C   UNL     1      15.498  32.148  30.892  1.00  0.00    -0.006 C 
ATOM     24  C   UNL     1      15.818  33.187  29.777  1.00  0.00     0.120 C 
ATOM     25  C   UNL     1      14.700  32.827  32.044  1.00  0.00     0.014 C 
ATOM     26  C   UNL     1      14.496  31.109  30.302  1.00  0.00     0.014 C 
ENDROOT
BRANCH   1  27
ATOM     27  C   UNL     1      23.178  29.112  28.503  1.00  0.00     0.048 C 
ATOM     28  O   UNL     1      22.024  29.439  28.118  1.00  0.00    -0.550 OA
ATOM     29  O   UNL     1      24.125  28.751  27.546  1.00  0.00    -0.550 OA
ENDBRANCH   1  27
BRANCH   7  30
ATOM     30  C   UNL     1      25.205  32.283  30.347  1.00  0.00    -0.077 C 
ATOM     31  C   UNL     1      26.615  32.292  29.812  1.00  0.00     0.039 C 
ATOM     32  C   UNL     1      24.434  33.360  30.121  1.00  0.00     0.008 C 
ENDBRANCH   7  30
BRANCH  24  33
ATOM     33  O   UNL     1      16.278  32.535  28.617  1.00  0.00    -0.393 OA
ATOM     34  H   UNL     1      16.184  31.560  28.770  1.00  0.00     0.210 HD
ENDBRANCH  24  33
TORSDOF 3
ENDMDL
MODEL 8
REMARK VINA RESULT:    -3.114      2.374      3.696
REMARK INTER + INTRA:          -4.234
REMARK INTER:                  -3.744
REMARK INTRA:                  -0.490
REMARK UNBOUND:                -0.665
REMARK SMILES C=C(C)[C@@H]1CC[C@@]2(C(=O)[O-])CC[C@@]3(C)[C@H](CC[C@H]4[C@@]5(C)CC[C@@H](O)C(C)(C)[C@H]5CC[C@@]43C)[C@@H]12
REMARK SMILES IDX 7 1 6 2 33 3 11 4 5 5 15 6 4 7 12 8 16 9 13 10 17 11 31 12
REMARK SMILES IDX 14 13 18 14 30 15 32 16 19 17 29 18 21 19 20 20 28 21 22 22
REMARK SMILES IDX 25 23 23 24 26 25 27 26 8 27 9 28 10 29 2 30 3 31 1 32 24 33
REMARK H PARENT 24 34
REMARK Flexibility Score: inf
ROOT
ATOM      1  C   UNL     1      16.638  26.328  28.617  1.00  0.00     0.014 C 
ATOM      2  C   UNL     1      15.264  25.625  28.519  1.00  0.00     0.014 C 
ATOM      3  C   UNL     1      16.648  27.096  29.995  1.00  0.00     0.012 C 
ATOM      4  C   UNL     1      16.784  27.312  27.428  1.00  0.00     0.014 C 
ATOM      5  C   UNL     1      14.351  26.285  29.527  1.00  0.00     0.009 C 
ATOM      6  C   UNL     1      16.938  28.641  29.869  1.00  0.00     0.000 C 
ATOM      7  C   UNL     1      15.244  26.842  30.628  1.00  0.00     0.018 C 
ATOM      8  C   UNL     1      18.057  28.147  27.562  1.00  0.00     0.008 C 
ATOM      9  C   UNL     1      17.068  29.343  31.250  1.00  0.00     0.005 C 
ATOM     10  C   UNL     1      18.052  29.098  28.820  1.00  0.00    -0.024 C 
ATOM     11  C   UNL     1      18.489  29.395  31.809  1.00  0.00     0.005 C 
ATOM     12  C   UNL     1      19.532  29.217  29.493  1.00  0.00    -0.024 C 
ATOM     13  C   UNL     1      17.558  30.483  28.261  1.00  0.00     0.012 C 
ATOM     14  C   UNL     1      19.456  30.080  30.810  1.00  0.00     0.002 C 
ATOM     15  C   UNL     1      20.515  29.936  28.541  1.00  0.00     0.008 C 
ATOM     16  C   UNL     1      20.121  27.796  29.783  1.00  0.00     0.012 C 
ATOM     17  C   UNL     1      20.809  30.642  31.477  1.00  0.00    -0.026 C 
ATOM     18  C   UNL     1      21.911  30.082  29.138  1.00  0.00     0.005 C 
ATOM     19  C   UNL     1      21.340  29.666  32.583  1.00  0.00     0.010 C 
ATOM     20  C   UNL     1      20.395  31.970  32.211  1.00  0.00     0.012 C 
ATOM     21  C   UNL     1      21.935  31.003  30.389  1.00  0.00     0.003 C 
ATOM     22  C   UNL     1      22.733  29.996  33.124  1.00  0.00     0.033 C 
ATOM     23  C   UNL     1      23.417  31.193  30.961  1.00  0.00    -0.006 C 
ATOM     24  C   UNL     1      23.772  30.089  32.002  1.00  0.00     0.120 C 
ATOM     25  C   UNL     1      23.591  32.604  31.596  1.00  0.00     0.014 C 
ATOM     26  C   UNL     1      24.496  31.150  29.836  1.00  0.00     0.014 C 
ENDROOT
BRANCH   1  27
ATOM     27  C   UNL     1      17.714  25.250  28.499  1.00  0.00     0.048 C 
ATOM     28  O   UNL     1      18.544  25.034  29.420  1.00  0.00    -0.550 OA
ATOM     29  O   UNL     1      17.740  24.434  27.370  1.00  0.00    -0.550 OA
ENDBRANCH   1  27
BRANCH   7  30
ATOM     30  C   UNL     1      15.293  25.925  31.853  1.00  0.00    -0.077 C 
ATOM     31  C   UNL     1      15.448  24.436  31.674  1.00  0.00     0.039 C 
ATOM     32  C   UNL     1      15.177  26.405  33.103  1.00  0.00     0.008 C 
ENDBRANCH   7  30
BRANCH  24  33
ATOM     33  O   UNL     1      23.897  28.839  31.368  1.00  0.00    -0.393 OA
ATOM     34  H   UNL     1      23.155  28.267  31.695  1.00  0.00     0.210 HD
ENDBRANCH  24  33
TORSDOF 3
ENDMDL
MODEL 9
REMARK VINA RESULT:    -2.973      2.161      3.941
REMARK INTER + INTRA:          -4.072
REMARK INTER:                  -3.266
REMARK INTRA:                  -0.807
REMARK UNBOUND:                -0.665
REMARK SMILES C=C(C)[C@@H]1CC[C@@]2(C(=O)[O-])CC[C@@]3(C)[C@H](CC[C@H]4[C@@]5(C)CC[C@@H](O)C(C)(C)[C@H]5CC[C@@]43C)[C@@H]12
REMARK SMILES IDX 7 1 6 2 33 3 11 4 5 5 15 6 4 7 12 8 16 9 13 10 17 11 31 12
REMARK SMILES IDX 14 13 18 14 30 15 32 16 19 17 29 18 21 19 20 20 28 21 22 22
REMARK SMILES IDX 25 23 23 24 26 25 27 26 8 27 9 28 10 29 2 30 3 31 1 32 24 33
REMARK H PARENT 24 34
REMARK Flexibility Score: inf
ROOT
ATOM      1  C   UNL     1      17.334  32.799  30.649  1.00  0.00     0.014 C 
ATOM      2  C   UNL     1      15.825  32.855  30.982  1.00  0.00     0.014 C 
ATOM      3  C   UNL     1      17.927  31.589  31.468  1.00  0.00     0.012 C 
ATOM      4  C   UNL     1      17.992  34.137  31.074  1.00  0.00     0.014 C 
ATOM      5  C   UNL     1      15.616  32.047  32.243  1.00  0.00     0.009 C 
ATOM      6  C   UNL     1      19.126  31.977  32.415  1.00  0.00     0.000 C 
ATOM      7  C   UNL     1      16.732  31.012  32.290  1.00  0.00     0.018 C 
ATOM      8  C   UNL     1      19.510  34.077  30.911  1.00  0.00     0.008 C 
ATOM      9  C   UNL     1      19.769  30.743  33.109  1.00  0.00     0.005 C 
ATOM     10  C   UNL     1      20.200  33.018  31.855  1.00  0.00    -0.024 C 
ATOM     11  C   UNL     1      20.931  30.114  32.343  1.00  0.00     0.005 C 
ATOM     12  C   UNL     1      21.458  32.284  31.122  1.00  0.00    -0.024 C 
ATOM     13  C   UNL     1      20.666  33.853  33.104  1.00  0.00     0.012 C 
ATOM     14  C   UNL     1      22.041  31.157  32.056  1.00  0.00     0.002 C 
ATOM     15  C   UNL     1      22.604  33.287  30.858  1.00  0.00     0.008 C 
ATOM     16  C   UNL     1      21.023  31.700  29.736  1.00  0.00     0.012 C 
ATOM     17  C   UNL     1      23.483  30.518  31.733  1.00  0.00    -0.026 C 
ATOM     18  C   UNL     1      23.809  32.638  30.185  1.00  0.00     0.005 C 
ATOM     19  C   UNL     1      23.344  29.220  30.866  1.00  0.00     0.010 C 
ATOM     20  C   UNL     1      24.063  30.070  33.125  1.00  0.00     0.012 C 
ATOM     21  C   UNL     1      24.501  31.579  31.086  1.00  0.00     0.003 C 
ATOM     22  C   UNL     1      24.661  28.659  30.323  1.00  0.00     0.033 C 
ATOM     23  C   UNL     1      25.799  30.957  30.386  1.00  0.00    -0.006 C 
ATOM     24  C   UNL     1      25.439  29.710  29.524  1.00  0.00     0.120 C 
ATOM     25  C   UNL     1      26.877  30.583  31.446  1.00  0.00     0.014 C 
ATOM     26  C   UNL     1      26.522  31.983  29.461  1.00  0.00     0.014 C 
ENDROOT
BRANCH   1  27
ATOM     27  C   UNL     1      17.464  32.647  29.135  1.00  0.00     0.048 C 
ATOM     28  O   UNL     1      17.272  33.612  28.350  1.00  0.00    -0.550 OA
ATOM     29  O   UNL     1      17.870  31.424  28.605  1.00  0.00    -0.550 OA
ENDBRANCH   1  27
BRANCH   7  30
ATOM     30  C   UNL     1      16.269  29.639  31.797  1.00  0.00    -0.077 C 
ATOM     31  C   UNL     1      17.235  28.732  31.077  1.00  0.00     0.039 C 
ATOM     32  C   UNL     1      15.005  29.214  31.964  1.00  0.00     0.008 C 
ENDBRANCH   7  30
BRANCH  24  33
ATOM     33  O   UNL     1      24.693  30.094  28.394  1.00  0.00    -0.393 OA
ATOM     34  H   UNL     1      24.198  30.919  28.634  1.00  0.00     0.210 HD
ENDBRANCH  24  33
TORSDOF 3
ENDMDL
