MODEL 1
REMARK VINA RESULT:    -5.504      0.000      0.000
REMARK INTER + INTRA:         -11.416
REMARK INTER:                 -10.009
REMARK INTRA:                  -1.407
REMARK UNBOUND:                -1.407
REMARK SMILES CCCCCCCCCCCCCCCC(=O)[O-]
REMARK SMILES IDX 9 1 10 2 11 3 12 4 13 5 14 6 15 7 16 8 17 9 18 10 8 11 7 12
REMARK SMILES IDX 6 13 5 14 4 15 3 16 2 17 1 18
REMARK H PARENT
REMARK Flexibility Score: inf
ROOT
ATOM      1  C   UNL     1       1.300  43.949   9.012  1.00  0.00     0.000 C 
ENDROOT
BRANCH   1   2
ATOM      2  C   UNL     1       2.549  43.053   9.147  1.00  0.00     0.000 C 
BRANCH   2   3
ATOM      3  C   UNL     1       3.839  43.828   9.474  1.00  0.00     0.000 C 
BRANCH   3   4
ATOM      4  C   UNL     1       4.387  43.613  10.899  1.00  0.00     0.000 C 
BRANCH   4   5
ATOM      5  C   UNL     1       3.511  42.728  11.804  1.00  0.00     0.000 C 
BRANCH   5   6
ATOM      6  C   UNL     1       4.137  41.351  12.082  1.00  0.00     0.006 C 
BRANCH   6   7
ATOM      7  C   UNL     1       3.075  40.258  12.258  1.00  0.00     0.053 C 
BRANCH   7   8
ATOM      8  C   UNL     1       3.694  38.930  12.575  1.00  0.00     0.041 C 
ATOM      9  O   UNL     1       4.751  38.870  13.256  1.00  0.00    -0.550 OA
ATOM     10  O   UNL     1       3.082  37.758  12.150  1.00  0.00    -0.550 OA
ENDBRANCH   7   8
ENDBRANCH   6   7
ENDBRANCH   5   6
ENDBRANCH   4   5
ENDBRANCH   3   4
ENDBRANCH   2   3
ENDBRANCH   1   2
BRANCH   1  11
ATOM     11  C   UNL     1       1.189  44.980  10.149  1.00  0.00     0.000 C 
BRANCH  11  12
ATOM     12  C   UNL     1       0.793  46.377   9.646  1.00  0.00    -0.000 C 
BRANCH  12  13
ATOM     13  C   UNL     1       1.997  47.333   9.554  1.00  0.00    -0.000 C 
BRANCH  13  14
ATOM     14  C   UNL     1       2.450  47.575   8.105  1.00  0.00    -0.000 C 
BRANCH  14  15
ATOM     15  C   UNL     1       3.974  47.712   7.976  1.00  0.00    -0.000 C 
BRANCH  15  16
ATOM     16  C   UNL     1       4.683  47.105   9.196  1.00  0.00    -0.000 C 
BRANCH  16  17
ATOM     17  C   UNL     1       6.180  47.448   9.241  1.00  0.00    -0.003 C 
ATOM     18  C   UNL     1       6.443  48.953   9.201  1.00  0.00     0.004 C 
ENDBRANCH  16  17
ENDBRANCH  15  16
ENDBRANCH  14  15
ENDBRANCH  13  14
ENDBRANCH  12  13
ENDBRANCH  11  12
ENDBRANCH   1  11
TORSDOF 14
ENDMDL
MODEL 2
REMARK VINA RESULT:    -5.500      0.866      1.664
REMARK INTER + INTRA:         -11.408
REMARK INTER:                 -10.029
REMARK INTRA:                  -1.379
REMARK UNBOUND:                -1.407
REMARK SMILES CCCCCCCCCCCCCCCC(=O)[O-]
REMARK SMILES IDX 9 1 10 2 11 3 12 4 13 5 14 6 15 7 16 8 17 9 18 10 8 11 7 12
REMARK SMILES IDX 6 13 5 14 4 15 3 16 2 17 1 18
REMARK H PARENT
REMARK Flexibility Score: inf
ROOT
ATOM      1  C   UNL     1       0.358  45.722   9.905  1.00  0.00     0.000 C 
ENDROOT
BRANCH   1   2
ATOM      2  C   UNL     1       1.131  44.497  10.439  1.00  0.00     0.000 C 
BRANCH   2   3
ATOM      3  C   UNL     1       1.687  43.582   9.332  1.00  0.00     0.000 C 
BRANCH   3   4
ATOM      4  C   UNL     1       2.802  42.617   9.780  1.00  0.00     0.000 C 
BRANCH   4   5
ATOM      5  C   UNL     1       3.273  42.801  11.234  1.00  0.00     0.000 C 
BRANCH   5   6
ATOM      6  C   UNL     1       3.989  41.561  11.793  1.00  0.00     0.006 C 
BRANCH   6   7
ATOM      7  C   UNL     1       3.003  40.458  12.201  1.00  0.00     0.053 C 
BRANCH   7   8
ATOM      8  C   UNL     1       3.713  39.209  12.626  1.00  0.00     0.041 C 
ATOM      9  O   UNL     1       3.279  38.082  12.272  1.00  0.00    -0.550 OA
ATOM     10  O   UNL     1       4.873  39.292  13.386  1.00  0.00    -0.550 OA
ENDBRANCH   7   8
ENDBRANCH   6   7
ENDBRANCH   5   6
ENDBRANCH   4   5
ENDBRANCH   3   4
ENDBRANCH   2   3
ENDBRANCH   1   2
BRANCH   1  11
ATOM     11  C   UNL     1       0.293  45.755   8.369  1.00  0.00     0.000 C 
BRANCH  11  12
ATOM     12  C   UNL     1       0.934  47.019   7.774  1.00  0.00    -0.000 C 
BRANCH  12  13
ATOM     13  C   UNL     1       1.963  47.660   8.722  1.00  0.00    -0.000 C 
BRANCH  13  14
ATOM     14  C   UNL     1       3.413  47.392   8.287  1.00  0.00    -0.000 C 
BRANCH  14  15
ATOM     15  C   UNL     1       4.074  46.262   9.092  1.00  0.00    -0.000 C 
BRANCH  15  16
ATOM     16  C   UNL     1       5.223  46.806   9.955  1.00  0.00    -0.000 C 
BRANCH  16  17
ATOM     17  C   UNL     1       6.143  47.761   9.180  1.00  0.00    -0.003 C 
ATOM     18  C   UNL     1       7.625  47.511   9.459  1.00  0.00     0.004 C 
ENDBRANCH  16  17
ENDBRANCH  15  16
ENDBRANCH  14  15
ENDBRANCH  13  14
ENDBRANCH  12  13
ENDBRANCH  11  12
ENDBRANCH   1  11
TORSDOF 14
ENDMDL
MODEL 3
REMARK VINA RESULT:    -5.384      3.624      7.370
REMARK INTER + INTRA:         -11.198
REMARK INTER:                 -10.006
REMARK INTRA:                  -1.191
REMARK UNBOUND:                -1.407
REMARK SMILES CCCCCCCCCCCCCCCC(=O)[O-]
REMARK SMILES IDX 9 1 10 2 11 3 12 4 13 5 14 6 15 7 16 8 17 9 18 10 8 11 7 12
REMARK SMILES IDX 6 13 5 14 4 15 3 16 2 17 1 18
REMARK H PARENT
REMARK Flexibility Score: inf
ROOT
ATOM      1  C   UNL     1       1.188  44.193   8.782  1.00  0.00     0.000 C 
ENDROOT
BRANCH   1   2
ATOM      2  C   UNL     1       0.774  45.057   9.992  1.00  0.00     0.000 C 
BRANCH   2   3
ATOM      3  C   UNL     1       1.069  46.558   9.815  1.00  0.00     0.000 C 
BRANCH   3   4
ATOM      4  C   UNL     1       2.542  46.905   9.525  1.00  0.00     0.000 C 
BRANCH   4   5
ATOM      5  C   UNL     1       2.796  47.561   8.155  1.00  0.00     0.000 C 
BRANCH   5   6
ATOM      6  C   UNL     1       4.253  48.018   7.972  1.00  0.00     0.006 C 
BRANCH   6   7
ATOM      7  C   UNL     1       5.209  47.304   8.938  1.00  0.00     0.053 C 
BRANCH   7   8
ATOM      8  C   UNL     1       6.461  48.096   9.164  1.00  0.00     0.041 C 
ATOM      9  O   UNL     1       7.485  47.540   9.641  1.00  0.00    -0.550 OA
ATOM     10  O   UNL     1       6.508  49.440   8.814  1.00  0.00    -0.550 OA
ENDBRANCH   7   8
ENDBRANCH   6   7
ENDBRANCH   5   6
ENDBRANCH   4   5
ENDBRANCH   3   4
ENDBRANCH   2   3
ENDBRANCH   1   2
BRANCH   1  11
ATOM     11  C   UNL     1       2.075  43.003   9.183  1.00  0.00     0.000 C 
BRANCH  11  12
ATOM     12  C   UNL     1       3.558  43.386   9.317  1.00  0.00    -0.000 C 
BRANCH  12  13
ATOM     13  C   UNL     1       4.090  43.194  10.748  1.00  0.00    -0.000 C 
BRANCH  13  14
ATOM     14  C   UNL     1       3.053  42.548  11.682  1.00  0.00    -0.000 C 
BRANCH  14  15
ATOM     15  C   UNL     1       3.157  41.016  11.711  1.00  0.00    -0.000 C 
BRANCH  15  16
ATOM     16  C   UNL     1       4.406  40.567  12.485  1.00  0.00    -0.000 C 
BRANCH  16  17
ATOM     17  C   UNL     1       4.403  39.061  12.792  1.00  0.00    -0.003 C 
ATOM     18  C   UNL     1       3.092  38.381  12.396  1.00  0.00     0.004 C 
ENDBRANCH  16  17
ENDBRANCH  15  16
ENDBRANCH  14  15
ENDBRANCH  13  14
ENDBRANCH  12  13
ENDBRANCH  11  12
ENDBRANCH   1  11
TORSDOF 14
ENDMDL
MODEL 4
REMARK VINA RESULT:    -5.275      3.619      7.028
REMARK INTER + INTRA:         -11.000
REMARK INTER:                  -9.688
REMARK INTRA:                  -1.311
REMARK UNBOUND:                -1.407
REMARK SMILES CCCCCCCCCCCCCCCC(=O)[O-]
REMARK SMILES IDX 9 1 10 2 11 3 12 4 13 5 14 6 15 7 16 8 17 9 18 10 8 11 7 12
REMARK SMILES IDX 6 13 5 14 4 15 3 16 2 17 1 18
REMARK H PARENT
REMARK Flexibility Score: inf
ROOT
ATOM      1  C   UNL     1       0.893  44.112   8.321  1.00  0.00     0.000 C 
ENDROOT
BRANCH   1   2
ATOM      2  C   UNL     1       0.270  45.490   8.629  1.00  0.00     0.000 C 
BRANCH   2   3
ATOM      3  C   UNL     1       0.704  46.601   7.655  1.00  0.00     0.000 C 
BRANCH   3   4
ATOM      4  C   UNL     1       1.565  47.716   8.278  1.00  0.00     0.000 C 
BRANCH   4   5
ATOM      5  C   UNL     1       2.715  47.223   9.175  1.00  0.00     0.000 C 
BRANCH   5   6
ATOM      6  C   UNL     1       4.095  47.362   8.509  1.00  0.00     0.006 C 
BRANCH   6   7
ATOM      7  C   UNL     1       5.236  46.960   9.454  1.00  0.00     0.053 C 
BRANCH   7   8
ATOM      8  C   UNL     1       6.436  47.840   9.279  1.00  0.00     0.041 C 
ATOM      9  O   UNL     1       6.298  49.037   8.916  1.00  0.00    -0.550 OA
ATOM     10  O   UNL     1       7.706  47.347   9.552  1.00  0.00    -0.550 OA
ENDBRANCH   7   8
ENDBRANCH   6   7
ENDBRANCH   5   6
ENDBRANCH   4   5
ENDBRANCH   3   4
ENDBRANCH   2   3
ENDBRANCH   1   2
BRANCH   1  11
ATOM     11  C   UNL     1       1.884  43.657   9.407  1.00  0.00     0.000 C 
BRANCH  11  12
ATOM     12  C   UNL     1       1.571  44.258  10.786  1.00  0.00    -0.000 C 
BRANCH  12  13
ATOM     13  C   UNL     1       2.242  43.483  11.933  1.00  0.00    -0.000 C 
BRANCH  13  14
ATOM     14  C   UNL     1       3.759  43.332  11.736  1.00  0.00    -0.000 C 
BRANCH  14  15
ATOM     15  C   UNL     1       4.230  41.874  11.848  1.00  0.00    -0.000 C 
BRANCH  15  16
ATOM     16  C   UNL     1       3.036  40.908  11.790  1.00  0.00    -0.000 C 
BRANCH  16  17
ATOM     17  C   UNL     1       3.299  39.597  12.546  1.00  0.00    -0.003 C 
ATOM     18  C   UNL     1       4.715  39.517  13.115  1.00  0.00     0.004 C 
ENDBRANCH  16  17
ENDBRANCH  15  16
ENDBRANCH  14  15
ENDBRANCH  13  14
ENDBRANCH  12  13
ENDBRANCH  11  12
ENDBRANCH   1  11
TORSDOF 14
ENDMDL
MODEL 5
REMARK VINA RESULT:    -5.154      3.958      5.674
REMARK INTER + INTRA:         -10.779
REMARK INTER:                  -9.051
REMARK INTRA:                  -1.728
REMARK UNBOUND:                -1.407
REMARK SMILES CCCCCCCCCCCCCCCC(=O)[O-]
REMARK SMILES IDX 9 1 10 2 11 3 12 4 13 5 14 6 15 7 16 8 17 9 18 10 8 11 7 12
REMARK SMILES IDX 6 13 5 14 4 15 3 16 2 17 1 18
REMARK H PARENT
REMARK Flexibility Score: inf
ROOT
ATOM      1  C   UNL     1       3.791  42.463  11.736  1.00  0.00     0.000 C 
ENDROOT
BRANCH   1   2
ATOM      2  C   UNL     1       2.632  42.143  10.767  1.00  0.00     0.000 C 
BRANCH   2   3
ATOM      3  C   UNL     1       2.757  42.837   9.398  1.00  0.00     0.000 C 
BRANCH   3   4
ATOM      4  C   UNL     1       1.549  43.702   8.990  1.00  0.00     0.000 C 
BRANCH   4   5
ATOM      5  C   UNL     1       0.954  44.559  10.123  1.00  0.00     0.000 C 
BRANCH   5   6
ATOM      6  C   UNL     1       0.097  45.725   9.603  1.00  0.00     0.006 C 
BRANCH   6   7
ATOM      7  C   UNL     1       0.828  47.071   9.707  1.00  0.00     0.053 C 
BRANCH   7   8
ATOM      8  C   UNL     1       0.765  47.836   8.420  1.00  0.00     0.041 C 
ATOM      9  O   UNL     1      -0.298  48.417   8.079  1.00  0.00    -0.550 OA
ATOM     10  O   UNL     1       1.893  47.938   7.615  1.00  0.00    -0.550 OA
ENDBRANCH   7   8
ENDBRANCH   6   7
ENDBRANCH   5   6
ENDBRANCH   4   5
ENDBRANCH   3   4
ENDBRANCH   2   3
ENDBRANCH   1   2
BRANCH   1  11
ATOM     11  C   UNL     1       3.798  43.936  12.180  1.00  0.00     0.000 C 
BRANCH  11  12
ATOM     12  C   UNL     1       4.856  44.773  11.444  1.00  0.00    -0.000 C 
BRANCH  12  13
ATOM     13  C   UNL     1       4.278  46.078  10.866  1.00  0.00    -0.000 C 
BRANCH  13  14
ATOM     14  C   UNL     1       4.361  46.132   9.332  1.00  0.00    -0.000 C 
BRANCH  14  15
ATOM     15  C   UNL     1       5.036  47.413   8.819  1.00  0.00    -0.000 C 
BRANCH  15  16
ATOM     16  C   UNL     1       6.456  47.548   9.389  1.00  0.00    -0.000 C 
BRANCH  16  17
ATOM     17  C   UNL     1       6.832  49.005   9.701  1.00  0.00    -0.003 C 
ATOM     18  C   UNL     1       6.357  49.981   8.625  1.00  0.00     0.004 C 
ENDBRANCH  16  17
ENDBRANCH  15  16
ENDBRANCH  14  15
ENDBRANCH  13  14
ENDBRANCH  12  13
ENDBRANCH  11  12
ENDBRANCH   1  11
TORSDOF 14
ENDMDL
MODEL 6
REMARK VINA RESULT:    -4.967      1.507      3.728
REMARK INTER + INTRA:         -10.439
REMARK INTER:                  -8.922
REMARK INTRA:                  -1.517
REMARK UNBOUND:                -1.407
REMARK SMILES CCCCCCCCCCCCCCCC(=O)[O-]
REMARK SMILES IDX 9 1 10 2 11 3 12 4 13 5 14 6 15 7 16 8 17 9 18 10 8 11 7 12
REMARK SMILES IDX 6 13 5 14 4 15 3 16 2 17 1 18
REMARK H PARENT
REMARK Flexibility Score: inf
ROOT
ATOM      1  C   UNL     1       4.786  46.115  10.416  1.00  0.00     0.000 C 
ENDROOT
BRANCH   1   2
ATOM      2  C   UNL     1       4.032  45.129  11.334  1.00  0.00     0.000 C 
BRANCH   2   3
ATOM      3  C   UNL     1       2.880  44.384  10.634  1.00  0.00     0.000 C 
BRANCH   3   4
ATOM      4  C   UNL     1       1.775  43.861  11.571  1.00  0.00     0.000 C 
BRANCH   4   5
ATOM      5  C   UNL     1       2.026  42.456  12.148  1.00  0.00     0.000 C 
BRANCH   5   6
ATOM      6  C   UNL     1       2.929  41.593  11.250  1.00  0.00     0.006 C 
BRANCH   6   7
ATOM      7  C   UNL     1       4.228  41.185  11.958  1.00  0.00     0.053 C 
BRANCH   7   8
ATOM      8  C   UNL     1       4.111  39.834  12.596  1.00  0.00     0.041 C 
ATOM      9  O   UNL     1       3.203  39.040  12.237  1.00  0.00    -0.550 OA
ATOM     10  O   UNL     1       5.028  39.439  13.563  1.00  0.00    -0.550 OA
ENDBRANCH   7   8
ENDBRANCH   6   7
ENDBRANCH   5   6
ENDBRANCH   4   5
ENDBRANCH   3   4
ENDBRANCH   2   3
ENDBRANCH   1   2
BRANCH   1  11
ATOM     11  C   UNL     1       4.259  46.096   8.971  1.00  0.00     0.000 C 
BRANCH  11  12
ATOM     12  C   UNL     1       4.092  47.506   8.382  1.00  0.00    -0.000 C 
BRANCH  12  13
ATOM     13  C   UNL     1       2.656  47.777   7.898  1.00  0.00    -0.000 C 
BRANCH  13  14
ATOM     14  C   UNL     1       1.607  47.528   8.994  1.00  0.00    -0.000 C 
BRANCH  14  15
ATOM     15  C   UNL     1       0.205  47.269   8.424  1.00  0.00    -0.000 C 
BRANCH  15  16
ATOM     16  C   UNL     1      -0.199  45.799   8.613  1.00  0.00    -0.000 C 
BRANCH  16  17
ATOM     17  C   UNL     1       0.400  44.879   7.538  1.00  0.00    -0.003 C 
ATOM     18  C   UNL     1      -0.571  44.598   6.392  1.00  0.00     0.004 C 
ENDBRANCH  16  17
ENDBRANCH  15  16
ENDBRANCH  14  15
ENDBRANCH  13  14
ENDBRANCH  12  13
ENDBRANCH  11  12
ENDBRANCH   1  11
TORSDOF 14
ENDMDL
MODEL 7
REMARK VINA RESULT:    -4.869      3.830      7.134
REMARK INTER + INTRA:         -10.260
REMARK INTER:                  -8.859
REMARK INTRA:                  -1.402
REMARK UNBOUND:                -1.407
REMARK SMILES CCCCCCCCCCCCCCCC(=O)[O-]
REMARK SMILES IDX 9 1 10 2 11 3 12 4 13 5 14 6 15 7 16 8 17 9 18 10 8 11 7 12
REMARK SMILES IDX 6 13 5 14 4 15 3 16 2 17 1 18
REMARK H PARENT
REMARK Flexibility Score: inf
ROOT
ATOM      1  C   UNL     1       2.628  42.914   9.594  1.00  0.00     0.000 C 
ENDROOT
BRANCH   1   2
ATOM      2  C   UNL     1       3.969  43.661   9.429  1.00  0.00     0.000 C 
BRANCH   2   3
ATOM      3  C   UNL     1       4.415  44.425  10.689  1.00  0.00     0.000 C 
BRANCH   3   4
ATOM      4  C   UNL     1       4.431  45.960  10.551  1.00  0.00     0.000 C 
BRANCH   4   5
ATOM      5  C   UNL     1       4.769  46.481   9.142  1.00  0.00     0.000 C 
BRANCH   5   6
ATOM      6  C   UNL     1       3.660  47.367   8.550  1.00  0.00     0.006 C 
BRANCH   6   7
ATOM      7  C   UNL     1       2.349  47.257   9.339  1.00  0.00     0.053 C 
BRANCH   7   8
ATOM      8  C   UNL     1       1.152  47.429   8.454  1.00  0.00     0.041 C 
ATOM      9  O   UNL     1       0.940  46.621   7.512  1.00  0.00    -0.550 OA
ATOM     10  O   UNL     1       0.252  48.460   8.691  1.00  0.00    -0.550 OA
ENDBRANCH   7   8
ENDBRANCH   6   7
ENDBRANCH   5   6
ENDBRANCH   4   5
ENDBRANCH   3   4
ENDBRANCH   2   3
ENDBRANCH   1   2
BRANCH   1  11
ATOM     11  C   UNL     1       1.467  43.860   9.947  1.00  0.00     0.000 C 
BRANCH  11  12
ATOM     12  C   UNL     1       1.003  43.712  11.405  1.00  0.00    -0.000 C 
BRANCH  12  13
ATOM     13  C   UNL     1       1.917  42.782  12.222  1.00  0.00    -0.000 C 
BRANCH  13  14
ATOM     14  C   UNL     1       1.126  41.771  13.067  1.00  0.00    -0.000 C 
BRANCH  14  15
ATOM     15  C   UNL     1       1.756  40.370  13.059  1.00  0.00    -0.000 C 
BRANCH  15  16
ATOM     16  C   UNL     1       3.021  40.345  12.188  1.00  0.00    -0.000 C 
BRANCH  16  17
ATOM     17  C   UNL     1       3.952  39.171  12.531  1.00  0.00    -0.003 C 
ATOM     18  C   UNL     1       5.029  39.549  13.548  1.00  0.00     0.004 C 
ENDBRANCH  16  17
ENDBRANCH  15  16
ENDBRANCH  14  15
ENDBRANCH  13  14
ENDBRANCH  12  13
ENDBRANCH  11  12
ENDBRANCH   1  11
TORSDOF 14
ENDMDL
MODEL 8
REMARK VINA RESULT:    -4.819      3.779      7.345
REMARK INTER + INTRA:         -10.170
REMARK INTER:                  -8.694
REMARK INTRA:                  -1.476
REMARK UNBOUND:                -1.407
REMARK SMILES CCCCCCCCCCCCCCCC(=O)[O-]
REMARK SMILES IDX 9 1 10 2 11 3 12 4 13 5 14 6 15 7 16 8 17 9 18 10 8 11 7 12
REMARK SMILES IDX 6 13 5 14 4 15 3 16 2 17 1 18
REMARK H PARENT
REMARK Flexibility Score: inf
ROOT
ATOM      1  C   UNL     1       2.204  43.329   9.304  1.00  0.00     0.000 C 
ENDROOT
BRANCH   1   2
ATOM      2  C   UNL     1       1.468  44.575   9.842  1.00  0.00     0.000 C 
BRANCH   2   3
ATOM      3  C   UNL     1       0.833  45.445   8.742  1.00  0.00     0.000 C 
BRANCH   3   4
ATOM      4  C   UNL     1       1.524  46.802   8.502  1.00  0.00     0.000 C 
BRANCH   4   5
ATOM      5  C   UNL     1       2.709  47.101   9.439  1.00  0.00     0.000 C 
BRANCH   5   6
ATOM      6  C   UNL     1       4.066  47.066   8.717  1.00  0.00     0.006 C 
BRANCH   6   7
ATOM      7  C   UNL     1       5.242  46.989   9.700  1.00  0.00     0.053 C 
BRANCH   7   8
ATOM      8  C   UNL     1       6.379  47.867   9.274  1.00  0.00     0.041 C 
ATOM      9  O   UNL     1       6.156  49.029   8.845  1.00  0.00    -0.550 OA
ATOM     10  O   UNL     1       7.688  47.414   9.386  1.00  0.00    -0.550 OA
ENDBRANCH   7   8
ENDBRANCH   6   7
ENDBRANCH   5   6
ENDBRANCH   4   5
ENDBRANCH   3   4
ENDBRANCH   2   3
ENDBRANCH   1   2
BRANCH   1  11
ATOM     11  C   UNL     1       3.725  43.403   9.525  1.00  0.00     0.000 C 
BRANCH  11  12
ATOM     12  C   UNL     1       4.097  43.949  10.912  1.00  0.00    -0.000 C 
BRANCH  12  13
ATOM     13  C   UNL     1       3.641  43.022  12.053  1.00  0.00    -0.000 C 
BRANCH  13  14
ATOM     14  C   UNL     1       3.937  41.542  11.765  1.00  0.00    -0.000 C 
BRANCH  14  15
ATOM     15  C   UNL     1       2.904  40.597  12.397  1.00  0.00    -0.000 C 
BRANCH  15  16
ATOM     16  C   UNL     1       1.565  41.317  12.614  1.00  0.00    -0.000 C 
BRANCH  16  17
ATOM     17  C   UNL     1       0.767  40.740  13.794  1.00  0.00    -0.003 C 
ATOM     18  C   UNL     1      -0.642  41.322  13.896  1.00  0.00     0.004 C 
ENDBRANCH  16  17
ENDBRANCH  15  16
ENDBRANCH  14  15
ENDBRANCH  13  14
ENDBRANCH  12  13
ENDBRANCH  11  12
ENDBRANCH   1  11
TORSDOF 14
ENDMDL
MODEL 9
REMARK VINA RESULT:    -4.765      3.120      6.976
REMARK INTER + INTRA:         -10.071
REMARK INTER:                  -8.820
REMARK INTRA:                  -1.251
REMARK UNBOUND:                -1.407
REMARK SMILES CCCCCCCCCCCCCCCC(=O)[O-]
REMARK SMILES IDX 9 1 10 2 11 3 12 4 13 5 14 6 15 7 16 8 17 9 18 10 8 11 7 12
REMARK SMILES IDX 6 13 5 14 4 15 3 16 2 17 1 18
REMARK H PARENT
REMARK Flexibility Score: inf
ROOT
ATOM      1  C   UNL     1       4.224  45.196   9.702  1.00  0.00     0.000 C 
ENDROOT
BRANCH   1   2
ATOM      2  C   UNL     1       4.329  46.735   9.717  1.00  0.00     0.000 C 
BRANCH   2   3
ATOM      3  C   UNL     1       3.926  47.400   8.387  1.00  0.00     0.000 C 
BRANCH   3   4
ATOM      4  C   UNL     1       2.413  47.622   8.200  1.00  0.00     0.000 C 
BRANCH   4   5
ATOM      5  C   UNL     1       1.569  47.447   9.476  1.00  0.00     0.000 C 
BRANCH   5   6
ATOM      6  C   UNL     1       0.341  46.546   9.262  1.00  0.00     0.006 C 
BRANCH   6   7
ATOM      7  C   UNL     1       0.047  46.313   7.774  1.00  0.00     0.053 C 
BRANCH   7   8
ATOM      8  C   UNL     1       0.169  44.867   7.404  1.00  0.00     0.041 C 
ATOM      9  O   UNL     1      -0.344  44.440   6.336  1.00  0.00    -0.550 OA
ATOM     10  O   UNL     1       0.882  43.997   8.220  1.00  0.00    -0.550 OA
ENDBRANCH   7   8
ENDBRANCH   6   7
ENDBRANCH   5   6
ENDBRANCH   4   5
ENDBRANCH   3   4
ENDBRANCH   2   3
ENDBRANCH   1   2
BRANCH   1  11
ATOM     11  C   UNL     1       4.813  44.552  10.969  1.00  0.00     0.000 C 
BRANCH  11  12
ATOM     12  C   UNL     1       3.762  44.335  12.068  1.00  0.00    -0.000 C 
BRANCH  12  13
ATOM     13  C   UNL     1       2.354  44.089  11.497  1.00  0.00    -0.000 C 
BRANCH  13  14
ATOM     14  C   UNL     1       1.779  42.724  11.909  1.00  0.00    -0.000 C 
BRANCH  14  15
ATOM     15  C   UNL     1       2.745  41.564  11.625  1.00  0.00    -0.000 C 
BRANCH  15  16
ATOM     16  C   UNL     1       2.536  40.420  12.629  1.00  0.00    -0.000 C 
BRANCH  16  17
ATOM     17  C   UNL     1       3.669  39.383  12.588  1.00  0.00    -0.003 C 
ATOM     18  C   UNL     1       3.178  37.986  12.211  1.00  0.00     0.004 C 
ENDBRANCH  16  17
ENDBRANCH  15  16
ENDBRANCH  14  15
ENDBRANCH  13  14
ENDBRANCH  12  13
ENDBRANCH  11  12
ENDBRANCH   1  11
TORSDOF 14
ENDMDL
