MODEL 1
REMARK VINA RESULT:    -2.310      0.000      0.000
REMARK INTER + INTRA:          -2.310
REMARK INTER:                  -2.310
REMARK INTRA:                   0.000
REMARK UNBOUND:                 0.000
REMARK SMILES CC(=O)[O-]
REMARK SMILES IDX 1 1 2 2 3 3 4 4
REMARK H PARENT
REMARK Flexibility Score: inf
ROOT
ATOM      1  C   UNL     1     113.296 109.272 130.171  1.00  0.00     0.063 C 
ATOM      2  C   UNL     1     113.982 109.838 128.974  1.00  0.00     0.038 C 
ATOM      3  O   UNL     1     113.453 110.781 128.330  1.00  0.00    -0.550 OA
ATOM      4  O   UNL     1     115.233 109.364 128.599  1.00  0.00    -0.550 OA
ENDROOT
TORSDOF 0
ENDMDL
MODEL 2
REMARK VINA RESULT:    -2.273      1.568      2.040
REMARK INTER + INTRA:          -2.273
REMARK INTER:                  -2.273
REMARK INTRA:                   0.000
REMARK UNBOUND:                 0.000
REMARK SMILES CC(=O)[O-]
REMARK SMILES IDX 1 1 2 2 3 3 4 4
REMARK H PARENT
REMARK Flexibility Score: inf
ROOT
ATOM      1  C   UNL     1     113.663 110.250 128.866  1.00  0.00     0.063 C 
ATOM      2  C   UNL     1     114.563 109.378 128.059  1.00  0.00     0.038 C 
ATOM      3  O   UNL     1     115.727 109.127 128.464  1.00  0.00    -0.550 OA
ATOM      4  O   UNL     1     114.099 108.796 126.886  1.00  0.00    -0.550 OA
ENDROOT
TORSDOF 0
ENDMDL
MODEL 3
REMARK VINA RESULT:    -2.272      3.395      3.793
REMARK INTER + INTRA:          -2.272
REMARK INTER:                  -2.272
REMARK INTRA:                   0.000
REMARK UNBOUND:                 0.000
REMARK SMILES CC(=O)[O-]
REMARK SMILES IDX 1 1 2 2 3 3 4 4
REMARK H PARENT
REMARK Flexibility Score: inf
ROOT
ATOM      1  C   UNL     1     113.787 108.434 124.795  1.00  0.00     0.063 C 
ATOM      2  C   UNL     1     113.627 108.308 126.272  1.00  0.00     0.038 C 
ATOM      3  O   UNL     1     114.139 109.165 127.037  1.00  0.00    -0.550 OA
ATOM      4  O   UNL     1     112.866 107.275 126.804  1.00  0.00    -0.550 OA
ENDROOT
TORSDOF 0
ENDMDL
MODEL 4
REMARK VINA RESULT:    -2.228      3.200      3.403
REMARK INTER + INTRA:          -2.228
REMARK INTER:                  -2.228
REMARK INTRA:                   0.000
REMARK UNBOUND:                 0.000
REMARK SMILES CC(=O)[O-]
REMARK SMILES IDX 1 1 2 2 3 3 4 4
REMARK H PARENT
REMARK Flexibility Score: inf
ROOT
ATOM      1  C   UNL     1     112.788 107.200 126.984  1.00  0.00     0.063 C 
ATOM      2  C   UNL     1     113.660 108.249 126.382  1.00  0.00     0.038 C 
ATOM      3  O   UNL     1     114.459 108.897 127.106  1.00  0.00    -0.550 OA
ATOM      4  O   UNL     1     113.632 108.474 125.012  1.00  0.00    -0.550 OA
ENDROOT
TORSDOF 0
ENDMDL
MODEL 5
REMARK VINA RESULT:    -2.194      1.508      2.000
REMARK INTER + INTRA:          -2.194
REMARK INTER:                  -2.194
REMARK INTRA:                   0.000
REMARK UNBOUND:                 0.000
REMARK SMILES CC(=O)[O-]
REMARK SMILES IDX 1 1 2 2 3 3 4 4
REMARK H PARENT
REMARK Flexibility Score: inf
ROOT
ATOM      1  C   UNL     1     114.051 108.743 126.542  1.00  0.00     0.063 C 
ATOM      2  C   UNL     1     114.376 109.483 127.795  1.00  0.00     0.038 C 
ATOM      3  O   UNL     1     113.621 110.405 128.197  1.00  0.00    -0.550 OA
ATOM      4  O   UNL     1     115.483 109.119 128.552  1.00  0.00    -0.550 OA
ENDROOT
TORSDOF 0
ENDMDL
MODEL 6
REMARK VINA RESULT:    -2.153      1.247      2.226
REMARK INTER + INTRA:          -2.153
REMARK INTER:                  -2.153
REMARK INTRA:                   0.000
REMARK UNBOUND:                 0.000
REMARK SMILES CC(=O)[O-]
REMARK SMILES IDX 1 1 2 2 3 3 4 4
REMARK H PARENT
REMARK Flexibility Score: inf
ROOT
ATOM      1  C   UNL     1     113.554 108.231 127.506  1.00  0.00     0.063 C 
ATOM      2  C   UNL     1     114.230 109.414 128.110  1.00  0.00     0.038 C 
ATOM      3  O   UNL     1     115.414 109.321 128.526  1.00  0.00    -0.550 OA
ATOM      4  O   UNL     1     113.574 110.638 128.165  1.00  0.00    -0.550 OA
ENDROOT
TORSDOF 0
ENDMDL
MODEL 7
REMARK VINA RESULT:    -2.121      2.653      2.952
REMARK INTER + INTRA:          -2.121
REMARK INTER:                  -2.121
REMARK INTRA:                   0.000
REMARK UNBOUND:                 0.000
REMARK SMILES CC(=O)[O-]
REMARK SMILES IDX 1 1 2 2 3 3 4 4
REMARK H PARENT
REMARK Flexibility Score: inf
ROOT
ATOM      1  C   UNL     1     112.598 106.947 127.062  1.00  0.00     0.063 C 
ATOM      2  C   UNL     1     113.547 107.884 127.729  1.00  0.00     0.038 C 
ATOM      3  O   UNL     1     113.832 107.734 128.946  1.00  0.00    -0.550 OA
ATOM      4  O   UNL     1     114.163 108.890 126.996  1.00  0.00    -0.550 OA
ENDROOT
TORSDOF 0
ENDMDL
MODEL 8
REMARK VINA RESULT:    -2.110      1.515      2.280
REMARK INTER + INTRA:          -2.110
REMARK INTER:                  -2.110
REMARK INTRA:                   0.000
REMARK UNBOUND:                 0.000
REMARK SMILES CC(=O)[O-]
REMARK SMILES IDX 1 1 2 2 3 3 4 4
REMARK H PARENT
REMARK Flexibility Score: inf
ROOT
ATOM      1  C   UNL     1     113.026 108.813 131.518  1.00  0.00     0.063 C 
ATOM      2  C   UNL     1     113.509 108.823 130.108  1.00  0.00     0.038 C 
ATOM      3  O   UNL     1     114.678 108.442 129.839  1.00  0.00    -0.550 OA
ATOM      4  O   UNL     1     112.653 109.200 129.081  1.00  0.00    -0.550 OA
ENDROOT
TORSDOF 0
ENDMDL
MODEL 9
REMARK VINA RESULT:    -2.093     13.663     13.842
REMARK INTER + INTRA:          -2.093
REMARK INTER:                  -2.093
REMARK INTRA:                   0.000
REMARK UNBOUND:                 0.000
REMARK SMILES CC(=O)[O-]
REMARK SMILES IDX 1 1 2 2 3 3 4 4
REMARK H PARENT
REMARK Flexibility Score: inf
ROOT
ATOM      1  C   UNL     1     113.389 111.566 141.952  1.00  0.00     0.063 C 
ATOM      2  C   UNL     1     113.264 112.978 142.415  1.00  0.00     0.038 C 
ATOM      3  O   UNL     1     112.129 113.512 142.513  1.00  0.00    -0.550 OA
ATOM      4  O   UNL     1     114.396 113.689 142.793  1.00  0.00    -0.550 OA
ENDROOT
TORSDOF 0
ENDMDL
