MODEL 1
REMARK VINA RESULT:    -3.696      0.000      0.000
REMARK INTER + INTRA:          -4.369
REMARK INTER:                  -4.344
REMARK INTRA:                  -0.025
REMARK UNBOUND:                -0.025
REMARK SMILES CCCCC(=O)[O-]
REMARK SMILES IDX 4 1 5 2 6 3 7 4 3 5 2 6 1 7
REMARK H PARENT
REMARK Flexibility Score: inf
ROOT
ATOM      1  C   UNL     1      -4.988 -27.774  27.200  1.00  0.00     0.053 C 
ENDROOT
BRANCH   1   2
ATOM      2  C   UNL     1      -4.197 -28.350  28.333  1.00  0.00     0.041 C 
ATOM      3  O   UNL     1      -2.946 -28.217  28.364  1.00  0.00    -0.550 OA
ATOM      4  O   UNL     1      -4.846 -29.006  29.372  1.00  0.00    -0.550 OA
ENDBRANCH   1   2
BRANCH   1   5
ATOM      5  C   UNL     1      -4.211 -27.815  25.875  1.00  0.00     0.006 C 
BRANCH   5   6
ATOM      6  C   UNL     1      -5.086 -27.610  24.625  1.00  0.00    -0.003 C 
ATOM      7  C   UNL     1      -6.237 -26.634  24.858  1.00  0.00     0.004 C 
ENDBRANCH   5   6
ENDBRANCH   1   5
TORSDOF 3
ENDMDL
MODEL 2
REMARK VINA RESULT:    -3.522      1.172      2.019
REMARK INTER + INTRA:          -4.164
REMARK INTER:                  -4.139
REMARK INTRA:                  -0.025
REMARK UNBOUND:                -0.025
REMARK SMILES CCCCC(=O)[O-]
REMARK SMILES IDX 4 1 5 2 6 3 7 4 3 5 2 6 1 7
REMARK H PARENT
REMARK Flexibility Score: inf
ROOT
ATOM      1  C   UNL     1      -4.839 -27.885  27.262  1.00  0.00     0.053 C 
ENDROOT
BRANCH   1   2
ATOM      2  C   UNL     1      -4.284 -28.450  28.533  1.00  0.00     0.041 C 
ATOM      3  O   UNL     1      -5.046 -29.018  29.359  1.00  0.00    -0.550 OA
ATOM      4  O   UNL     1      -2.921 -28.379  28.790  1.00  0.00    -0.550 OA
ENDBRANCH   1   2
BRANCH   1   5
ATOM      5  C   UNL     1      -3.749 -27.679  26.199  1.00  0.00     0.006 C 
BRANCH   5   6
ATOM      6  C   UNL     1      -4.082 -28.297  24.828  1.00  0.00    -0.003 C 
ATOM      7  C   UNL     1      -2.839 -28.587  23.989  1.00  0.00     0.004 C 
ENDBRANCH   5   6
ENDBRANCH   1   5
TORSDOF 3
ENDMDL
MODEL 3
REMARK VINA RESULT:    -3.112      1.415      2.003
REMARK INTER + INTRA:          -3.682
REMARK INTER:                  -3.654
REMARK INTRA:                  -0.028
REMARK UNBOUND:                -0.025
REMARK SMILES CCCCC(=O)[O-]
REMARK SMILES IDX 4 1 5 2 6 3 7 4 3 5 2 6 1 7
REMARK H PARENT
REMARK Flexibility Score: inf
ROOT
ATOM      1  C   UNL     1      -5.074 -27.658  26.668  1.00  0.00     0.053 C 
ENDROOT
BRANCH   1   2
ATOM      2  C   UNL     1      -3.581 -27.671  26.787  1.00  0.00     0.041 C 
ATOM      3  O   UNL     1      -2.865 -27.317  25.813  1.00  0.00    -0.550 OA
ATOM      4  O   UNL     1      -2.981 -28.044  27.983  1.00  0.00    -0.550 OA
ENDBRANCH   1   2
BRANCH   1   5
ATOM      5  C   UNL     1      -5.536 -27.296  25.248  1.00  0.00     0.006 C 
BRANCH   5   6
ATOM      6  C   UNL     1      -6.820 -26.447  25.201  1.00  0.00    -0.003 C 
ATOM      7  C   UNL     1      -8.070 -27.276  24.911  1.00  0.00     0.004 C 
ENDBRANCH   5   6
ENDBRANCH   1   5
TORSDOF 3
ENDMDL
MODEL 4
REMARK VINA RESULT:    -2.719     18.049     19.318
REMARK INTER + INTRA:          -3.221
REMARK INTER:                  -3.174
REMARK INTRA:                  -0.047
REMARK UNBOUND:                -0.025
REMARK SMILES CCCCC(=O)[O-]
REMARK SMILES IDX 4 1 5 2 6 3 7 4 3 5 2 6 1 7
REMARK H PARENT
REMARK Flexibility Score: inf
ROOT
ATOM      1  C   UNL     1     -16.958 -13.390  24.834  1.00  0.00     0.053 C 
ENDROOT
BRANCH   1   2
ATOM      2  C   UNL     1     -18.321 -12.826  25.092  1.00  0.00     0.041 C 
ATOM      3  O   UNL     1     -19.145 -13.459  25.803  1.00  0.00    -0.550 OA
ATOM      4  O   UNL     1     -18.670 -11.585  24.573  1.00  0.00    -0.550 OA
ENDBRANCH   1   2
BRANCH   1   5
ATOM      5  C   UNL     1     -16.801 -14.804  25.414  1.00  0.00     0.006 C 
BRANCH   5   6
ATOM      6  C   UNL     1     -15.835 -14.891  26.610  1.00  0.00    -0.003 C 
ATOM      7  C   UNL     1     -15.230 -16.282  26.786  1.00  0.00     0.004 C 
ENDBRANCH   5   6
ENDBRANCH   1   5
TORSDOF 3
ENDMDL
MODEL 5
REMARK VINA RESULT:    -2.677     18.964     20.251
REMARK INTER + INTRA:          -3.171
REMARK INTER:                  -3.127
REMARK INTRA:                  -0.044
REMARK UNBOUND:                -0.025
REMARK SMILES CCCCC(=O)[O-]
REMARK SMILES IDX 4 1 5 2 6 3 7 4 3 5 2 6 1 7
REMARK H PARENT
REMARK Flexibility Score: inf
ROOT
ATOM      1  C   UNL     1     -17.835 -13.269  23.420  1.00  0.00     0.053 C 
ENDROOT
BRANCH   1   2
ATOM      2  C   UNL     1     -18.806 -12.209  23.841  1.00  0.00     0.041 C 
ATOM      3  O   UNL     1     -18.582 -11.517  24.868  1.00  0.00    -0.550 OA
ATOM      4  O   UNL     1     -19.942 -11.964  23.079  1.00  0.00    -0.550 OA
ENDBRANCH   1   2
BRANCH   1   5
ATOM      5  C   UNL     1     -16.826 -13.599  24.531  1.00  0.00     0.006 C 
BRANCH   5   6
ATOM      6  C   UNL     1     -17.061 -14.961  25.211  1.00  0.00    -0.003 C 
ATOM      7  C   UNL     1     -16.017 -15.281  26.278  1.00  0.00     0.004 C 
ENDBRANCH   5   6
ENDBRANCH   1   5
TORSDOF 3
ENDMDL
MODEL 6
REMARK VINA RESULT:    -2.596     19.538     20.095
REMARK INTER + INTRA:          -3.076
REMARK INTER:                  -2.991
REMARK INTRA:                  -0.085
REMARK UNBOUND:                -0.025
REMARK SMILES CCCCC(=O)[O-]
REMARK SMILES IDX 4 1 5 2 6 3 7 4 3 5 2 6 1 7
REMARK H PARENT
REMARK Flexibility Score: inf
ROOT
ATOM      1  C   UNL     1     -17.196 -13.784  24.852  1.00  0.00     0.053 C 
ENDROOT
BRANCH   1   2
ATOM      2  C   UNL     1     -18.347 -13.035  25.449  1.00  0.00     0.041 C 
ATOM      3  O   UNL     1     -18.424 -11.785  25.320  1.00  0.00    -0.550 OA
ATOM      4  O   UNL     1     -19.353 -13.721  26.118  1.00  0.00    -0.550 OA
ENDBRANCH   1   2
BRANCH   1   5
ATOM      5  C   UNL     1     -17.135 -13.628  23.325  1.00  0.00     0.006 C 
BRANCH   5   6
ATOM      6  C   UNL     1     -18.246 -14.381  22.571  1.00  0.00    -0.003 C 
ATOM      7  C   UNL     1     -18.600 -13.734  21.233  1.00  0.00     0.004 C 
ENDBRANCH   5   6
ENDBRANCH   1   5
TORSDOF 3
ENDMDL
MODEL 7
REMARK VINA RESULT:    -2.581     10.901     11.534
REMARK INTER + INTRA:          -3.058
REMARK INTER:                  -3.042
REMARK INTRA:                  -0.016
REMARK UNBOUND:                -0.025
REMARK SMILES CCCCC(=O)[O-]
REMARK SMILES IDX 4 1 5 2 6 3 7 4 3 5 2 6 1 7
REMARK H PARENT
REMARK Flexibility Score: inf
ROOT
ATOM      1  C   UNL     1     -11.868 -21.344  21.786  1.00  0.00     0.053 C 
ENDROOT
BRANCH   1   2
ATOM      2  C   UNL     1     -12.712 -21.255  23.020  1.00  0.00     0.041 C 
ATOM      3  O   UNL     1     -12.342 -21.821  24.083  1.00  0.00    -0.550 OA
ATOM      4  O   UNL     1     -13.891 -20.520  23.006  1.00  0.00    -0.550 OA
ENDBRANCH   1   2
BRANCH   1   5
ATOM      5  C   UNL     1     -11.268 -19.984  21.399  1.00  0.00     0.006 C 
BRANCH   5   6
ATOM      6  C   UNL     1     -10.463 -20.001  20.087  1.00  0.00    -0.003 C 
ATOM      7  C   UNL     1      -9.067 -19.402  20.238  1.00  0.00     0.004 C 
ENDBRANCH   5   6
ENDBRANCH   1   5
TORSDOF 3
ENDMDL
MODEL 8
REMARK VINA RESULT:    -2.535     20.390     21.358
REMARK INTER + INTRA:          -3.004
REMARK INTER:                  -2.928
REMARK INTRA:                  -0.076
REMARK UNBOUND:                -0.025
REMARK SMILES CCCCC(=O)[O-]
REMARK SMILES IDX 4 1 5 2 6 3 7 4 3 5 2 6 1 7
REMARK H PARENT
REMARK Flexibility Score: inf
ROOT
ATOM      1  C   UNL     1     -17.900 -13.300  22.678  1.00  0.00     0.053 C 
ENDROOT
BRANCH   1   2
ATOM      2  C   UNL     1     -18.816 -12.945  23.808  1.00  0.00     0.041 C 
ATOM      3  O   UNL     1     -19.512 -13.836  24.362  1.00  0.00    -0.550 OA
ATOM      4  O   UNL     1     -18.877 -11.637  24.271  1.00  0.00    -0.550 OA
ENDBRANCH   1   2
BRANCH   1   5
ATOM      5  C   UNL     1     -18.672 -13.617  21.388  1.00  0.00     0.006 C 
BRANCH   5   6
ATOM      6  C   UNL     1     -19.732 -12.564  21.013  1.00  0.00    -0.003 C 
ATOM      7  C   UNL     1     -19.615 -12.093  19.565  1.00  0.00     0.004 C 
ENDBRANCH   5   6
ENDBRANCH   1   5
TORSDOF 3
ENDMDL
