MODEL 1
REMARK VINA RESULT:    -3.288      0.000      0.000
REMARK INTER + INTRA:          -6.221
REMARK INTER:                  -5.018
REMARK INTRA:                  -1.203
REMARK UNBOUND:                -1.203
REMARK SMILES CCCCCCCCCCC(=O)[O-]
REMARK SMILES IDX 7 1 8 2 9 3 10 4 11 5 12 6 13 7 6 8 5 9 4 10 3 11 2 12 1 13
REMARK H PARENT
REMARK Flexibility Score: inf
ROOT
ATOM      1  C   UNL     1      -0.448  10.014  38.370  1.00  0.00     0.000 C 
ENDROOT
BRANCH   1   2
ATOM      2  C   UNL     1       0.501   9.784  39.557  1.00  0.00     0.000 C 
BRANCH   2   3
ATOM      3  C   UNL     1       1.915   9.371  39.116  1.00  0.00     0.006 C 
BRANCH   3   4
ATOM      4  C   UNL     1       1.998   7.880  38.759  1.00  0.00     0.053 C 
BRANCH   4   5
ATOM      5  C   UNL     1       2.262   7.673  37.299  1.00  0.00     0.041 C 
ATOM      6  O   UNL     1       2.754   6.587  36.893  1.00  0.00    -0.550 OA
ATOM      7  O   UNL     1       1.998   8.691  36.391  1.00  0.00    -0.550 OA
ENDBRANCH   4   5
ENDBRANCH   3   4
ENDBRANCH   2   3
ENDBRANCH   1   2
BRANCH   1   8
ATOM      8  C   UNL     1      -1.825   9.361  38.581  1.00  0.00     0.000 C 
BRANCH   8   9
ATOM      9  C   UNL     1      -1.722   7.894  39.029  1.00  0.00    -0.000 C 
BRANCH   9  10
ATOM     10  C   UNL     1      -2.590   7.586  40.258  1.00  0.00    -0.000 C 
BRANCH  10  11
ATOM     11  C   UNL     1      -1.736   7.550  41.536  1.00  0.00    -0.000 C 
BRANCH  11  12
ATOM     12  C   UNL     1      -0.479   6.680  41.382  1.00  0.00    -0.003 C 
ATOM     13  C   UNL     1       0.690   7.175  42.233  1.00  0.00     0.004 C 
ENDBRANCH  11  12
ENDBRANCH  10  11
ENDBRANCH   9  10
ENDBRANCH   8   9
ENDBRANCH   1   8
TORSDOF 9
ENDMDL
MODEL 2
REMARK VINA RESULT:    -3.285      1.614      2.157
REMARK INTER + INTRA:          -6.216
REMARK INTER:                  -5.047
REMARK INTRA:                  -1.169
REMARK UNBOUND:                -1.203
REMARK SMILES CCCCCCCCCCC(=O)[O-]
REMARK SMILES IDX 7 1 8 2 9 3 10 4 11 5 12 6 13 7 6 8 5 9 4 10 3 11 2 12 1 13
REMARK H PARENT
REMARK Flexibility Score: inf
ROOT
ATOM      1  C   UNL     1      -0.657   9.414  39.140  1.00  0.00     0.000 C 
ENDROOT
BRANCH   1   2
ATOM      2  C   UNL     1       0.094   8.824  40.344  1.00  0.00     0.000 C 
BRANCH   2   3
ATOM      3  C   UNL     1       1.524   8.379  39.992  1.00  0.00     0.006 C 
BRANCH   3   4
ATOM      4  C   UNL     1       1.539   7.207  39.003  1.00  0.00     0.053 C 
BRANCH   4   5
ATOM      5  C   UNL     1       2.215   7.573  37.717  1.00  0.00     0.041 C 
ATOM      6  O   UNL     1       2.644   6.673  36.949  1.00  0.00    -0.550 OA
ATOM      7  O   UNL     1       2.401   8.909  37.384  1.00  0.00    -0.550 OA
ENDBRANCH   4   5
ENDBRANCH   3   4
ENDBRANCH   2   3
ENDBRANCH   1   2
BRANCH   1   8
ATOM      8  C   UNL     1      -2.016   8.732  38.901  1.00  0.00     0.000 C 
BRANCH   8   9
ATOM      9  C   UNL     1      -2.462   7.870  40.094  1.00  0.00    -0.000 C 
BRANCH   9  10
ATOM     10  C   UNL     1      -2.831   6.436  39.685  1.00  0.00    -0.000 C 
BRANCH  10  11
ATOM     11  C   UNL     1      -1.701   5.457  40.039  1.00  0.00    -0.000 C 
BRANCH  11  12
ATOM     12  C   UNL     1      -1.149   4.720  38.809  1.00  0.00    -0.003 C 
ATOM     13  C   UNL     1      -1.764   5.213  37.499  1.00  0.00     0.004 C 
ENDBRANCH  11  12
ENDBRANCH  10  11
ENDBRANCH   9  10
ENDBRANCH   8   9
ENDBRANCH   1   8
TORSDOF 9
ENDMDL
MODEL 3
REMARK VINA RESULT:    -3.283      3.169      4.807
REMARK INTER + INTRA:          -6.213
REMARK INTER:                  -5.183
REMARK INTRA:                  -1.030
REMARK UNBOUND:                -1.203
REMARK SMILES CCCCCCCCCCC(=O)[O-]
REMARK SMILES IDX 7 1 8 2 9 3 10 4 11 5 12 6 13 7 6 8 5 9 4 10 3 11 2 12 1 13
REMARK H PARENT
REMARK Flexibility Score: inf
ROOT
ATOM      1  C   UNL     1      -1.851   9.355  38.396  1.00  0.00     0.000 C 
ENDROOT
BRANCH   1   2
ATOM      2  C   UNL     1      -2.201   8.335  39.492  1.00  0.00     0.000 C 
BRANCH   2   3
ATOM      3  C   UNL     1      -1.786   6.901  39.123  1.00  0.00     0.006 C 
BRANCH   3   4
ATOM      4  C   UNL     1      -2.848   5.869  39.526  1.00  0.00     0.053 C 
BRANCH   4   5
ATOM      5  C   UNL     1      -2.438   5.097  40.743  1.00  0.00     0.041 C 
ATOM      6  O   UNL     1      -2.330   5.679  41.854  1.00  0.00    -0.550 OA
ATOM      7  O   UNL     1      -2.142   3.743  40.643  1.00  0.00    -0.550 OA
ENDBRANCH   4   5
ENDBRANCH   3   4
ENDBRANCH   2   3
ENDBRANCH   1   2
BRANCH   1   8
ATOM      8  C   UNL     1      -1.013   8.738  37.263  1.00  0.00     0.000 C 
BRANCH   8   9
ATOM      9  C   UNL     1       0.364   9.406  37.115  1.00  0.00    -0.000 C 
BRANCH   9  10
ATOM     10  C   UNL     1       1.491   8.596  37.774  1.00  0.00    -0.000 C 
BRANCH  10  11
ATOM     11  C   UNL     1       2.339   9.485  38.696  1.00  0.00    -0.000 C 
BRANCH  11  12
ATOM     12  C   UNL     1       1.517  10.110  39.834  1.00  0.00    -0.003 C 
ATOM     13  C   UNL     1       1.056   9.080  40.865  1.00  0.00     0.004 C 
ENDBRANCH  11  12
ENDBRANCH  10  11
ENDBRANCH   9  10
ENDBRANCH   8   9
ENDBRANCH   1   8
TORSDOF 9
ENDMDL
MODEL 4
REMARK VINA RESULT:    -3.272      2.180      3.138
REMARK INTER + INTRA:          -6.197
REMARK INTER:                  -5.195
REMARK INTRA:                  -1.002
REMARK UNBOUND:                -1.203
REMARK SMILES CCCCCCCCCCC(=O)[O-]
REMARK SMILES IDX 7 1 8 2 9 3 10 4 11 5 12 6 13 7 6 8 5 9 4 10 3 11 2 12 1 13
REMARK H PARENT
REMARK Flexibility Score: inf
ROOT
ATOM      1  C   UNL     1      -1.781   9.585  38.407  1.00  0.00     0.000 C 
ENDROOT
BRANCH   1   2
ATOM      2  C   UNL     1      -1.204   9.735  36.990  1.00  0.00     0.000 C 
BRANCH   2   3
ATOM      3  C   UNL     1      -0.363   8.522  36.559  1.00  0.00     0.006 C 
BRANCH   3   4
ATOM      4  C   UNL     1       1.045   8.927  36.101  1.00  0.00     0.053 C 
BRANCH   4   5
ATOM      5  C   UNL     1       1.149   8.983  34.608  1.00  0.00     0.041 C 
ATOM      6  O   UNL     1       1.020  10.081  34.006  1.00  0.00    -0.550 OA
ATOM      7  O   UNL     1       1.353   7.817  33.879  1.00  0.00    -0.550 OA
ENDBRANCH   4   5
ENDBRANCH   3   4
ENDBRANCH   2   3
ENDBRANCH   1   2
BRANCH   1   8
ATOM      8  C   UNL     1      -0.740   9.071  39.416  1.00  0.00     0.000 C 
BRANCH   8   9
ATOM      9  C   UNL     1      -1.267   7.904  40.266  1.00  0.00    -0.000 C 
BRANCH   9  10
ATOM     10  C   UNL     1      -2.692   7.482  39.877  1.00  0.00    -0.000 C 
BRANCH  10  11
ATOM     11  C   UNL     1      -2.759   5.975  39.590  1.00  0.00    -0.000 C 
BRANCH  11  12
ATOM     12  C   UNL     1      -1.515   5.459  38.850  1.00  0.00    -0.003 C 
ATOM     13  C   UNL     1      -1.770   5.214  37.363  1.00  0.00     0.004 C 
ENDBRANCH  11  12
ENDBRANCH  10  11
ENDBRANCH   9  10
ENDBRANCH   8   9
ENDBRANCH   1   8
TORSDOF 9
ENDMDL
MODEL 5
REMARK VINA RESULT:    -3.272      2.601      4.460
REMARK INTER + INTRA:          -6.196
REMARK INTER:                  -5.277
REMARK INTRA:                  -0.919
REMARK UNBOUND:                -1.203
REMARK SMILES CCCCCCCCCCC(=O)[O-]
REMARK SMILES IDX 7 1 8 2 9 3 10 4 11 5 12 6 13 7 6 8 5 9 4 10 3 11 2 12 1 13
REMARK H PARENT
REMARK Flexibility Score: inf
ROOT
ATOM      1  C   UNL     1      -1.352   8.648  39.284  1.00  0.00     0.000 C 
ENDROOT
BRANCH   1   2
ATOM      2  C   UNL     1      -2.519   7.843  39.879  1.00  0.00     0.000 C 
BRANCH   2   3
ATOM      3  C   UNL     1      -2.520   6.374  39.423  1.00  0.00     0.006 C 
BRANCH   3   4
ATOM      4  C   UNL     1      -1.148   5.930  38.898  1.00  0.00     0.053 C 
BRANCH   4   5
ATOM      5  C   UNL     1      -1.274   4.984  37.743  1.00  0.00     0.041 C 
ATOM      6  O   UNL     1      -2.118   5.205  36.834  1.00  0.00    -0.550 OA
ATOM      7  O   UNL     1      -0.486   3.841  37.688  1.00  0.00    -0.550 OA
ENDBRANCH   4   5
ENDBRANCH   3   4
ENDBRANCH   2   3
ENDBRANCH   1   2
BRANCH   1   8
ATOM      8  C   UNL     1      -1.820   9.685  38.248  1.00  0.00     0.000 C 
BRANCH   8   9
ATOM      9  C   UNL     1      -1.320   9.369  36.828  1.00  0.00    -0.000 C 
BRANCH   9  10
ATOM     10  C   UNL     1       0.107   8.800  36.815  1.00  0.00    -0.000 C 
BRANCH  10  11
ATOM     11  C   UNL     1       1.130   9.893  36.469  1.00  0.00    -0.000 C 
BRANCH  11  12
ATOM     12  C   UNL     1       2.452   9.728  37.232  1.00  0.00    -0.003 C 
ATOM     13  C   UNL     1       2.248   9.527  38.734  1.00  0.00     0.004 C 
ENDBRANCH  11  12
ENDBRANCH  10  11
ENDBRANCH   9  10
ENDBRANCH   8   9
ENDBRANCH   1   8
TORSDOF 9
ENDMDL
MODEL 6
REMARK VINA RESULT:    -3.240      2.511      4.541
REMARK INTER + INTRA:          -6.147
REMARK INTER:                  -4.825
REMARK INTRA:                  -1.322
REMARK UNBOUND:                -1.203
REMARK SMILES CCCCCCCCCCC(=O)[O-]
REMARK SMILES IDX 7 1 8 2 9 3 10 4 11 5 12 6 13 7 6 8 5 9 4 10 3 11 2 12 1 13
REMARK H PARENT
REMARK Flexibility Score: inf
ROOT
ATOM      1  C   UNL     1      -0.622  10.125  38.495  1.00  0.00     0.000 C 
ENDROOT
BRANCH   1   2
ATOM      2  C   UNL     1      -1.757   9.094  38.607  1.00  0.00     0.000 C 
BRANCH   2   3
ATOM      3  C   UNL     1      -1.502   8.048  39.706  1.00  0.00     0.006 C 
BRANCH   3   4
ATOM      4  C   UNL     1      -2.623   7.001  39.780  1.00  0.00     0.053 C 
BRANCH   4   5
ATOM      5  C   UNL     1      -2.173   5.669  39.263  1.00  0.00     0.041 C 
ATOM      6  O   UNL     1      -2.146   5.448  38.024  1.00  0.00    -0.550 OA
ATOM      7  O   UNL     1      -1.817   4.661  40.150  1.00  0.00    -0.550 OA
ENDBRANCH   4   5
ENDBRANCH   3   4
ENDBRANCH   2   3
ENDBRANCH   1   2
BRANCH   1   8
ATOM      8  C   UNL     1       0.461   9.928  39.569  1.00  0.00     0.000 C 
BRANCH   8   9
ATOM      9  C   UNL     1       1.885  10.022  38.996  1.00  0.00    -0.000 C 
BRANCH   9  10
ATOM     10  C   UNL     1       2.192   8.909  37.982  1.00  0.00    -0.000 C 
BRANCH  10  11
ATOM     11  C   UNL     1       2.098   7.525  38.643  1.00  0.00    -0.000 C 
BRANCH  11  12
ATOM     12  C   UNL     1       1.406   6.488  37.746  1.00  0.00    -0.003 C 
ATOM     13  C   UNL     1       0.627   7.126  36.596  1.00  0.00     0.004 C 
ENDBRANCH  11  12
ENDBRANCH  10  11
ENDBRANCH   9  10
ENDBRANCH   8   9
ENDBRANCH   1   8
TORSDOF 9
ENDMDL
MODEL 7
REMARK VINA RESULT:    -3.228      1.799      2.700
REMARK INTER + INTRA:          -6.130
REMARK INTER:                  -4.844
REMARK INTRA:                  -1.286
REMARK UNBOUND:                -1.203
REMARK SMILES CCCCCCCCCCC(=O)[O-]
REMARK SMILES IDX 7 1 8 2 9 3 10 4 11 5 12 6 13 7 6 8 5 9 4 10 3 11 2 12 1 13
REMARK H PARENT
REMARK Flexibility Score: inf
ROOT
ATOM      1  C   UNL     1      -1.727   9.766  37.304  1.00  0.00     0.000 C 
ENDROOT
BRANCH   1   2
ATOM      2  C   UNL     1      -0.872  10.002  36.048  1.00  0.00     0.000 C 
BRANCH   2   3
ATOM      3  C   UNL     1       0.635   9.846  36.317  1.00  0.00     0.006 C 
BRANCH   3   4
ATOM      4  C   UNL     1       1.133   8.427  36.011  1.00  0.00     0.053 C 
BRANCH   4   5
ATOM      5  C   UNL     1       2.060   7.922  37.074  1.00  0.00     0.041 C 
ATOM      6  O   UNL     1       2.341   8.647  38.064  1.00  0.00    -0.550 OA
ATOM      7  O   UNL     1       2.642   6.666  36.953  1.00  0.00    -0.550 OA
ENDBRANCH   4   5
ENDBRANCH   3   4
ENDBRANCH   2   3
ENDBRANCH   1   2
BRANCH   1   8
ATOM      8  C   UNL     1      -0.948  10.029  38.605  1.00  0.00     0.000 C 
BRANCH   8   9
ATOM      9  C   UNL     1      -0.903   8.799  39.525  1.00  0.00    -0.000 C 
BRANCH   9  10
ATOM     10  C   UNL     1      -2.284   8.158  39.729  1.00  0.00    -0.000 C 
BRANCH  10  11
ATOM     11  C   UNL     1      -2.261   6.671  39.341  1.00  0.00    -0.000 C 
BRANCH  11  12
ATOM     12  C   UNL     1      -0.968   6.270  38.616  1.00  0.00    -0.003 C 
ATOM     13  C   UNL     1      -1.214   5.802  37.182  1.00  0.00     0.004 C 
ENDBRANCH  11  12
ENDBRANCH  10  11
ENDBRANCH   9  10
ENDBRANCH   8   9
ENDBRANCH   1   8
TORSDOF 9
ENDMDL
MODEL 8
REMARK VINA RESULT:    -3.215      1.426      2.010
REMARK INTER + INTRA:          -6.109
REMARK INTER:                  -4.751
REMARK INTRA:                  -1.358
REMARK UNBOUND:                -1.203
REMARK SMILES CCCCCCCCCCC(=O)[O-]
REMARK SMILES IDX 7 1 8 2 9 3 10 4 11 5 12 6 13 7 6 8 5 9 4 10 3 11 2 12 1 13
REMARK H PARENT
REMARK Flexibility Score: inf
ROOT
ATOM      1  C   UNL     1       0.161   9.021  40.304  1.00  0.00     0.000 C 
ENDROOT
BRANCH   1   2
ATOM      2  C   UNL     1       1.477   8.282  40.012  1.00  0.00     0.000 C 
BRANCH   2   3
ATOM      3  C   UNL     1       1.260   6.802  39.652  1.00  0.00     0.006 C 
BRANCH   3   4
ATOM      4  C   UNL     1       1.989   6.407  38.360  1.00  0.00     0.053 C 
BRANCH   4   5
ATOM      5  C   UNL     1       1.363   7.039  37.155  1.00  0.00     0.041 C 
ATOM      6  O   UNL     1       1.977   7.937  36.521  1.00  0.00    -0.550 OA
ATOM      7  O   UNL     1       0.089   6.660  36.751  1.00  0.00    -0.550 OA
ENDBRANCH   4   5
ENDBRANCH   3   4
ENDBRANCH   2   3
ENDBRANCH   1   2
BRANCH   1   8
ATOM      8  C   UNL     1      -0.489   9.593  39.032  1.00  0.00     0.000 C 
BRANCH   8   9
ATOM      9  C   UNL     1      -1.841   8.934  38.712  1.00  0.00    -0.000 C 
BRANCH   9  10
ATOM     10  C   UNL     1      -2.337   8.018  39.842  1.00  0.00    -0.000 C 
BRANCH  10  11
ATOM     11  C   UNL     1      -2.468   6.568  39.352  1.00  0.00    -0.000 C 
BRANCH  11  12
ATOM     12  C   UNL     1      -2.196   5.542  40.464  1.00  0.00    -0.003 C 
ATOM     13  C   UNL     1      -1.860   6.197  41.804  1.00  0.00     0.004 C 
ENDBRANCH  11  12
ENDBRANCH  10  11
ENDBRANCH   9  10
ENDBRANCH   8   9
ENDBRANCH   1   8
TORSDOF 9
ENDMDL
MODEL 9
REMARK VINA RESULT:    -3.182      1.889      3.373
REMARK INTER + INTRA:          -6.059
REMARK INTER:                  -4.641
REMARK INTRA:                  -1.418
REMARK UNBOUND:                -1.203
REMARK SMILES CCCCCCCCCCC(=O)[O-]
REMARK SMILES IDX 7 1 8 2 9 3 10 4 11 5 12 6 13 7 6 8 5 9 4 10 3 11 2 12 1 13
REMARK H PARENT
REMARK Flexibility Score: inf
ROOT
ATOM      1  C   UNL     1      -1.550   7.758  40.513  1.00  0.00     0.000 C 
ENDROOT
BRANCH   1   2
ATOM      2  C   UNL     1      -2.251   8.520  39.376  1.00  0.00     0.000 C 
BRANCH   2   3
ATOM      3  C   UNL     1      -1.277   9.370  38.543  1.00  0.00     0.006 C 
BRANCH   3   4
ATOM      4  C   UNL     1       0.110   9.466  39.193  1.00  0.00     0.053 C 
BRANCH   4   5
ATOM      5  C   UNL     1       1.189   9.663  38.173  1.00  0.00     0.041 C 
ATOM      6  O   UNL     1       0.900   9.722  36.949  1.00  0.00    -0.550 OA
ATOM      7  O   UNL     1       2.518   9.748  38.571  1.00  0.00    -0.550 OA
ENDBRANCH   4   5
ENDBRANCH   3   4
ENDBRANCH   2   3
ENDBRANCH   1   2
BRANCH   1   8
ATOM      8  C   UNL     1      -2.054   6.310  40.651  1.00  0.00     0.000 C 
BRANCH   8   9
ATOM      9  C   UNL     1      -2.594   5.744  39.327  1.00  0.00    -0.000 C 
BRANCH   9  10
ATOM     10  C   UNL     1      -1.520   5.003  38.517  1.00  0.00    -0.000 C 
BRANCH  10  11
ATOM     11  C   UNL     1      -1.125   5.806  37.267  1.00  0.00    -0.000 C 
BRANCH  11  12
ATOM     12  C   UNL     1       0.387   6.061  37.182  1.00  0.00    -0.003 C 
ATOM     13  C   UNL     1       1.084   5.950  38.538  1.00  0.00     0.004 C 
ENDBRANCH  11  12
ENDBRANCH  10  11
ENDBRANCH   9  10
ENDBRANCH   8   9
ENDBRANCH   1   8
TORSDOF 9
ENDMDL
