MODEL 1
REMARK VINA RESULT:    -3.493      0.000      0.000
REMARK INTER + INTRA:          -4.192
REMARK INTER:                  -4.106
REMARK INTRA:                  -0.086
REMARK UNBOUND:                -0.086
REMARK SMILES O=C([O-])CCC(=O)[O-]
REMARK SMILES IDX 4 1 2 2 1 3 3 4 5 5 6 6 7 7 8 8
REMARK H PARENT
REMARK Flexibility Score: inf
ROOT
ATOM      1  C   UNL     1      64.873  -3.040   4.362  1.00  0.00     0.059 C 
ENDROOT
BRANCH   1   2
ATOM      2  C   UNL     1      64.149  -1.730   4.437  1.00  0.00     0.042 C 
ATOM      3  O   UNL     1      63.375  -1.379   3.507  1.00  0.00    -0.550 OA
ATOM      4  O   UNL     1      64.361  -0.880   5.515  1.00  0.00    -0.550 OA
ENDBRANCH   1   2
BRANCH   1   5
ATOM      5  C   UNL     1      65.901  -3.052   3.227  1.00  0.00     0.059 C 
BRANCH   5   6
ATOM      6  C   UNL     1      65.437  -3.883   2.070  1.00  0.00     0.042 C 
ATOM      7  O   UNL     1      64.478  -3.493   1.353  1.00  0.00    -0.550 OA
ATOM      8  O   UNL     1      66.037  -5.108   1.811  1.00  0.00    -0.550 OA
ENDBRANCH   5   6
ENDBRANCH   1   5
TORSDOF 3
ENDMDL
MODEL 2
REMARK VINA RESULT:    -3.451      1.368      1.929
REMARK INTER + INTRA:          -4.142
REMARK INTER:                  -4.049
REMARK INTRA:                  -0.093
REMARK UNBOUND:                -0.086
REMARK SMILES O=C([O-])CCC(=O)[O-]
REMARK SMILES IDX 4 1 2 2 1 3 3 4 5 5 6 6 7 7 8 8
REMARK H PARENT
REMARK Flexibility Score: inf
ROOT
ATOM      1  C   UNL     1      64.114  -2.062   4.402  1.00  0.00     0.059 C 
ENDROOT
BRANCH   1   2
ATOM      2  C   UNL     1      64.817  -1.287   5.474  1.00  0.00     0.042 C 
ATOM      3  O   UNL     1      64.154  -0.630   6.320  1.00  0.00    -0.550 OA
ATOM      4  O   UNL     1      66.205  -1.257   5.514  1.00  0.00    -0.550 OA
ENDBRANCH   1   2
BRANCH   1   5
ATOM      5  C   UNL     1      64.822  -3.388   4.108  1.00  0.00     0.059 C 
BRANCH   5   6
ATOM      6  C   UNL     1      65.370  -3.424   2.714  1.00  0.00     0.042 C 
ATOM      7  O   UNL     1      66.615  -3.439   2.521  1.00  0.00    -0.550 OA
ATOM      8  O   UNL     1      64.506  -3.401   1.627  1.00  0.00    -0.550 OA
ENDBRANCH   5   6
ENDBRANCH   1   5
TORSDOF 3
ENDMDL
MODEL 3
REMARK VINA RESULT:    -3.442      1.412      4.033
REMARK INTER + INTRA:          -4.131
REMARK INTER:                  -4.028
REMARK INTRA:                  -0.104
REMARK UNBOUND:                -0.086
REMARK SMILES O=C([O-])CCC(=O)[O-]
REMARK SMILES IDX 4 1 2 2 1 3 3 4 5 5 6 6 7 7 8 8
REMARK H PARENT
REMARK Flexibility Score: inf
ROOT
ATOM      1  C   UNL     1      64.863  -3.387   4.097  1.00  0.00     0.059 C 
ENDROOT
BRANCH   1   2
ATOM      2  C   UNL     1      65.409  -3.360   2.702  1.00  0.00     0.042 C 
ATOM      3  O   UNL     1      66.645  -3.216   2.507  1.00  0.00    -0.550 OA
ATOM      4  O   UNL     1      64.548  -3.454   1.616  1.00  0.00    -0.550 OA
ENDBRANCH   1   2
BRANCH   1   5
ATOM      5  C   UNL     1      64.105  -2.099   4.431  1.00  0.00     0.059 C 
BRANCH   5   6
ATOM      6  C   UNL     1      64.811  -1.301   5.484  1.00  0.00     0.042 C 
ATOM      7  O   UNL     1      64.151  -0.623   6.316  1.00  0.00    -0.550 OA
ATOM      8  O   UNL     1      66.199  -1.273   5.521  1.00  0.00    -0.550 OA
ENDBRANCH   5   6
ENDBRANCH   1   5
TORSDOF 3
ENDMDL
MODEL 4
REMARK VINA RESULT:    -3.423      1.309      4.069
REMARK INTER + INTRA:          -4.110
REMARK INTER:                  -4.040
REMARK INTRA:                  -0.069
REMARK UNBOUND:                -0.086
REMARK SMILES O=C([O-])CCC(=O)[O-]
REMARK SMILES IDX 4 1 2 2 1 3 3 4 5 5 6 6 7 7 8 8
REMARK H PARENT
REMARK Flexibility Score: inf
ROOT
ATOM      1  C   UNL     1      64.862  -3.416   4.031  1.00  0.00     0.059 C 
ENDROOT
BRANCH   1   2
ATOM      2  C   UNL     1      65.324  -3.521   2.610  1.00  0.00     0.042 C 
ATOM      3  O   UNL     1      64.503  -3.387   1.664  1.00  0.00    -0.550 OA
ATOM      4  O   UNL     1      66.654  -3.808   2.331  1.00  0.00    -0.550 OA
ENDBRANCH   1   2
BRANCH   1   5
ATOM      5  C   UNL     1      64.170  -2.077   4.301  1.00  0.00     0.059 C 
BRANCH   5   6
ATOM      6  C   UNL     1      64.864  -1.305   5.382  1.00  0.00     0.042 C 
ATOM      7  O   UNL     1      66.122  -1.297   5.448  1.00  0.00    -0.550 OA
ATOM      8  O   UNL     1      64.120  -0.629   6.340  1.00  0.00    -0.550 OA
ENDBRANCH   5   6
ENDBRANCH   1   5
TORSDOF 3
ENDMDL
MODEL 5
REMARK VINA RESULT:    -3.382      2.031      2.311
REMARK INTER + INTRA:          -4.061
REMARK INTER:                  -4.020
REMARK INTRA:                  -0.041
REMARK UNBOUND:                -0.086
REMARK SMILES O=C([O-])CCC(=O)[O-]
REMARK SMILES IDX 4 1 2 2 1 3 3 4 5 5 6 6 7 7 8 8
REMARK H PARENT
REMARK Flexibility Score: inf
ROOT
ATOM      1  C   UNL     1      64.984  -3.358   3.521  1.00  0.00     0.059 C 
ENDROOT
BRANCH   1   2
ATOM      2  C   UNL     1      64.322  -2.119   4.042  1.00  0.00     0.042 C 
ATOM      3  O   UNL     1      63.412  -1.558   3.376  1.00  0.00    -0.550 OA
ATOM      4  O   UNL     1      64.737  -1.563   5.245  1.00  0.00    -0.550 OA
ENDBRANCH   1   2
BRANCH   1   5
ATOM      5  C   UNL     1      65.474  -4.258   4.660  1.00  0.00     0.059 C 
BRANCH   5   6
ATOM      6  C   UNL     1      64.955  -5.656   4.520  1.00  0.00     0.042 C 
ATOM      7  O   UNL     1      64.070  -6.086   5.306  1.00  0.00    -0.550 OA
ATOM      8  O   UNL     1      65.480  -6.498   3.548  1.00  0.00    -0.550 OA
ENDBRANCH   5   6
ENDBRANCH   1   5
TORSDOF 3
ENDMDL
MODEL 6
REMARK VINA RESULT:    -3.295      2.045      2.559
REMARK INTER + INTRA:          -3.959
REMARK INTER:                  -3.844
REMARK INTRA:                  -0.115
REMARK UNBOUND:                -0.086
REMARK SMILES O=C([O-])CCC(=O)[O-]
REMARK SMILES IDX 4 1 2 2 1 3 3 4 5 5 6 6 7 7 8 8
REMARK H PARENT
REMARK Flexibility Score: inf
ROOT
ATOM      1  C   UNL     1      65.058  -3.018   4.325  1.00  0.00     0.059 C 
ENDROOT
BRANCH   1   2
ATOM      2  C   UNL     1      64.176  -1.807   4.328  1.00  0.00     0.042 C 
ATOM      3  O   UNL     1      63.369  -1.607   3.382  1.00  0.00    -0.550 OA
ATOM      4  O   UNL     1      64.274  -0.879   5.357  1.00  0.00    -0.550 OA
ENDBRANCH   1   2
BRANCH   1   5
ATOM      5  C   UNL     1      66.137  -2.927   3.242  1.00  0.00     0.059 C 
BRANCH   5   6
ATOM      6  C   UNL     1      67.324  -2.142   3.711  1.00  0.00     0.042 C 
ATOM      7  O   UNL     1      67.555  -2.015   4.942  1.00  0.00    -0.550 OA
ATOM      8  O   UNL     1      68.151  -1.515   2.787  1.00  0.00    -0.550 OA
ENDBRANCH   5   6
ENDBRANCH   1   5
TORSDOF 3
ENDMDL
MODEL 7
REMARK VINA RESULT:    -3.267     13.068     14.314
REMARK INTER + INTRA:          -3.926
REMARK INTER:                  -3.777
REMARK INTRA:                  -0.149
REMARK UNBOUND:                -0.086
REMARK SMILES O=C([O-])CCC(=O)[O-]
REMARK SMILES IDX 4 1 2 2 1 3 3 4 5 5 6 6 7 7 8 8
REMARK H PARENT
REMARK Flexibility Score: inf
ROOT
ATOM      1  C   UNL     1      61.469   9.255  -2.927  1.00  0.00     0.059 C 
ENDROOT
BRANCH   1   2
ATOM      2  C   UNL     1      61.419   8.805  -1.498  1.00  0.00     0.042 C 
ATOM      3  O   UNL     1      61.645   9.623  -0.567  1.00  0.00    -0.550 OA
ATOM      4  O   UNL     1      61.163   7.473  -1.198  1.00  0.00    -0.550 OA
ENDBRANCH   1   2
BRANCH   1   5
ATOM      5  C   UNL     1      60.323  10.217  -3.255  1.00  0.00     0.059 C 
BRANCH   5   6
ATOM      6  C   UNL     1      58.998   9.661  -2.833  1.00  0.00     0.042 C 
ATOM      7  O   UNL     1      58.336  10.222  -1.919  1.00  0.00    -0.550 OA
ATOM      8  O   UNL     1      58.512   8.500  -3.421  1.00  0.00    -0.550 OA
ENDBRANCH   5   6
ENDBRANCH   1   5
TORSDOF 3
ENDMDL
MODEL 8
REMARK VINA RESULT:    -3.234      1.930      2.716
REMARK INTER + INTRA:          -3.887
REMARK INTER:                  -3.730
REMARK INTRA:                  -0.158
REMARK UNBOUND:                -0.086
REMARK SMILES O=C([O-])CCC(=O)[O-]
REMARK SMILES IDX 4 1 2 2 1 3 3 4 5 5 6 6 7 7 8 8
REMARK H PARENT
REMARK Flexibility Score: inf
ROOT
ATOM      1  C   UNL     1      66.750  -3.465   4.248  1.00  0.00     0.059 C 
ENDROOT
BRANCH   1   2
ATOM      2  C   UNL     1      67.045  -2.000   4.363  1.00  0.00     0.042 C 
ATOM      3  O   UNL     1      67.853  -1.451   3.568  1.00  0.00    -0.550 OA
ATOM      4  O   UNL     1      66.457  -1.251   5.374  1.00  0.00    -0.550 OA
ENDBRANCH   1   2
BRANCH   1   5
ATOM      5  C   UNL     1      65.244  -3.735   4.208  1.00  0.00     0.059 C 
BRANCH   5   6
ATOM      6  C   UNL     1      64.585  -3.025   3.065  1.00  0.00     0.042 C 
ATOM      7  O   UNL     1      64.807  -3.388   1.880  1.00  0.00    -0.550 OA
ATOM      8  O   UNL     1      63.760  -1.935   3.308  1.00  0.00    -0.550 OA
ENDBRANCH   5   6
ENDBRANCH   1   5
TORSDOF 3
ENDMDL
MODEL 9
REMARK VINA RESULT:    -3.214      1.846      3.902
REMARK INTER + INTRA:          -3.863
REMARK INTER:                  -3.834
REMARK INTRA:                  -0.030
REMARK UNBOUND:                -0.086
REMARK SMILES O=C([O-])CCC(=O)[O-]
REMARK SMILES IDX 4 1 2 2 1 3 3 4 5 5 6 6 7 7 8 8
REMARK H PARENT
REMARK Flexibility Score: inf
ROOT
ATOM      1  C   UNL     1      65.413  -4.116   4.753  1.00  0.00     0.059 C 
ENDROOT
BRANCH   1   2
ATOM      2  C   UNL     1      65.227  -5.543   4.334  1.00  0.00     0.042 C 
ATOM      3  O   UNL     1      65.733  -5.959   3.258  1.00  0.00    -0.550 OA
ATOM      4  O   UNL     1      64.462  -6.401   5.113  1.00  0.00    -0.550 OA
ENDBRANCH   1   2
BRANCH   1   5
ATOM      5  C   UNL     1      65.109  -3.148   3.607  1.00  0.00     0.059 C 
BRANCH   5   6
ATOM      6  C   UNL     1      64.363  -1.940   4.087  1.00  0.00     0.042 C 
ATOM      7  O   UNL     1      63.376  -1.503   3.437  1.00  0.00    -0.550 OA
ATOM      8  O   UNL     1      64.784  -1.273   5.230  1.00  0.00    -0.550 OA
ENDBRANCH   5   6
ENDBRANCH   1   5
TORSDOF 3
ENDMDL
