MODEL 1
REMARK VINA RESULT:    -8.445      0.000      0.000
REMARK INTER + INTRA:         -11.937
REMARK INTER:                 -11.160
REMARK INTRA:                  -0.777
REMARK UNBOUND:                -0.777
REMARK SMILES CC[C@H](C=C[C@@H](C)[C@H]1CC[C@H]2C3=CC[C@H]4C[C@H](O)CC[C@@]4(C)[C@H]3CC[C@]12C)C(C)C
REMARK SMILES IDX 6 1 7 2 5 3 4 4 3 5 2 6 1 7 28 8 29 9 30 10 8 11 9 12 26 13
REMARK SMILES IDX 10 14 11 15 25 16 27 17 12 18 24 19 23 20 13 21 21 22 14 23
REMARK SMILES IDX 15 24 20 25 22 26 16 27 19 28 17 29 18 30
REMARK H PARENT 18 31
REMARK Flexibility Score: inf
ROOT
ATOM      1  C   UNL     1     133.064 128.239 137.401  1.00  0.00     0.012 C 
ATOM      2  C   UNL     1     132.731 127.013 138.263  1.00  0.00     0.012 C 
ENDROOT
BRANCH   1   3
ATOM      3  C   UNL     1     133.636 127.743 136.090  1.00  0.00    -0.028 C 
ATOM      4  C   UNL     1     134.825 127.117 136.025  1.00  0.00    -0.027 C 
BRANCH   4   5
ATOM      5  C   UNL     1     135.433 126.655 134.713  1.00  0.00     0.014 C 
BRANCH   5   6
ATOM      6  C   UNL     1     135.424 127.803 133.670  1.00  0.00     0.004 C 
ATOM      7  C   UNL     1     136.080 129.083 134.193  1.00  0.00     0.004 C 
ENDBRANCH   5   6
BRANCH   5   8
ATOM      8  C   UNL     1     136.858 126.050 134.930  1.00  0.00    -0.011 C 
ATOM      9  C   UNL     1     137.531 126.640 136.184  1.00  0.00     0.008 C 
ATOM     10  C   UNL     1     136.827 124.517 135.059  1.00  0.00     0.008 C 
ENDBRANCH   5   8
ENDBRANCH   4   5
ENDBRANCH   1   3
BRANCH   1  11
ATOM     11  C   UNL     1     134.085 129.203 138.084  1.00  0.00     0.002 C 
ATOM     12  C   UNL     1     134.508 130.358 137.134  1.00  0.00     0.005 C 
ATOM     13  C   UNL     1     133.648 129.935 139.387  1.00  0.00    -0.023 C 
ATOM     14  C   UNL     1     134.704 131.610 137.998  1.00  0.00     0.009 C 
ATOM     15  C   UNL     1     134.666 131.079 139.424  1.00  0.00     0.021 C 
ATOM     16  C   UNL     1     133.840 129.126 140.698  1.00  0.00     0.008 C 
ATOM     17  C   UNL     1     132.182 130.463 139.269  1.00  0.00     0.012 C 
ATOM     18  C   UNL     1     134.420 132.011 140.595  1.00  0.00    -0.067 C 
ATOM     19  C   UNL     1     133.587 130.007 141.944  1.00  0.00     0.009 C 
ATOM     20  C   UNL     1     134.422 131.330 141.966  1.00  0.00     0.021 C 
ATOM     21  C   UNL     1     134.548 133.341 140.461  1.00  0.00    -0.027 C 
ATOM     22  C   UNL     1     134.105 132.275 143.199  1.00  0.00    -0.023 C 
ATOM     23  C   UNL     1     134.351 134.286 141.599  1.00  0.00     0.031 C 
ATOM     24  C   UNL     1     134.756 133.680 142.960  1.00  0.00     0.002 C 
ATOM     25  C   UNL     1     132.573 132.455 143.435  1.00  0.00     0.010 C 
ATOM     26  C   UNL     1     134.742 131.618 144.461  1.00  0.00     0.012 C 
ATOM     27  C   UNL     1     134.432 134.687 144.092  1.00  0.00     0.036 C 
ATOM     28  C   UNL     1     132.235 133.459 144.554  1.00  0.00     0.032 C 
ATOM     29  C   UNL     1     132.918 134.823 144.356  1.00  0.00     0.114 C 
BRANCH  29  30
ATOM     30  O   UNL     1     132.686 135.652 145.468  1.00  0.00    -0.393 OA
ATOM     31  H   UNL     1     131.959 136.284 145.228  1.00  0.00     0.210 HD
ENDBRANCH  29  30
ENDBRANCH   1  11
TORSDOF 6
ENDMDL
MODEL 2
REMARK VINA RESULT:    -7.701      2.841      4.361
REMARK INTER + INTRA:         -10.954
REMARK INTER:                 -10.448
REMARK INTRA:                  -0.506
REMARK UNBOUND:                -0.777
REMARK SMILES CC[C@H](C=C[C@@H](C)[C@H]1CC[C@H]2C3=CC[C@H]4C[C@H](O)CC[C@@]4(C)[C@H]3CC[C@]12C)C(C)C
REMARK SMILES IDX 6 1 7 2 5 3 4 4 3 5 2 6 1 7 28 8 29 9 30 10 8 11 9 12 26 13
REMARK SMILES IDX 10 14 11 15 25 16 27 17 12 18 24 19 23 20 13 21 21 22 14 23
REMARK SMILES IDX 15 24 20 25 22 26 16 27 19 28 17 29 18 30
REMARK H PARENT 18 31
REMARK Flexibility Score: inf
ROOT
ATOM      1  C   UNL     1     132.033 130.880 136.752  1.00  0.00     0.012 C 
ATOM      2  C   UNL     1     130.671 131.286 136.171  1.00  0.00     0.012 C 
ENDROOT
BRANCH   1   3
ATOM      3  C   UNL     1     132.872 130.325 135.621  1.00  0.00    -0.028 C 
ATOM      4  C   UNL     1     134.177 130.044 135.776  1.00  0.00    -0.027 C 
BRANCH   4   5
ATOM      5  C   UNL     1     135.043 129.531 134.638  1.00  0.00     0.014 C 
BRANCH   5   6
ATOM      6  C   UNL     1     136.497 130.054 134.778  1.00  0.00     0.004 C 
ATOM      7  C   UNL     1     136.570 131.425 135.455  1.00  0.00     0.004 C 
ENDBRANCH   5   6
BRANCH   5   8
ATOM      8  C   UNL     1     134.971 127.974 134.528  1.00  0.00    -0.011 C 
ATOM      9  C   UNL     1     135.676 127.470 133.254  1.00  0.00     0.008 C 
ATOM     10  C   UNL     1     135.594 127.275 135.750  1.00  0.00     0.008 C 
ENDBRANCH   5   8
ENDBRANCH   4   5
ENDBRANCH   1   3
BRANCH   1  11
ATOM     11  C   UNL     1     131.915 129.813 137.886  1.00  0.00     0.002 C 
ATOM     12  C   UNL     1     132.185 128.378 137.352  1.00  0.00     0.005 C 
ATOM     13  C   UNL     1     132.864 129.937 139.114  1.00  0.00    -0.023 C 
ATOM     14  C   UNL     1     132.909 127.607 138.464  1.00  0.00     0.009 C 
ATOM     15  C   UNL     1     132.783 128.515 139.679  1.00  0.00     0.021 C 
ATOM     16  C   UNL     1     132.374 130.889 140.237  1.00  0.00     0.008 C 
ATOM     17  C   UNL     1     134.315 130.303 138.667  1.00  0.00     0.012 C 
ATOM     18  C   UNL     1     133.690 128.336 140.881  1.00  0.00    -0.067 C 
ATOM     19  C   UNL     1     133.264 130.779 141.497  1.00  0.00     0.009 C 
ATOM     20  C   UNL     1     133.434 129.317 142.028  1.00  0.00     0.021 C 
ATOM     21  C   UNL     1     134.395 127.206 141.055  1.00  0.00    -0.027 C 
ATOM     22  C   UNL     1     134.412 129.189 143.269  1.00  0.00    -0.023 C 
ATOM     23  C   UNL     1     135.269 126.980 142.244  1.00  0.00     0.031 C 
ATOM     24  C   UNL     1     134.744 127.678 143.517  1.00  0.00     0.002 C 
ATOM     25  C   UNL     1     135.743 129.978 143.064  1.00  0.00     0.010 C 
ATOM     26  C   UNL     1     133.663 129.764 144.509  1.00  0.00     0.012 C 
ATOM     27  C   UNL     1     135.754 127.472 144.674  1.00  0.00     0.036 C 
ATOM     28  C   UNL     1     136.760 129.777 144.204  1.00  0.00     0.032 C 
ATOM     29  C   UNL     1     137.047 128.294 144.492  1.00  0.00     0.114 C 
BRANCH  29  30
ATOM     30  O   UNL     1     137.873 128.166 145.623  1.00  0.00    -0.393 OA
ATOM     31  H   UNL     1     137.336 127.750 146.346  1.00  0.00     0.210 HD
ENDBRANCH  29  30
ENDBRANCH   1  11
TORSDOF 6
ENDMDL
MODEL 3
REMARK VINA RESULT:    -7.305      3.282      8.459
REMARK INTER + INTRA:         -10.431
REMARK INTER:                  -9.822
REMARK INTRA:                  -0.610
REMARK UNBOUND:                -0.777
REMARK SMILES CC[C@H](C=C[C@@H](C)[C@H]1CC[C@H]2C3=CC[C@H]4C[C@H](O)CC[C@@]4(C)[C@H]3CC[C@]12C)C(C)C
REMARK SMILES IDX 6 1 7 2 5 3 4 4 3 5 2 6 1 7 28 8 29 9 30 10 8 11 9 12 26 13
REMARK SMILES IDX 10 14 11 15 25 16 27 17 12 18 24 19 23 20 13 21 21 22 14 23
REMARK SMILES IDX 15 24 20 25 22 26 16 27 19 28 17 29 18 30
REMARK H PARENT 18 31
REMARK Flexibility Score: inf
ROOT
ATOM      1  C   UNL     1     132.011 132.357 139.398  1.00  0.00     0.012 C 
ATOM      2  C   UNL     1     132.823 133.606 139.028  1.00  0.00     0.012 C 
ENDROOT
BRANCH   1   3
ATOM      3  C   UNL     1     132.640 131.744 140.631  1.00  0.00    -0.028 C 
ATOM      4  C   UNL     1     133.549 132.405 141.368  1.00  0.00    -0.027 C 
BRANCH   4   5
ATOM      5  C   UNL     1     134.223 131.785 142.581  1.00  0.00     0.014 C 
BRANCH   5   6
ATOM      6  C   UNL     1     133.855 132.566 143.869  1.00  0.00     0.004 C 
ATOM      7  C   UNL     1     134.008 134.080 143.708  1.00  0.00     0.004 C 
ENDBRANCH   5   6
BRANCH   5   8
ATOM      8  C   UNL     1     133.904 130.259 142.689  1.00  0.00    -0.011 C 
ATOM      9  C   UNL     1     135.060 129.405 142.134  1.00  0.00     0.008 C 
ATOM     10  C   UNL     1     133.619 129.826 144.139  1.00  0.00     0.008 C 
ENDBRANCH   5   8
ENDBRANCH   4   5
ENDBRANCH   1   3
BRANCH   1  11
ATOM     11  C   UNL     1     131.971 131.298 138.252  1.00  0.00     0.002 C 
ATOM     12  C   UNL     1     131.891 131.969 136.853  1.00  0.00     0.005 C 
ATOM     13  C   UNL     1     133.167 130.308 138.122  1.00  0.00    -0.023 C 
ATOM     14  C   UNL     1     132.705 131.101 135.884  1.00  0.00     0.009 C 
ATOM     15  C   UNL     1     132.984 129.833 136.677  1.00  0.00     0.021 C 
ATOM     16  C   UNL     1     133.082 129.046 139.019  1.00  0.00     0.008 C 
ATOM     17  C   UNL     1     134.529 131.046 138.325  1.00  0.00     0.012 C 
ATOM     18  C   UNL     1     134.087 128.880 136.257  1.00  0.00    -0.067 C 
ATOM     19  C   UNL     1     134.192 128.028 138.664  1.00  0.00     0.009 C 
ATOM     20  C   UNL     1     134.238 127.644 137.148  1.00  0.00     0.021 C 
ATOM     21  C   UNL     1     134.626 128.942 135.028  1.00  0.00    -0.027 C 
ATOM     22  C   UNL     1     135.425 126.666 136.763  1.00  0.00    -0.023 C 
ATOM     23  C   UNL     1     135.686 127.997 134.568  1.00  0.00     0.031 C 
ATOM     24  C   UNL     1     135.560 126.597 135.204  1.00  0.00     0.002 C 
ATOM     25  C   UNL     1     136.789 127.113 137.376  1.00  0.00     0.010 C 
ATOM     26  C   UNL     1     135.057 125.254 137.313  1.00  0.00     0.012 C 
ATOM     27  C   UNL     1     136.747 125.712 134.748  1.00  0.00     0.036 C 
ATOM     28  C   UNL     1     137.981 126.246 136.925  1.00  0.00     0.032 C 
ATOM     29  C   UNL     1     138.085 126.127 135.395  1.00  0.00     0.114 C 
BRANCH  29  30
ATOM     30  O   UNL     1     139.102 125.222 135.043  1.00  0.00    -0.393 OA
ATOM     31  H   UNL     1     139.763 125.205 135.784  1.00  0.00     0.210 HD
ENDBRANCH  29  30
ENDBRANCH   1  11
TORSDOF 6
ENDMDL
MODEL 4
REMARK VINA RESULT:    -6.946      1.590      2.618
REMARK INTER + INTRA:          -9.956
REMARK INTER:                  -9.933
REMARK INTRA:                  -0.023
REMARK UNBOUND:                -0.777
REMARK SMILES CC[C@H](C=C[C@@H](C)[C@H]1CC[C@H]2C3=CC[C@H]4C[C@H](O)CC[C@@]4(C)[C@H]3CC[C@]12C)C(C)C
REMARK SMILES IDX 6 1 7 2 5 3 4 4 3 5 2 6 1 7 28 8 29 9 30 10 8 11 9 12 26 13
REMARK SMILES IDX 10 14 11 15 25 16 27 17 12 18 24 19 23 20 13 21 21 22 14 23
REMARK SMILES IDX 15 24 20 25 22 26 16 27 19 28 17 29 18 30
REMARK H PARENT 18 31
REMARK Flexibility Score: inf
ROOT
ATOM      1  C   UNL     1     132.308 128.160 137.497  1.00  0.00     0.012 C 
ATOM      2  C   UNL     1     130.900 128.518 137.994  1.00  0.00     0.012 C 
ENDROOT
BRANCH   1   3
ATOM      3  C   UNL     1     132.626 126.759 137.975  1.00  0.00    -0.028 C 
ATOM      4  C   UNL     1     133.813 126.447 138.523  1.00  0.00    -0.027 C 
BRANCH   4   5
ATOM      5  C   UNL     1     134.163 125.036 138.964  1.00  0.00     0.014 C 
BRANCH   5   6
ATOM      6  C   UNL     1     134.913 124.281 137.836  1.00  0.00     0.004 C 
ATOM      7  C   UNL     1     135.801 125.202 136.996  1.00  0.00     0.004 C 
ENDBRANCH   5   6
BRANCH   5   8
ATOM      8  C   UNL     1     134.952 125.043 140.313  1.00  0.00    -0.011 C 
ATOM      9  C   UNL     1     135.465 126.455 140.655  1.00  0.00     0.008 C 
ATOM     10  C   UNL     1     134.101 124.526 141.487  1.00  0.00     0.008 C 
ENDBRANCH   5   8
ENDBRANCH   4   5
ENDBRANCH   1   3
BRANCH   1  11
ATOM     11  C   UNL     1     133.403 129.147 138.012  1.00  0.00     0.002 C 
ATOM     12  C   UNL     1     133.691 130.273 136.981  1.00  0.00     0.005 C 
ATOM     13  C   UNL     1     133.133 129.919 139.338  1.00  0.00    -0.023 C 
ATOM     14  C   UNL     1     133.989 131.552 137.773  1.00  0.00     0.009 C 
ATOM     15  C   UNL     1     134.140 131.066 139.208  1.00  0.00     0.021 C 
ATOM     16  C   UNL     1     133.498 129.152 140.637  1.00  0.00     0.008 C 
ATOM     17  C   UNL     1     131.661 130.439 139.394  1.00  0.00     0.012 C 
ATOM     18  C   UNL     1     134.041 132.033 140.371  1.00  0.00    -0.067 C 
ATOM     19  C   UNL     1     133.403 130.070 141.878  1.00  0.00     0.009 C 
ATOM     20  C   UNL     1     134.225 131.396 141.751  1.00  0.00     0.021 C 
ATOM     21  C   UNL     1     134.142 133.359 140.181  1.00  0.00    -0.027 C 
ATOM     22  C   UNL     1     134.063 132.378 142.985  1.00  0.00    -0.023 C 
ATOM     23  C   UNL     1     134.087 134.338 141.306  1.00  0.00     0.031 C 
ATOM     24  C   UNL     1     134.669 133.777 142.621  1.00  0.00     0.002 C 
ATOM     25  C   UNL     1     132.574 132.561 143.412  1.00  0.00     0.010 C 
ATOM     26  C   UNL     1     134.863 131.763 144.173  1.00  0.00     0.012 C 
ATOM     27  C   UNL     1     134.487 134.817 143.754  1.00  0.00     0.036 C 
ATOM     28  C   UNL     1     132.377 133.599 144.534  1.00  0.00     0.032 C 
ATOM     29  C   UNL     1     133.019 134.958 144.207  1.00  0.00     0.114 C 
BRANCH  29  30
ATOM     30  O   UNL     1     132.927 135.821 145.314  1.00  0.00    -0.393 OA
ATOM     31  H   UNL     1     132.348 136.585 145.055  1.00  0.00     0.210 HD
ENDBRANCH  29  30
ENDBRANCH   1  11
TORSDOF 6
ENDMDL
MODEL 5
REMARK VINA RESULT:    -6.440      3.241      7.991
REMARK INTER + INTRA:          -9.288
REMARK INTER:                  -9.267
REMARK INTRA:                  -0.021
REMARK UNBOUND:                -0.777
REMARK SMILES CC[C@H](C=C[C@@H](C)[C@H]1CC[C@H]2C3=CC[C@H]4C[C@H](O)CC[C@@]4(C)[C@H]3CC[C@]12C)C(C)C
REMARK SMILES IDX 6 1 7 2 5 3 4 4 3 5 2 6 1 7 28 8 29 9 30 10 8 11 9 12 26 13
REMARK SMILES IDX 10 14 11 15 25 16 27 17 12 18 24 19 23 20 13 21 21 22 14 23
REMARK SMILES IDX 15 24 20 25 22 26 16 27 19 28 17 29 18 30
REMARK H PARENT 18 31
REMARK Flexibility Score: inf
ROOT
ATOM      1  C   UNL     1     133.506 132.712 142.162  1.00  0.00     0.012 C 
ATOM      2  C   UNL     1     134.703 133.338 142.892  1.00  0.00     0.012 C 
ENDROOT
BRANCH   1   3
ATOM      3  C   UNL     1     133.423 131.257 142.572  1.00  0.00    -0.028 C 
ATOM      4  C   UNL     1     134.323 130.699 143.401  1.00  0.00    -0.027 C 
BRANCH   4   5
ATOM      5  C   UNL     1     134.279 129.230 143.784  1.00  0.00     0.014 C 
BRANCH   5   6
ATOM      6  C   UNL     1     133.466 128.417 142.744  1.00  0.00     0.004 C 
ATOM      7  C   UNL     1     134.323 127.401 141.985  1.00  0.00     0.004 C 
ENDBRANCH   5   6
BRANCH   5   8
ATOM      8  C   UNL     1     135.717 128.659 144.005  1.00  0.00    -0.011 C 
ATOM      9  C   UNL     1     136.759 129.789 144.107  1.00  0.00     0.008 C 
ATOM     10  C   UNL     1     135.809 127.784 145.268  1.00  0.00     0.008 C 
ENDBRANCH   5   8
ENDBRANCH   4   5
ENDBRANCH   1   3
BRANCH   1  11
ATOM     11  C   UNL     1     133.624 132.810 140.609  1.00  0.00     0.002 C 
ATOM     12  C   UNL     1     134.767 133.771 140.180  1.00  0.00     0.005 C 
ATOM     13  C   UNL     1     133.916 131.505 139.809  1.00  0.00    -0.023 C 
ATOM     14  C   UNL     1     135.395 133.193 138.905  1.00  0.00     0.009 C 
ATOM     15  C   UNL     1     134.429 132.091 138.490  1.00  0.00     0.021 C 
ATOM     16  C   UNL     1     132.669 130.650 139.460  1.00  0.00     0.008 C 
ATOM     17  C   UNL     1     135.002 130.641 140.524  1.00  0.00     0.012 C 
ATOM     18  C   UNL     1     134.858 131.005 137.523  1.00  0.00    -0.067 C 
ATOM     19  C   UNL     1     133.030 129.502 138.487  1.00  0.00     0.009 C 
ATOM     20  C   UNL     1     133.772 129.976 137.194  1.00  0.00     0.021 C 
ATOM     21  C   UNL     1     135.958 131.146 136.765  1.00  0.00    -0.027 C 
ATOM     22  C   UNL     1     134.218 128.796 136.234  1.00  0.00    -0.023 C 
ATOM     23  C   UNL     1     136.389 130.114 135.776  1.00  0.00     0.031 C 
ATOM     24  C   UNL     1     135.204 129.350 135.149  1.00  0.00     0.002 C 
ATOM     25  C   UNL     1     134.909 127.628 137.004  1.00  0.00     0.010 C 
ATOM     26  C   UNL     1     132.932 128.257 135.536  1.00  0.00     0.012 C 
ATOM     27  C   UNL     1     135.741 128.240 134.211  1.00  0.00     0.036 C 
ATOM     28  C   UNL     1     135.455 126.520 136.083  1.00  0.00     0.032 C 
ATOM     29  C   UNL     1     136.378 127.064 134.980  1.00  0.00     0.114 C 
BRANCH  29  30
ATOM     30  O   UNL     1     136.738 126.035 134.092  1.00  0.00    -0.393 OA
ATOM     31  H   UNL     1     137.034 125.257 134.633  1.00  0.00     0.210 HD
ENDBRANCH  29  30
ENDBRANCH   1  11
TORSDOF 6
ENDMDL
MODEL 6
REMARK VINA RESULT:    -6.409      1.756      3.414
REMARK INTER + INTRA:          -9.247
REMARK INTER:                  -9.200
REMARK INTRA:                  -0.048
REMARK UNBOUND:                -0.777
REMARK SMILES CC[C@H](C=C[C@@H](C)[C@H]1CC[C@H]2C3=CC[C@H]4C[C@H](O)CC[C@@]4(C)[C@H]3CC[C@]12C)C(C)C
REMARK SMILES IDX 6 1 7 2 5 3 4 4 3 5 2 6 1 7 28 8 29 9 30 10 8 11 9 12 26 13
REMARK SMILES IDX 10 14 11 15 25 16 27 17 12 18 24 19 23 20 13 21 21 22 14 23
REMARK SMILES IDX 15 24 20 25 22 26 16 27 19 28 17 29 18 30
REMARK H PARENT 18 31
REMARK Flexibility Score: inf
ROOT
ATOM      1  C   UNL     1     134.001 125.585 138.432  1.00  0.00     0.012 C 
ATOM      2  C   UNL     1     134.260 124.077 138.306  1.00  0.00     0.012 C 
ENDROOT
BRANCH   1   3
ATOM      3  C   UNL     1     135.179 126.310 137.816  1.00  0.00    -0.028 C 
ATOM      4  C   UNL     1     135.358 126.372 136.485  1.00  0.00    -0.027 C 
BRANCH   4   5
ATOM      5  C   UNL     1     136.558 127.056 135.854  1.00  0.00     0.014 C 
BRANCH   5   6
ATOM      6  C   UNL     1     137.522 126.009 135.238  1.00  0.00     0.004 C 
ATOM      7  C   UNL     1     136.920 124.603 135.193  1.00  0.00     0.004 C 
ENDBRANCH   5   6
BRANCH   5   8
ATOM      8  C   UNL     1     136.114 128.145 134.824  1.00  0.00    -0.011 C 
ATOM      9  C   UNL     1     135.395 127.514 133.617  1.00  0.00     0.008 C 
ATOM     10  C   UNL     1     135.188 129.201 135.457  1.00  0.00     0.008 C 
ENDBRANCH   5   8
ENDBRANCH   4   5
ENDBRANCH   1   3
BRANCH   1  11
ATOM     11  C   UNL     1     133.821 126.048 139.912  1.00  0.00     0.002 C 
ATOM     12  C   UNL     1     134.961 125.512 140.823  1.00  0.00     0.005 C 
ATOM     13  C   UNL     1     133.797 127.577 140.207  1.00  0.00    -0.023 C 
ATOM     14  C   UNL     1     135.254 126.595 141.870  1.00  0.00     0.009 C 
ATOM     15  C   UNL     1     134.105 127.580 141.708  1.00  0.00     0.021 C 
ATOM     16  C   UNL     1     132.416 128.263 140.036  1.00  0.00     0.008 C 
ATOM     17  C   UNL     1     134.896 128.324 139.386  1.00  0.00     0.012 C 
ATOM     18  C   UNL     1     134.207 128.990 142.257  1.00  0.00    -0.067 C 
ATOM     19  C   UNL     1     132.442 129.719 140.557  1.00  0.00     0.009 C 
ATOM     20  C   UNL     1     132.966 129.858 142.025  1.00  0.00     0.021 C 
ATOM     21  C   UNL     1     135.144 129.317 143.161  1.00  0.00    -0.027 C 
ATOM     22  C   UNL     1     133.074 131.355 142.535  1.00  0.00    -0.023 C 
ATOM     23  C   UNL     1     135.250 130.684 143.750  1.00  0.00     0.031 C 
ATOM     24  C   UNL     1     133.884 131.392 143.876  1.00  0.00     0.002 C 
ATOM     25  C   UNL     1     133.763 132.291 141.495  1.00  0.00     0.010 C 
ATOM     26  C   UNL     1     131.622 131.861 142.795  1.00  0.00     0.012 C 
ATOM     27  C   UNL     1     134.095 132.833 144.405  1.00  0.00     0.036 C 
ATOM     28  C   UNL     1     133.985 133.727 142.010  1.00  0.00     0.032 C 
ATOM     29  C   UNL     1     134.730 133.769 143.355  1.00  0.00     0.114 C 
BRANCH  29  30
ATOM     30  O   UNL     1     134.787 135.086 143.842  1.00  0.00    -0.393 OA
ATOM     31  H   UNL     1     134.162 135.153 144.610  1.00  0.00     0.210 HD
ENDBRANCH  29  30
ENDBRANCH   1  11
TORSDOF 6
ENDMDL
MODEL 7
REMARK VINA RESULT:    -6.379      3.462      7.825
REMARK INTER + INTRA:          -9.207
REMARK INTER:                 -10.047
REMARK INTRA:                   0.839
REMARK UNBOUND:                -0.777
REMARK SMILES CC[C@H](C=C[C@@H](C)[C@H]1CC[C@H]2C3=CC[C@H]4C[C@H](O)CC[C@@]4(C)[C@H]3CC[C@]12C)C(C)C
REMARK SMILES IDX 6 1 7 2 5 3 4 4 3 5 2 6 1 7 28 8 29 9 30 10 8 11 9 12 26 13
REMARK SMILES IDX 10 14 11 15 25 16 27 17 12 18 24 19 23 20 13 21 21 22 14 23
REMARK SMILES IDX 15 24 20 25 22 26 16 27 19 28 17 29 18 30
REMARK H PARENT 18 31
REMARK Flexibility Score: inf
ROOT
ATOM      1  C   UNL     1     133.608 131.421 143.485  1.00  0.00     0.012 C 
ATOM      2  C   UNL     1     134.154 132.691 144.152  1.00  0.00     0.012 C 
ENDROOT
BRANCH   1   3
ATOM      3  C   UNL     1     134.705 130.379 143.505  1.00  0.00    -0.028 C 
ATOM      4  C   UNL     1     134.447 129.079 143.731  1.00  0.00    -0.027 C 
BRANCH   4   5
ATOM      5  C   UNL     1     135.542 128.028 143.800  1.00  0.00     0.014 C 
BRANCH   5   6
ATOM      6  C   UNL     1     136.111 127.925 145.239  1.00  0.00     0.004 C 
ATOM      7  C   UNL     1     137.608 128.237 145.308  1.00  0.00     0.004 C 
ENDBRANCH   5   6
BRANCH   5   8
ATOM      8  C   UNL     1     135.045 126.653 143.249  1.00  0.00    -0.011 C 
ATOM      9  C   UNL     1     135.150 126.595 141.713  1.00  0.00     0.008 C 
ATOM     10  C   UNL     1     135.827 125.469 143.845  1.00  0.00     0.008 C 
ENDBRANCH   5   8
ENDBRANCH   4   5
ENDBRANCH   1   3
BRANCH   1  11
ATOM     11  C   UNL     1     133.143 131.660 142.014  1.00  0.00     0.002 C 
ATOM     12  C   UNL     1     133.657 133.019 141.464  1.00  0.00     0.005 C 
ATOM     13  C   UNL     1     133.578 130.631 140.928  1.00  0.00    -0.023 C 
ATOM     14  C   UNL     1     133.969 132.820 139.975  1.00  0.00     0.009 C 
ATOM     15  C   UNL     1     133.369 131.458 139.655  1.00  0.00     0.021 C 
ATOM     16  C   UNL     1     132.669 129.380 140.799  1.00  0.00     0.008 C 
ATOM     17  C   UNL     1     135.072 130.217 141.115  1.00  0.00     0.012 C 
ATOM     18  C   UNL     1     133.790 130.694 138.415  1.00  0.00    -0.067 C 
ATOM     19  C   UNL     1     133.050 128.533 139.562  1.00  0.00     0.009 C 
ATOM     20  C   UNL     1     133.089 129.346 138.225  1.00  0.00     0.021 C 
ATOM     21  C   UNL     1     134.440 131.305 137.411  1.00  0.00    -0.027 C 
ATOM     22  C   UNL     1     133.560 128.502 136.968  1.00  0.00    -0.023 C 
ATOM     23  C   UNL     1     134.837 130.595 136.160  1.00  0.00     0.031 C 
ATOM     24  C   UNL     1     133.854 129.469 135.771  1.00  0.00     0.002 C 
ATOM     25  C   UNL     1     134.834 127.651 137.264  1.00  0.00     0.010 C 
ATOM     26  C   UNL     1     132.387 127.549 136.586  1.00  0.00     0.012 C 
ATOM     27  C   UNL     1     134.388 128.725 134.522  1.00  0.00     0.036 C 
ATOM     28  C   UNL     1     135.380 126.910 136.028  1.00  0.00     0.032 C 
ATOM     29  C   UNL     1     135.618 127.845 134.830  1.00  0.00     0.114 C 
BRANCH  29  30
ATOM     30  O   UNL     1     135.986 127.101 133.695  1.00  0.00    -0.393 OA
ATOM     31  H   UNL     1     136.563 126.352 133.997  1.00  0.00     0.210 HD
ENDBRANCH  29  30
ENDBRANCH   1  11
TORSDOF 6
ENDMDL
MODEL 8
REMARK VINA RESULT:    -6.291      1.697      3.353
REMARK INTER + INTRA:          -9.091
REMARK INTER:                  -9.071
REMARK INTRA:                  -0.020
REMARK UNBOUND:                -0.777
REMARK SMILES CC[C@H](C=C[C@@H](C)[C@H]1CC[C@H]2C3=CC[C@H]4C[C@H](O)CC[C@@]4(C)[C@H]3CC[C@]12C)C(C)C
REMARK SMILES IDX 6 1 7 2 5 3 4 4 3 5 2 6 1 7 28 8 29 9 30 10 8 11 9 12 26 13
REMARK SMILES IDX 10 14 11 15 25 16 27 17 12 18 24 19 23 20 13 21 21 22 14 23
REMARK SMILES IDX 15 24 20 25 22 26 16 27 19 28 17 29 18 30
REMARK H PARENT 18 31
REMARK Flexibility Score: inf
ROOT
ATOM      1  C   UNL     1     133.973 126.029 137.983  1.00  0.00     0.012 C 
ATOM      2  C   UNL     1     135.008 124.918 137.758  1.00  0.00     0.012 C 
ENDROOT
BRANCH   1   3
ATOM      3  C   UNL     1     134.433 127.253 137.220  1.00  0.00    -0.028 C 
ATOM      4  C   UNL     1     133.679 127.818 136.261  1.00  0.00    -0.027 C 
BRANCH   4   5
ATOM      5  C   UNL     1     134.147 129.018 135.455  1.00  0.00     0.014 C 
BRANCH   5   6
ATOM      6  C   UNL     1     133.903 130.333 136.240  1.00  0.00     0.004 C 
ATOM      7  C   UNL     1     132.424 130.571 136.551  1.00  0.00     0.004 C 
ENDBRANCH   5   6
BRANCH   5   8
ATOM      8  C   UNL     1     135.634 128.853 135.004  1.00  0.00    -0.011 C 
ATOM      9  C   UNL     1     135.733 128.087 133.671  1.00  0.00     0.008 C 
ATOM     10  C   UNL     1     136.351 130.207 134.852  1.00  0.00     0.008 C 
ENDBRANCH   5   8
ENDBRANCH   4   5
ENDBRANCH   1   3
BRANCH   1  11
ATOM     11  C   UNL     1     133.791 126.393 139.490  1.00  0.00     0.002 C 
ATOM     12  C   UNL     1     134.918 125.780 140.368  1.00  0.00     0.005 C 
ATOM     13  C   UNL     1     133.787 127.899 139.889  1.00  0.00    -0.023 C 
ATOM     14  C   UNL     1     135.221 126.785 141.487  1.00  0.00     0.009 C 
ATOM     15  C   UNL     1     134.087 127.795 141.388  1.00  0.00     0.021 C 
ATOM     16  C   UNL     1     132.417 128.615 139.758  1.00  0.00     0.008 C 
ATOM     17  C   UNL     1     134.901 128.684 139.125  1.00  0.00     0.012 C 
ATOM     18  C   UNL     1     134.205 129.163 142.031  1.00  0.00    -0.067 C 
ATOM     19  C   UNL     1     132.461 130.032 140.378  1.00  0.00     0.009 C 
ATOM     20  C   UNL     1     132.978 130.062 141.854  1.00  0.00     0.021 C 
ATOM     21  C   UNL     1     135.142 129.414 142.960  1.00  0.00    -0.027 C 
ATOM     22  C   UNL     1     133.105 131.520 142.465  1.00  0.00    -0.023 C 
ATOM     23  C   UNL     1     135.264 130.736 143.642  1.00  0.00     0.031 C 
ATOM     24  C   UNL     1     133.908 131.453 143.809  1.00  0.00     0.002 C 
ATOM     25  C   UNL     1     133.813 132.515 141.494  1.00  0.00     0.010 C 
ATOM     26  C   UNL     1     131.659 132.027 142.752  1.00  0.00     0.012 C 
ATOM     27  C   UNL     1     134.136 132.852 144.436  1.00  0.00     0.036 C 
ATOM     28  C   UNL     1     134.052 133.908 142.107  1.00  0.00     0.032 C 
ATOM     29  C   UNL     1     134.790 133.847 143.455  1.00  0.00     0.114 C 
BRANCH  29  30
ATOM     30  O   UNL     1     134.863 135.128 144.032  1.00  0.00    -0.393 OA
ATOM     31  H   UNL     1     135.644 135.141 144.645  1.00  0.00     0.210 HD
ENDBRANCH  29  30
ENDBRANCH   1  11
TORSDOF 6
ENDMDL
MODEL 9
REMARK VINA RESULT:    -6.288      3.533      7.641
REMARK INTER + INTRA:          -9.087
REMARK INTER:                  -8.859
REMARK INTRA:                  -0.229
REMARK UNBOUND:                -0.777
REMARK SMILES CC[C@H](C=C[C@@H](C)[C@H]1CC[C@H]2C3=CC[C@H]4C[C@H](O)CC[C@@]4(C)[C@H]3CC[C@]12C)C(C)C
REMARK SMILES IDX 6 1 7 2 5 3 4 4 3 5 2 6 1 7 28 8 29 9 30 10 8 11 9 12 26 13
REMARK SMILES IDX 10 14 11 15 25 16 27 17 12 18 24 19 23 20 13 21 21 22 14 23
REMARK SMILES IDX 15 24 20 25 22 26 16 27 19 28 17 29 18 30
REMARK H PARENT 18 31
REMARK Flexibility Score: inf
ROOT
ATOM      1  C   UNL     1     134.646 125.129 141.901  1.00  0.00     0.012 C 
ATOM      2  C   UNL     1     134.091 123.775 142.362  1.00  0.00     0.012 C 
ENDROOT
BRANCH   1   3
ATOM      3  C   UNL     1     134.735 126.031 143.114  1.00  0.00    -0.028 C 
ATOM      4  C   UNL     1     135.693 126.965 143.236  1.00  0.00    -0.027 C 
BRANCH   4   5
ATOM      5  C   UNL     1     135.823 127.845 144.468  1.00  0.00     0.014 C 
BRANCH   5   6
ATOM      6  C   UNL     1     137.309 127.977 144.892  1.00  0.00     0.004 C 
ATOM      7  C   UNL     1     138.147 126.758 144.498  1.00  0.00     0.004 C 
ENDBRANCH   5   6
BRANCH   5   8
ATOM      8  C   UNL     1     135.133 129.231 144.250  1.00  0.00    -0.011 C 
ATOM      9  C   UNL     1     136.024 130.175 143.421  1.00  0.00     0.008 C 
ATOM     10  C   UNL     1     133.767 129.098 143.553  1.00  0.00     0.008 C 
ENDBRANCH   5   8
ENDBRANCH   4   5
ENDBRANCH   1   3
BRANCH   1  11
ATOM     11  C   UNL     1     133.760 125.809 140.810  1.00  0.00     0.002 C 
ATOM     12  C   UNL     1     132.614 126.647 141.443  1.00  0.00     0.005 C 
ATOM     13  C   UNL     1     134.441 126.800 139.820  1.00  0.00    -0.023 C 
ATOM     14  C   UNL     1     132.402 127.877 140.550  1.00  0.00     0.009 C 
ATOM     15  C   UNL     1     133.221 127.570 139.305  1.00  0.00     0.021 C 
ATOM     16  C   UNL     1     135.110 126.146 138.582  1.00  0.00     0.008 C 
ATOM     17  C   UNL     1     135.446 127.735 140.566  1.00  0.00     0.012 C 
ATOM     18  C   UNL     1     133.618 128.673 138.344  1.00  0.00    -0.067 C 
ATOM     19  C   UNL     1     135.563 127.213 137.558  1.00  0.00     0.009 C 
ATOM     20  C   UNL     1     134.430 128.205 137.132  1.00  0.00     0.021 C 
ATOM     21  C   UNL     1     133.011 129.870 138.373  1.00  0.00    -0.027 C 
ATOM     22  C   UNL     1     134.910 129.351 136.147  1.00  0.00    -0.023 C 
ATOM     23  C   UNL     1     133.350 130.967 137.419  1.00  0.00     0.031 C 
ATOM     24  C   UNL     1     133.793 130.444 136.036  1.00  0.00     0.002 C 
ATOM     25  C   UNL     1     136.238 130.023 136.615  1.00  0.00     0.010 C 
ATOM     26  C   UNL     1     135.133 128.696 134.750  1.00  0.00     0.012 C 
ATOM     27  C   UNL     1     134.215 131.637 135.142  1.00  0.00     0.036 C 
ATOM     28  C   UNL     1     136.667 131.216 135.739  1.00  0.00     0.032 C 
ATOM     29  C   UNL     1     135.555 132.266 135.578  1.00  0.00     0.114 C 
BRANCH  29  30
ATOM     30  O   UNL     1     135.950 133.261 134.666  1.00  0.00    -0.393 OA
ATOM     31  H   UNL     1     136.768 132.941 134.203  1.00  0.00     0.210 HD
ENDBRANCH  29  30
ENDBRANCH   1  11
TORSDOF 6
ENDMDL
