MODEL 1
REMARK VINA RESULT:    -5.229      0.000      0.000
REMARK INTER + INTRA:          -8.132
REMARK INTER:                  -7.062
REMARK INTRA:                  -1.069
REMARK UNBOUND:                -1.069
REMARK SMILES C=CC(C)=CCC=C(C)CCC=C(C)C
REMARK SMILES IDX 8 1 7 2 9 3 10 4 11 5 12 6 14 7 13 8 15 9 6 10 5 11 3 12
REMARK SMILES IDX 4 13 2 14 1 15
REMARK H PARENT
REMARK Flexibility Score: inf
ROOT
ATOM      1  C   UNL     1      11.213   5.729  27.003  1.00  0.00    -0.077 C 
ATOM      2  C   UNL     1      10.999   6.882  26.334  1.00  0.00    -0.024 C 
ATOM      3  C   UNL     1      12.489   5.491  27.775  1.00  0.00     0.039 C 
ENDROOT
BRANCH   1   4
ATOM      4  C   UNL     1      10.147   4.656  26.978  1.00  0.00     0.034 C 
BRANCH   4   5
ATOM      5  C   UNL     1       9.603   4.398  28.388  1.00  0.00     0.032 C 
BRANCH   5   6
ATOM      6  C   UNL     1       9.091   5.675  29.006  1.00  0.00    -0.028 C 
ATOM      7  C   UNL     1      10.438   5.385  31.098  1.00  0.00     0.039 C 
ATOM      8  C   UNL     1       9.440   6.118  30.235  1.00  0.00    -0.080 C 
ATOM      9  C   UNL     1       8.841   7.391  30.773  1.00  0.00     0.039 C 
ENDBRANCH   5   6
ENDBRANCH   4   5
ENDBRANCH   1   4
BRANCH   2  10
ATOM     10  C   UNL     1      12.008   8.004  26.277  1.00  0.00     0.055 C 
BRANCH  10  11
ATOM     11  C   UNL     1      12.705   8.050  24.942  1.00  0.00    -0.020 C 
ATOM     12  C   UNL     1      14.039   7.955  24.764  1.00  0.00    -0.055 C 
ATOM     13  C   UNL     1      14.993   7.775  25.925  1.00  0.00     0.044 C 
BRANCH  12  14
ATOM     14  C   UNL     1      14.555   7.962  23.371  1.00  0.00    -0.005 C 
ATOM     15  C   UNL     1      14.006   8.671  22.384  1.00  0.00     0.009 C 
ENDBRANCH  12  14
ENDBRANCH  10  11
ENDBRANCH   2  10
TORSDOF 6
ENDMDL
MODEL 2
REMARK VINA RESULT:    -5.185      1.426      2.837
REMARK INTER + INTRA:          -8.073
REMARK INTER:                  -6.885
REMARK INTRA:                  -1.188
REMARK UNBOUND:                -1.069
REMARK SMILES C=CC(C)=CCC=C(C)CCC=C(C)C
REMARK SMILES IDX 8 1 7 2 9 3 10 4 11 5 12 6 14 7 13 8 15 9 6 10 5 11 3 12
REMARK SMILES IDX 4 13 2 14 1 15
REMARK H PARENT
REMARK Flexibility Score: inf
ROOT
ATOM      1  C   UNL     1      11.310   7.579  26.618  1.00  0.00    -0.077 C 
ATOM      2  C   UNL     1      12.492   7.000  26.921  1.00  0.00    -0.024 C 
ATOM      3  C   UNL     1      10.882   7.794  25.186  1.00  0.00     0.039 C 
ENDROOT
BRANCH   1   4
ATOM      4  C   UNL     1      10.398   8.018  27.741  1.00  0.00     0.034 C 
BRANCH   4   5
ATOM      5  C   UNL     1       9.237   7.032  27.914  1.00  0.00     0.032 C 
BRANCH   5   6
ATOM      6  C   UNL     1       9.534   6.042  29.013  1.00  0.00    -0.028 C 
ATOM      7  C   UNL     1       9.861   4.137  27.420  1.00  0.00     0.039 C 
ATOM      8  C   UNL     1       9.793   4.732  28.805  1.00  0.00    -0.080 C 
ATOM      9  C   UNL     1      10.043   3.820  29.979  1.00  0.00     0.039 C 
ENDBRANCH   5   6
ENDBRANCH   4   5
ENDBRANCH   1   4
BRANCH   2  10
ATOM     10  C   UNL     1      13.484   6.548  25.876  1.00  0.00     0.055 C 
BRANCH  10  11
ATOM     11  C   UNL     1      14.688   7.452  25.833  1.00  0.00    -0.020 C 
ATOM     12  C   UNL     1      15.066   8.184  24.764  1.00  0.00    -0.055 C 
ATOM     13  C   UNL     1      14.284   8.177  23.469  1.00  0.00     0.044 C 
BRANCH  12  14
ATOM     14  C   UNL     1      16.251   9.068  24.914  1.00  0.00    -0.005 C 
ATOM     15  C   UNL     1      16.900   9.245  26.065  1.00  0.00     0.009 C 
ENDBRANCH  12  14
ENDBRANCH  10  11
ENDBRANCH   2  10
TORSDOF 6
ENDMDL
MODEL 3
REMARK VINA RESULT:    -5.129      1.466      6.941
REMARK INTER + INTRA:          -7.997
REMARK INTER:                  -7.317
REMARK INTRA:                  -0.680
REMARK UNBOUND:                -1.069
REMARK SMILES C=CC(C)=CCC=C(C)CCC=C(C)C
REMARK SMILES IDX 8 1 7 2 9 3 10 4 11 5 12 6 14 7 13 8 15 9 6 10 5 11 3 12
REMARK SMILES IDX 4 13 2 14 1 15
REMARK H PARENT
REMARK Flexibility Score: inf
ROOT
ATOM      1  C   UNL     1      12.688   6.773  26.370  1.00  0.00    -0.077 C 
ATOM      2  C   UNL     1      11.363   6.540  26.255  1.00  0.00    -0.024 C 
ATOM      3  C   UNL     1      13.544   5.993  27.340  1.00  0.00     0.039 C 
ENDROOT
BRANCH   1   4
ATOM      4  C   UNL     1      13.324   7.838  25.506  1.00  0.00     0.034 C 
BRANCH   4   5
ATOM      5  C   UNL     1      14.523   7.269  24.738  1.00  0.00     0.032 C 
BRANCH   5   6
ATOM      6  C   UNL     1      15.405   8.379  24.223  1.00  0.00    -0.028 C 
ATOM      7  C   UNL     1      16.655   8.596  26.382  1.00  0.00     0.039 C 
ATOM      8  C   UNL     1      16.351   9.001  24.961  1.00  0.00    -0.080 C 
ATOM      9  C   UNL     1      17.155  10.125  24.359  1.00  0.00     0.039 C 
ENDBRANCH   5   6
ENDBRANCH   4   5
ENDBRANCH   1   4
BRANCH   2  10
ATOM     10  C   UNL     1      10.628   5.516  27.088  1.00  0.00     0.055 C 
BRANCH  10  11
ATOM     11  C   UNL     1      10.048   6.135  28.333  1.00  0.00    -0.020 C 
ATOM     12  C   UNL     1       9.803   5.472  29.482  1.00  0.00    -0.055 C 
ATOM     13  C   UNL     1      10.113   3.998  29.641  1.00  0.00     0.044 C 
BRANCH  12  14
ATOM     14  C   UNL     1       9.280   6.250  30.634  1.00  0.00    -0.005 C 
ATOM     15  C   UNL     1       9.006   7.554  30.580  1.00  0.00     0.009 C 
ENDBRANCH  12  14
ENDBRANCH  10  11
ENDBRANCH   2  10
TORSDOF 6
ENDMDL
MODEL 4
REMARK VINA RESULT:    -5.080      1.316      2.260
REMARK INTER + INTRA:          -7.931
REMARK INTER:                  -6.760
REMARK INTRA:                  -1.171
REMARK UNBOUND:                -1.069
REMARK SMILES C=CC(C)=CCC=C(C)CCC=C(C)C
REMARK SMILES IDX 8 1 7 2 9 3 10 4 11 5 12 6 14 7 13 8 15 9 6 10 5 11 3 12
REMARK SMILES IDX 4 13 2 14 1 15
REMARK H PARENT
REMARK Flexibility Score: inf
ROOT
ATOM      1  C   UNL     1      11.464   7.378  26.573  1.00  0.00    -0.077 C 
ATOM      2  C   UNL     1      11.226   7.598  25.262  1.00  0.00    -0.024 C 
ATOM      3  C   UNL     1      12.664   6.586  27.034  1.00  0.00     0.039 C 
ENDROOT
BRANCH   1   4
ATOM      4  C   UNL     1      10.505   7.941  27.598  1.00  0.00     0.034 C 
BRANCH   4   5
ATOM      5  C   UNL     1       9.320   6.992  27.811  1.00  0.00     0.032 C 
BRANCH   5   6
ATOM      6  C   UNL     1       9.601   6.030  28.939  1.00  0.00    -0.028 C 
ATOM      7  C   UNL     1       9.848   4.064  27.406  1.00  0.00     0.039 C 
ATOM      8  C   UNL     1       9.815   4.706  28.771  1.00  0.00    -0.080 C 
ATOM      9  C   UNL     1      10.051   3.826  29.972  1.00  0.00     0.039 C 
ENDBRANCH   5   6
ENDBRANCH   4   5
ENDBRANCH   1   4
BRANCH   2  10
ATOM     10  C   UNL     1      12.107   7.060  24.160  1.00  0.00     0.055 C 
BRANCH  10  11
ATOM     11  C   UNL     1      12.853   8.167  23.462  1.00  0.00    -0.020 C 
ATOM     12  C   UNL     1      14.178   8.396  23.573  1.00  0.00    -0.055 C 
ATOM     13  C   UNL     1      15.074   7.524  24.427  1.00  0.00     0.044 C 
BRANCH  12  14
ATOM     14  C   UNL     1      14.761   9.499  22.768  1.00  0.00    -0.005 C 
ATOM     15  C   UNL     1      14.277   9.889  21.589  1.00  0.00     0.009 C 
ENDBRANCH  12  14
ENDBRANCH  10  11
ENDBRANCH   2  10
TORSDOF 6
ENDMDL
MODEL 5
REMARK VINA RESULT:    -5.072      1.284      6.814
REMARK INTER + INTRA:          -7.921
REMARK INTER:                  -6.788
REMARK INTRA:                  -1.133
REMARK UNBOUND:                -1.069
REMARK SMILES C=CC(C)=CCC=C(C)CCC=C(C)C
REMARK SMILES IDX 8 1 7 2 9 3 10 4 11 5 12 6 14 7 13 8 15 9 6 10 5 11 3 12
REMARK SMILES IDX 4 13 2 14 1 15
REMARK H PARENT
REMARK Flexibility Score: inf
ROOT
ATOM      1  C   UNL     1      13.290   6.521  26.147  1.00  0.00    -0.077 C 
ATOM      2  C   UNL     1      12.089   7.034  26.491  1.00  0.00    -0.024 C 
ATOM      3  C   UNL     1      13.457   5.056  25.819  1.00  0.00     0.039 C 
ENDROOT
BRANCH   1   4
ATOM      4  C   UNL     1      14.491   7.438  26.088  1.00  0.00     0.034 C 
BRANCH   4   5
ATOM      5  C   UNL     1      14.192   8.669  25.226  1.00  0.00     0.032 C 
BRANCH   5   6
ATOM      6  C   UNL     1      14.290   8.332  23.758  1.00  0.00    -0.028 C 
ATOM      7  C   UNL     1      11.885   8.874  23.315  1.00  0.00     0.039 C 
ATOM      8  C   UNL     1      13.253   8.397  22.893  1.00  0.00    -0.080 C 
ATOM      9  C   UNL     1      13.452   8.002  21.452  1.00  0.00     0.039 C 
ENDBRANCH   5   6
ENDBRANCH   4   5
ENDBRANCH   1   4
BRANCH   2  10
ATOM     10  C   UNL     1      10.835   6.200  26.602  1.00  0.00     0.055 C 
BRANCH  10  11
ATOM     11  C   UNL     1      10.613   5.726  28.014  1.00  0.00    -0.020 C 
ATOM     12  C   UNL     1      10.129   4.513  28.355  1.00  0.00    -0.055 C 
ATOM     13  C   UNL     1       9.763   3.475  27.316  1.00  0.00     0.044 C 
BRANCH  12  14
ATOM     14  C   UNL     1      10.026   4.189  29.801  1.00  0.00    -0.005 C 
ATOM     15  C   UNL     1       9.659   5.070  30.731  1.00  0.00     0.009 C 
ENDBRANCH  12  14
ENDBRANCH  10  11
ENDBRANCH   2  10
TORSDOF 6
ENDMDL
MODEL 6
REMARK VINA RESULT:    -5.040     12.251     14.940
REMARK INTER + INTRA:          -7.878
REMARK INTER:                  -6.829
REMARK INTRA:                  -1.049
REMARK UNBOUND:                -1.069
REMARK SMILES C=CC(C)=CCC=C(C)CCC=C(C)C
REMARK SMILES IDX 8 1 7 2 9 3 10 4 11 5 12 6 14 7 13 8 15 9 6 10 5 11 3 12
REMARK SMILES IDX 4 13 2 14 1 15
REMARK H PARENT
REMARK Flexibility Score: inf
ROOT
ATOM      1  C   UNL     1       5.802   6.693  15.000  1.00  0.00    -0.077 C 
ATOM      2  C   UNL     1       6.032   7.726  15.838  1.00  0.00    -0.024 C 
ATOM      3  C   UNL     1       4.607   6.677  14.077  1.00  0.00     0.039 C 
ENDROOT
BRANCH   1   4
ATOM      4  C   UNL     1       6.767   5.529  14.988  1.00  0.00     0.034 C 
BRANCH   4   5
ATOM      5  C   UNL     1       7.465   5.417  13.628  1.00  0.00     0.032 C 
BRANCH   5   6
ATOM      6  C   UNL     1       8.143   6.715  13.265  1.00  0.00    -0.028 C 
ATOM      7  C   UNL     1       6.744   7.052  11.215  1.00  0.00     0.039 C 
ATOM      8  C   UNL     1       7.844   7.448  12.169  1.00  0.00    -0.080 C 
ATOM      9  C   UNL     1       8.608   8.714  11.881  1.00  0.00     0.039 C 
ENDBRANCH   5   6
ENDBRANCH   4   5
ENDBRANCH   1   4
BRANCH   2  10
ATOM     10  C   UNL     1       5.118   8.924  15.944  1.00  0.00     0.055 C 
BRANCH  10  11
ATOM     11  C   UNL     1       4.235   8.835  17.161  1.00  0.00    -0.020 C 
ATOM     12  C   UNL     1       2.891   8.716  17.133  1.00  0.00    -0.055 C 
ATOM     13  C   UNL     1       2.119   8.643  15.834  1.00  0.00     0.044 C 
BRANCH  12  14
ATOM     14  C   UNL     1       2.180   8.585  18.431  1.00  0.00    -0.005 C 
ATOM     15  C   UNL     1       2.557   9.211  19.546  1.00  0.00     0.009 C 
ENDBRANCH  12  14
ENDBRANCH  10  11
ENDBRANCH   2  10
TORSDOF 6
ENDMDL
MODEL 7
REMARK VINA RESULT:    -5.040     12.396     15.292
REMARK INTER + INTRA:          -7.876
REMARK INTER:                  -7.031
REMARK INTRA:                  -0.846
REMARK UNBOUND:                -1.069
REMARK SMILES C=CC(C)=CCC=C(C)CCC=C(C)C
REMARK SMILES IDX 8 1 7 2 9 3 10 4 11 5 12 6 14 7 13 8 15 9 6 10 5 11 3 12
REMARK SMILES IDX 4 13 2 14 1 15
REMARK H PARENT
REMARK Flexibility Score: inf
ROOT
ATOM      1  C   UNL     1       4.335   7.362  15.034  1.00  0.00    -0.077 C 
ATOM      2  C   UNL     1       3.314   8.239  15.149  1.00  0.00    -0.024 C 
ATOM      3  C   UNL     1       5.273   7.091  16.186  1.00  0.00     0.039 C 
ENDROOT
BRANCH   1   4
ATOM      4  C   UNL     1       4.537   6.638  13.723  1.00  0.00     0.034 C 
BRANCH   4   5
ATOM      5  C   UNL     1       5.990   6.172  13.579  1.00  0.00     0.032 C 
BRANCH   5   6
ATOM      6  C   UNL     1       6.759   7.091  12.662  1.00  0.00    -0.028 C 
ATOM      7  C   UNL     1       8.486   7.628  14.395  1.00  0.00     0.039 C 
ATOM      8  C   UNL     1       7.870   7.771  13.025  1.00  0.00    -0.080 C 
ATOM      9  C   UNL     1       8.542   8.692  12.040  1.00  0.00     0.039 C 
ENDBRANCH   5   6
ENDBRANCH   4   5
ENDBRANCH   1   4
BRANCH   2  10
ATOM     10  C   UNL     1       3.041   9.031  16.406  1.00  0.00     0.055 C 
BRANCH  10  11
ATOM     11  C   UNL     1       1.610   8.879  16.852  1.00  0.00    -0.020 C 
ATOM     12  C   UNL     1       1.217   8.646  18.122  1.00  0.00    -0.055 C 
ATOM     13  C   UNL     1       2.209   8.526  19.259  1.00  0.00     0.044 C 
BRANCH  12  14
ATOM     14  C   UNL     1      -0.241   8.579  18.395  1.00  0.00    -0.005 C 
ATOM     15  C   UNL     1      -1.086   9.579  18.143  1.00  0.00     0.009 C 
ENDBRANCH  12  14
ENDBRANCH  10  11
ENDBRANCH   2  10
TORSDOF 6
ENDMDL
MODEL 8
REMARK VINA RESULT:    -4.973      1.733      2.840
REMARK INTER + INTRA:          -7.786
REMARK INTER:                  -6.925
REMARK INTRA:                  -0.861
REMARK UNBOUND:                -1.069
REMARK SMILES C=CC(C)=CCC=C(C)CCC=C(C)C
REMARK SMILES IDX 8 1 7 2 9 3 10 4 11 5 12 6 14 7 13 8 15 9 6 10 5 11 3 12
REMARK SMILES IDX 4 13 2 14 1 15
REMARK H PARENT
REMARK Flexibility Score: inf
ROOT
ATOM      1  C   UNL     1      11.854   7.889  26.239  1.00  0.00    -0.077 C 
ATOM      2  C   UNL     1      12.102   8.888  25.364  1.00  0.00    -0.024 C 
ATOM      3  C   UNL     1      12.521   6.541  26.106  1.00  0.00     0.039 C 
ENDROOT
BRANCH   1   4
ATOM      4  C   UNL     1      10.889   8.133  27.377  1.00  0.00     0.034 C 
BRANCH   4   5
ATOM      5  C   UNL     1       9.810   7.044  27.415  1.00  0.00     0.032 C 
BRANCH   5   6
ATOM      6  C   UNL     1       9.948   6.197  28.655  1.00  0.00    -0.028 C 
ATOM      7  C   UNL     1       9.734   4.043  27.393  1.00  0.00     0.039 C 
ATOM      8  C   UNL     1       9.891   4.846  28.661  1.00  0.00    -0.080 C 
ATOM      9  C   UNL     1      10.005   4.096  29.964  1.00  0.00     0.039 C 
ENDBRANCH   5   6
ENDBRANCH   4   5
ENDBRANCH   1   4
BRANCH   2  10
ATOM     10  C   UNL     1      13.029   8.739  24.181  1.00  0.00     0.055 C 
BRANCH  10  11
ATOM     11  C   UNL     1      14.310   9.504  24.387  1.00  0.00    -0.020 C 
ATOM     12  C   UNL     1      15.548   8.975  24.303  1.00  0.00    -0.055 C 
ATOM     13  C   UNL     1      15.776   7.516  23.967  1.00  0.00     0.044 C 
BRANCH  12  14
ATOM     14  C   UNL     1      16.707   9.887  24.480  1.00  0.00    -0.005 C 
ATOM     15  C   UNL     1      17.951   9.466  24.707  1.00  0.00     0.009 C 
ENDBRANCH  12  14
ENDBRANCH  10  11
ENDBRANCH   2  10
TORSDOF 6
ENDMDL
MODEL 9
REMARK VINA RESULT:    -4.925     11.988     15.119
REMARK INTER + INTRA:          -7.721
REMARK INTER:                  -6.518
REMARK INTRA:                  -1.204
REMARK UNBOUND:                -1.069
REMARK SMILES C=CC(C)=CCC=C(C)CCC=C(C)C
REMARK SMILES IDX 8 1 7 2 9 3 10 4 11 5 12 6 14 7 13 8 15 9 6 10 5 11 3 12
REMARK SMILES IDX 4 13 2 14 1 15
REMARK H PARENT
REMARK Flexibility Score: inf
ROOT
ATOM      1  C   UNL     1       6.241   8.300  15.139  1.00  0.00    -0.077 C 
ATOM      2  C   UNL     1       4.988   8.010  14.726  1.00  0.00    -0.024 C 
ATOM      3  C   UNL     1       6.746   7.860  16.492  1.00  0.00     0.039 C 
ENDROOT
BRANCH   1   4
ATOM      4  C   UNL     1       7.154   9.080  14.221  1.00  0.00     0.034 C 
BRANCH   4   5
ATOM      5  C   UNL     1       8.197   8.157  13.580  1.00  0.00     0.032 C 
BRANCH   5   6
ATOM      6  C   UNL     1       7.650   7.521  12.327  1.00  0.00    -0.028 C 
ATOM      7  C   UNL     1       7.455   5.255  13.377  1.00  0.00     0.039 C 
ATOM      8  C   UNL     1       7.335   6.210  12.215  1.00  0.00    -0.080 C 
ATOM      9  C   UNL     1       6.829   5.669  10.903  1.00  0.00     0.039 C 
ENDBRANCH   5   6
ENDBRANCH   4   5
ENDBRANCH   1   4
BRANCH   2  10
ATOM     10  C   UNL     1       3.991   7.258  15.575  1.00  0.00     0.055 C 
BRANCH  10  11
ATOM     11  C   UNL     1       2.832   8.135  15.969  1.00  0.00    -0.020 C 
ATOM     12  C   UNL     1       2.611   8.611  17.212  1.00  0.00    -0.055 C 
ATOM     13  C   UNL     1       3.546   8.311  18.364  1.00  0.00     0.044 C 
BRANCH  12  14
ATOM     14  C   UNL     1       1.447   9.511  17.414  1.00  0.00    -0.005 C 
ATOM     15  C   UNL     1       0.237   9.084  17.777  1.00  0.00     0.009 C 
ENDBRANCH  12  14
ENDBRANCH  10  11
ENDBRANCH   2  10
TORSDOF 6
ENDMDL
