MODEL 1
REMARK VINA RESULT:    -5.493      0.000      0.000
REMARK INTER + INTRA:          -6.860
REMARK INTER:                  -6.777
REMARK INTRA:                  -0.082
REMARK UNBOUND:                -0.082
REMARK SMILES O=c1c(O)c(-c2cc(O)c(O)c(O)c2)oc2cc(O)cc(O)c12
REMARK SMILES IDX 5 1 3 2 2 3 1 4 23 5 21 6 20 7 18 8 17 9 16 10 15 11 6 12
REMARK SMILES IDX 7 13 8 14 14 15 10 16 12 17 9 18 11 20 13 22 4 24 22 26
REMARK SMILES IDX 19 28
REMARK H PARENT 9 19 11 21 13 23 4 25 22 27 19 29
REMARK Flexibility Score: inf
ROOT
ATOM      1  C   UNL     1      -6.480  -4.957   1.183  1.00  0.00     0.180 A 
ATOM      2  C   UNL     1      -6.806  -6.106   1.926  1.00  0.00     0.208 A 
ATOM      3  C   UNL     1      -8.116  -6.606   1.866  1.00  0.00     0.238 A 
ATOM      4  O   UNL     1      -8.388  -7.665   2.490  1.00  0.00    -0.285 OA
ATOM      5  C   UNL     1      -9.089  -5.942   1.078  1.00  0.00     0.111 A 
ATOM      6  C   UNL     1     -10.456  -6.338   0.978  1.00  0.00     0.134 A 
ATOM      7  C   UNL     1     -11.297  -5.686   0.067  1.00  0.00     0.093 A 
ATOM      8  C   UNL     1     -10.837  -4.611  -0.697  1.00  0.00     0.123 A 
ATOM      9  C   UNL     1      -9.520  -4.180  -0.561  1.00  0.00     0.094 A 
ATOM     10  C   UNL     1      -8.646  -4.833   0.312  1.00  0.00     0.146 A 
ATOM     11  O   UNL     1      -7.396  -4.396   0.403  1.00  0.00    -0.452 OA
ENDROOT
BRANCH   1  12
ATOM     12  C   UNL     1      -5.126  -4.357   1.215  1.00  0.00     0.029 A 
ATOM     13  C   UNL     1      -3.987  -5.109   0.896  1.00  0.00     0.062 A 
ATOM     14  C   UNL     1      -2.713  -4.534   0.954  1.00  0.00     0.162 A 
ATOM     15  C   UNL     1      -4.971  -3.026   1.628  1.00  0.00     0.062 A 
ATOM     16  C   UNL     1      -2.560  -3.191   1.345  1.00  0.00     0.200 A 
ATOM     17  C   UNL     1      -3.705  -2.433   1.690  1.00  0.00     0.162 A 
BRANCH  14  18
ATOM     18  O   UNL     1      -1.609  -5.318   0.622  1.00  0.00    -0.504 OA
ATOM     19  H   UNL     1      -0.779  -5.358   1.202  1.00  0.00     0.293 HD
ENDBRANCH  14  18
BRANCH  16  20
ATOM     20  O   UNL     1      -1.271  -2.652   1.381  1.00  0.00    -0.502 OA
ATOM     21  H   UNL     1      -0.772  -2.321   0.570  1.00  0.00     0.293 HD
ENDBRANCH  16  20
BRANCH  17  22
ATOM     22  O   UNL     1      -3.633  -1.100   2.099  1.00  0.00    -0.504 OA
ATOM     23  H   UNL     1      -2.780  -0.637   2.376  1.00  0.00     0.293 HD
ENDBRANCH  17  22
ENDBRANCH   1  12
BRANCH   2  24
ATOM     24  O   UNL     1      -5.826  -6.757   2.679  1.00  0.00    -0.502 OA
ATOM     25  H   UNL     1      -5.412  -6.346   3.507  1.00  0.00     0.293 HD
ENDBRANCH   2  24
BRANCH   6  26
ATOM     26  O   UNL     1     -11.040  -7.338   1.761  1.00  0.00    -0.507 OA
ATOM     27  H   UNL     1     -11.583  -8.108   1.398  1.00  0.00     0.293 HD
ENDBRANCH   6  26
BRANCH   8  28
ATOM     28  O   UNL     1     -11.685  -3.958  -1.589  1.00  0.00    -0.508 OA
ATOM     29  H   UNL     1     -11.477  -3.910  -2.579  1.00  0.00     0.293 HD
ENDBRANCH   8  28
TORSDOF 7
ENDMDL
MODEL 2
REMARK VINA RESULT:    -5.321     10.997     13.978
REMARK INTER + INTRA:          -6.648
REMARK INTER:                  -6.281
REMARK INTRA:                  -0.367
REMARK UNBOUND:                -0.082
REMARK SMILES O=c1c(O)c(-c2cc(O)c(O)c(O)c2)oc2cc(O)cc(O)c12
REMARK SMILES IDX 5 1 3 2 2 3 1 4 23 5 21 6 20 7 18 8 17 9 16 10 15 11 6 12
REMARK SMILES IDX 7 13 8 14 14 15 10 16 12 17 9 18 11 20 13 22 4 24 22 26
REMARK SMILES IDX 19 28
REMARK H PARENT 9 19 11 21 13 23 4 25 22 27 19 29
REMARK Flexibility Score: inf
ROOT
ATOM      1  C   UNL     1       2.928   0.109   7.322  1.00  0.00     0.180 A 
ATOM      2  C   UNL     1       3.720   0.324   8.463  1.00  0.00     0.208 A 
ATOM      3  C   UNL     1       4.891  -0.432   8.631  1.00  0.00     0.238 A 
ATOM      4  O   UNL     1       5.625  -0.197   9.628  1.00  0.00    -0.285 OA
ATOM      5  C   UNL     1       5.246  -1.406   7.666  1.00  0.00     0.111 A 
ATOM      6  C   UNL     1       6.388  -2.257   7.757  1.00  0.00     0.134 A 
ATOM      7  C   UNL     1       6.713  -3.093   6.680  1.00  0.00     0.093 A 
ATOM      8  C   UNL     1       5.901  -3.155   5.546  1.00  0.00     0.123 A 
ATOM      9  C   UNL     1       4.751  -2.371   5.475  1.00  0.00     0.094 A 
ATOM     10  C   UNL     1       4.421  -1.501   6.517  1.00  0.00     0.146 A 
ATOM     11  O   UNL     1       3.322  -0.764   6.403  1.00  0.00    -0.452 OA
ENDROOT
BRANCH   1  12
ATOM     12  C   UNL     1       1.667   0.850   7.087  1.00  0.00     0.029 A 
ATOM     13  C   UNL     1       0.448   0.399   7.612  1.00  0.00     0.062 A 
ATOM     14  C   UNL     1      -0.738   1.098   7.362  1.00  0.00     0.162 A 
ATOM     15  C   UNL     1       1.680   1.994   6.277  1.00  0.00     0.062 A 
ATOM     16  C   UNL     1      -0.721   2.260   6.568  1.00  0.00     0.200 A 
ATOM     17  C   UNL     1       0.504   2.707   6.017  1.00  0.00     0.162 A 
BRANCH  14  18
ATOM     18  O   UNL     1      -1.926   0.616   7.909  1.00  0.00    -0.504 OA
ATOM     19  H   UNL     1      -1.949   0.084   8.771  1.00  0.00     0.293 HD
ENDBRANCH  14  18
BRANCH  16  20
ATOM     20  O   UNL     1      -1.926   2.933   6.350  1.00  0.00    -0.502 OA
ATOM     21  H   UNL     1      -2.326   3.099   5.439  1.00  0.00     0.293 HD
ENDBRANCH  16  20
BRANCH  17  22
ATOM     22  O   UNL     1       0.600   3.843   5.211  1.00  0.00    -0.504 OA
ATOM     23  H   UNL     1       0.087   4.697   5.373  1.00  0.00     0.293 HD
ENDBRANCH  17  22
ENDBRANCH   1  12
BRANCH   2  24
ATOM     24  O   UNL     1       3.364   1.305   9.392  1.00  0.00    -0.502 OA
ATOM     25  H   UNL     1       3.439   1.161  10.392  1.00  0.00     0.293 HD
ENDBRANCH   2  24
BRANCH   6  26
ATOM     26  O   UNL     1       7.213  -2.341   8.882  1.00  0.00    -0.507 OA
ATOM     27  H   UNL     1       8.191  -2.591   8.860  1.00  0.00     0.293 HD
ENDBRANCH   6  26
BRANCH   8  28
ATOM     28  O   UNL     1       6.223  -4.000   4.487  1.00  0.00    -0.508 OA
ATOM     29  H   UNL     1       7.087  -4.529   4.474  1.00  0.00     0.293 HD
ENDBRANCH   8  28
TORSDOF 7
ENDMDL
MODEL 3
REMARK VINA RESULT:    -5.259     11.486     14.493
REMARK INTER + INTRA:          -6.571
REMARK INTER:                  -6.224
REMARK INTRA:                  -0.348
REMARK UNBOUND:                -0.082
REMARK SMILES O=c1c(O)c(-c2cc(O)c(O)c(O)c2)oc2cc(O)cc(O)c12
REMARK SMILES IDX 5 1 3 2 2 3 1 4 23 5 21 6 20 7 18 8 17 9 16 10 15 11 6 12
REMARK SMILES IDX 7 13 8 14 14 15 10 16 12 17 9 18 11 20 13 22 4 24 22 26
REMARK SMILES IDX 19 28
REMARK H PARENT 9 19 11 21 13 23 4 25 22 27 19 29
REMARK Flexibility Score: inf
ROOT
ATOM      1  C   UNL     1      -4.413   7.890   1.420  1.00  0.00     0.180 A 
ATOM      2  C   UNL     1      -3.500   8.652   2.169  1.00  0.00     0.208 A 
ATOM      3  C   UNL     1      -2.242   8.943   1.617  1.00  0.00     0.238 A 
ATOM      4  O   UNL     1      -1.449   9.671   2.270  1.00  0.00    -0.285 OA
ATOM      5  C   UNL     1      -1.906   8.453   0.331  1.00  0.00     0.111 A 
ATOM      6  C   UNL     1      -0.646   8.653  -0.308  1.00  0.00     0.134 A 
ATOM      7  C   UNL     1      -0.471   8.236  -1.634  1.00  0.00     0.093 A 
ATOM      8  C   UNL     1      -1.488   7.569  -2.319  1.00  0.00     0.123 A 
ATOM      9  C   UNL     1      -2.702   7.317  -1.683  1.00  0.00     0.094 A 
ATOM     10  C   UNL     1      -2.919   7.753  -0.374  1.00  0.00     0.146 A 
ATOM     11  O   UNL     1      -4.094   7.502   0.191  1.00  0.00    -0.452 OA
ENDROOT
BRANCH   1  12
ATOM     12  C   UNL     1      -5.749   7.522   1.945  1.00  0.00     0.029 A 
ATOM     13  C   UNL     1      -5.915   6.444   2.826  1.00  0.00     0.062 A 
ATOM     14  C   UNL     1      -7.186   6.095   3.294  1.00  0.00     0.162 A 
ATOM     15  C   UNL     1      -6.879   8.227   1.509  1.00  0.00     0.062 A 
ATOM     16  C   UNL     1      -8.318   6.819   2.875  1.00  0.00     0.200 A 
ATOM     17  C   UNL     1      -8.159   7.894   1.968  1.00  0.00     0.162 A 
BRANCH  14  18
ATOM     18  O   UNL     1      -7.303   5.020   4.174  1.00  0.00    -0.504 OA
ATOM     19  H   UNL     1      -7.094   5.104   5.162  1.00  0.00     0.293 HD
ENDBRANCH  14  18
BRANCH  16  20
ATOM     20  O   UNL     1      -9.569   6.443   3.374  1.00  0.00    -0.502 OA
ATOM     21  H   UNL     1      -9.946   6.759   4.254  1.00  0.00     0.293 HD
ENDBRANCH  16  20
BRANCH  17  22
ATOM     22  O   UNL     1      -9.234   8.651   1.498  1.00  0.00    -0.504 OA
ATOM     23  H   UNL     1      -9.982   8.281   0.930  1.00  0.00     0.293 HD
ENDBRANCH  17  22
ENDBRANCH   1  12
BRANCH   2  24
ATOM     24  O   UNL     1      -3.859   9.143   3.426  1.00  0.00    -0.502 OA
ATOM     25  H   UNL     1      -3.250   9.074   4.233  1.00  0.00     0.293 HD
ENDBRANCH   2  24
BRANCH   6  26
ATOM     26  O   UNL     1       0.465   9.225   0.318  1.00  0.00    -0.507 OA
ATOM     27  H   UNL     1       0.540   9.398   1.309  1.00  0.00     0.293 HD
ENDBRANCH   6  26
BRANCH   8  28
ATOM     28  O   UNL     1      -1.300   7.143  -3.632  1.00  0.00    -0.508 OA
ATOM     29  H   UNL     1      -1.798   7.571  -4.405  1.00  0.00     0.293 HD
ENDBRANCH   8  28
TORSDOF 7
ENDMDL
MODEL 4
REMARK VINA RESULT:    -5.102     11.777     13.077
REMARK INTER + INTRA:          -6.377
REMARK INTER:                  -6.131
REMARK INTRA:                  -0.246
REMARK UNBOUND:                -0.082
REMARK SMILES O=c1c(O)c(-c2cc(O)c(O)c(O)c2)oc2cc(O)cc(O)c12
REMARK SMILES IDX 5 1 3 2 2 3 1 4 23 5 21 6 20 7 18 8 17 9 16 10 15 11 6 12
REMARK SMILES IDX 7 13 8 14 14 15 10 16 12 17 9 18 11 20 13 22 4 24 22 26
REMARK SMILES IDX 19 28
REMARK H PARENT 9 19 11 21 13 23 4 25 22 27 19 29
REMARK Flexibility Score: inf
ROOT
ATOM      1  C   UNL     1      -4.796   7.681   1.524  1.00  0.00     0.180 A 
ATOM      2  C   UNL     1      -6.096   8.041   1.125  1.00  0.00     0.208 A 
ATOM      3  C   UNL     1      -7.183   7.665   1.930  1.00  0.00     0.238 A 
ATOM      4  O   UNL     1      -8.339   8.037   1.596  1.00  0.00    -0.285 OA
ATOM      5  C   UNL     1      -6.960   6.919   3.113  1.00  0.00     0.111 A 
ATOM      6  C   UNL     1      -7.991   6.450   3.981  1.00  0.00     0.134 A 
ATOM      7  C   UNL     1      -7.647   5.835   5.191  1.00  0.00     0.093 A 
ATOM      8  C   UNL     1      -6.311   5.613   5.533  1.00  0.00     0.123 A 
ATOM      9  C   UNL     1      -5.299   6.015   4.663  1.00  0.00     0.094 A 
ATOM     10  C   UNL     1      -5.610   6.664   3.466  1.00  0.00     0.146 A 
ATOM     11  O   UNL     1      -4.614   7.039   2.671  1.00  0.00    -0.452 OA
ENDROOT
BRANCH   1  12
ATOM     12  C   UNL     1      -3.602   8.020   0.715  1.00  0.00     0.029 A 
ATOM     13  C   UNL     1      -3.387   7.444  -0.545  1.00  0.00     0.062 A 
ATOM     14  C   UNL     1      -2.242   7.756  -1.285  1.00  0.00     0.162 A 
ATOM     15  C   UNL     1      -2.638   8.890   1.241  1.00  0.00     0.062 A 
ATOM     16  C   UNL     1      -1.286   8.649  -0.767  1.00  0.00     0.200 A 
ATOM     17  C   UNL     1      -1.487   9.217   0.514  1.00  0.00     0.162 A 
BRANCH  14  18
ATOM     18  O   UNL     1      -2.072   7.164  -2.536  1.00  0.00    -0.504 OA
ATOM     19  H   UNL     1      -2.047   6.159  -2.661  1.00  0.00     0.293 HD
ENDBRANCH  14  18
BRANCH  16  20
ATOM     20  O   UNL     1      -0.160   8.942  -1.543  1.00  0.00    -0.502 OA
ATOM     21  H   UNL     1       0.725   8.467  -1.460  1.00  0.00     0.293 HD
ENDBRANCH  16  20
BRANCH  17  22
ATOM     22  O   UNL     1      -0.579  10.100   1.100  1.00  0.00    -0.504 OA
ATOM     23  H   UNL     1       0.419   9.951   1.129  1.00  0.00     0.293 HD
ENDBRANCH  17  22
ENDBRANCH   1  12
BRANCH   2  24
ATOM     24  O   UNL     1      -6.291   8.796  -0.034  1.00  0.00    -0.502 OA
ATOM     25  H   UNL     1      -6.514   8.374  -0.927  1.00  0.00     0.293 HD
ENDBRANCH   2  24
BRANCH   6  26
ATOM     26  O   UNL     1      -9.356   6.538   3.692  1.00  0.00    -0.507 OA
ATOM     27  H   UNL     1      -9.768   7.213   3.065  1.00  0.00     0.293 HD
ENDBRANCH   6  26
BRANCH   8  28
ATOM     28  O   UNL     1      -5.978   4.987   6.731  1.00  0.00    -0.508 OA
ATOM     29  H   UNL     1      -6.312   4.056   6.953  1.00  0.00     0.293 HD
ENDBRANCH   8  28
TORSDOF 7
ENDMDL
MODEL 5
REMARK VINA RESULT:    -4.921      1.657      6.683
REMARK INTER + INTRA:          -6.154
REMARK INTER:                  -5.863
REMARK INTRA:                  -0.291
REMARK UNBOUND:                -0.082
REMARK SMILES O=c1c(O)c(-c2cc(O)c(O)c(O)c2)oc2cc(O)cc(O)c12
REMARK SMILES IDX 5 1 3 2 2 3 1 4 23 5 21 6 20 7 18 8 17 9 16 10 15 11 6 12
REMARK SMILES IDX 7 13 8 14 14 15 10 16 12 17 9 18 11 20 13 22 4 24 22 26
REMARK SMILES IDX 19 28
REMARK H PARENT 9 19 11 21 13 23 4 25 22 27 19 29
REMARK Flexibility Score: inf
ROOT
ATOM      1  C   UNL     1      -7.425  -5.214   0.219  1.00  0.00     0.180 A 
ATOM      2  C   UNL     1      -6.901  -6.384   0.797  1.00  0.00     0.208 A 
ATOM      3  C   UNL     1      -5.723  -6.299   1.557  1.00  0.00     0.238 A 
ATOM      4  O   UNL     1      -5.288  -7.340   2.116  1.00  0.00    -0.285 OA
ATOM      5  C   UNL     1      -5.075  -5.050   1.715  1.00  0.00     0.111 A 
ATOM      6  C   UNL     1      -3.854  -4.856   2.429  1.00  0.00     0.134 A 
ATOM      7  C   UNL     1      -3.373  -3.556   2.632  1.00  0.00     0.093 A 
ATOM      8  C   UNL     1      -4.033  -2.451   2.090  1.00  0.00     0.123 A 
ATOM      9  C   UNL     1      -5.193  -2.637   1.341  1.00  0.00     0.094 A 
ATOM     10  C   UNL     1      -5.717  -3.917   1.152  1.00  0.00     0.146 A 
ATOM     11  O   UNL     1      -6.831  -4.048   0.441  1.00  0.00    -0.452 OA
ENDROOT
BRANCH   1  12
ATOM     12  C   UNL     1      -8.649  -5.228  -0.615  1.00  0.00     0.029 A 
ATOM     13  C   UNL     1      -8.648  -5.781  -1.903  1.00  0.00     0.062 A 
ATOM     14  C   UNL     1      -9.806  -5.765  -2.687  1.00  0.00     0.162 A 
ATOM     15  C   UNL     1      -9.819  -4.626  -0.133  1.00  0.00     0.062 A 
ATOM     16  C   UNL     1     -10.987  -5.182  -2.193  1.00  0.00     0.200 A 
ATOM     17  C   UNL     1     -10.988  -4.602  -0.902  1.00  0.00     0.162 A 
BRANCH  14  18
ATOM     18  O   UNL     1      -9.760  -6.332  -3.960  1.00  0.00    -0.504 OA
ATOM     19  H   UNL     1     -10.206  -5.902  -4.762  1.00  0.00     0.293 HD
ENDBRANCH  14  18
BRANCH  16  20
ATOM     20  O   UNL     1     -12.125  -5.195  -3.005  1.00  0.00    -0.502 OA
ATOM     21  H   UNL     1     -13.070  -5.244  -2.656  1.00  0.00     0.293 HD
ENDBRANCH  16  20
BRANCH  17  22
ATOM     22  O   UNL     1     -12.117  -3.995  -0.348  1.00  0.00    -0.504 OA
ATOM     23  H   UNL     1     -12.313  -3.958   0.642  1.00  0.00     0.293 HD
ENDBRANCH  17  22
ENDBRANCH   1  12
BRANCH   2  24
ATOM     24  O   UNL     1      -7.569  -7.602   0.646  1.00  0.00    -0.502 OA
ATOM     25  H   UNL     1      -7.607  -8.296   1.383  1.00  0.00     0.293 HD
ENDBRANCH   2  24
BRANCH   6  26
ATOM     26  O   UNL     1      -3.069  -5.898   2.931  1.00  0.00    -0.507 OA
ATOM     27  H   UNL     1      -2.061  -5.925   2.896  1.00  0.00     0.293 HD
ENDBRANCH   6  26
BRANCH   8  28
ATOM     28  O   UNL     1      -3.539  -1.163   2.284  1.00  0.00    -0.508 OA
ATOM     29  H   UNL     1      -3.903  -0.372   1.765  1.00  0.00     0.293 HD
ENDBRANCH   8  28
TORSDOF 7
ENDMDL
MODEL 6
REMARK VINA RESULT:    -4.858     13.751     15.289
REMARK INTER + INTRA:          -6.076
REMARK INTER:                  -5.722
REMARK INTRA:                  -0.354
REMARK UNBOUND:                -0.082
REMARK SMILES O=c1c(O)c(-c2cc(O)c(O)c(O)c2)oc2cc(O)cc(O)c12
REMARK SMILES IDX 5 1 3 2 2 3 1 4 23 5 21 6 20 7 18 8 17 9 16 10 15 11 6 12
REMARK SMILES IDX 7 13 8 14 14 15 10 16 12 17 9 18 11 20 13 22 4 24 22 26
REMARK SMILES IDX 19 28
REMARK H PARENT 9 19 11 21 13 23 4 25 22 27 19 29
REMARK Flexibility Score: inf
ROOT
ATOM      1  C   UNL     1       5.263   1.132  -4.926  1.00  0.00     0.180 A 
ATOM      2  C   UNL     1       5.894   1.534  -6.116  1.00  0.00     0.208 A 
ATOM      3  C   UNL     1       5.394   2.649  -6.808  1.00  0.00     0.238 A 
ATOM      4  O   UNL     1       5.996   3.037  -7.844  1.00  0.00    -0.285 OA
ATOM      5  C   UNL     1       4.260   3.337  -6.311  1.00  0.00     0.111 A 
ATOM      6  C   UNL     1       3.645   4.453  -6.953  1.00  0.00     0.134 A 
ATOM      7  C   UNL     1       2.608   5.136  -6.304  1.00  0.00     0.093 A 
ATOM      8  C   UNL     1       2.122   4.703  -5.069  1.00  0.00     0.123 A 
ATOM      9  C   UNL     1       2.677   3.578  -4.463  1.00  0.00     0.094 A 
ATOM     10  C   UNL     1       3.736   2.897  -5.068  1.00  0.00     0.146 A 
ATOM     11  O   UNL     1       4.243   1.836  -4.451  1.00  0.00    -0.452 OA
ENDROOT
BRANCH   1  12
ATOM     12  C   UNL     1       5.717  -0.048  -4.154  1.00  0.00     0.029 A 
ATOM     13  C   UNL     1       5.323  -1.347  -4.507  1.00  0.00     0.062 A 
ATOM     14  C   UNL     1       5.741  -2.448  -3.754  1.00  0.00     0.162 A 
ATOM     15  C   UNL     1       6.509   0.137  -3.013  1.00  0.00     0.062 A 
ATOM     16  C   UNL     1       6.557  -2.264  -2.622  1.00  0.00     0.200 A 
ATOM     17  C   UNL     1       6.939  -0.953  -2.247  1.00  0.00     0.162 A 
BRANCH  14  18
ATOM     18  O   UNL     1       5.331  -3.722  -4.146  1.00  0.00    -0.504 OA
ATOM     19  H   UNL     1       5.596  -4.557  -3.637  1.00  0.00     0.293 HD
ENDBRANCH  14  18
BRANCH  16  20
ATOM     20  O   UNL     1       6.960  -3.392  -1.902  1.00  0.00    -0.502 OA
ATOM     21  H   UNL     1       6.448  -3.782  -1.126  1.00  0.00     0.293 HD
ENDBRANCH  16  20
BRANCH  17  22
ATOM     22  O   UNL     1       7.736  -0.689  -1.132  1.00  0.00    -0.504 OA
ATOM     23  H   UNL     1       7.624  -1.139  -0.236  1.00  0.00     0.293 HD
ENDBRANCH  17  22
ENDBRANCH   1  12
BRANCH   2  24
ATOM     24  O   UNL     1       7.024   0.855  -6.576  1.00  0.00    -0.502 OA
ATOM     25  H   UNL     1       7.641   1.240  -7.282  1.00  0.00     0.293 HD
ENDBRANCH   2  24
BRANCH   6  26
ATOM     26  O   UNL     1       3.992   4.911  -8.227  1.00  0.00    -0.507 OA
ATOM     27  H   UNL     1       4.859   5.376  -8.454  1.00  0.00     0.293 HD
ENDBRANCH   6  26
BRANCH   8  28
ATOM     28  O   UNL     1       1.080   5.379  -4.439  1.00  0.00    -0.508 OA
ATOM     29  H   UNL     1       0.359   5.855  -4.968  1.00  0.00     0.293 HD
ENDBRANCH   8  28
TORSDOF 7
ENDMDL
MODEL 7
REMARK VINA RESULT:    -4.754     13.685     15.334
REMARK INTER + INTRA:          -5.948
REMARK INTER:                  -5.598
REMARK INTRA:                  -0.350
REMARK UNBOUND:                -0.082
REMARK SMILES O=c1c(O)c(-c2cc(O)c(O)c(O)c2)oc2cc(O)cc(O)c12
REMARK SMILES IDX 5 1 3 2 2 3 1 4 23 5 21 6 20 7 18 8 17 9 16 10 15 11 6 12
REMARK SMILES IDX 7 13 8 14 14 15 10 16 12 17 9 18 11 20 13 22 4 24 22 26
REMARK SMILES IDX 19 28
REMARK H PARENT 9 19 11 21 13 23 4 25 22 27 19 29
REMARK Flexibility Score: inf
ROOT
ATOM      1  C   UNL     1       4.577   1.612  -5.167  1.00  0.00     0.180 A 
ATOM      2  C   UNL     1       5.729   1.781  -4.380  1.00  0.00     0.208 A 
ATOM      3  C   UNL     1       6.451   0.646  -3.976  1.00  0.00     0.238 A 
ATOM      4  O   UNL     1       7.511   0.806  -3.317  1.00  0.00    -0.285 OA
ATOM      5  C   UNL     1       6.001  -0.644  -4.350  1.00  0.00     0.111 A 
ATOM      6  C   UNL     1       6.632  -1.865  -3.962  1.00  0.00     0.134 A 
ATOM      7  C   UNL     1       6.176  -3.076  -4.498  1.00  0.00     0.093 A 
ATOM      8  C   UNL     1       5.074  -3.116  -5.355  1.00  0.00     0.123 A 
ATOM      9  C   UNL     1       4.416  -1.935  -5.691  1.00  0.00     0.094 A 
ATOM     10  C   UNL     1       4.869  -0.708  -5.202  1.00  0.00     0.146 A 
ATOM     11  O   UNL     1       4.219   0.394  -5.557  1.00  0.00    -0.452 OA
ENDROOT
BRANCH   1  12
ATOM     12  C   UNL     1       3.751   2.759  -5.611  1.00  0.00     0.029 A 
ATOM     13  C   UNL     1       3.961   3.371  -6.855  1.00  0.00     0.062 A 
ATOM     14  C   UNL     1       3.188   4.468  -7.248  1.00  0.00     0.162 A 
ATOM     15  C   UNL     1       2.779   3.283  -4.748  1.00  0.00     0.062 A 
ATOM     16  C   UNL     1       2.195   4.979  -6.392  1.00  0.00     0.200 A 
ATOM     17  C   UNL     1       1.994   4.379  -5.125  1.00  0.00     0.162 A 
BRANCH  14  18
ATOM     18  O   UNL     1       3.427   5.041  -8.497  1.00  0.00    -0.504 OA
ATOM     19  H   UNL     1       4.179   4.731  -9.101  1.00  0.00     0.293 HD
ENDBRANCH  14  18
BRANCH  16  20
ATOM     20  O   UNL     1       1.439   6.071  -6.828  1.00  0.00    -0.502 OA
ATOM     21  H   UNL     1       0.472   6.015  -7.110  1.00  0.00     0.293 HD
ENDBRANCH  16  20
BRANCH  17  22
ATOM     22  O   UNL     1       1.038   4.835  -4.217  1.00  0.00    -0.504 OA
ATOM     23  H   UNL     1       0.174   4.355  -4.014  1.00  0.00     0.293 HD
ENDBRANCH  17  22
ENDBRANCH   1  12
BRANCH   2  24
ATOM     24  O   UNL     1       6.167   3.064  -4.041  1.00  0.00    -0.502 OA
ATOM     25  H   UNL     1       6.401   3.326  -3.091  1.00  0.00     0.293 HD
ENDBRANCH   2  24
BRANCH   6  26
ATOM     26  O   UNL     1       7.680  -1.945  -3.041  1.00  0.00    -0.507 OA
ATOM     27  H   UNL     1       8.435  -2.613  -3.087  1.00  0.00     0.293 HD
ENDBRANCH   6  26
BRANCH   8  28
ATOM     28  O   UNL     1       4.619  -4.327  -5.871  1.00  0.00    -0.508 OA
ATOM     29  H   UNL     1       5.073  -4.772  -6.660  1.00  0.00     0.293 HD
ENDBRANCH   8  28
TORSDOF 7
ENDMDL
MODEL 8
REMARK VINA RESULT:    -4.751     13.706     15.380
REMARK INTER + INTRA:          -5.943
REMARK INTER:                  -5.580
REMARK INTRA:                  -0.363
REMARK UNBOUND:                -0.082
REMARK SMILES O=c1c(O)c(-c2cc(O)c(O)c(O)c2)oc2cc(O)cc(O)c12
REMARK SMILES IDX 5 1 3 2 2 3 1 4 23 5 21 6 20 7 18 8 17 9 16 10 15 11 6 12
REMARK SMILES IDX 7 13 8 14 14 15 10 16 12 17 9 18 11 20 13 22 4 24 22 26
REMARK SMILES IDX 19 28
REMARK H PARENT 9 19 11 21 13 23 4 25 22 27 19 29
REMARK Flexibility Score: inf
ROOT
ATOM      1  C   UNL     1       4.570   1.661  -5.151  1.00  0.00     0.180 A 
ATOM      2  C   UNL     1       5.730   1.803  -4.369  1.00  0.00     0.208 A 
ATOM      3  C   UNL     1       6.445   0.654  -3.997  1.00  0.00     0.238 A 
ATOM      4  O   UNL     1       7.512   0.791  -3.342  1.00  0.00    -0.285 OA
ATOM      5  C   UNL     1       5.983  -0.625  -4.396  1.00  0.00     0.111 A 
ATOM      6  C   UNL     1       6.606  -1.858  -4.040  1.00  0.00     0.134 A 
ATOM      7  C   UNL     1       6.137  -3.054  -4.601  1.00  0.00     0.093 A 
ATOM      8  C   UNL     1       5.028  -3.066  -5.449  1.00  0.00     0.123 A 
ATOM      9  C   UNL     1       4.377  -1.873  -5.754  1.00  0.00     0.094 A 
ATOM     10  C   UNL     1       4.843  -0.660  -5.240  1.00  0.00     0.146 A 
ATOM     11  O   UNL     1       4.200   0.455  -5.565  1.00  0.00    -0.452 OA
ENDROOT
BRANCH   1  12
ATOM     12  C   UNL     1       3.750   2.824  -5.562  1.00  0.00     0.029 A 
ATOM     13  C   UNL     1       2.760   3.351  -4.721  1.00  0.00     0.062 A 
ATOM     14  C   UNL     1       1.978   4.435  -5.134  1.00  0.00     0.162 A 
ATOM     15  C   UNL     1       3.926   3.375  -6.839  1.00  0.00     0.062 A 
ATOM     16  C   UNL     1       2.171   5.003  -6.407  1.00  0.00     0.200 A 
ATOM     17  C   UNL     1       3.154   4.461  -7.268  1.00  0.00     0.162 A 
BRANCH  14  18
ATOM     18  O   UNL     1       1.009   4.931  -4.262  1.00  0.00    -0.504 OA
ATOM     19  H   UNL     1       1.214   5.157  -3.296  1.00  0.00     0.293 HD
ENDBRANCH  14  18
BRANCH  16  20
ATOM     20  O   UNL     1       1.374   6.091  -6.777  1.00  0.00    -0.502 OA
ATOM     21  H   UNL     1       1.634   7.056  -6.640  1.00  0.00     0.293 HD
ENDBRANCH  16  20
BRANCH  17  22
ATOM     22  O   UNL     1       3.396   4.962  -8.549  1.00  0.00    -0.504 OA
ATOM     23  H   UNL     1       3.958   5.778  -8.741  1.00  0.00     0.293 HD
ENDBRANCH  17  22
ENDBRANCH   1  12
BRANCH   2  24
ATOM     24  O   UNL     1       6.180   3.074  -4.004  1.00  0.00    -0.502 OA
ATOM     25  H   UNL     1       5.655   3.916  -4.206  1.00  0.00     0.293 HD
ENDBRANCH   2  24
BRANCH   6  26
ATOM     26  O   UNL     1       7.661  -1.967  -3.130  1.00  0.00    -0.507 OA
ATOM     27  H   UNL     1       8.261  -2.774  -3.040  1.00  0.00     0.293 HD
ENDBRANCH   6  26
BRANCH   8  28
ATOM     28  O   UNL     1       4.559  -4.261  -5.989  1.00  0.00    -0.508 OA
ATOM     29  H   UNL     1       4.423  -4.375  -6.987  1.00  0.00     0.293 HD
ENDBRANCH   8  28
TORSDOF 7
ENDMDL
MODEL 9
REMARK VINA RESULT:    -4.701     13.727     15.234
REMARK INTER + INTRA:          -5.883
REMARK INTER:                  -5.514
REMARK INTRA:                  -0.369
REMARK UNBOUND:                -0.082
REMARK SMILES O=c1c(O)c(-c2cc(O)c(O)c(O)c2)oc2cc(O)cc(O)c12
REMARK SMILES IDX 5 1 3 2 2 3 1 4 23 5 21 6 20 7 18 8 17 9 16 10 15 11 6 12
REMARK SMILES IDX 7 13 8 14 14 15 10 16 12 17 9 18 11 20 13 22 4 24 22 26
REMARK SMILES IDX 19 28
REMARK H PARENT 9 19 11 21 13 23 4 25 22 27 19 29
REMARK Flexibility Score: inf
ROOT
ATOM      1  C   UNL     1       4.463   0.884  -5.210  1.00  0.00     0.180 A 
ATOM      2  C   UNL     1       4.176  -0.272  -5.958  1.00  0.00     0.208 A 
ATOM      3  C   UNL     1       4.790  -1.483  -5.601  1.00  0.00     0.238 A 
ATOM      4  O   UNL     1       4.488  -2.526  -6.240  1.00  0.00    -0.285 OA
ATOM      5  C   UNL     1       5.696  -1.521  -4.513  1.00  0.00     0.111 A 
ATOM      6  C   UNL     1       6.406  -2.685  -4.090  1.00  0.00     0.134 A 
ATOM      7  C   UNL     1       7.175  -2.636  -2.920  1.00  0.00     0.093 A 
ATOM      8  C   UNL     1       7.313  -1.449  -2.197  1.00  0.00     0.123 A 
ATOM      9  C   UNL     1       6.671  -0.293  -2.636  1.00  0.00     0.094 A 
ATOM     10  C   UNL     1       5.867  -0.319  -3.779  1.00  0.00     0.146 A 
ATOM     11  O   UNL     1       5.265   0.803  -4.156  1.00  0.00    -0.452 OA
ENDROOT
BRANCH   1  12
ATOM     12  C   UNL     1       3.874   2.202  -5.541  1.00  0.00     0.029 A 
ATOM     13  C   UNL     1       4.499   3.074  -6.444  1.00  0.00     0.062 A 
ATOM     14  C   UNL     1       3.942   4.325  -6.727  1.00  0.00     0.162 A 
ATOM     15  C   UNL     1       2.699   2.613  -4.898  1.00  0.00     0.062 A 
ATOM     16  C   UNL     1       2.749   4.728  -6.099  1.00  0.00     0.200 A 
ATOM     17  C   UNL     1       2.125   3.860  -5.171  1.00  0.00     0.162 A 
BRANCH  14  18
ATOM     18  O   UNL     1       4.595   5.158  -7.636  1.00  0.00    -0.504 OA
ATOM     19  H   UNL     1       4.942   4.821  -8.526  1.00  0.00     0.293 HD
ENDBRANCH  14  18
BRANCH  16  20
ATOM     20  O   UNL     1       2.220   5.983  -6.418  1.00  0.00    -0.502 OA
ATOM     21  H   UNL     1       1.324   6.125  -6.858  1.00  0.00     0.293 HD
ENDBRANCH  16  20
BRANCH  17  22
ATOM     22  O   UNL     1       0.947   4.193  -4.500  1.00  0.00    -0.504 OA
ATOM     23  H   UNL     1       0.670   3.800  -3.612  1.00  0.00     0.293 HD
ENDBRANCH  17  22
ENDBRANCH   1  12
BRANCH   2  24
ATOM     24  O   UNL     1       3.263  -0.218  -7.014  1.00  0.00    -0.502 OA
ATOM     25  H   UNL     1       2.318  -0.574  -6.935  1.00  0.00     0.293 HD
ENDBRANCH   2  24
BRANCH   6  26
ATOM     26  O   UNL     1       6.411  -3.894  -4.790  1.00  0.00    -0.507 OA
ATOM     27  H   UNL     1       5.876  -4.710  -4.531  1.00  0.00     0.293 HD
ENDBRANCH   6  26
BRANCH   8  28
ATOM     28  O   UNL     1       8.093  -1.406  -1.044  1.00  0.00    -0.508 OA
ATOM     29  H   UNL     1       9.081  -1.628  -1.064  1.00  0.00     0.293 HD
ENDBRANCH   8  28
TORSDOF 7
ENDMDL
