MODEL 1
REMARK VINA RESULT:    -4.846      0.000      0.000
REMARK INTER + INTRA:          -5.896
REMARK INTER:                  -5.555
REMARK INTRA:                  -0.341
REMARK UNBOUND:                -0.341
REMARK SMILES COc1ccc(C(C)=O)c(O)c1
REMARK SMILES IDX 6 1 10 2 12 3 3 4 4 5 5 6 7 7 8 8 9 9 11 10 2 12 1 13
REMARK H PARENT 11 11
REMARK Flexibility Score: inf
ROOT
ATOM      1  C   UNL     1       7.786  -8.932  42.944  1.00  0.00     0.059 A 
ATOM      2  C   UNL     1       7.126  -9.911  43.724  1.00  0.00     0.130 A 
ATOM      3  C   UNL     1       6.297 -10.858  43.105  1.00  0.00     0.093 A 
ATOM      4  C   UNL     1       6.100 -10.838  41.713  1.00  0.00     0.122 A 
ATOM      5  C   UNL     1       6.738  -9.860  40.949  1.00  0.00     0.047 A 
ATOM      6  C   UNL     1       7.569  -8.915  41.555  1.00  0.00     0.019 A 
ENDROOT
BRANCH   1   7
ATOM      7  C   UNL     1       8.692  -7.912  43.539  1.00  0.00     0.163 C 
ATOM      8  C   UNL     1       8.595  -6.455  43.199  1.00  0.00     0.093 C 
ATOM      9  O   UNL     1       9.576  -8.274  44.361  1.00  0.00    -0.294 OA
ENDBRANCH   1   7
BRANCH   2  10
ATOM     10  O   UNL     1       7.269  -9.935  45.111  1.00  0.00    -0.507 OA
ATOM     11  H   UNL     1       8.010 -10.457  45.563  1.00  0.00     0.293 HD
ENDBRANCH   2  10
BRANCH   4  12
ATOM     12  O   UNL     1       5.278 -11.766  41.054  1.00  0.00    -0.497 OA
ATOM     13  C   UNL     1       5.656 -12.490  39.889  1.00  0.00     0.278 C 
ENDBRANCH   4  12
TORSDOF 3
ENDMDL
MODEL 2
REMARK VINA RESULT:    -4.828      1.634      2.102
REMARK INTER + INTRA:          -5.875
REMARK INTER:                  -5.536
REMARK INTRA:                  -0.339
REMARK UNBOUND:                -0.341
REMARK SMILES COc1ccc(C(C)=O)c(O)c1
REMARK SMILES IDX 6 1 10 2 12 3 3 4 4 5 5 6 7 7 8 8 9 9 11 10 2 12 1 13
REMARK H PARENT 11 11
REMARK Flexibility Score: inf
ROOT
ATOM      1  C   UNL     1       8.025  -7.688  42.629  1.00  0.00     0.059 A 
ATOM      2  C   UNL     1       8.024  -8.246  43.929  1.00  0.00     0.130 A 
ATOM      3  C   UNL     1       7.608  -9.572  44.122  1.00  0.00     0.093 A 
ATOM      4  C   UNL     1       7.175 -10.353  43.036  1.00  0.00     0.122 A 
ATOM      5  C   UNL     1       7.159  -9.793  41.758  1.00  0.00     0.047 A 
ATOM      6  C   UNL     1       7.574  -8.475  41.554  1.00  0.00     0.019 A 
ENDROOT
BRANCH   1   7
ATOM      7  C   UNL     1       8.470  -6.294  42.357  1.00  0.00     0.163 C 
ATOM      8  C   UNL     1       7.618  -5.308  41.616  1.00  0.00     0.093 C 
ATOM      9  O   UNL     1       9.604  -5.918  42.760  1.00  0.00    -0.294 OA
ENDBRANCH   1   7
BRANCH   2  10
ATOM     10  O   UNL     1       8.412  -7.487  45.033  1.00  0.00    -0.507 OA
ATOM     11  H   UNL     1       7.839  -7.425  45.866  1.00  0.00     0.293 HD
ENDBRANCH   2  10
BRANCH   4  12
ATOM     12  O   UNL     1       6.750 -11.683  43.186  1.00  0.00    -0.497 OA
ATOM     13  C   UNL     1       7.119 -12.748  42.318  1.00  0.00     0.278 C 
ENDBRANCH   4  12
TORSDOF 3
ENDMDL
MODEL 3
REMARK VINA RESULT:    -4.731      1.765      4.930
REMARK INTER + INTRA:          -5.764
REMARK INTER:                  -5.431
REMARK INTRA:                  -0.332
REMARK UNBOUND:                -0.341
REMARK SMILES COc1ccc(C(C)=O)c(O)c1
REMARK SMILES IDX 6 1 10 2 12 3 3 4 4 5 5 6 7 7 8 8 9 9 11 10 2 12 1 13
REMARK H PARENT 11 11
REMARK Flexibility Score: inf
ROOT
ATOM      1  C   UNL     1       6.932 -10.167  42.681  1.00  0.00     0.059 A 
ATOM      2  C   UNL     1       7.170  -9.354  41.548  1.00  0.00     0.130 A 
ATOM      3  C   UNL     1       7.979  -8.212  41.662  1.00  0.00     0.093 A 
ATOM      4  C   UNL     1       8.546  -7.856  42.898  1.00  0.00     0.122 A 
ATOM      5  C   UNL     1       8.293  -8.651  44.018  1.00  0.00     0.047 A 
ATOM      6  C   UNL     1       7.493  -9.791  43.914  1.00  0.00     0.019 A 
ENDROOT
BRANCH   1   7
ATOM      7  C   UNL     1       6.098 -11.398  42.621  1.00  0.00     0.163 C 
ATOM      8  C   UNL     1       6.614 -12.740  43.045  1.00  0.00     0.093 C 
ATOM      9  O   UNL     1       4.912 -11.322  42.199  1.00  0.00    -0.294 OA
ENDBRANCH   1   7
BRANCH   2  10
ATOM     10  O   UNL     1       6.592  -9.657  40.316  1.00  0.00    -0.507 OA
ATOM     11  H   UNL     1       6.896 -10.450  39.764  1.00  0.00     0.293 HD
ENDBRANCH   2  10
BRANCH   4  12
ATOM     12  O   UNL     1       9.359  -6.723  43.056  1.00  0.00    -0.497 OA
ATOM     13  C   UNL     1       9.095  -5.455  42.465  1.00  0.00     0.278 C 
ENDBRANCH   4  12
TORSDOF 3
ENDMDL
MODEL 4
REMARK VINA RESULT:    -4.675      1.469      4.555
REMARK INTER + INTRA:          -5.700
REMARK INTER:                  -5.379
REMARK INTRA:                  -0.321
REMARK UNBOUND:                -0.341
REMARK SMILES COc1ccc(C(C)=O)c(O)c1
REMARK SMILES IDX 6 1 10 2 12 3 3 4 4 5 5 6 7 7 8 8 9 9 11 10 2 12 1 13
REMARK H PARENT 11 11
REMARK Flexibility Score: inf
ROOT
ATOM      1  C   UNL     1       7.365  -9.542  42.602  1.00  0.00     0.059 A 
ATOM      2  C   UNL     1       7.846  -9.099  43.856  1.00  0.00     0.130 A 
ATOM      3  C   UNL     1       8.474  -7.849  43.964  1.00  0.00     0.093 A 
ATOM      4  C   UNL     1       8.646  -7.033  42.832  1.00  0.00     0.122 A 
ATOM      5  C   UNL     1       8.187  -7.482  41.593  1.00  0.00     0.047 A 
ATOM      6  C   UNL     1       7.557  -8.723  41.475  1.00  0.00     0.019 A 
ENDROOT
BRANCH   1   7
ATOM      7  C   UNL     1       6.676 -10.850  42.426  1.00  0.00     0.163 C 
ATOM      8  C   UNL     1       5.551 -11.041  41.453  1.00  0.00     0.093 C 
ATOM      9  O   UNL     1       7.043 -11.840  43.115  1.00  0.00    -0.294 OA
ENDBRANCH   1   7
BRANCH   2  10
ATOM     10  O   UNL     1       7.727  -9.900  44.992  1.00  0.00    -0.507 OA
ATOM     11  H   UNL     1       8.118 -10.834  45.030  1.00  0.00     0.293 HD
ENDBRANCH   2  10
BRANCH   4  12
ATOM     12  O   UNL     1       9.270  -5.777  42.895  1.00  0.00    -0.497 OA
ATOM     13  C   UNL     1       8.658  -4.554  42.499  1.00  0.00     0.278 C 
ENDBRANCH   4  12
TORSDOF 3
ENDMDL
MODEL 5
REMARK VINA RESULT:    -4.534      1.875      2.775
REMARK INTER + INTRA:          -5.538
REMARK INTER:                  -5.369
REMARK INTRA:                  -0.170
REMARK UNBOUND:                -0.341
REMARK SMILES COc1ccc(C(C)=O)c(O)c1
REMARK SMILES IDX 6 1 10 2 12 3 3 4 4 5 5 6 7 7 8 8 9 9 11 10 2 12 1 13
REMARK H PARENT 11 11
REMARK Flexibility Score: inf
ROOT
ATOM      1  C   UNL     1       7.571  -9.076  42.271  1.00  0.00     0.059 A 
ATOM      2  C   UNL     1       6.711  -9.901  41.508  1.00  0.00     0.130 A 
ATOM      3  C   UNL     1       6.000 -10.938  42.131  1.00  0.00     0.093 A 
ATOM      4  C   UNL     1       6.143 -11.179  43.509  1.00  0.00     0.122 A 
ATOM      5  C   UNL     1       7.007 -10.375  44.254  1.00  0.00     0.047 A 
ATOM      6  C   UNL     1       7.716  -9.338  43.646  1.00  0.00     0.019 A 
ENDROOT
BRANCH   1   7
ATOM      7  C   UNL     1       8.338  -7.950  41.673  1.00  0.00     0.163 C 
ATOM      8  C   UNL     1       7.793  -6.556  41.595  1.00  0.00     0.093 C 
ATOM      9  O   UNL     1       9.492  -8.164  41.212  1.00  0.00    -0.294 OA
ENDBRANCH   1   7
BRANCH   2  10
ATOM     10  O   UNL     1       6.575  -9.713  40.133  1.00  0.00    -0.507 OA
ATOM     11  H   UNL     1       7.249 -10.084  39.474  1.00  0.00     0.293 HD
ENDBRANCH   2  10
BRANCH   4  12
ATOM     12  O   UNL     1       5.452 -12.206  44.170  1.00  0.00    -0.497 OA
ATOM     13  C   UNL     1       4.959 -13.382  43.536  1.00  0.00     0.278 C 
ENDBRANCH   4  12
TORSDOF 3
ENDMDL
MODEL 6
REMARK VINA RESULT:    -4.450      8.486      9.678
REMARK INTER + INTRA:          -5.442
REMARK INTER:                  -5.100
REMARK INTRA:                  -0.342
REMARK UNBOUND:                -0.341
REMARK SMILES COc1ccc(C(C)=O)c(O)c1
REMARK SMILES IDX 6 1 10 2 12 3 3 4 4 5 5 6 7 7 8 8 9 9 11 10 2 12 1 13
REMARK H PARENT 11 11
REMARK Flexibility Score: inf
ROOT
ATOM      1  C   UNL     1       7.176  -2.571  37.921  1.00  0.00     0.059 A 
ATOM      2  C   UNL     1       7.628  -3.249  36.764  1.00  0.00     0.130 A 
ATOM      3  C   UNL     1       7.111  -2.906  35.505  1.00  0.00     0.093 A 
ATOM      4  C   UNL     1       6.134  -1.903  35.379  1.00  0.00     0.122 A 
ATOM      5  C   UNL     1       5.678  -1.250  36.526  1.00  0.00     0.047 A 
ATOM      6  C   UNL     1       6.187  -1.580  37.783  1.00  0.00     0.019 A 
ENDROOT
BRANCH   1   7
ATOM      7  C   UNL     1       7.697  -2.876  39.282  1.00  0.00     0.163 C 
ATOM      8  C   UNL     1       8.073  -1.803  40.259  1.00  0.00     0.093 C 
ATOM      9  O   UNL     1       7.831  -4.079  39.637  1.00  0.00    -0.294 OA
ENDBRANCH   1   7
BRANCH   2  10
ATOM     10  O   UNL     1       8.568  -4.275  36.858  1.00  0.00    -0.507 OA
ATOM     11  H   UNL     1       9.006  -4.674  36.037  1.00  0.00     0.293 HD
ENDBRANCH   2  10
BRANCH   4  12
ATOM     12  O   UNL     1       5.591  -1.531  34.140  1.00  0.00    -0.497 OA
ATOM     13  C   UNL     1       4.982  -0.273  33.874  1.00  0.00     0.278 C 
ENDBRANCH   4  12
TORSDOF 3
ENDMDL
MODEL 7
REMARK VINA RESULT:    -4.413      3.102      5.315
REMARK INTER + INTRA:          -5.399
REMARK INTER:                  -5.139
REMARK INTRA:                  -0.261
REMARK UNBOUND:                -0.341
REMARK SMILES COc1ccc(C(C)=O)c(O)c1
REMARK SMILES IDX 6 1 10 2 12 3 3 4 4 5 5 6 7 7 8 8 9 9 11 10 2 12 1 13
REMARK H PARENT 11 11
REMARK Flexibility Score: inf
ROOT
ATOM      1  C   UNL     1       8.566  -6.982  42.880  1.00  0.00     0.059 A 
ATOM      2  C   UNL     1       9.257  -6.846  41.653  1.00  0.00     0.130 A 
ATOM      3  C   UNL     1       9.040  -5.718  40.847  1.00  0.00     0.093 A 
ATOM      4  C   UNL     1       8.128  -4.721  41.239  1.00  0.00     0.122 A 
ATOM      5  C   UNL     1       7.435  -4.868  42.442  1.00  0.00     0.047 A 
ATOM      6  C   UNL     1       7.646  -5.985  43.253  1.00  0.00     0.019 A 
ENDROOT
BRANCH   1   7
ATOM      7  C   UNL     1       8.765  -8.145  43.786  1.00  0.00     0.163 C 
ATOM      8  C   UNL     1       7.730  -9.215  43.961  1.00  0.00     0.093 C 
ATOM      9  O   UNL     1       9.841  -8.246  44.435  1.00  0.00    -0.294 OA
ENDBRANCH   1   7
BRANCH   2  10
ATOM     10  O   UNL     1      10.139  -7.834  41.216  1.00  0.00    -0.507 OA
ATOM     11  H   UNL     1       9.903  -8.465  40.459  1.00  0.00     0.293 HD
ENDBRANCH   2  10
BRANCH   4  12
ATOM     12  O   UNL     1       7.880  -3.579  40.463  1.00  0.00    -0.497 OA
ATOM     13  C   UNL     1       7.865  -3.561  39.040  1.00  0.00     0.278 C 
ENDBRANCH   4  12
TORSDOF 3
ENDMDL
MODEL 8
REMARK VINA RESULT:    -4.399      1.874      4.935
REMARK INTER + INTRA:          -5.383
REMARK INTER:                  -5.069
REMARK INTRA:                  -0.314
REMARK UNBOUND:                -0.341
REMARK SMILES COc1ccc(C(C)=O)c(O)c1
REMARK SMILES IDX 6 1 10 2 12 3 3 4 4 5 5 6 7 7 8 8 9 9 11 10 2 12 1 13
REMARK H PARENT 11 11
REMARK Flexibility Score: inf
ROOT
ATOM      1  C   UNL     1       7.972  -8.441  42.874  1.00  0.00     0.059 A 
ATOM      2  C   UNL     1       8.951  -7.718  43.595  1.00  0.00     0.130 A 
ATOM      3  C   UNL     1       9.361  -6.454  43.144  1.00  0.00     0.093 A 
ATOM      4  C   UNL     1       8.820  -5.901  41.970  1.00  0.00     0.122 A 
ATOM      5  C   UNL     1       7.868  -6.626  41.252  1.00  0.00     0.047 A 
ATOM      6  C   UNL     1       7.449  -7.883  41.694  1.00  0.00     0.019 A 
ENDROOT
BRANCH   1   7
ATOM      7  C   UNL     1       7.482  -9.778  43.310  1.00  0.00     0.163 C 
ATOM      8  C   UNL     1       7.025 -10.823  42.338  1.00  0.00     0.093 C 
ATOM      9  O   UNL     1       7.447 -10.052  44.540  1.00  0.00    -0.294 OA
ENDBRANCH   1   7
BRANCH   2  10
ATOM     10  O   UNL     1       9.536  -8.254  44.742  1.00  0.00    -0.507 OA
ATOM     11  H   UNL     1      10.527  -8.459  44.790  1.00  0.00     0.293 HD
ENDBRANCH   2  10
BRANCH   4  12
ATOM     12  O   UNL     1       9.204  -4.642  41.483  1.00  0.00    -0.497 OA
ATOM     13  C   UNL     1       9.380  -3.486  42.295  1.00  0.00     0.278 C 
ENDBRANCH   4  12
TORSDOF 3
ENDMDL
MODEL 9
REMARK VINA RESULT:    -4.302      3.425      5.499
REMARK INTER + INTRA:          -5.272
REMARK INTER:                  -4.939
REMARK INTRA:                  -0.333
REMARK UNBOUND:                -0.341
REMARK SMILES COc1ccc(C(C)=O)c(O)c1
REMARK SMILES IDX 6 1 10 2 12 3 3 4 4 5 5 6 7 7 8 8 9 9 11 10 2 12 1 13
REMARK H PARENT 11 11
REMARK Flexibility Score: inf
ROOT
ATOM      1  C   UNL     1       8.428  -4.835  41.083  1.00  0.00     0.059 A 
ATOM      2  C   UNL     1       9.373  -5.887  41.053  1.00  0.00     0.130 A 
ATOM      3  C   UNL     1       9.368  -6.863  42.061  1.00  0.00     0.093 A 
ATOM      4  C   UNL     1       8.440  -6.801  43.115  1.00  0.00     0.122 A 
ATOM      5  C   UNL     1       7.521  -5.750  43.152  1.00  0.00     0.047 A 
ATOM      6  C   UNL     1       7.515  -4.776  42.152  1.00  0.00     0.019 A 
ENDROOT
BRANCH   1   7
ATOM      7  C   UNL     1       8.371  -3.779  40.036  1.00  0.00     0.163 C 
ATOM      8  C   UNL     1       8.196  -2.327  40.365  1.00  0.00     0.093 C 
ATOM      9  O   UNL     1       8.473  -4.107  38.822  1.00  0.00    -0.294 OA
ENDBRANCH   1   7
BRANCH   2  10
ATOM     10  O   UNL     1      10.332  -5.957  40.042  1.00  0.00    -0.507 OA
ATOM     11  H   UNL     1      11.240  -6.380  40.196  1.00  0.00     0.293 HD
ENDBRANCH   2  10
BRANCH   4  12
ATOM     12  O   UNL     1       8.402  -7.755  44.143  1.00  0.00    -0.497 OA
ATOM     13  C   UNL     1       7.960  -9.098  43.978  1.00  0.00     0.278 C 
ENDBRANCH   4  12
TORSDOF 3
ENDMDL
