MODEL 1
REMARK VINA RESULT:    -3.800      0.000      0.000
REMARK INTER + INTRA:          -4.797
REMARK INTER:                  -4.689
REMARK INTRA:                  -0.108
REMARK UNBOUND:                -0.108
REMARK SMILES CCCCCC(=O)[O-]
REMARK SMILES IDX 4 1 5 2 6 3 7 4 8 5 3 6 2 7 1 8
REMARK H PARENT
REMARK Flexibility Score: inf
ROOT
ATOM      1  C   UNL     1       4.790  23.810 -54.092  1.00  0.00     0.006 C 
ENDROOT
BRANCH   1   2
ATOM      2  C   UNL     1       4.772  22.361 -54.597  1.00  0.00     0.053 C 
BRANCH   2   3
ATOM      3  C   UNL     1       5.390  21.419 -53.609  1.00  0.00     0.041 C 
ATOM      4  O   UNL     1       5.150  21.545 -52.380  1.00  0.00    -0.550 OA
ATOM      5  O   UNL     1       6.256  20.424 -54.043  1.00  0.00    -0.550 OA
ENDBRANCH   2   3
ENDBRANCH   1   2
BRANCH   1   6
ATOM      6  C   UNL     1       4.363  24.810 -55.178  1.00  0.00     0.000 C 
BRANCH   6   7
ATOM      7  C   UNL     1       4.338  24.143 -56.558  1.00  0.00    -0.003 C 
ATOM      8  C   UNL     1       4.748  25.125 -57.651  1.00  0.00     0.004 C 
ENDBRANCH   6   7
ENDBRANCH   1   6
TORSDOF 4
ENDMDL
MODEL 2
REMARK VINA RESULT:    -3.577      3.087      4.582
REMARK INTER + INTRA:          -4.521
REMARK INTER:                  -4.467
REMARK INTRA:                  -0.054
REMARK UNBOUND:                -0.108
REMARK SMILES CCCCCC(=O)[O-]
REMARK SMILES IDX 4 1 5 2 6 3 7 4 8 5 3 6 2 7 1 8
REMARK H PARENT
REMARK Flexibility Score: inf
ROOT
ATOM      1  C   UNL     1       4.773  23.081 -54.948  1.00  0.00     0.006 C 
ENDROOT
BRANCH   1   2
ATOM      2  C   UNL     1       4.480  24.545 -55.302  1.00  0.00     0.053 C 
BRANCH   2   3
ATOM      3  C   UNL     1       3.987  24.690 -56.709  1.00  0.00     0.041 C 
ATOM      4  O   UNL     1       2.760  24.857 -56.936  1.00  0.00    -0.550 OA
ATOM      5  O   UNL     1       4.878  24.606 -57.772  1.00  0.00    -0.550 OA
ENDBRANCH   2   3
ENDBRANCH   1   2
BRANCH   1   6
ATOM      6  C   UNL     1       5.125  22.901 -53.463  1.00  0.00     0.000 C 
BRANCH   6   7
ATOM      7  C   UNL     1       5.448  21.435 -53.150  1.00  0.00    -0.003 C 
ATOM      8  C   UNL     1       6.955  21.204 -53.092  1.00  0.00     0.004 C 
ENDBRANCH   6   7
ENDBRANCH   1   6
TORSDOF 4
ENDMDL
MODEL 3
REMARK VINA RESULT:    -3.547     17.257     18.258
REMARK INTER + INTRA:          -4.485
REMARK INTER:                  -4.337
REMARK INTRA:                  -0.148
REMARK UNBOUND:                -0.108
REMARK SMILES CCCCCC(=O)[O-]
REMARK SMILES IDX 4 1 5 2 6 3 7 4 8 5 3 6 2 7 1 8
REMARK H PARENT
REMARK Flexibility Score: inf
ROOT
ATOM      1  C   UNL     1      -4.649   9.076 -58.153  1.00  0.00     0.006 C 
ENDROOT
BRANCH   1   2
ATOM      2  C   UNL     1      -3.194   9.150 -58.633  1.00  0.00     0.053 C 
BRANCH   2   3
ATOM      3  C   UNL     1      -2.458   7.869 -58.381  1.00  0.00     0.041 C 
ATOM      4  O   UNL     1      -1.897   7.265 -59.332  1.00  0.00    -0.550 OA
ATOM      5  O   UNL     1      -2.421   7.327 -57.103  1.00  0.00    -0.550 OA
ENDBRANCH   2   3
ENDBRANCH   1   2
BRANCH   1   6
ATOM      6  C   UNL     1      -5.411   7.901 -58.786  1.00  0.00     0.000 C 
BRANCH   6   7
ATOM      7  C   UNL     1      -6.259   7.170 -57.739  1.00  0.00    -0.003 C 
ATOM      8  C   UNL     1      -7.743   7.478 -57.919  1.00  0.00     0.004 C 
ENDBRANCH   6   7
ENDBRANCH   1   6
TORSDOF 4
ENDMDL
MODEL 4
REMARK VINA RESULT:    -3.536     17.300     18.269
REMARK INTER + INTRA:          -4.471
REMARK INTER:                  -4.329
REMARK INTRA:                  -0.141
REMARK UNBOUND:                -0.108
REMARK SMILES CCCCCC(=O)[O-]
REMARK SMILES IDX 4 1 5 2 6 3 7 4 8 5 3 6 2 7 1 8
REMARK H PARENT
REMARK Flexibility Score: inf
ROOT
ATOM      1  C   UNL     1      -4.572   9.081 -58.247  1.00  0.00     0.006 C 
ENDROOT
BRANCH   1   2
ATOM      2  C   UNL     1      -3.091   9.053 -58.646  1.00  0.00     0.053 C 
BRANCH   2   3
ATOM      3  C   UNL     1      -2.472   7.712 -58.398  1.00  0.00     0.041 C 
ATOM      4  O   UNL     1      -2.361   7.273 -57.223  1.00  0.00    -0.550 OA
ATOM      5  O   UNL     1      -1.986   6.961 -59.461  1.00  0.00    -0.550 OA
ENDBRANCH   2   3
ENDBRANCH   1   2
BRANCH   1   6
ATOM      6  C   UNL     1      -5.353   7.893 -58.829  1.00  0.00     0.000 C 
BRANCH   6   7
ATOM      7  C   UNL     1      -6.209   7.218 -57.752  1.00  0.00    -0.003 C 
ATOM      8  C   UNL     1      -7.692   7.508 -57.964  1.00  0.00     0.004 C 
ENDBRANCH   6   7
ENDBRANCH   1   6
TORSDOF 4
ENDMDL
MODEL 5
REMARK VINA RESULT:    -3.515     18.100     19.107
REMARK INTER + INTRA:          -4.445
REMARK INTER:                  -4.367
REMARK INTRA:                  -0.078
REMARK UNBOUND:                -0.108
REMARK SMILES CCCCCC(=O)[O-]
REMARK SMILES IDX 4 1 5 2 6 3 7 4 8 5 3 6 2 7 1 8
REMARK H PARENT
REMARK Flexibility Score: inf
ROOT
ATOM      1  C   UNL     1      -5.699   8.040 -58.525  1.00  0.00     0.006 C 
ENDROOT
BRANCH   1   2
ATOM      2  C   UNL     1      -4.362   7.560 -59.103  1.00  0.00     0.053 C 
BRANCH   2   3
ATOM      3  C   UNL     1      -3.195   8.181 -58.397  1.00  0.00     0.041 C 
ATOM      4  O   UNL     1      -2.817   9.343 -58.699  1.00  0.00    -0.550 OA
ATOM      5  O   UNL     1      -2.504   7.463 -57.428  1.00  0.00    -0.550 OA
ENDBRANCH   2   3
ENDBRANCH   1   2
BRANCH   1   6
ATOM      6  C   UNL     1      -6.350   6.988 -57.613  1.00  0.00     0.000 C 
BRANCH   6   7
ATOM      7  C   UNL     1      -7.874   6.994 -57.770  1.00  0.00    -0.003 C 
ATOM      8  C   UNL     1      -8.438   5.577 -57.721  1.00  0.00     0.004 C 
ENDBRANCH   6   7
ENDBRANCH   1   6
TORSDOF 4
ENDMDL
MODEL 6
REMARK VINA RESULT:    -3.370     17.614     18.532
REMARK INTER + INTRA:          -4.266
REMARK INTER:                  -4.108
REMARK INTRA:                  -0.158
REMARK UNBOUND:                -0.108
REMARK SMILES CCCCCC(=O)[O-]
REMARK SMILES IDX 4 1 5 2 6 3 7 4 8 5 3 6 2 7 1 8
REMARK H PARENT
REMARK Flexibility Score: inf
ROOT
ATOM      1  C   UNL     1      -4.662   9.137 -58.342  1.00  0.00     0.006 C 
ENDROOT
BRANCH   1   2
ATOM      2  C   UNL     1      -5.329   7.852 -58.849  1.00  0.00     0.053 C 
BRANCH   2   3
ATOM      3  C   UNL     1      -6.410   7.382 -57.924  1.00  0.00     0.041 C 
ATOM      4  O   UNL     1      -7.576   7.844 -58.027  1.00  0.00    -0.550 OA
ATOM      5  O   UNL     1      -6.120   6.459 -56.926  1.00  0.00    -0.550 OA
ENDBRANCH   2   3
ENDBRANCH   1   2
BRANCH   1   6
ATOM      6  C   UNL     1      -3.129   9.064 -58.412  1.00  0.00     0.000 C 
BRANCH   6   7
ATOM      7  C   UNL     1      -2.636   7.636 -58.154  1.00  0.00    -0.003 C 
ATOM      8  C   UNL     1      -1.586   7.222 -59.180  1.00  0.00     0.004 C 
ENDBRANCH   6   7
ENDBRANCH   1   6
TORSDOF 4
ENDMDL
MODEL 7
REMARK VINA RESULT:    -3.360     16.864     17.936
REMARK INTER + INTRA:          -4.254
REMARK INTER:                  -3.994
REMARK INTRA:                  -0.260
REMARK UNBOUND:                -0.108
REMARK SMILES CCCCCC(=O)[O-]
REMARK SMILES IDX 4 1 5 2 6 3 7 4 8 5 3 6 2 7 1 8
REMARK H PARENT
REMARK Flexibility Score: inf
ROOT
ATOM      1  C   UNL     1      -4.610   7.507 -59.467  1.00  0.00     0.006 C 
ENDROOT
BRANCH   1   2
ATOM      2  C   UNL     1      -4.919   8.478 -58.320  1.00  0.00     0.053 C 
BRANCH   2   3
ATOM      3  C   UNL     1      -3.681   9.154 -57.814  1.00  0.00     0.041 C 
ATOM      4  O   UNL     1      -2.963   9.828 -58.598  1.00  0.00    -0.550 OA
ATOM      5  O   UNL     1      -3.304   9.013 -56.485  1.00  0.00    -0.550 OA
ENDBRANCH   2   3
ENDBRANCH   1   2
BRANCH   1   6
ATOM      6  C   UNL     1      -3.710   6.345 -59.019  1.00  0.00     0.000 C 
BRANCH   6   7
ATOM      7  C   UNL     1      -2.420   6.302 -59.845  1.00  0.00    -0.003 C 
ATOM      8  C   UNL     1      -1.222   6.764 -59.020  1.00  0.00     0.004 C 
ENDBRANCH   6   7
ENDBRANCH   1   6
TORSDOF 4
ENDMDL
MODEL 8
REMARK VINA RESULT:    -3.353     14.139     14.627
REMARK INTER + INTRA:          -4.246
REMARK INTER:                  -4.122
REMARK INTRA:                  -0.124
REMARK UNBOUND:                -0.108
REMARK SMILES CCCCCC(=O)[O-]
REMARK SMILES IDX 4 1 5 2 6 3 7 4 8 5 3 6 2 7 1 8
REMARK H PARENT
REMARK Flexibility Score: inf
ROOT
ATOM      1  C   UNL     1      -5.795  16.921 -61.000  1.00  0.00     0.006 C 
ENDROOT
BRANCH   1   2
ATOM      2  C   UNL     1      -7.208  17.296 -61.465  1.00  0.00     0.053 C 
BRANCH   2   3
ATOM      3  C   UNL     1      -8.163  16.150 -61.322  1.00  0.00     0.041 C 
ATOM      4  O   UNL     1      -7.787  15.075 -60.786  1.00  0.00    -0.550 OA
ATOM      5  O   UNL     1      -9.459  16.258 -61.812  1.00  0.00    -0.550 OA
ENDBRANCH   2   3
ENDBRANCH   1   2
BRANCH   1   6
ATOM      6  C   UNL     1      -5.315  17.797 -59.833  1.00  0.00     0.000 C 
BRANCH   6   7
ATOM      7  C   UNL     1      -4.610  19.058 -60.347  1.00  0.00    -0.003 C 
ATOM      8  C   UNL     1      -5.256  20.319 -59.782  1.00  0.00     0.004 C 
ENDBRANCH   6   7
ENDBRANCH   1   6
TORSDOF 4
ENDMDL
MODEL 9
REMARK VINA RESULT:    -3.282     16.910     17.795
REMARK INTER + INTRA:          -4.158
REMARK INTER:                  -3.978
REMARK INTRA:                  -0.180
REMARK UNBOUND:                -0.108
REMARK SMILES CCCCCC(=O)[O-]
REMARK SMILES IDX 4 1 5 2 6 3 7 4 8 5 3 6 2 7 1 8
REMARK H PARENT
REMARK Flexibility Score: inf
ROOT
ATOM      1  C   UNL     1      -2.768   8.875 -58.706  1.00  0.00     0.006 C 
ENDROOT
BRANCH   1   2
ATOM      2  C   UNL     1      -2.484   7.406 -59.046  1.00  0.00     0.053 C 
BRANCH   2   3
ATOM      3  C   UNL     1      -1.648   6.742 -57.994  1.00  0.00     0.041 C 
ATOM      4  O   UNL     1      -0.577   6.162 -58.310  1.00  0.00    -0.550 OA
ATOM      5  O   UNL     1      -2.071   6.736 -56.671  1.00  0.00    -0.550 OA
ENDBRANCH   2   3
ENDBRANCH   1   2
BRANCH   1   6
ATOM      6  C   UNL     1      -4.262   9.217 -58.807  1.00  0.00     0.000 C 
BRANCH   6   7
ATOM      7  C   UNL     1      -5.050   8.575 -57.660  1.00  0.00    -0.003 C 
ATOM      8  C   UNL     1      -6.271   7.823 -58.182  1.00  0.00     0.004 C 
ENDBRANCH   6   7
ENDBRANCH   1   6
TORSDOF 4
ENDMDL
