MODEL 1
REMARK VINA RESULT:    -3.607      0.000      0.000
REMARK INTER + INTRA:          -3.607
REMARK INTER:                  -3.607
REMARK INTRA:                   0.000
REMARK UNBOUND:                 0.000
REMARK SMILES CC(C)=C1CC[C@H](C)CC1=O
REMARK SMILES IDX 8 1 7 2 6 3 5 4 4 5 2 6 1 7 3 8 10 9 11 10 9 11
REMARK H PARENT
REMARK Flexibility Score: inf
ROOT
ATOM      1  C   UNL     1     183.980 199.772 210.287  1.00  0.00     0.008 C 
ATOM      2  C   UNL     1     184.926 200.817 210.889  1.00  0.00    -0.006 C 
ATOM      3  C   UNL     1     185.367 200.398 212.300  1.00  0.00     0.008 C 
ATOM      4  C   UNL     1     186.233 201.480 212.958  1.00  0.00     0.039 C 
ATOM      5  C   UNL     1     187.403 201.905 212.082  1.00  0.00    -0.006 C 
ATOM      6  C   UNL     1     188.588 202.310 212.627  1.00  0.00    -0.070 C 
ATOM      7  C   UNL     1     189.774 202.680 211.767  1.00  0.00     0.039 C 
ATOM      8  C   UNL     1     188.781 202.371 214.125  1.00  0.00     0.039 C 
ATOM      9  C   UNL     1     187.136 201.961 210.614  1.00  0.00     0.159 C 
ATOM     10  O   UNL     1     187.715 202.801 209.875  1.00  0.00    -0.295 OA
ATOM     11  C   UNL     1     186.156 201.009 209.990  1.00  0.00     0.084 C 
ENDROOT
TORSDOF 0
ENDMDL
MODEL 2
REMARK VINA RESULT:    -3.560      1.388      3.976
REMARK INTER + INTRA:          -3.560
REMARK INTER:                  -3.560
REMARK INTRA:                   0.000
REMARK UNBOUND:                 0.000
REMARK SMILES CC(C)=C1CC[C@H](C)CC1=O
REMARK SMILES IDX 8 1 7 2 6 3 5 4 4 5 2 6 1 7 3 8 10 9 11 10 9 11
REMARK H PARENT
REMARK Flexibility Score: inf
ROOT
ATOM      1  C   UNL     1     190.798 203.514 209.787  1.00  0.00     0.008 C 
ATOM      2  C   UNL     1     189.675 202.686 210.420  1.00  0.00    -0.006 C 
ATOM      3  C   UNL     1     189.392 203.165 211.853  1.00  0.00     0.008 C 
ATOM      4  C   UNL     1     188.342 202.281 212.539  1.00  0.00     0.039 C 
ATOM      5  C   UNL     1     187.073 202.132 211.711  1.00  0.00    -0.006 C 
ATOM      6  C   UNL     1     185.852 201.980 212.304  1.00  0.00    -0.070 C 
ATOM      7  C   UNL     1     184.580 201.889 211.493  1.00  0.00     0.039 C 
ATOM      8  C   UNL     1     185.712 201.935 213.808  1.00  0.00     0.039 C 
ATOM      9  C   UNL     1     187.261 202.047 210.232  1.00  0.00     0.159 C 
ATOM     10  O   UNL     1     186.486 201.363 209.512  1.00  0.00    -0.295 OA
ATOM     11  C   UNL     1     188.397 202.777 209.574  1.00  0.00     0.084 C 
ENDROOT
TORSDOF 0
ENDMDL
MODEL 3
REMARK VINA RESULT:    -3.494      1.902      3.064
REMARK INTER + INTRA:          -3.494
REMARK INTER:                  -3.494
REMARK INTRA:                   0.000
REMARK UNBOUND:                 0.000
REMARK SMILES CC(C)=C1CC[C@H](C)CC1=O
REMARK SMILES IDX 8 1 7 2 6 3 5 4 4 5 2 6 1 7 3 8 10 9 11 10 9 11
REMARK H PARENT
REMARK Flexibility Score: inf
ROOT
ATOM      1  C   UNL     1     185.451 200.253 212.253  1.00  0.00     0.008 C 
ATOM      2  C   UNL     1     186.776 200.946 211.921  1.00  0.00    -0.006 C 
ATOM      3  C   UNL     1     186.569 202.023 210.844  1.00  0.00     0.008 C 
ATOM      4  C   UNL     1     187.901 202.657 210.425  1.00  0.00     0.039 C 
ATOM      5  C   UNL     1     188.706 203.166 211.613  1.00  0.00    -0.006 C 
ATOM      6  C   UNL     1     189.521 204.256 211.504  1.00  0.00    -0.070 C 
ATOM      7  C   UNL     1     190.279 204.804 212.690  1.00  0.00     0.039 C 
ATOM      8  C   UNL     1     189.672 204.993 210.193  1.00  0.00     0.039 C 
ATOM      9  C   UNL     1     188.637 202.338 212.854  1.00  0.00     0.159 C 
ATOM     10  O   UNL     1     189.617 202.255 213.641  1.00  0.00    -0.295 OA
ATOM     11  C   UNL     1     187.386 201.575 213.182  1.00  0.00     0.084 C 
ENDROOT
TORSDOF 0
ENDMDL
MODEL 4
REMARK VINA RESULT:    -3.493      1.988      4.124
REMARK INTER + INTRA:          -3.493
REMARK INTER:                  -3.493
REMARK INTRA:                   0.000
REMARK UNBOUND:                 0.000
REMARK SMILES CC(C)=C1CC[C@H](C)CC1=O
REMARK SMILES IDX 8 1 7 2 6 3 5 4 4 5 2 6 1 7 3 8 10 9 11 10 9 11
REMARK H PARENT
REMARK Flexibility Score: inf
ROOT
ATOM      1  C   UNL     1     185.745 201.931 213.917  1.00  0.00     0.008 C 
ATOM      2  C   UNL     1     185.692 201.896 212.386  1.00  0.00    -0.006 C 
ATOM      3  C   UNL     1     187.073 202.208 211.790  1.00  0.00     0.008 C 
ATOM      4  C   UNL     1     187.017 202.278 210.258  1.00  0.00     0.039 C 
ATOM      5  C   UNL     1     186.379 201.041 209.640  1.00  0.00    -0.006 C 
ATOM      6  C   UNL     1     186.767 200.580 208.414  1.00  0.00    -0.070 C 
ATOM      7  C   UNL     1     186.182 199.321 207.817  1.00  0.00     0.039 C 
ATOM      8  C   UNL     1     187.833 201.289 207.612  1.00  0.00     0.039 C 
ATOM      9  C   UNL     1     185.240 200.443 210.397  1.00  0.00     0.159 C 
ATOM     10  O   UNL     1     184.288 199.870 209.803  1.00  0.00    -0.295 OA
ATOM     11  C   UNL     1     185.207 200.523 211.897  1.00  0.00     0.084 C 
ENDROOT
TORSDOF 0
ENDMDL
MODEL 5
REMARK VINA RESULT:    -3.378      2.787      3.673
REMARK INTER + INTRA:          -3.378
REMARK INTER:                  -3.378
REMARK INTRA:                   0.000
REMARK UNBOUND:                 0.000
REMARK SMILES CC(C)=C1CC[C@H](C)CC1=O
REMARK SMILES IDX 8 1 7 2 6 3 5 4 4 5 2 6 1 7 3 8 10 9 11 10 9 11
REMARK H PARENT
REMARK Flexibility Score: inf
ROOT
ATOM      1  C   UNL     1     189.161 197.184 210.850  1.00  0.00     0.008 C 
ATOM      2  C   UNL     1     187.960 197.928 211.444  1.00  0.00    -0.006 C 
ATOM      3  C   UNL     1     188.409 198.855 212.584  1.00  0.00     0.008 C 
ATOM      4  C   UNL     1     187.208 199.531 213.258  1.00  0.00     0.039 C 
ATOM      5  C   UNL     1     186.295 200.231 212.260  1.00  0.00    -0.006 C 
ATOM      6  C   UNL     1     185.603 201.358 212.601  1.00  0.00    -0.070 C 
ATOM      7  C   UNL     1     184.740 202.094 211.602  1.00  0.00     0.039 C 
ATOM      8  C   UNL     1     185.699 201.948 213.989  1.00  0.00     0.039 C 
ATOM      9  C   UNL     1     186.119 199.550 210.943  1.00  0.00     0.159 C 
ATOM     10  O   UNL     1     185.037 199.631 210.304  1.00  0.00    -0.295 OA
ATOM     11  C   UNL     1     187.242 198.742 210.357  1.00  0.00     0.084 C 
ENDROOT
TORSDOF 0
ENDMDL
MODEL 6
REMARK VINA RESULT:    -3.363      1.865      4.187
REMARK INTER + INTRA:          -3.363
REMARK INTER:                  -3.363
REMARK INTRA:                   0.000
REMARK UNBOUND:                 0.000
REMARK SMILES CC(C)=C1CC[C@H](C)CC1=O
REMARK SMILES IDX 8 1 7 2 6 3 5 4 4 5 2 6 1 7 3 8 10 9 11 10 9 11
REMARK H PARENT
REMARK Flexibility Score: inf
ROOT
ATOM      1  C   UNL     1     190.981 201.438 209.640  1.00  0.00     0.008 C 
ATOM      2  C   UNL     1     189.775 202.038 210.371  1.00  0.00    -0.006 C 
ATOM      3  C   UNL     1     188.471 201.695 209.634  1.00  0.00     0.008 C 
ATOM      4  C   UNL     1     187.263 202.373 210.293  1.00  0.00     0.039 C 
ATOM      5  C   UNL     1     187.180 202.094 211.788  1.00  0.00    -0.006 C 
ATOM      6  C   UNL     1     185.977 202.016 212.430  1.00  0.00    -0.070 C 
ATOM      7  C   UNL     1     185.881 201.683 213.900  1.00  0.00     0.039 C 
ATOM      8  C   UNL     1     184.677 202.220 211.686  1.00  0.00     0.039 C 
ATOM      9  C   UNL     1     188.482 202.030 212.515  1.00  0.00     0.159 C 
ATOM     10  O   UNL     1     188.581 202.400 213.715  1.00  0.00    -0.295 OA
ATOM     11  C   UNL     1     189.711 201.523 211.816  1.00  0.00     0.084 C 
ENDROOT
TORSDOF 0
ENDMDL
MODEL 7
REMARK VINA RESULT:    -3.300      2.265      5.270
REMARK INTER + INTRA:          -3.300
REMARK INTER:                  -3.300
REMARK INTRA:                   0.000
REMARK UNBOUND:                 0.000
REMARK SMILES CC(C)=C1CC[C@H](C)CC1=O
REMARK SMILES IDX 8 1 7 2 6 3 5 4 4 5 2 6 1 7 3 8 10 9 11 10 9 11
REMARK H PARENT
REMARK Flexibility Score: inf
ROOT
ATOM      1  C   UNL     1     191.509 205.115 213.739  1.00  0.00     0.008 C 
ATOM      2  C   UNL     1     190.243 204.566 213.074  1.00  0.00    -0.006 C 
ATOM      3  C   UNL     1     190.359 204.644 211.543  1.00  0.00     0.008 C 
ATOM      4  C   UNL     1     189.061 204.193 210.861  1.00  0.00     0.039 C 
ATOM      5  C   UNL     1     188.591 202.827 211.343  1.00  0.00    -0.006 C 
ATOM      6  C   UNL     1     187.917 201.976 210.515  1.00  0.00    -0.070 C 
ATOM      7  C   UNL     1     187.497 200.596 210.965  1.00  0.00     0.039 C 
ATOM      8  C   UNL     1     187.594 202.361 209.090  1.00  0.00     0.039 C 
ATOM      9  C   UNL     1     188.809 202.533 212.791  1.00  0.00     0.159 C 
ATOM     10  O   UNL     1     188.011 201.804 213.437  1.00  0.00    -0.295 OA
ATOM     11  C   UNL     1     189.993 203.114 213.508  1.00  0.00     0.084 C 
ENDROOT
TORSDOF 0
ENDMDL
MODEL 8
REMARK VINA RESULT:    -3.282      1.560      4.515
REMARK INTER + INTRA:          -3.282
REMARK INTER:                  -3.282
REMARK INTRA:                   0.000
REMARK UNBOUND:                 0.000
REMARK SMILES CC(C)=C1CC[C@H](C)CC1=O
REMARK SMILES IDX 8 1 7 2 6 3 5 4 4 5 2 6 1 7 3 8 10 9 11 10 9 11
REMARK H PARENT
REMARK Flexibility Score: inf
ROOT
ATOM      1  C   UNL     1     188.839 202.094 213.965  1.00  0.00     0.008 C 
ATOM      2  C   UNL     1     187.961 202.037 212.711  1.00  0.00    -0.006 C 
ATOM      3  C   UNL     1     188.479 200.969 211.735  1.00  0.00     0.008 C 
ATOM      4  C   UNL     1     187.674 200.968 210.429  1.00  0.00     0.039 C 
ATOM      5  C   UNL     1     186.174 200.863 210.668  1.00  0.00    -0.006 C 
ATOM      6  C   UNL     1     185.356 200.229 209.777  1.00  0.00    -0.070 C 
ATOM      7  C   UNL     1     183.875 200.069 210.031  1.00  0.00     0.039 C 
ATOM      8  C   UNL     1     185.904 199.621 208.506  1.00  0.00     0.039 C 
ATOM      9  C   UNL     1     185.648 201.588 211.863  1.00  0.00     0.159 C 
ATOM     10  O   UNL     1     184.492 202.089 211.868  1.00  0.00    -0.295 OA
ATOM     11  C   UNL     1     186.502 201.739 213.089  1.00  0.00     0.084 C 
ENDROOT
TORSDOF 0
ENDMDL
