MODEL 1
REMARK VINA RESULT:    21.299      0.000      0.000
REMARK INTER + INTRA:          23.513
REMARK INTER:                  24.412
REMARK INTRA:                  -0.899
REMARK UNBOUND:                -0.899
REMARK SMILES C=C(C)[C@H]1CC[C@]2(C(=O)[O-])CC[C@@]3(C)[C@H](CC[C@@H]4[C@]5(C)CC[C@H](O)C(C)(C)[C@@H]5CC[C@]43C)[C@H]12
REMARK SMILES IDX 7 1 6 2 33 3 11 4 5 5 15 6 4 7 12 8 16 9 13 10 17 11 31 12
REMARK SMILES IDX 14 13 18 14 30 15 32 16 19 17 29 18 21 19 20 20 28 21 22 22
REMARK SMILES IDX 25 23 23 24 26 25 27 26 8 27 9 28 10 29 2 30 3 31 1 32 24 33
REMARK H PARENT 24 34
REMARK Flexibility Score: inf
ROOT
ATOM      1  C   UNL     1       8.258 -55.274 569.245  1.00  0.00     0.014 C 
ATOM      2  C   UNL     1       9.125 -56.556 569.287  1.00  0.00     0.014 C 
ATOM      3  C   UNL     1       7.173 -55.544 570.328  1.00  0.00     0.012 C 
ATOM      4  C   UNL     1       9.125 -54.006 569.560  1.00  0.00     0.014 C 
ATOM      5  C   UNL     1       9.106 -57.053 570.720  1.00  0.00     0.009 C 
ATOM      6  C   UNL     1       6.579 -54.227 570.935  1.00  0.00     0.000 C 
ATOM      7  C   UNL     1       7.801 -56.540 571.343  1.00  0.00     0.018 C 
ATOM      8  C   UNL     1       9.078 -53.564 571.035  1.00  0.00     0.008 C 
ATOM      9  C   UNL     1       5.252 -54.469 571.716  1.00  0.00     0.005 C 
ATOM     10  C   UNL     1       7.638 -53.190 571.557  1.00  0.00    -0.024 C 
ATOM     11  C   UNL     1       5.156 -53.692 573.021  1.00  0.00     0.005 C 
ATOM     12  C   UNL     1       7.594 -53.039 573.216  1.00  0.00    -0.024 C 
ATOM     13  C   UNL     1       7.310 -51.817 570.858  1.00  0.00     0.012 C 
ATOM     14  C   UNL     1       6.449 -53.928 573.827  1.00  0.00     0.002 C 
ATOM     15  C   UNL     1       8.894 -53.535 573.916  1.00  0.00     0.008 C 
ATOM     16  C   UNL     1       7.443 -51.528 573.628  1.00  0.00     0.012 C 
ATOM     17  C   UNL     1       6.277 -54.035 575.411  1.00  0.00    -0.026 C 
ATOM     18  C   UNL     1       8.865 -53.417 575.444  1.00  0.00     0.005 C 
ATOM     19  C   UNL     1       5.417 -52.855 575.972  1.00  0.00     0.010 C 
ATOM     20  C   UNL     1       5.467 -55.355 575.680  1.00  0.00     0.012 C 
ATOM     21  C   UNL     1       7.698 -54.184 576.136  1.00  0.00     0.003 C 
ATOM     22  C   UNL     1       5.419 -52.736 577.498  1.00  0.00     0.033 C 
ATOM     23  C   UNL     1       7.683 -53.957 577.718  1.00  0.00    -0.006 C 
ATOM     24  C   UNL     1       6.837 -52.700 578.091  1.00  0.00     0.120 C 
ATOM     25  C   UNL     1       7.139 -55.214 578.468  1.00  0.00     0.014 C 
ATOM     26  C   UNL     1       9.123 -53.763 578.289  1.00  0.00     0.014 C 
ENDROOT
BRANCH   1  27
ATOM     27  C   UNL     1       7.622 -55.094 567.869  1.00  0.00     0.048 C 
ATOM     28  O   UNL     1       6.510 -55.619 567.581  1.00  0.00    -0.550 OA
ATOM     29  O   UNL     1       8.273 -54.342 566.897  1.00  0.00    -0.550 OA
ENDBRANCH   1  27
BRANCH   7  30
ATOM     30  C   UNL     1       6.875 -57.695 571.713  1.00  0.00    -0.077 C 
ATOM     31  C   UNL     1       6.291 -57.815 573.099  1.00  0.00     0.039 C 
ATOM     32  C   UNL     1       6.498 -58.578 570.780  1.00  0.00     0.008 C 
ENDBRANCH   7  30
BRANCH  24  33
ATOM     33  O   UNL     1       7.491 -51.528 577.675  1.00  0.00    -0.393 OA
ATOM     34  H   UNL     1       7.140 -50.782 578.233  1.00  0.00     0.210 HD
ENDBRANCH  24  33
TORSDOF 3
ENDMDL
