MODEL 1
REMARK VINA RESULT:    -4.147      0.000      0.000
REMARK INTER + INTRA:          -8.517
REMARK INTER:                  -7.540
REMARK INTRA:                  -0.977
REMARK UNBOUND:                -0.977
REMARK SMILES CCCCCCCCCCCCCCCC(=O)[O-]
REMARK SMILES IDX 9 1 10 2 11 3 12 4 13 5 14 6 15 7 16 8 17 9 18 10 8 11 7 12
REMARK SMILES IDX 6 13 5 14 4 15 3 16 2 17 1 18
REMARK H PARENT
REMARK Flexibility Score: inf
ROOT
ATOM      1  C   UNL     1      31.065  -0.797  42.384  1.00  0.00     0.000 C 
ENDROOT
BRANCH   1   2
ATOM      2  C   UNL     1      32.394  -0.274  42.957  1.00  0.00     0.000 C 
BRANCH   2   3
ATOM      3  C   UNL     1      33.594  -0.562  42.038  1.00  0.00     0.000 C 
BRANCH   3   4
ATOM      4  C   UNL     1      34.688   0.524  42.035  1.00  0.00     0.000 C 
BRANCH   4   5
ATOM      5  C   UNL     1      36.125  -0.037  42.089  1.00  0.00     0.000 C 
BRANCH   5   6
ATOM      6  C   UNL     1      36.385  -0.852  43.369  1.00  0.00     0.006 C 
BRANCH   6   7
ATOM      7  C   UNL     1      37.206  -2.126  43.100  1.00  0.00     0.053 C 
BRANCH   7   8
ATOM      8  C   UNL     1      36.455  -3.379  43.448  1.00  0.00     0.041 C 
ATOM      9  O   UNL     1      35.271  -3.535  43.043  1.00  0.00    -0.550 OA
ATOM     10  O   UNL     1      37.070  -4.401  44.162  1.00  0.00    -0.550 OA
ENDBRANCH   7   8
ENDBRANCH   6   7
ENDBRANCH   5   6
ENDBRANCH   4   5
ENDBRANCH   3   4
ENDBRANCH   2   3
ENDBRANCH   1   2
BRANCH   1  11
ATOM     11  C   UNL     1      30.190  -1.477  43.449  1.00  0.00     0.000 C 
BRANCH  11  12
ATOM     12  C   UNL     1      31.013  -2.073  44.604  1.00  0.00    -0.000 C 
BRANCH  12  13
ATOM     13  C   UNL     1      30.291  -1.959  45.957  1.00  0.00    -0.000 C 
BRANCH  13  14
ATOM     14  C   UNL     1      29.373  -0.728  46.039  1.00  0.00    -0.000 C 
BRANCH  14  15
ATOM     15  C   UNL     1      27.881  -1.101  46.067  1.00  0.00    -0.000 C 
BRANCH  15  16
ATOM     16  C   UNL     1      27.630  -2.619  46.180  1.00  0.00    -0.000 C 
BRANCH  16  17
ATOM     17  C   UNL     1      26.487  -2.946  47.153  1.00  0.00    -0.003 C 
ATOM     18  C   UNL     1      26.888  -4.049  48.128  1.00  0.00     0.004 C 
ENDBRANCH  16  17
ENDBRANCH  15  16
ENDBRANCH  14  15
ENDBRANCH  13  14
ENDBRANCH  12  13
ENDBRANCH  11  12
ENDBRANCH   1  11
TORSDOF 14
ENDMDL
MODEL 2
REMARK VINA RESULT:    -4.058     12.622     15.560
REMARK INTER + INTRA:          -8.356
REMARK INTER:                  -6.544
REMARK INTRA:                  -1.812
REMARK UNBOUND:                -0.977
REMARK SMILES CCCCCCCCCCCCCCCC(=O)[O-]
REMARK SMILES IDX 9 1 10 2 11 3 12 4 13 5 14 6 15 7 16 8 17 9 18 10 8 11 7 12
REMARK SMILES IDX 6 13 5 14 4 15 3 16 2 17 1 18
REMARK H PARENT
REMARK Flexibility Score: inf
ROOT
ATOM      1  C   UNL     1      21.806 -11.432  45.623  1.00  0.00     0.000 C 
ENDROOT
BRANCH   1   2
ATOM      2  C   UNL     1      21.943 -10.429  44.463  1.00  0.00     0.000 C 
BRANCH   2   3
ATOM      3  C   UNL     1      20.602  -9.788  44.068  1.00  0.00     0.000 C 
BRANCH   3   4
ATOM      4  C   UNL     1      20.471  -9.417  42.578  1.00  0.00     0.000 C 
BRANCH   4   5
ATOM      5  C   UNL     1      20.958  -7.991  42.243  1.00  0.00     0.000 C 
BRANCH   5   6
ATOM      6  C   UNL     1      20.706  -7.003  43.397  1.00  0.00     0.006 C 
BRANCH   6   7
ATOM      7  C   UNL     1      19.969  -5.733  42.935  1.00  0.00     0.053 C 
BRANCH   7   8
ATOM      8  C   UNL     1      20.541  -4.484  43.542  1.00  0.00     0.041 C 
ATOM      9  O   UNL     1      21.530  -3.918  43.002  1.00  0.00    -0.550 OA
ATOM     10  O   UNL     1      19.955  -3.905  44.661  1.00  0.00    -0.550 OA
ENDBRANCH   7   8
ENDBRANCH   6   7
ENDBRANCH   5   6
ENDBRANCH   4   5
ENDBRANCH   3   4
ENDBRANCH   2   3
ENDBRANCH   1   2
BRANCH   1  11
ATOM     11  C   UNL     1      20.445 -11.334  46.331  1.00  0.00     0.000 C 
BRANCH  11  12
ATOM     12  C   UNL     1      19.961 -12.688  46.878  1.00  0.00    -0.000 C 
BRANCH  12  13
ATOM     13  C   UNL     1      20.738 -13.872  46.281  1.00  0.00    -0.000 C 
BRANCH  13  14
ATOM     14  C   UNL     1      19.815 -14.991  45.769  1.00  0.00    -0.000 C 
BRANCH  14  15
ATOM     15  C   UNL     1      19.711 -15.019  44.235  1.00  0.00    -0.000 C 
BRANCH  15  16
ATOM     16  C   UNL     1      19.206 -13.692  43.629  1.00  0.00    -0.000 C 
BRANCH  16  17
ATOM     17  C   UNL     1      20.137 -13.168  42.526  1.00  0.00    -0.003 C 
ATOM     18  C   UNL     1      21.545 -13.737  42.673  1.00  0.00     0.004 C 
ENDBRANCH  16  17
ENDBRANCH  15  16
ENDBRANCH  14  15
ENDBRANCH  13  14
ENDBRANCH  12  13
ENDBRANCH  11  12
ENDBRANCH   1  11
TORSDOF 14
ENDMDL
MODEL 3
REMARK VINA RESULT:    -3.931      3.167      7.794
REMARK INTER + INTRA:          -8.126
REMARK INTER:                  -7.295
REMARK INTRA:                  -0.831
REMARK UNBOUND:                -0.977
REMARK SMILES CCCCCCCCCCCCCCCC(=O)[O-]
REMARK SMILES IDX 9 1 10 2 11 3 12 4 13 5 14 6 15 7 16 8 17 9 18 10 8 11 7 12
REMARK SMILES IDX 6 13 5 14 4 15 3 16 2 17 1 18
REMARK H PARENT
REMARK Flexibility Score: inf
ROOT
ATOM      1  C   UNL     1      33.005  -0.377  42.539  1.00  0.00     0.000 C 
ENDROOT
BRANCH   1   2
ATOM      2  C   UNL     1      31.527  -0.378  42.109  1.00  0.00     0.000 C 
BRANCH   2   3
ATOM      3  C   UNL     1      30.630  -1.187  43.061  1.00  0.00     0.000 C 
BRANCH   3   4
ATOM      4  C   UNL     1      31.289  -1.585  44.397  1.00  0.00     0.000 C 
BRANCH   4   5
ATOM      5  C   UNL     1      30.408  -2.492  45.283  1.00  0.00     0.000 C 
BRANCH   5   6
ATOM      6  C   UNL     1      28.950  -2.551  44.788  1.00  0.00     0.006 C 
BRANCH   6   7
ATOM      7  C   UNL     1      27.950  -2.036  45.839  1.00  0.00     0.053 C 
BRANCH   7   8
ATOM      8  C   UNL     1      27.386  -3.141  46.685  1.00  0.00     0.041 C 
ATOM      9  O   UNL     1      26.380  -2.923  47.414  1.00  0.00    -0.550 OA
ATOM     10  O   UNL     1      27.920  -4.422  46.630  1.00  0.00    -0.550 OA
ENDBRANCH   7   8
ENDBRANCH   6   7
ENDBRANCH   5   6
ENDBRANCH   4   5
ENDBRANCH   3   4
ENDBRANCH   2   3
ENDBRANCH   1   2
BRANCH   1  11
ATOM     11  C   UNL     1      33.753   0.884  42.078  1.00  0.00     0.000 C 
BRANCH  11  12
ATOM     12  C   UNL     1      35.282   0.722  42.132  1.00  0.00    -0.000 C 
BRANCH  12  13
ATOM     13  C   UNL     1      35.713  -0.754  42.169  1.00  0.00    -0.000 C 
BRANCH  13  14
ATOM     14  C   UNL     1      36.625  -1.077  43.364  1.00  0.00    -0.000 C 
BRANCH  14  15
ATOM     15  C   UNL     1      37.778  -2.025  42.992  1.00  0.00    -0.000 C 
BRANCH  15  16
ATOM     16  C   UNL     1      37.319  -3.475  42.727  1.00  0.00    -0.000 C 
BRANCH  16  17
ATOM     17  C   UNL     1      36.596  -4.083  43.938  1.00  0.00    -0.003 C 
ATOM     18  C   UNL     1      35.091  -4.160  43.702  1.00  0.00     0.004 C 
ENDBRANCH  16  17
ENDBRANCH  15  16
ENDBRANCH  14  15
ENDBRANCH  13  14
ENDBRANCH  12  13
ENDBRANCH  11  12
ENDBRANCH   1  11
TORSDOF 14
ENDMDL
MODEL 4
REMARK VINA RESULT:    -3.912      1.291      2.712
REMARK INTER + INTRA:          -8.090
REMARK INTER:                  -7.187
REMARK INTRA:                  -0.902
REMARK UNBOUND:                -0.977
REMARK SMILES CCCCCCCCCCCCCCCC(=O)[O-]
REMARK SMILES IDX 9 1 10 2 11 3 12 4 13 5 14 6 15 7 16 8 17 9 18 10 8 11 7 12
REMARK SMILES IDX 6 13 5 14 4 15 3 16 2 17 1 18
REMARK H PARENT
REMARK Flexibility Score: inf
ROOT
ATOM      1  C   UNL     1      33.971  -0.707  42.342  1.00  0.00     0.000 C 
ENDROOT
BRANCH   1   2
ATOM      2  C   UNL     1      35.195   0.004  42.946  1.00  0.00     0.000 C 
BRANCH   2   3
ATOM      3  C   UNL     1      36.527  -0.636  42.519  1.00  0.00     0.000 C 
BRANCH   3   4
ATOM      4  C   UNL     1      37.317  -1.318  43.654  1.00  0.00     0.000 C 
BRANCH   4   5
ATOM      5  C   UNL     1      38.451  -2.241  43.159  1.00  0.00     0.000 C 
BRANCH   5   6
ATOM      6  C   UNL     1      37.962  -3.680  42.908  1.00  0.00     0.006 C 
BRANCH   6   7
ATOM      7  C   UNL     1      36.903  -4.129  43.931  1.00  0.00     0.053 C 
BRANCH   7   8
ATOM      8  C   UNL     1      35.512  -4.113  43.364  1.00  0.00     0.041 C 
ATOM      9  O   UNL     1      35.338  -3.898  42.133  1.00  0.00    -0.550 OA
ATOM     10  O   UNL     1      34.414  -4.394  44.167  1.00  0.00    -0.550 OA
ENDBRANCH   7   8
ENDBRANCH   6   7
ENDBRANCH   5   6
ENDBRANCH   4   5
ENDBRANCH   3   4
ENDBRANCH   2   3
ENDBRANCH   1   2
BRANCH   1  11
ATOM     11  C   UNL     1      32.659   0.049  42.607  1.00  0.00     0.000 C 
BRANCH  11  12
ATOM     12  C   UNL     1      31.418  -0.731  42.137  1.00  0.00    -0.000 C 
BRANCH  12  13
ATOM     13  C   UNL     1      30.606  -1.301  43.312  1.00  0.00    -0.000 C 
BRANCH  13  14
ATOM     14  C   UNL     1      31.354  -1.208  44.653  1.00  0.00    -0.000 C 
BRANCH  14  15
ATOM     15  C   UNL     1      30.629  -1.948  45.789  1.00  0.00    -0.000 C 
BRANCH  15  16
ATOM     16  C   UNL     1      29.175  -1.474  46.001  1.00  0.00    -0.000 C 
BRANCH  16  17
ATOM     17  C   UNL     1      28.180  -2.644  46.003  1.00  0.00    -0.003 C 
ATOM     18  C   UNL     1      28.828  -3.923  45.483  1.00  0.00     0.004 C 
ENDBRANCH  16  17
ENDBRANCH  15  16
ENDBRANCH  14  15
ENDBRANCH  13  14
ENDBRANCH  12  13
ENDBRANCH  11  12
ENDBRANCH   1  11
TORSDOF 14
ENDMDL
MODEL 5
REMARK VINA RESULT:    -3.845      3.592      7.978
REMARK INTER + INTRA:          -7.968
REMARK INTER:                  -7.406
REMARK INTRA:                  -0.562
REMARK UNBOUND:                -0.977
REMARK SMILES CCCCCCCCCCCCCCCC(=O)[O-]
REMARK SMILES IDX 9 1 10 2 11 3 12 4 13 5 14 6 15 7 16 8 17 9 18 10 8 11 7 12
REMARK SMILES IDX 6 13 5 14 4 15 3 16 2 17 1 18
REMARK H PARENT
REMARK Flexibility Score: inf
ROOT
ATOM      1  C   UNL     1      31.551  -1.133  43.203  1.00  0.00     0.000 C 
ENDROOT
BRANCH   1   2
ATOM      2  C   UNL     1      30.524  -0.712  42.137  1.00  0.00     0.000 C 
BRANCH   2   3
ATOM      3  C   UNL     1      29.083  -1.098  42.513  1.00  0.00     0.000 C 
BRANCH   3   4
ATOM      4  C   UNL     1      28.953  -1.999  43.758  1.00  0.00     0.000 C 
BRANCH   4   5
ATOM      5  C   UNL     1      28.899  -1.221  45.090  1.00  0.00     0.000 C 
BRANCH   5   6
ATOM      6  C   UNL     1      29.160  -2.129  46.306  1.00  0.00     0.006 C 
BRANCH   6   7
ATOM      7  C   UNL     1      28.414  -3.472  46.207  1.00  0.00     0.053 C 
BRANCH   7   8
ATOM      8  C   UNL     1      27.168  -3.502  47.045  1.00  0.00     0.041 C 
ATOM      9  O   UNL     1      26.396  -2.504  47.058  1.00  0.00    -0.550 OA
ATOM     10  O   UNL     1      26.820  -4.640  47.761  1.00  0.00    -0.550 OA
ENDBRANCH   7   8
ENDBRANCH   6   7
ENDBRANCH   5   6
ENDBRANCH   4   5
ENDBRANCH   3   4
ENDBRANCH   2   3
ENDBRANCH   1   2
BRANCH   1  11
ATOM     11  C   UNL     1      32.765  -0.192  43.257  1.00  0.00     0.000 C 
BRANCH  11  12
ATOM     12  C   UNL     1      33.920  -0.658  42.354  1.00  0.00    -0.000 C 
BRANCH  12  13
ATOM     13  C   UNL     1      35.265  -0.025  42.750  1.00  0.00    -0.000 C 
BRANCH  13  14
ATOM     14  C   UNL     1      36.329  -1.073  43.117  1.00  0.00    -0.000 C 
BRANCH  14  15
ATOM     15  C   UNL     1      36.237  -2.342  42.254  1.00  0.00    -0.000 C 
BRANCH  15  16
ATOM     16  C   UNL     1      35.732  -3.577  43.030  1.00  0.00    -0.000 C 
BRANCH  16  17
ATOM     17  C   UNL     1      36.797  -4.134  43.986  1.00  0.00    -0.003 C 
ATOM     18  C   UNL     1      38.159  -4.225  43.306  1.00  0.00     0.004 C 
ENDBRANCH  16  17
ENDBRANCH  15  16
ENDBRANCH  14  15
ENDBRANCH  13  14
ENDBRANCH  12  13
ENDBRANCH  11  12
ENDBRANCH   1  11
TORSDOF 14
ENDMDL
MODEL 6
REMARK VINA RESULT:    -3.591      1.487      2.466
REMARK INTER + INTRA:          -7.507
REMARK INTER:                  -6.340
REMARK INTRA:                  -1.167
REMARK UNBOUND:                -0.977
REMARK SMILES CCCCCCCCCCCCCCCC(=O)[O-]
REMARK SMILES IDX 9 1 10 2 11 3 12 4 13 5 14 6 15 7 16 8 17 9 18 10 8 11 7 12
REMARK SMILES IDX 6 13 5 14 4 15 3 16 2 17 1 18
REMARK H PARENT
REMARK Flexibility Score: inf
ROOT
ATOM      1  C   UNL     1      31.718  -0.888  42.942  1.00  0.00     0.000 C 
ENDROOT
BRANCH   1   2
ATOM      2  C   UNL     1      32.930   0.060  42.974  1.00  0.00     0.000 C 
BRANCH   2   3
ATOM      3  C   UNL     1      34.012  -0.321  41.949  1.00  0.00     0.000 C 
BRANCH   3   4
ATOM      4  C   UNL     1      34.977  -1.434  42.403  1.00  0.00     0.000 C 
BRANCH   4   5
ATOM      5  C   UNL     1      36.446  -1.191  41.997  1.00  0.00     0.000 C 
BRANCH   5   6
ATOM      6  C   UNL     1      37.437  -1.710  43.056  1.00  0.00     0.006 C 
BRANCH   6   7
ATOM      7  C   UNL     1      38.045  -3.072  42.676  1.00  0.00     0.053 C 
BRANCH   7   8
ATOM      8  C   UNL     1      37.654  -4.163  43.630  1.00  0.00     0.041 C 
ATOM      9  O   UNL     1      38.518  -4.993  44.024  1.00  0.00    -0.550 OA
ATOM     10  O   UNL     1      36.361  -4.236  44.136  1.00  0.00    -0.550 OA
ENDBRANCH   7   8
ENDBRANCH   6   7
ENDBRANCH   5   6
ENDBRANCH   4   5
ENDBRANCH   3   4
ENDBRANCH   2   3
ENDBRANCH   1   2
BRANCH   1  11
ATOM     11  C   UNL     1      30.600  -0.386  42.013  1.00  0.00     0.000 C 
BRANCH  11  12
ATOM     12  C   UNL     1      29.440  -1.389  41.883  1.00  0.00    -0.000 C 
BRANCH  12  13
ATOM     13  C   UNL     1      28.438  -1.277  43.044  1.00  0.00    -0.000 C 
BRANCH  13  14
ATOM     14  C   UNL     1      28.162  -2.629  43.723  1.00  0.00    -0.000 C 
BRANCH  14  15
ATOM     15  C   UNL     1      28.364  -2.581  45.247  1.00  0.00    -0.000 C 
BRANCH  15  16
ATOM     16  C   UNL     1      28.478  -1.147  45.806  1.00  0.00    -0.000 C 
BRANCH  16  17
ATOM     17  C   UNL     1      29.919  -0.794  46.203  1.00  0.00    -0.003 C 
ATOM     18  C   UNL     1      30.787  -2.044  46.307  1.00  0.00     0.004 C 
ENDBRANCH  16  17
ENDBRANCH  15  16
ENDBRANCH  14  15
ENDBRANCH  13  14
ENDBRANCH  12  13
ENDBRANCH  11  12
ENDBRANCH   1  11
TORSDOF 14
ENDMDL
MODEL 7
REMARK VINA RESULT:    -3.584     12.773     15.582
REMARK INTER + INTRA:          -7.494
REMARK INTER:                  -6.203
REMARK INTRA:                  -1.291
REMARK UNBOUND:                -0.977
REMARK SMILES CCCCCCCCCCCCCCCC(=O)[O-]
REMARK SMILES IDX 9 1 10 2 11 3 12 4 13 5 14 6 15 7 16 8 17 9 18 10 8 11 7 12
REMARK SMILES IDX 6 13 5 14 4 15 3 16 2 17 1 18
REMARK H PARENT
REMARK Flexibility Score: inf
ROOT
ATOM      1  C   UNL     1      20.434  -9.709  44.410  1.00  0.00     0.000 C 
ENDROOT
BRANCH   1   2
ATOM      2  C   UNL     1      21.311 -10.667  45.237  1.00  0.00     0.000 C 
BRANCH   2   3
ATOM      3  C   UNL     1      22.472 -11.264  44.423  1.00  0.00     0.000 C 
BRANCH   3   4
ATOM      4  C   UNL     1      22.543 -12.804  44.421  1.00  0.00     0.000 C 
BRANCH   4   5
ATOM      5  C   UNL     1      21.772 -13.464  43.258  1.00  0.00     0.000 C 
BRANCH   5   6
ATOM      6  C   UNL     1      20.316 -13.793  43.637  1.00  0.00     0.006 C 
BRANCH   6   7
ATOM      7  C   UNL     1      20.212 -15.007  44.577  1.00  0.00     0.053 C 
BRANCH   7   8
ATOM      8  C   UNL     1      19.569 -14.665  45.890  1.00  0.00     0.041 C 
ATOM      9  O   UNL     1      19.236 -15.585  46.686  1.00  0.00    -0.550 OA
ATOM     10  O   UNL     1      19.390 -13.340  46.271  1.00  0.00    -0.550 OA
ENDBRANCH   7   8
ENDBRANCH   6   7
ENDBRANCH   5   6
ENDBRANCH   4   5
ENDBRANCH   3   4
ENDBRANCH   2   3
ENDBRANCH   1   2
BRANCH   1  11
ATOM     11  C   UNL     1      20.703  -9.816  42.901  1.00  0.00     0.000 C 
BRANCH  11  12
ATOM     12  C   UNL     1      21.056  -8.461  42.263  1.00  0.00    -0.000 C 
BRANCH  12  13
ATOM     13  C   UNL     1      20.498  -7.274  43.065  1.00  0.00    -0.000 C 
BRANCH  13  14
ATOM     14  C   UNL     1      19.294  -6.606  42.379  1.00  0.00    -0.000 C 
BRANCH  14  15
ATOM     15  C   UNL     1      19.080  -5.153  42.836  1.00  0.00    -0.000 C 
BRANCH  15  16
ATOM     16  C   UNL     1      20.159  -4.181  42.313  1.00  0.00    -0.000 C 
BRANCH  16  17
ATOM     17  C   UNL     1      21.085  -3.686  43.434  1.00  0.00    -0.003 C 
ATOM     18  C   UNL     1      20.384  -3.726  44.788  1.00  0.00     0.004 C 
ENDBRANCH  16  17
ENDBRANCH  15  16
ENDBRANCH  14  15
ENDBRANCH  13  14
ENDBRANCH  12  13
ENDBRANCH  11  12
ENDBRANCH   1  11
TORSDOF 14
ENDMDL
MODEL 8
REMARK VINA RESULT:    -3.512      2.549      7.725
REMARK INTER + INTRA:          -7.363
REMARK INTER:                  -6.560
REMARK INTRA:                  -0.803
REMARK UNBOUND:                -0.977
REMARK SMILES CCCCCCCCCCCCCCCC(=O)[O-]
REMARK SMILES IDX 9 1 10 2 11 3 12 4 13 5 14 6 15 7 16 8 17 9 18 10 8 11 7 12
REMARK SMILES IDX 6 13 5 14 4 15 3 16 2 17 1 18
REMARK H PARENT
REMARK Flexibility Score: inf
ROOT
ATOM      1  C   UNL     1      33.388  -0.305  42.399  1.00  0.00     0.000 C 
ENDROOT
BRANCH   1   2
ATOM      2  C   UNL     1      31.944  -0.201  41.876  1.00  0.00     0.000 C 
BRANCH   2   3
ATOM      3  C   UNL     1      30.917  -0.834  42.831  1.00  0.00     0.000 C 
BRANCH   3   4
ATOM      4  C   UNL     1      29.542  -1.136  42.202  1.00  0.00     0.000 C 
BRANCH   4   5
ATOM      5  C   UNL     1      28.568  -1.866  43.151  1.00  0.00     0.000 C 
BRANCH   5   6
ATOM      6  C   UNL     1      28.303  -1.067  44.441  1.00  0.00     0.006 C 
BRANCH   6   7
ATOM      7  C   UNL     1      28.339  -1.952  45.700  1.00  0.00     0.053 C 
BRANCH   7   8
ATOM      8  C   UNL     1      29.445  -2.967  45.658  1.00  0.00     0.041 C 
ATOM      9  O   UNL     1      30.623  -2.625  45.950  1.00  0.00    -0.550 OA
ATOM     10  O   UNL     1      29.178  -4.298  45.361  1.00  0.00    -0.550 OA
ENDBRANCH   7   8
ENDBRANCH   6   7
ENDBRANCH   5   6
ENDBRANCH   4   5
ENDBRANCH   3   4
ENDBRANCH   2   3
ENDBRANCH   1   2
BRANCH   1  11
ATOM     11  C   UNL     1      34.199   0.977  42.151  1.00  0.00     0.000 C 
BRANCH  11  12
ATOM     12  C   UNL     1      35.717   0.724  42.123  1.00  0.00    -0.000 C 
BRANCH  12  13
ATOM     13  C   UNL     1      36.108  -0.572  42.852  1.00  0.00    -0.000 C 
BRANCH  13  14
ATOM     14  C   UNL     1      36.633  -1.657  41.897  1.00  0.00    -0.000 C 
BRANCH  14  15
ATOM     15  C   UNL     1      35.857  -2.980  42.017  1.00  0.00    -0.000 C 
BRANCH  15  16
ATOM     16  C   UNL     1      36.702  -4.137  42.591  1.00  0.00    -0.000 C 
BRANCH  16  17
ATOM     17  C   UNL     1      37.673  -3.660  43.681  1.00  0.00    -0.003 C 
ATOM     18  C   UNL     1      39.119  -3.972  43.311  1.00  0.00     0.004 C 
ENDBRANCH  16  17
ENDBRANCH  15  16
ENDBRANCH  14  15
ENDBRANCH  13  14
ENDBRANCH  12  13
ENDBRANCH  11  12
ENDBRANCH   1  11
TORSDOF 14
ENDMDL
