MODEL 1
REMARK VINA RESULT:    -7.694      0.000      0.000
REMARK INTER + INTRA:         -17.976
REMARK INTER:                 -16.689
REMARK INTRA:                  -1.286
REMARK UNBOUND:                -1.286
REMARK SMILES CCCCCCCCCCCCCCCCCCCCCC(=O)[O-]
REMARK SMILES IDX 12 1 11 2 10 3 9 4 8 5 7 6 6 7 5 8 4 9 3 10 2 11 1 12 13 13
REMARK SMILES IDX 14 14 15 15 16 16 17 17 18 18 19 19 20 20 21 21 22 22 23 23
REMARK SMILES IDX 24 24
REMARK H PARENT
REMARK Flexibility Score: inf
ROOT
ATOM      1  C   UNL     1       4.813   0.094  19.495  1.00  0.00     0.000 C 
ENDROOT
BRANCH   1   2
ATOM      2  C   UNL     1       5.982  -0.541  20.270  1.00  0.00     0.000 C 
BRANCH   2   3
ATOM      3  C   UNL     1       5.571  -1.431  21.458  1.00  0.00     0.000 C 
BRANCH   3   4
ATOM      4  C   UNL     1       5.945  -2.920  21.324  1.00  0.00    -0.000 C 
BRANCH   4   5
ATOM      5  C   UNL     1       6.073  -3.406  19.864  1.00  0.00    -0.000 C 
BRANCH   5   6
ATOM      6  C   UNL     1       6.939  -4.673  19.737  1.00  0.00    -0.000 C 
BRANCH   6   7
ATOM      7  C   UNL     1       8.136  -4.677  20.701  1.00  0.00    -0.000 C 
BRANCH   7   8
ATOM      8  C   UNL     1       8.129  -5.890  21.647  1.00  0.00    -0.000 C 
BRANCH   8   9
ATOM      9  C   UNL     1       6.995  -6.883  21.332  1.00  0.00    -0.000 C 
BRANCH   9  10
ATOM     10  C   UNL     1       7.397  -8.368  21.406  1.00  0.00    -0.000 C 
BRANCH  10  11
ATOM     11  C   UNL     1       6.603  -9.148  22.465  1.00  0.00    -0.003 C 
ATOM     12  C   UNL     1       7.124  -8.859  23.870  1.00  0.00     0.004 C 
ENDBRANCH  10  11
ENDBRANCH   9  10
ENDBRANCH   8   9
ENDBRANCH   7   8
ENDBRANCH   6   7
ENDBRANCH   5   6
ENDBRANCH   4   5
ENDBRANCH   3   4
ENDBRANCH   2   3
ENDBRANCH   1   2
BRANCH   1  13
ATOM     13  C   UNL     1       3.744  -0.926  19.077  1.00  0.00     0.000 C 
BRANCH  13  14
ATOM     14  C   UNL     1       2.439  -0.701  19.852  1.00  0.00     0.000 C 
BRANCH  14  15
ATOM     15  C   UNL     1       1.221  -0.791  18.923  1.00  0.00     0.000 C 
BRANCH  15  16
ATOM     16  C   UNL     1       1.230   0.288  17.825  1.00  0.00     0.000 C 
BRANCH  16  17
ATOM     17  C   UNL     1       1.007   1.728  18.329  1.00  0.00     0.000 C 
BRANCH  17  18
ATOM     18  C   UNL     1       1.036   2.817  17.237  1.00  0.00     0.000 C 
BRANCH  18  19
ATOM     19  C   UNL     1       0.885   4.258  17.755  1.00  0.00     0.000 C 
BRANCH  19  20
ATOM     20  C   UNL     1       1.901   5.227  17.127  1.00  0.00     0.006 C 
BRANCH  20  21
ATOM     21  C   UNL     1       1.757   6.653  17.673  1.00  0.00     0.053 C 
BRANCH  21  22
ATOM     22  C   UNL     1       1.667   7.662  16.569  1.00  0.00     0.041 C 
ATOM     23  O   UNL     1       1.166   8.798  16.787  1.00  0.00    -0.550 OA
ATOM     24  O   UNL     1       2.147   7.353  15.303  1.00  0.00    -0.550 OA
ENDBRANCH  21  22
ENDBRANCH  20  21
ENDBRANCH  19  20
ENDBRANCH  18  19
ENDBRANCH  17  18
ENDBRANCH  16  17
ENDBRANCH  15  16
ENDBRANCH  14  15
ENDBRANCH  13  14
ENDBRANCH   1  13
TORSDOF 20
ENDMDL
MODEL 2
REMARK VINA RESULT:    -7.550      1.132      1.905
REMARK INTER + INTRA:         -17.663
REMARK INTER:                 -16.486
REMARK INTRA:                  -1.177
REMARK UNBOUND:                -1.286
REMARK SMILES CCCCCCCCCCCCCCCCCCCCCC(=O)[O-]
REMARK SMILES IDX 12 1 11 2 10 3 9 4 8 5 7 6 6 7 5 8 4 9 3 10 2 11 1 12 13 13
REMARK SMILES IDX 14 14 15 15 16 16 17 17 18 18 19 19 20 20 21 21 22 22 23 23
REMARK SMILES IDX 24 24
REMARK H PARENT
REMARK Flexibility Score: inf
ROOT
ATOM      1  C   UNL     1       2.689  -0.891  20.005  1.00  0.00     0.000 C 
ENDROOT
BRANCH   1   2
ATOM      2  C   UNL     1       3.347  -2.203  20.472  1.00  0.00     0.000 C 
BRANCH   2   3
ATOM      3  C   UNL     1       3.642  -2.284  21.980  1.00  0.00     0.000 C 
BRANCH   3   4
ATOM      4  C   UNL     1       5.132  -2.421  22.352  1.00  0.00    -0.000 C 
BRANCH   4   5
ATOM      5  C   UNL     1       6.083  -1.623  21.436  1.00  0.00    -0.000 C 
BRANCH   5   6
ATOM      6  C   UNL     1       7.057  -2.529  20.661  1.00  0.00    -0.000 C 
BRANCH   6   7
ATOM      7  C   UNL     1       6.452  -3.899  20.317  1.00  0.00    -0.000 C 
BRANCH   7   8
ATOM      8  C   UNL     1       7.454  -5.052  20.503  1.00  0.00    -0.000 C 
BRANCH   8   9
ATOM      9  C   UNL     1       6.777  -6.360  20.951  1.00  0.00    -0.000 C 
BRANCH   9  10
ATOM     10  C   UNL     1       7.674  -7.301  21.778  1.00  0.00    -0.000 C 
BRANCH  10  11
ATOM     11  C   UNL     1       7.022  -8.667  22.043  1.00  0.00    -0.003 C 
ATOM     12  C   UNL     1       6.939  -8.958  23.539  1.00  0.00     0.004 C 
ENDBRANCH  10  11
ENDBRANCH   9  10
ENDBRANCH   8   9
ENDBRANCH   7   8
ENDBRANCH   6   7
ENDBRANCH   5   6
ENDBRANCH   4   5
ENDBRANCH   3   4
ENDBRANCH   2   3
ENDBRANCH   1   2
BRANCH   1  13
ATOM     13  C   UNL     1       3.613  -0.033  19.129  1.00  0.00     0.000 C 
BRANCH  13  14
ATOM     14  C   UNL     1       2.913   0.366  17.823  1.00  0.00     0.000 C 
BRANCH  14  15
ATOM     15  C   UNL     1       1.437   0.707  18.068  1.00  0.00     0.000 C 
BRANCH  15  16
ATOM     16  C   UNL     1       0.997   1.995  17.349  1.00  0.00     0.000 C 
BRANCH  16  17
ATOM     17  C   UNL     1       1.533   3.300  17.973  1.00  0.00     0.000 C 
BRANCH  17  18
ATOM     18  C   UNL     1       0.879   4.594  17.447  1.00  0.00     0.000 C 
BRANCH  18  19
ATOM     19  C   UNL     1       1.229   5.865  18.240  1.00  0.00     0.000 C 
BRANCH  19  20
ATOM     20  C   UNL     1       1.288   7.122  17.355  1.00  0.00     0.006 C 
BRANCH  20  21
ATOM     21  C   UNL     1       1.965   6.851  16.006  1.00  0.00     0.053 C 
BRANCH  21  22
ATOM     22  C   UNL     1       2.265   8.122  15.271  1.00  0.00     0.041 C 
ATOM     23  O   UNL     1       2.978   8.101  14.233  1.00  0.00    -0.550 OA
ATOM     24  O   UNL     1       1.747   9.327  15.726  1.00  0.00    -0.550 OA
ENDBRANCH  21  22
ENDBRANCH  20  21
ENDBRANCH  19  20
ENDBRANCH  18  19
ENDBRANCH  17  18
ENDBRANCH  16  17
ENDBRANCH  15  16
ENDBRANCH  14  15
ENDBRANCH  13  14
ENDBRANCH   1  13
TORSDOF 20
ENDMDL
MODEL 3
REMARK VINA RESULT:    -7.497      5.610     12.726
REMARK INTER + INTRA:         -17.550
REMARK INTER:                 -16.791
REMARK INTRA:                  -0.759
REMARK UNBOUND:                -1.286
REMARK SMILES CCCCCCCCCCCCCCCCCCCCCC(=O)[O-]
REMARK SMILES IDX 12 1 11 2 10 3 9 4 8 5 7 6 6 7 5 8 4 9 3 10 2 11 1 12 13 13
REMARK SMILES IDX 14 14 15 15 16 16 17 17 18 18 19 19 20 20 21 21 22 22 23 23
REMARK SMILES IDX 24 24
REMARK H PARENT
REMARK Flexibility Score: inf
ROOT
ATOM      1  C   UNL     1       2.959  -1.659  19.786  1.00  0.00     0.000 C 
ENDROOT
BRANCH   1   2
ATOM      2  C   UNL     1       1.589  -1.485  19.105  1.00  0.00     0.000 C 
BRANCH   2   3
ATOM      3  C   UNL     1       1.077  -0.035  19.031  1.00  0.00     0.000 C 
BRANCH   3   4
ATOM      4  C   UNL     1       1.672   0.816  17.891  1.00  0.00    -0.000 C 
BRANCH   4   5
ATOM      5  C   UNL     1       0.877   2.103  17.587  1.00  0.00    -0.000 C 
BRANCH   5   6
ATOM      6  C   UNL     1       1.748   3.370  17.668  1.00  0.00    -0.000 C 
BRANCH   6   7
ATOM      7  C   UNL     1       0.994   4.640  17.241  1.00  0.00    -0.000 C 
BRANCH   7   8
ATOM      8  C   UNL     1       1.455   5.888  18.013  1.00  0.00    -0.000 C 
BRANCH   8   9
ATOM      9  C   UNL     1       1.888   7.036  17.082  1.00  0.00    -0.000 C 
BRANCH   9  10
ATOM     10  C   UNL     1       2.094   6.631  15.611  1.00  0.00    -0.000 C 
BRANCH  10  11
ATOM     11  C   UNL     1       2.531   7.807  14.723  1.00  0.00    -0.003 C 
ATOM     12  C   UNL     1       2.088   9.141  15.319  1.00  0.00     0.004 C 
ENDBRANCH  10  11
ENDBRANCH   9  10
ENDBRANCH   8   9
ENDBRANCH   7   8
ENDBRANCH   6   7
ENDBRANCH   5   6
ENDBRANCH   4   5
ENDBRANCH   3   4
ENDBRANCH   2   3
ENDBRANCH   1   2
BRANCH   1  13
ATOM     13  C   UNL     1       3.585  -3.038  19.531  1.00  0.00     0.000 C 
BRANCH  13  14
ATOM     14  C   UNL     1       5.116  -2.943  19.483  1.00  0.00     0.000 C 
BRANCH  14  15
ATOM     15  C   UNL     1       5.612  -1.660  20.162  1.00  0.00     0.000 C 
BRANCH  15  16
ATOM     16  C   UNL     1       6.418  -1.939  21.444  1.00  0.00     0.000 C 
BRANCH  16  17
ATOM     17  C   UNL     1       6.343  -3.393  21.952  1.00  0.00     0.000 C 
BRANCH  17  18
ATOM     18  C   UNL     1       7.320  -4.375  21.274  1.00  0.00     0.000 C 
BRANCH  18  19
ATOM     19  C   UNL     1       6.820  -5.827  21.181  1.00  0.00     0.000 C 
BRANCH  19  20
ATOM     20  C   UNL     1       7.916  -6.857  21.504  1.00  0.00     0.006 C 
BRANCH  20  21
ATOM     21  C   UNL     1       7.467  -8.293  21.208  1.00  0.00     0.053 C 
BRANCH  21  22
ATOM     22  C   UNL     1       6.963  -8.980  22.441  1.00  0.00     0.041 C 
ATOM     23  O   UNL     1       7.257  -8.534  23.582  1.00  0.00    -0.550 OA
ATOM     24  O   UNL     1       6.157 -10.107  22.330  1.00  0.00    -0.550 OA
ENDBRANCH  21  22
ENDBRANCH  20  21
ENDBRANCH  19  20
ENDBRANCH  18  19
ENDBRANCH  17  18
ENDBRANCH  16  17
ENDBRANCH  15  16
ENDBRANCH  14  15
ENDBRANCH  13  14
ENDBRANCH   1  13
TORSDOF 20
ENDMDL
MODEL 4
REMARK VINA RESULT:    -7.428      5.651     12.170
REMARK INTER + INTRA:         -17.400
REMARK INTER:                 -16.349
REMARK INTRA:                  -1.051
REMARK UNBOUND:                -1.286
REMARK SMILES CCCCCCCCCCCCCCCCCCCCCC(=O)[O-]
REMARK SMILES IDX 12 1 11 2 10 3 9 4 8 5 7 6 6 7 5 8 4 9 3 10 2 11 1 12 13 13
REMARK SMILES IDX 14 14 15 15 16 16 17 17 18 18 19 19 20 20 21 21 22 22 23 23
REMARK SMILES IDX 24 24
REMARK H PARENT
REMARK Flexibility Score: inf
ROOT
ATOM      1  C   UNL     1       5.932   0.364  19.981  1.00  0.00     0.000 C 
ENDROOT
BRANCH   1   2
ATOM      2  C   UNL     1       4.569   0.570  19.296  1.00  0.00     0.000 C 
BRANCH   2   3
ATOM      3  C   UNL     1       3.719  -0.705  19.138  1.00  0.00     0.000 C 
BRANCH   3   4
ATOM      4  C   UNL     1       2.198  -0.474  19.050  1.00  0.00    -0.000 C 
BRANCH   4   5
ATOM      5  C   UNL     1       1.798   1.003  18.850  1.00  0.00    -0.000 C 
BRANCH   5   6
ATOM      6  C   UNL     1       1.587   1.363  17.368  1.00  0.00    -0.000 C 
BRANCH   6   7
ATOM      7  C   UNL     1       0.875   2.712  17.178  1.00  0.00    -0.000 C 
BRANCH   7   8
ATOM      8  C   UNL     1       1.727   3.903  17.651  1.00  0.00    -0.000 C 
BRANCH   8   9
ATOM      9  C   UNL     1       0.886   5.163  17.924  1.00  0.00    -0.000 C 
BRANCH   9  10
ATOM     10  C   UNL     1       0.935   6.227  16.811  1.00  0.00    -0.000 C 
BRANCH  10  11
ATOM     11  C   UNL     1       2.343   6.804  16.600  1.00  0.00    -0.003 C 
ATOM     12  C   UNL     1       2.733   6.783  15.124  1.00  0.00     0.004 C 
ENDBRANCH  10  11
ENDBRANCH   9  10
ENDBRANCH   8   9
ENDBRANCH   7   8
ENDBRANCH   6   7
ENDBRANCH   5   6
ENDBRANCH   4   5
ENDBRANCH   3   4
ENDBRANCH   2   3
ENDBRANCH   1   2
BRANCH   1  13
ATOM     13  C   UNL     1       6.370  -1.107  20.019  1.00  0.00     0.000 C 
BRANCH  13  14
ATOM     14  C   UNL     1       6.408  -1.629  21.462  1.00  0.00     0.000 C 
BRANCH  14  15
ATOM     15  C   UNL     1       5.479  -2.838  21.637  1.00  0.00     0.000 C 
BRANCH  15  16
ATOM     16  C   UNL     1       5.330  -3.666  20.347  1.00  0.00     0.000 C 
BRANCH  16  17
ATOM     17  C   UNL     1       6.595  -4.441  19.926  1.00  0.00     0.000 C 
BRANCH  17  18
ATOM     18  C   UNL     1       7.731  -4.457  20.969  1.00  0.00     0.000 C 
BRANCH  18  19
ATOM     19  C   UNL     1       7.977  -5.820  21.639  1.00  0.00     0.000 C 
BRANCH  19  20
ATOM     20  C   UNL     1       6.860  -6.837  21.349  1.00  0.00     0.006 C 
BRANCH  20  21
ATOM     21  C   UNL     1       7.389  -8.275  21.279  1.00  0.00     0.053 C 
BRANCH  21  22
ATOM     22  C   UNL     1       6.976  -9.076  22.476  1.00  0.00     0.041 C 
ATOM     23  O   UNL     1       6.241 -10.090  22.338  1.00  0.00    -0.550 OA
ATOM     24  O   UNL     1       7.412  -8.709  23.743  1.00  0.00    -0.550 OA
ENDBRANCH  21  22
ENDBRANCH  20  21
ENDBRANCH  19  20
ENDBRANCH  18  19
ENDBRANCH  17  18
ENDBRANCH  16  17
ENDBRANCH  15  16
ENDBRANCH  14  15
ENDBRANCH  13  14
ENDBRANCH   1  13
TORSDOF 20
ENDMDL
MODEL 5
REMARK VINA RESULT:    -6.976      5.395     12.292
REMARK INTER + INTRA:         -16.418
REMARK INTER:                 -15.072
REMARK INTRA:                  -1.346
REMARK UNBOUND:                -1.286
REMARK SMILES CCCCCCCCCCCCCCCCCCCCCC(=O)[O-]
REMARK SMILES IDX 12 1 11 2 10 3 9 4 8 5 7 6 6 7 5 8 4 9 3 10 2 11 1 12 13 13
REMARK SMILES IDX 14 14 15 15 16 16 17 17 18 18 19 19 20 20 21 21 22 22 23 23
REMARK SMILES IDX 24 24
REMARK H PARENT
REMARK Flexibility Score: inf
ROOT
ATOM      1  C   UNL     1       4.074   0.192  18.853  1.00  0.00     0.000 C 
ENDROOT
BRANCH   1   2
ATOM      2  C   UNL     1       2.586   0.179  19.249  1.00  0.00     0.000 C 
BRANCH   2   3
ATOM      3  C   UNL     1       1.606  -0.107  18.096  1.00  0.00     0.000 C 
BRANCH   3   4
ATOM      4  C   UNL     1       1.076   1.139  17.359  1.00  0.00    -0.000 C 
BRANCH   4   5
ATOM      5  C   UNL     1       1.238   2.453  18.152  1.00  0.00    -0.000 C 
BRANCH   5   6
ATOM      6  C   UNL     1       1.095   3.702  17.263  1.00  0.00    -0.000 C 
BRANCH   6   7
ATOM      7  C   UNL     1       1.795   4.937  17.852  1.00  0.00    -0.000 C 
BRANCH   7   8
ATOM      8  C   UNL     1       0.876   6.170  17.902  1.00  0.00    -0.000 C 
BRANCH   8   9
ATOM      9  C   UNL     1       1.406   7.339  17.051  1.00  0.00    -0.000 C 
BRANCH   9  10
ATOM     10  C   UNL     1       2.296   6.924  15.864  1.00  0.00    -0.000 C 
BRANCH  10  11
ATOM     11  C   UNL     1       2.384   8.006  14.777  1.00  0.00    -0.003 C 
ATOM     12  C   UNL     1       2.322   9.405  15.385  1.00  0.00     0.004 C 
ENDBRANCH  10  11
ENDBRANCH   9  10
ENDBRANCH   8   9
ENDBRANCH   7   8
ENDBRANCH   6   7
ENDBRANCH   5   6
ENDBRANCH   4   5
ENDBRANCH   3   4
ENDBRANCH   2   3
ENDBRANCH   1   2
BRANCH   1  13
ATOM     13  C   UNL     1       4.877  -0.948  19.496  1.00  0.00     0.000 C 
BRANCH  13  14
ATOM     14  C   UNL     1       4.085  -2.263  19.460  1.00  0.00     0.000 C 
BRANCH  14  15
ATOM     15  C   UNL     1       3.507  -2.598  20.842  1.00  0.00     0.000 C 
BRANCH  15  16
ATOM     16  C   UNL     1       4.413  -2.132  21.995  1.00  0.00     0.000 C 
BRANCH  16  17
ATOM     17  C   UNL     1       5.440  -3.178  22.475  1.00  0.00     0.000 C 
BRANCH  17  18
ATOM     18  C   UNL     1       6.818  -3.108  21.786  1.00  0.00     0.000 C 
BRANCH  18  19
ATOM     19  C   UNL     1       7.000  -4.075  20.602  1.00  0.00     0.000 C 
BRANCH  19  20
ATOM     20  C   UNL     1       6.534  -5.505  20.924  1.00  0.00     0.006 C 
BRANCH  20  21
ATOM     21  C   UNL     1       7.659  -6.362  21.515  1.00  0.00     0.053 C 
BRANCH  21  22
ATOM     22  C   UNL     1       7.257  -7.801  21.632  1.00  0.00     0.041 C 
ATOM     23  O   UNL     1       7.548  -8.618  20.718  1.00  0.00    -0.550 OA
ATOM     24  O   UNL     1       6.571  -8.243  22.756  1.00  0.00    -0.550 OA
ENDBRANCH  21  22
ENDBRANCH  20  21
ENDBRANCH  19  20
ENDBRANCH  18  19
ENDBRANCH  17  18
ENDBRANCH  16  17
ENDBRANCH  15  16
ENDBRANCH  14  15
ENDBRANCH  13  14
ENDBRANCH   1  13
TORSDOF 20
ENDMDL
MODEL 6
REMARK VINA RESULT:    -6.235      1.384      2.737
REMARK INTER + INTRA:         -14.810
REMARK INTER:                 -13.351
REMARK INTRA:                  -1.459
REMARK UNBOUND:                -1.286
REMARK SMILES CCCCCCCCCCCCCCCCCCCCCC(=O)[O-]
REMARK SMILES IDX 12 1 11 2 10 3 9 4 8 5 7 6 6 7 5 8 4 9 3 10 2 11 1 12 13 13
REMARK SMILES IDX 14 14 15 15 16 16 17 17 18 18 19 19 20 20 21 21 22 22 23 23
REMARK SMILES IDX 24 24
REMARK H PARENT
REMARK Flexibility Score: inf
ROOT
ATOM      1  C   UNL     1       5.277  -2.250  22.309  1.00  0.00     0.000 C 
ENDROOT
BRANCH   1   2
ATOM      2  C   UNL     1       3.796  -2.223  21.893  1.00  0.00     0.000 C 
BRANCH   2   3
ATOM      3  C   UNL     1       3.535  -2.453  20.393  1.00  0.00     0.000 C 
BRANCH   3   4
ATOM      4  C   UNL     1       3.937  -3.843  19.861  1.00  0.00    -0.000 C 
BRANCH   4   5
ATOM      5  C   UNL     1       4.909  -3.799  18.664  1.00  0.00    -0.000 C 
BRANCH   5   6
ATOM      6  C   UNL     1       6.386  -3.826  19.099  1.00  0.00    -0.000 C 
BRANCH   6   7
ATOM      7  C   UNL     1       6.778  -5.139  19.795  1.00  0.00    -0.000 C 
BRANCH   7   8
ATOM      8  C   UNL     1       7.422  -4.909  21.173  1.00  0.00    -0.000 C 
BRANCH   8   9
ATOM      9  C   UNL     1       8.055  -6.187  21.754  1.00  0.00    -0.000 C 
BRANCH   9  10
ATOM     10  C   UNL     1       7.240  -7.474  21.525  1.00  0.00    -0.000 C 
BRANCH  10  11
ATOM     11  C   UNL     1       7.290  -8.434  22.724  1.00  0.00    -0.003 C 
ATOM     12  C   UNL     1       6.374  -9.635  22.508  1.00  0.00     0.004 C 
ENDBRANCH  10  11
ENDBRANCH   9  10
ENDBRANCH   8   9
ENDBRANCH   7   8
ENDBRANCH   6   7
ENDBRANCH   5   6
ENDBRANCH   4   5
ENDBRANCH   3   4
ENDBRANCH   2   3
ENDBRANCH   1   2
BRANCH   1  13
ATOM     13  C   UNL     1       6.174  -1.404  21.394  1.00  0.00     0.000 C 
BRANCH  13  14
ATOM     14  C   UNL     1       5.453  -0.123  20.954  1.00  0.00     0.000 C 
BRANCH  14  15
ATOM     15  C   UNL     1       5.877   0.292  19.538  1.00  0.00     0.000 C 
BRANCH  15  16
ATOM     16  C   UNL     1       4.679   0.639  18.636  1.00  0.00     0.000 C 
BRANCH  16  17
ATOM     17  C   UNL     1       3.296   0.449  19.294  1.00  0.00     0.000 C 
BRANCH  17  18
ATOM     18  C   UNL     1       2.132   0.205  18.312  1.00  0.00     0.000 C 
BRANCH  18  19
ATOM     19  C   UNL     1       1.108   1.351  18.224  1.00  0.00     0.000 C 
BRANCH  19  20
ATOM     20  C   UNL     1       1.771   2.733  18.086  1.00  0.00     0.006 C 
BRANCH  20  21
ATOM     21  C   UNL     1       0.877   3.733  17.342  1.00  0.00     0.053 C 
BRANCH  21  22
ATOM     22  C   UNL     1       1.477   5.106  17.326  1.00  0.00     0.041 C 
ATOM     23  O   UNL     1       2.473   5.372  18.051  1.00  0.00    -0.550 OA
ATOM     24  O   UNL     1       0.943   6.089  16.503  1.00  0.00    -0.550 OA
ENDBRANCH  21  22
ENDBRANCH  20  21
ENDBRANCH  19  20
ENDBRANCH  18  19
ENDBRANCH  17  18
ENDBRANCH  16  17
ENDBRANCH  15  16
ENDBRANCH  14  15
ENDBRANCH  13  14
ENDBRANCH   1  13
TORSDOF 20
ENDMDL
MODEL 7
REMARK VINA RESULT:    -5.706      1.442      3.100
REMARK INTER + INTRA:         -13.664
REMARK INTER:                 -14.055
REMARK INTRA:                   0.391
REMARK UNBOUND:                -1.286
REMARK SMILES CCCCCCCCCCCCCCCCCCCCCC(=O)[O-]
REMARK SMILES IDX 12 1 11 2 10 3 9 4 8 5 7 6 6 7 5 8 4 9 3 10 2 11 1 12 13 13
REMARK SMILES IDX 14 14 15 15 16 16 17 17 18 18 19 19 20 20 21 21 22 22 23 23
REMARK SMILES IDX 24 24
REMARK H PARENT
REMARK Flexibility Score: inf
ROOT
ATOM      1  C   UNL     1       3.121   0.726  18.695  1.00  0.00     0.000 C 
ENDROOT
BRANCH   1   2
ATOM      2  C   UNL     1       4.158  -0.305  19.178  1.00  0.00     0.000 C 
BRANCH   2   3
ATOM      3  C   UNL     1       3.747  -1.778  18.998  1.00  0.00     0.000 C 
BRANCH   3   4
ATOM      4  C   UNL     1       3.455  -2.544  20.304  1.00  0.00    -0.000 C 
BRANCH   4   5
ATOM      5  C   UNL     1       3.021  -1.640  21.477  1.00  0.00    -0.000 C 
BRANCH   5   6
ATOM      6  C   UNL     1       3.618  -2.091  22.823  1.00  0.00    -0.000 C 
BRANCH   6   7
ATOM      7  C   UNL     1       4.782  -3.082  22.657  1.00  0.00    -0.000 C 
BRANCH   7   8
ATOM      8  C   UNL     1       6.040  -2.423  22.065  1.00  0.00    -0.000 C 
BRANCH   8   9
ATOM      9  C   UNL     1       6.703  -3.284  20.974  1.00  0.00    -0.000 C 
BRANCH   9  10
ATOM     10  C   UNL     1       6.227  -4.748  20.929  1.00  0.00    -0.000 C 
BRANCH  10  11
ATOM     11  C   UNL     1       7.367  -5.738  20.641  1.00  0.00    -0.003 C 
ATOM     12  C   UNL     1       7.448  -6.815  21.719  1.00  0.00     0.004 C 
ENDBRANCH  10  11
ENDBRANCH   9  10
ENDBRANCH   8   9
ENDBRANCH   7   8
ENDBRANCH   6   7
ENDBRANCH   5   6
ENDBRANCH   4   5
ENDBRANCH   3   4
ENDBRANCH   2   3
ENDBRANCH   1   2
BRANCH   1  13
ATOM     13  C   UNL     1       1.674   0.234  18.838  1.00  0.00     0.000 C 
BRANCH  13  14
ATOM     14  C   UNL     1       0.917   0.369  17.510  1.00  0.00     0.000 C 
BRANCH  14  15
ATOM     15  C   UNL     1       0.879   1.829  17.039  1.00  0.00     0.000 C 
BRANCH  15  16
ATOM     16  C   UNL     1       1.457   2.804  18.081  1.00  0.00     0.000 C 
BRANCH  16  17
ATOM     17  C   UNL     1       0.971   4.261  17.944  1.00  0.00     0.000 C 
BRANCH  17  18
ATOM     18  C   UNL     1       1.447   4.993  16.672  1.00  0.00     0.000 C 
BRANCH  18  19
ATOM     19  C   UNL     1       2.332   6.226  16.927  1.00  0.00     0.000 C 
BRANCH  19  20
ATOM     20  C   UNL     1       3.153   6.636  15.692  1.00  0.00     0.006 C 
BRANCH  20  21
ATOM     21  C   UNL     1       2.401   7.633  14.801  1.00  0.00     0.053 C 
BRANCH  21  22
ATOM     22  C   UNL     1       2.114   8.914  15.524  1.00  0.00     0.041 C 
ATOM     23  O   UNL     1       1.879   8.906  16.762  1.00  0.00    -0.550 OA
ATOM     24  O   UNL     1       2.118  10.119  14.833  1.00  0.00    -0.550 OA
ENDBRANCH  21  22
ENDBRANCH  20  21
ENDBRANCH  19  20
ENDBRANCH  18  19
ENDBRANCH  17  18
ENDBRANCH  16  17
ENDBRANCH  15  16
ENDBRANCH  14  15
ENDBRANCH  13  14
ENDBRANCH   1  13
TORSDOF 20
ENDMDL
MODEL 8
REMARK VINA RESULT:    -5.022      2.467      3.761
REMARK INTER + INTRA:         -12.181
REMARK INTER:                 -11.184
REMARK INTRA:                  -0.997
REMARK UNBOUND:                -1.286
REMARK SMILES CCCCCCCCCCCCCCCCCCCCCC(=O)[O-]
REMARK SMILES IDX 12 1 11 2 10 3 9 4 8 5 7 6 6 7 5 8 4 9 3 10 2 11 1 12 13 13
REMARK SMILES IDX 14 14 15 15 16 16 17 17 18 18 19 19 20 20 21 21 22 22 23 23
REMARK SMILES IDX 24 24
REMARK H PARENT
REMARK Flexibility Score: inf
ROOT
ATOM      1  C   UNL     1       1.641  -0.073  19.079  1.00  0.00     0.000 C 
ENDROOT
BRANCH   1   2
ATOM      2  C   UNL     1       2.384  -0.825  20.198  1.00  0.00     0.000 C 
BRANCH   2   3
ATOM      3  C   UNL     1       3.494  -1.778  19.719  1.00  0.00     0.000 C 
BRANCH   3   4
ATOM      4  C   UNL     1       4.933  -1.255  19.899  1.00  0.00    -0.000 C 
BRANCH   4   5
ATOM      5  C   UNL     1       5.487  -1.423  21.330  1.00  0.00    -0.000 C 
BRANCH   5   6
ATOM      6  C   UNL     1       6.761  -2.286  21.373  1.00  0.00    -0.000 C 
BRANCH   6   7
ATOM      7  C   UNL     1       6.937  -3.154  20.116  1.00  0.00    -0.000 C 
BRANCH   7   8
ATOM      8  C   UNL     1       6.099  -4.444  20.166  1.00  0.00    -0.000 C 
BRANCH   8   9
ATOM      9  C   UNL     1       6.511  -5.374  21.323  1.00  0.00    -0.000 C 
BRANCH   9  10
ATOM     10  C   UNL     1       6.803  -6.828  20.909  1.00  0.00    -0.000 C 
BRANCH  10  11
ATOM     11  C   UNL     1       7.721  -7.558  21.903  1.00  0.00    -0.003 C 
ATOM     12  C   UNL     1       7.051  -8.816  22.450  1.00  0.00     0.004 C 
ENDBRANCH  10  11
ENDBRANCH   9  10
ENDBRANCH   8   9
ENDBRANCH   7   8
ENDBRANCH   6   7
ENDBRANCH   5   6
ENDBRANCH   4   5
ENDBRANCH   3   4
ENDBRANCH   2   3
ENDBRANCH   1   2
BRANCH   1  13
ATOM     13  C   UNL     1       2.013   1.415  19.005  1.00  0.00     0.000 C 
BRANCH  13  14
ATOM     14  C   UNL     1       1.604   2.014  17.653  1.00  0.00     0.000 C 
BRANCH  14  15
ATOM     15  C   UNL     1       1.370   3.527  17.767  1.00  0.00     0.000 C 
BRANCH  15  16
ATOM     16  C   UNL     1       2.388   4.349  16.957  1.00  0.00     0.000 C 
BRANCH  16  17
ATOM     17  C   UNL     1       2.135   5.871  16.953  1.00  0.00     0.000 C 
BRANCH  17  18
ATOM     18  C   UNL     1       0.875   6.327  17.716  1.00  0.00     0.000 C 
BRANCH  18  19
ATOM     19  C   UNL     1       1.120   7.410  18.783  1.00  0.00     0.000 C 
BRANCH  19  20
ATOM     20  C   UNL     1       1.754   6.849  20.067  1.00  0.00     0.006 C 
BRANCH  20  21
ATOM     21  C   UNL     1       0.878   7.094  21.301  1.00  0.00     0.053 C 
BRANCH  21  22
ATOM     22  C   UNL     1       1.686   7.577  22.467  1.00  0.00     0.041 C 
ATOM     23  O   UNL     1       1.765   8.809  22.717  1.00  0.00    -0.550 OA
ATOM     24  O   UNL     1       2.341   6.666  23.285  1.00  0.00    -0.550 OA
ENDBRANCH  21  22
ENDBRANCH  20  21
ENDBRANCH  19  20
ENDBRANCH  18  19
ENDBRANCH  17  18
ENDBRANCH  16  17
ENDBRANCH  15  16
ENDBRANCH  14  15
ENDBRANCH  13  14
ENDBRANCH   1  13
TORSDOF 20
ENDMDL
MODEL 9
REMARK VINA RESULT:    -4.899      2.156      3.460
REMARK INTER + INTRA:         -11.914
REMARK INTER:                 -10.781
REMARK INTRA:                  -1.133
REMARK UNBOUND:                -1.286
REMARK SMILES CCCCCCCCCCCCCCCCCCCCCC(=O)[O-]
REMARK SMILES IDX 12 1 11 2 10 3 9 4 8 5 7 6 6 7 5 8 4 9 3 10 2 11 1 12 13 13
REMARK SMILES IDX 14 14 15 15 16 16 17 17 18 18 19 19 20 20 21 21 22 22 23 23
REMARK SMILES IDX 24 24
REMARK H PARENT
REMARK Flexibility Score: inf
ROOT
ATOM      1  C   UNL     1       2.846   0.195  18.823  1.00  0.00     0.000 C 
ENDROOT
BRANCH   1   2
ATOM      2  C   UNL     1       2.255  -1.185  19.164  1.00  0.00     0.000 C 
BRANCH   2   3
ATOM      3  C   UNL     1       3.288  -2.264  19.536  1.00  0.00     0.000 C 
BRANCH   3   4
ATOM      4  C   UNL     1       4.062  -2.010  20.845  1.00  0.00    -0.000 C 
BRANCH   4   5
ATOM      5  C   UNL     1       5.563  -1.716  20.640  1.00  0.00    -0.000 C 
BRANCH   5   6
ATOM      6  C   UNL     1       6.455  -2.461  21.649  1.00  0.00    -0.000 C 
BRANCH   6   7
ATOM      7  C   UNL     1       7.344  -3.525  20.986  1.00  0.00    -0.000 C 
BRANCH   7   8
ATOM      8  C   UNL     1       6.528  -4.619  20.277  1.00  0.00    -0.000 C 
BRANCH   8   9
ATOM      9  C   UNL     1       6.387  -5.898  21.123  1.00  0.00    -0.000 C 
BRANCH   9  10
ATOM     10  C   UNL     1       7.697  -6.679  21.338  1.00  0.00    -0.000 C 
BRANCH  10  11
ATOM     11  C   UNL     1       7.484  -8.200  21.383  1.00  0.00    -0.003 C 
ATOM     12  C   UNL     1       6.770  -8.620  22.665  1.00  0.00     0.004 C 
ENDBRANCH  10  11
ENDBRANCH   9  10
ENDBRANCH   8   9
ENDBRANCH   7   8
ENDBRANCH   6   7
ENDBRANCH   5   6
ENDBRANCH   4   5
ENDBRANCH   3   4
ENDBRANCH   2   3
ENDBRANCH   1   2
BRANCH   1  13
ATOM     13  C   UNL     1       1.950   1.017  17.885  1.00  0.00     0.000 C 
BRANCH  13  14
ATOM     14  C   UNL     1       2.190   2.520  18.078  1.00  0.00     0.000 C 
BRANCH  14  15
ATOM     15  C   UNL     1       1.134   3.349  17.336  1.00  0.00     0.000 C 
BRANCH  15  16
ATOM     16  C   UNL     1       0.875   4.715  17.998  1.00  0.00     0.000 C 
BRANCH  16  17
ATOM     17  C   UNL     1       1.768   5.863  17.484  1.00  0.00     0.000 C 
BRANCH  17  18
ATOM     18  C   UNL     1       1.264   6.561  16.204  1.00  0.00     0.000 C 
BRANCH  18  19
ATOM     19  C   UNL     1       2.323   6.732  15.100  1.00  0.00     0.000 C 
BRANCH  19  20
ATOM     20  C   UNL     1       3.694   6.155  15.495  1.00  0.00     0.006 C 
BRANCH  20  21
ATOM     21  C   UNL     1       4.285   5.262  14.397  1.00  0.00     0.053 C 
BRANCH  21  22
ATOM     22  C   UNL     1       5.559   5.829  13.848  1.00  0.00     0.041 C 
ATOM     23  O   UNL     1       5.650   7.060  13.597  1.00  0.00    -0.550 OA
ATOM     24  O   UNL     1       6.650   4.999  13.626  1.00  0.00    -0.550 OA
ENDBRANCH  21  22
ENDBRANCH  20  21
ENDBRANCH  19  20
ENDBRANCH  18  19
ENDBRANCH  17  18
ENDBRANCH  16  17
ENDBRANCH  15  16
ENDBRANCH  14  15
ENDBRANCH  13  14
ENDBRANCH   1  13
TORSDOF 20
ENDMDL
