MODEL 1
REMARK VINA RESULT:    -1.773      0.000      0.000
REMARK INTER + INTRA:          -1.773
REMARK INTER:                  -1.773
REMARK INTRA:                   0.000
REMARK UNBOUND:                 0.000
REMARK SMILES CC(=O)[O-]
REMARK SMILES IDX 1 1 2 2 3 3 4 4
REMARK H PARENT
REMARK Flexibility Score: inf
ROOT
ATOM      1  C   UNL     1     -14.518  -5.320 -11.669  1.00  0.00     0.063 C 
ATOM      2  C   UNL     1     -14.626  -3.845 -11.856  1.00  0.00     0.038 C 
ATOM      3  O   UNL     1     -15.753  -3.284 -11.817  1.00  0.00    -0.550 OA
ATOM      4  O   UNL     1     -13.490  -3.093 -12.125  1.00  0.00    -0.550 OA
ENDROOT
TORSDOF 0
ENDMDL
MODEL 2
REMARK VINA RESULT:    -1.703      1.865      1.933
REMARK INTER + INTRA:          -1.703
REMARK INTER:                  -1.703
REMARK INTRA:                   0.000
REMARK UNBOUND:                 0.000
REMARK SMILES CC(=O)[O-]
REMARK SMILES IDX 1 1 2 2 3 3 4 4
REMARK H PARENT
REMARK Flexibility Score: inf
ROOT
ATOM      1  C   UNL     1     -16.335  -4.494 -11.451  1.00  0.00     0.063 C 
ATOM      2  C   UNL     1     -14.863  -4.730 -11.437  1.00  0.00     0.038 C 
ATOM      3  O   UNL     1     -14.411  -5.904 -11.386  1.00  0.00    -0.550 OA
ATOM      4  O   UNL     1     -13.986  -3.653 -11.426  1.00  0.00    -0.550 OA
ENDROOT
TORSDOF 0
ENDMDL
MODEL 3
REMARK VINA RESULT:    -1.692     14.885     15.302
REMARK INTER + INTRA:          -1.692
REMARK INTER:                  -1.692
REMARK INTRA:                   0.000
REMARK UNBOUND:                 0.000
REMARK SMILES CC(=O)[O-]
REMARK SMILES IDX 1 1 2 2 3 3 4 4
REMARK H PARENT
REMARK Flexibility Score: inf
ROOT
ATOM      1  C   UNL     1     -19.986   3.420  -1.132  1.00  0.00     0.063 C 
ATOM      2  C   UNL     1     -20.351   3.248   0.303  1.00  0.00     0.038 C 
ATOM      3  O   UNL     1     -21.047   2.265   0.665  1.00  0.00    -0.550 OA
ATOM      4  O   UNL     1     -19.968   4.203   1.237  1.00  0.00    -0.550 OA
ENDROOT
TORSDOF 0
ENDMDL
MODEL 4
REMARK VINA RESULT:    -1.672      1.966      2.192
REMARK INTER + INTRA:          -1.672
REMARK INTER:                  -1.672
REMARK INTRA:                   0.000
REMARK UNBOUND:                 0.000
REMARK SMILES CC(=O)[O-]
REMARK SMILES IDX 1 1 2 2 3 3 4 4
REMARK H PARENT
REMARK Flexibility Score: inf
ROOT
ATOM      1  C   UNL     1     -14.324  -3.761 -11.400  1.00  0.00     0.063 C 
ATOM      2  C   UNL     1     -14.962  -5.101 -11.544  1.00  0.00     0.038 C 
ATOM      3  O   UNL     1     -16.196  -5.192 -11.770  1.00  0.00    -0.550 OA
ATOM      4  O   UNL     1     -14.204  -6.253 -11.375  1.00  0.00    -0.550 OA
ENDROOT
TORSDOF 0
ENDMDL
MODEL 5
REMARK VINA RESULT:    -1.665     14.617     15.003
REMARK INTER + INTRA:          -1.665
REMARK INTER:                  -1.665
REMARK INTRA:                   0.000
REMARK UNBOUND:                 0.000
REMARK SMILES CC(=O)[O-]
REMARK SMILES IDX 1 1 2 2 3 3 4 4
REMARK H PARENT
REMARK Flexibility Score: inf
ROOT
ATOM      1  C   UNL     1     -20.856   2.601   0.702  1.00  0.00     0.063 C 
ATOM      2  C   UNL     1     -20.195   3.598  -0.188  1.00  0.00     0.038 C 
ATOM      3  O   UNL     1     -19.937   4.753   0.239  1.00  0.00    -0.550 OA
ATOM      4  O   UNL     1     -19.910   3.270  -1.508  1.00  0.00    -0.550 OA
ENDROOT
TORSDOF 0
ENDMDL
MODEL 6
REMARK VINA RESULT:    -1.645     19.747     20.012
REMARK INTER + INTRA:          -1.645
REMARK INTER:                  -1.645
REMARK INTRA:                   0.000
REMARK UNBOUND:                 0.000
REMARK SMILES CC(=O)[O-]
REMARK SMILES IDX 1 1 2 2 3 3 4 4
REMARK H PARENT
REMARK Flexibility Score: inf
ROOT
ATOM      1  C   UNL     1      -5.183   6.766   0.973  1.00  0.00     0.063 C 
ATOM      2  C   UNL     1      -3.857   6.335   1.502  1.00  0.00     0.038 C 
ATOM      3  O   UNL     1      -3.772   5.816   2.646  1.00  0.00    -0.550 OA
ATOM      4  O   UNL     1      -2.706   6.553   0.756  1.00  0.00    -0.550 OA
ENDROOT
TORSDOF 0
ENDMDL
MODEL 7
REMARK VINA RESULT:    -1.616      1.189      2.018
REMARK INTER + INTRA:          -1.616
REMARK INTER:                  -1.616
REMARK INTRA:                   0.000
REMARK UNBOUND:                 0.000
REMARK SMILES CC(=O)[O-]
REMARK SMILES IDX 1 1 2 2 3 3 4 4
REMARK H PARENT
REMARK Flexibility Score: inf
ROOT
ATOM      1  C   UNL     1     -14.403  -6.259 -11.725  1.00  0.00     0.063 C 
ATOM      2  C   UNL     1     -14.902  -4.876 -11.478  1.00  0.00     0.038 C 
ATOM      3  O   UNL     1     -14.088  -3.926 -11.339  1.00  0.00    -0.550 OA
ATOM      4  O   UNL     1     -16.265  -4.641 -11.346  1.00  0.00    -0.550 OA
ENDROOT
TORSDOF 0
ENDMDL
MODEL 8
REMARK VINA RESULT:    -1.608      9.799     10.247
REMARK INTER + INTRA:          -1.608
REMARK INTER:                  -1.608
REMARK INTRA:                   0.000
REMARK UNBOUND:                 0.000
REMARK SMILES CC(=O)[O-]
REMARK SMILES IDX 1 1 2 2 3 3 4 4
REMARK H PARENT
REMARK Flexibility Score: inf
ROOT
ATOM      1  C   UNL     1     -21.093 -11.503  -6.141  1.00  0.00     0.063 C 
ATOM      2  C   UNL     1     -20.486 -10.502  -7.065  1.00  0.00     0.038 C 
ATOM      3  O   UNL     1     -19.374 -10.734  -7.606  1.00  0.00    -0.550 OA
ATOM      4  O   UNL     1     -21.123  -9.288  -7.290  1.00  0.00    -0.550 OA
ENDROOT
TORSDOF 0
ENDMDL
MODEL 9
REMARK VINA RESULT:    -1.567     16.354     16.703
REMARK INTER + INTRA:          -1.567
REMARK INTER:                  -1.567
REMARK INTRA:                   0.000
REMARK UNBOUND:                 0.000
REMARK SMILES CC(=O)[O-]
REMARK SMILES IDX 1 1 2 2 3 3 4 4
REMARK H PARENT
REMARK Flexibility Score: inf
ROOT
ATOM      1  C   UNL     1     -20.797   2.655   0.970  1.00  0.00     0.063 C 
ATOM      2  C   UNL     1     -20.399   3.849   1.769  1.00  0.00     0.038 C 
ATOM      3  O   UNL     1     -20.700   3.922   2.988  1.00  0.00    -0.550 OA
ATOM      4  O   UNL     1     -19.742   4.908   1.155  1.00  0.00    -0.550 OA
ENDROOT
TORSDOF 0
ENDMDL
