MODEL 1
REMARK VINA RESULT:    -5.631      0.000      0.000
REMARK INTER + INTRA:          -5.991
REMARK INTER:                  -5.960
REMARK INTRA:                  -0.031
REMARK UNBOUND:                -0.031
REMARK SMILES COc1ccc2ccc(=O)oc2c1
REMARK SMILES IDX 3 1 13 2 12 3 6 4 5 5 4 6 7 7 8 8 9 9 10 10 11 11 2 12 1 13
REMARK H PARENT
REMARK Flexibility Score: inf
ROOT
ATOM      1  C   UNL     1      -4.781  14.960   9.456  1.00  0.00     0.122 A 
ATOM      2  C   UNL     1      -6.075  14.949   8.899  1.00  0.00     0.094 A 
ATOM      3  C   UNL     1      -6.272  14.512   7.584  1.00  0.00     0.142 A 
ATOM      4  C   UNL     1      -5.171  14.079   6.814  1.00  0.00     0.018 A 
ATOM      5  C   UNL     1      -3.885  14.089   7.369  1.00  0.00     0.016 A 
ATOM      6  C   UNL     1      -3.696  14.528   8.682  1.00  0.00     0.047 A 
ATOM      7  C   UNL     1      -5.400  13.648   5.504  1.00  0.00     0.019 A 
ATOM      8  C   UNL     1      -6.700  13.656   4.999  1.00  0.00     0.094 A 
ATOM      9  C   UNL     1      -7.743  14.098   5.819  1.00  0.00     0.336 A 
ATOM     10  O   UNL     1      -8.923  14.114   5.381  1.00  0.00    -0.246 OA
ATOM     11  O   UNL     1      -7.497  14.504   7.062  1.00  0.00    -0.423 OA
ENDROOT
BRANCH   1  12
ATOM     12  O   UNL     1      -4.532  15.389  10.768  1.00  0.00    -0.497 OA
ATOM     13  C   UNL     1      -3.876  16.608  11.104  1.00  0.00     0.278 C 
ENDBRANCH   1  12
TORSDOF 1
ENDMDL
MODEL 2
REMARK VINA RESULT:    -5.622      1.091      4.655
REMARK INTER + INTRA:          -5.982
REMARK INTER:                  -5.944
REMARK INTRA:                  -0.038
REMARK UNBOUND:                -0.031
REMARK SMILES COc1ccc2ccc(=O)oc2c1
REMARK SMILES IDX 3 1 13 2 12 3 6 4 5 5 4 6 7 7 8 8 9 9 10 10 11 11 2 12 1 13
REMARK H PARENT
REMARK Flexibility Score: inf
ROOT
ATOM      1  C   UNL     1      -7.735  14.549   5.853  1.00  0.00     0.122 A 
ATOM      2  C   UNL     1      -7.376  14.991   7.142  1.00  0.00     0.094 A 
ATOM      3  C   UNL     1      -6.080  14.778   7.624  1.00  0.00     0.142 A 
ATOM      4  C   UNL     1      -5.128  14.119   6.816  1.00  0.00     0.018 A 
ATOM      5  C   UNL     1      -5.485  13.680   5.534  1.00  0.00     0.016 A 
ATOM      6  C   UNL     1      -6.782  13.896   5.060  1.00  0.00     0.047 A 
ATOM      7  C   UNL     1      -3.841  13.922   7.326  1.00  0.00     0.019 A 
ATOM      8  C   UNL     1      -3.536  14.379   8.607  1.00  0.00     0.094 A 
ATOM      9  C   UNL     1      -4.529  15.023   9.352  1.00  0.00     0.336 A 
ATOM     10  O   UNL     1      -4.273  15.442  10.511  1.00  0.00    -0.246 OA
ATOM     11  O   UNL     1      -5.746  15.197   8.842  1.00  0.00    -0.423 OA
ENDROOT
BRANCH   1  12
ATOM     12  O   UNL     1      -9.021  14.737   5.325  1.00  0.00    -0.497 OA
ATOM     13  C   UNL     1      -9.901  15.789   5.709  1.00  0.00     0.278 C 
ENDBRANCH   1  12
TORSDOF 1
ENDMDL
MODEL 3
REMARK VINA RESULT:    -5.601      2.616      4.722
REMARK INTER + INTRA:          -5.959
REMARK INTER:                  -5.920
REMARK INTRA:                  -0.039
REMARK UNBOUND:                -0.031
REMARK SMILES COc1ccc2ccc(=O)oc2c1
REMARK SMILES IDX 3 1 13 2 12 3 6 4 5 5 4 6 7 7 8 8 9 9 10 10 11 11 2 12 1 13
REMARK H PARENT
REMARK Flexibility Score: inf
ROOT
ATOM      1  C   UNL     1      -9.224  16.637   6.814  1.00  0.00     0.122 A 
ATOM      2  C   UNL     1      -7.946  16.387   7.353  1.00  0.00     0.094 A 
ATOM      3  C   UNL     1      -7.095  15.457   6.746  1.00  0.00     0.142 A 
ATOM      4  C   UNL     1      -7.517  14.768   5.589  1.00  0.00     0.018 A 
ATOM      5  C   UNL     1      -8.786  15.017   5.053  1.00  0.00     0.016 A 
ATOM      6  C   UNL     1      -9.632  15.946   5.665  1.00  0.00     0.047 A 
ATOM      7  C   UNL     1      -6.643  13.845   5.006  1.00  0.00     0.019 A 
ATOM      8  C   UNL     1      -5.389  13.634   5.578  1.00  0.00     0.094 A 
ATOM      9  C   UNL     1      -5.038  14.353   6.725  1.00  0.00     0.336 A 
ATOM     10  O   UNL     1      -3.911  14.176   7.257  1.00  0.00    -0.246 OA
ATOM     11  O   UNL     1      -5.889  15.225   7.260  1.00  0.00    -0.423 OA
ENDROOT
BRANCH   1  12
ATOM     12  O   UNL     1     -10.114  17.559   7.386  1.00  0.00    -0.497 OA
ATOM     13  C   UNL     1     -11.522  17.553   7.174  1.00  0.00     0.278 C 
ENDBRANCH   1  12
TORSDOF 1
ENDMDL
MODEL 4
REMARK VINA RESULT:    -5.593      2.219      3.282
REMARK INTER + INTRA:          -5.951
REMARK INTER:                  -5.918
REMARK INTRA:                  -0.033
REMARK UNBOUND:                -0.031
REMARK SMILES COc1ccc2ccc(=O)oc2c1
REMARK SMILES IDX 3 1 13 2 12 3 6 4 5 5 4 6 7 7 8 8 9 9 10 10 11 11 2 12 1 13
REMARK H PARENT
REMARK Flexibility Score: inf
ROOT
ATOM      1  C   UNL     1      -4.861  14.672   6.700  1.00  0.00     0.122 A 
ATOM      2  C   UNL     1      -5.705  15.650   7.264  1.00  0.00     0.094 A 
ATOM      3  C   UNL     1      -7.020  15.794   6.806  1.00  0.00     0.142 A 
ATOM      4  C   UNL     1      -7.502  14.956   5.778  1.00  0.00     0.018 A 
ATOM      5  C   UNL     1      -6.663  13.983   5.219  1.00  0.00     0.016 A 
ATOM      6  C   UNL     1      -5.350  13.846   5.680  1.00  0.00     0.047 A 
ATOM      7  C   UNL     1      -8.820  15.123   5.343  1.00  0.00     0.019 A 
ATOM      8  C   UNL     1      -9.615  16.105   5.933  1.00  0.00     0.094 A 
ATOM      9  C   UNL     1      -9.070  16.900   6.947  1.00  0.00     0.336 A 
ATOM     10  O   UNL     1      -9.772  17.792   7.492  1.00  0.00    -0.246 OA
ATOM     11  O   UNL     1      -7.813  16.719   7.342  1.00  0.00    -0.423 OA
ENDROOT
BRANCH   1  12
ATOM     12  O   UNL     1      -3.535  14.490   7.124  1.00  0.00    -0.497 OA
ATOM     13  C   UNL     1      -3.162  13.894   8.362  1.00  0.00     0.278 C 
ENDBRANCH   1  12
TORSDOF 1
ENDMDL
MODEL 5
REMARK VINA RESULT:    -5.119      2.861      5.735
REMARK INTER + INTRA:          -5.449
REMARK INTER:                  -5.410
REMARK INTRA:                  -0.039
REMARK UNBOUND:                -0.031
REMARK SMILES COc1ccc2ccc(=O)oc2c1
REMARK SMILES IDX 3 1 13 2 12 3 6 4 5 5 4 6 7 7 8 8 9 9 10 10 11 11 2 12 1 13
REMARK H PARENT
REMARK Flexibility Score: inf
ROOT
ATOM      1  C   UNL     1      -4.574  14.556   7.538  1.00  0.00     0.122 A 
ATOM      2  C   UNL     1      -3.581  14.209   8.475  1.00  0.00     0.094 A 
ATOM      3  C   UNL     1      -2.322  14.820   8.426  1.00  0.00     0.142 A 
ATOM      4  C   UNL     1      -2.048  15.787   7.434  1.00  0.00     0.018 A 
ATOM      5  C   UNL     1      -3.036  16.132   6.504  1.00  0.00     0.016 A 
ATOM      6  C   UNL     1      -4.291  15.517   6.559  1.00  0.00     0.047 A 
ATOM      7  C   UNL     1      -0.782  16.379   7.412  1.00  0.00     0.019 A 
ATOM      8  C   UNL     1       0.167  16.001   8.362  1.00  0.00     0.094 A 
ATOM      9  C   UNL     1      -0.175  15.036   9.315  1.00  0.00     0.336 A 
ATOM     10  O   UNL     1       0.668  14.682  10.180  1.00  0.00    -0.246 OA
ATOM     11  O   UNL     1      -1.387  14.489   9.313  1.00  0.00    -0.423 OA
ENDROOT
BRANCH   1  12
ATOM     12  O   UNL     1      -5.850  13.972   7.546  1.00  0.00    -0.497 OA
ATOM     13  C   UNL     1      -6.728  13.945   6.425  1.00  0.00     0.278 C 
ENDBRANCH   1  12
TORSDOF 1
ENDMDL
MODEL 6
REMARK VINA RESULT:    -5.037      2.894      5.445
REMARK INTER + INTRA:          -5.363
REMARK INTER:                  -5.329
REMARK INTRA:                  -0.034
REMARK UNBOUND:                -0.031
REMARK SMILES COc1ccc2ccc(=O)oc2c1
REMARK SMILES IDX 3 1 13 2 12 3 6 4 5 5 4 6 7 7 8 8 9 9 10 10 11 11 2 12 1 13
REMARK H PARENT
REMARK Flexibility Score: inf
ROOT
ATOM      1  C   UNL     1     -10.508  16.141   6.182  1.00  0.00     0.122 A 
ATOM      2  C   UNL     1      -9.635  15.193   5.610  1.00  0.00     0.094 A 
ATOM      3  C   UNL     1      -8.271  15.215   5.921  1.00  0.00     0.142 A 
ATOM      4  C   UNL     1      -7.768  16.188   6.811  1.00  0.00     0.018 A 
ATOM      5  C   UNL     1      -8.635  17.129   7.380  1.00  0.00     0.016 A 
ATOM      6  C   UNL     1      -9.997  17.102   7.064  1.00  0.00     0.047 A 
ATOM      7  C   UNL     1      -6.400  16.183   7.103  1.00  0.00     0.019 A 
ATOM      8  C   UNL     1      -5.579  15.224   6.511  1.00  0.00     0.094 A 
ATOM      9  C   UNL     1      -6.146  14.290   5.638  1.00  0.00     0.336 A 
ATOM     10  O   UNL     1      -5.421  13.417   5.093  1.00  0.00    -0.246 OA
ATOM     11  O   UNL     1      -7.451  14.318   5.378  1.00  0.00    -0.423 OA
ENDROOT
BRANCH   1  12
ATOM     12  O   UNL     1     -11.882  16.161   5.901  1.00  0.00    -0.497 OA
ATOM     13  C   UNL     1     -12.792  15.127   6.262  1.00  0.00     0.278 C 
ENDBRANCH   1  12
TORSDOF 1
ENDMDL
MODEL 7
REMARK VINA RESULT:    -4.973      1.803      2.452
REMARK INTER + INTRA:          -5.295
REMARK INTER:                  -5.254
REMARK INTRA:                  -0.040
REMARK UNBOUND:                -0.031
REMARK SMILES COc1ccc2ccc(=O)oc2c1
REMARK SMILES IDX 3 1 13 2 12 3 6 4 5 5 4 6 7 7 8 8 9 9 10 10 11 11 2 12 1 13
REMARK H PARENT
REMARK Flexibility Score: inf
ROOT
ATOM      1  C   UNL     1      -4.281  14.503   7.617  1.00  0.00     0.122 A 
ATOM      2  C   UNL     1      -5.150  13.683   6.870  1.00  0.00     0.094 A 
ATOM      3  C   UNL     1      -6.418  14.148   6.506  1.00  0.00     0.142 A 
ATOM      4  C   UNL     1      -6.828  15.444   6.887  1.00  0.00     0.018 A 
ATOM      5  C   UNL     1      -5.964  16.260   7.628  1.00  0.00     0.016 A 
ATOM      6  C   UNL     1      -4.698  15.787   7.990  1.00  0.00     0.047 A 
ATOM      7  C   UNL     1      -8.101  15.881   6.508  1.00  0.00     0.019 A 
ATOM      8  C   UNL     1      -8.923  15.031   5.769  1.00  0.00     0.094 A 
ATOM      9  C   UNL     1      -8.452  13.759   5.427  1.00  0.00     0.336 A 
ATOM     10  O   UNL     1      -9.179  12.978   4.761  1.00  0.00    -0.246 OA
ATOM     11  O   UNL     1      -7.236  13.369   5.801  1.00  0.00    -0.423 OA
ENDROOT
BRANCH   1  12
ATOM     12  O   UNL     1      -3.000  14.082   8.007  1.00  0.00    -0.497 OA
ATOM     13  C   UNL     1      -2.081  14.881   8.744  1.00  0.00     0.278 C 
ENDBRANCH   1  12
TORSDOF 1
ENDMDL
MODEL 8
REMARK VINA RESULT:    -4.947      3.116      4.904
REMARK INTER + INTRA:          -5.267
REMARK INTER:                  -5.230
REMARK INTRA:                  -0.038
REMARK UNBOUND:                -0.031
REMARK SMILES COc1ccc2ccc(=O)oc2c1
REMARK SMILES IDX 3 1 13 2 12 3 6 4 5 5 4 6 7 7 8 8 9 9 10 10 11 11 2 12 1 13
REMARK H PARENT
REMARK Flexibility Score: inf
ROOT
ATOM      1  C   UNL     1      -7.344  14.673   6.313  1.00  0.00     0.122 A 
ATOM      2  C   UNL     1      -8.698  14.467   5.983  1.00  0.00     0.094 A 
ATOM      3  C   UNL     1      -9.657  15.435   6.304  1.00  0.00     0.142 A 
ATOM      4  C   UNL     1      -9.265  16.622   6.960  1.00  0.00     0.018 A 
ATOM      5  C   UNL     1      -7.919  16.827   7.287  1.00  0.00     0.016 A 
ATOM      6  C   UNL     1      -6.967  15.855   6.964  1.00  0.00     0.047 A 
ATOM      7  C   UNL     1     -10.246  17.570   7.267  1.00  0.00     0.019 A 
ATOM      8  C   UNL     1     -11.572  17.319   6.919  1.00  0.00     0.094 A 
ATOM      9  C   UNL     1     -11.888  16.120   6.271  1.00  0.00     0.336 A 
ATOM     10  O   UNL     1     -13.080  15.875   5.950  1.00  0.00    -0.246 OA
ATOM     11  O   UNL     1     -10.935  15.235   5.991  1.00  0.00    -0.423 OA
ENDROOT
BRANCH   1  12
ATOM     12  O   UNL     1      -6.346  13.733   6.013  1.00  0.00    -0.497 OA
ATOM     13  C   UNL     1      -4.997  14.066   5.701  1.00  0.00     0.278 C 
ENDBRANCH   1  12
TORSDOF 1
ENDMDL
MODEL 9
REMARK VINA RESULT:    -4.923      1.846      2.176
REMARK INTER + INTRA:          -5.241
REMARK INTER:                  -5.204
REMARK INTRA:                  -0.038
REMARK UNBOUND:                -0.031
REMARK SMILES COc1ccc2ccc(=O)oc2c1
REMARK SMILES IDX 3 1 13 2 12 3 6 4 5 5 4 6 7 7 8 8 9 9 10 10 11 11 2 12 1 13
REMARK H PARENT
REMARK Flexibility Score: inf
ROOT
ATOM      1  C   UNL     1      -3.265  15.366   8.869  1.00  0.00     0.122 A 
ATOM      2  C   UNL     1      -4.441  16.141   8.838  1.00  0.00     0.094 A 
ATOM      3  C   UNL     1      -5.474  15.819   7.951  1.00  0.00     0.142 A 
ATOM      4  C   UNL     1      -5.337  14.713   7.084  1.00  0.00     0.018 A 
ATOM      5  C   UNL     1      -4.168  13.943   7.115  1.00  0.00     0.016 A 
ATOM      6  C   UNL     1      -3.140  14.271   8.003  1.00  0.00     0.047 A 
ATOM      7  C   UNL     1      -6.387  14.417   6.209  1.00  0.00     0.019 A 
ATOM      8  C   UNL     1      -7.531  15.214   6.219  1.00  0.00     0.094 A 
ATOM      9  C   UNL     1      -7.597  16.294   7.105  1.00  0.00     0.336 A 
ATOM     10  O   UNL     1      -8.621  17.026   7.128  1.00  0.00    -0.246 OA
ATOM     11  O   UNL     1      -6.584  16.554   7.926  1.00  0.00    -0.423 OA
ENDROOT
BRANCH   1  12
ATOM     12  O   UNL     1      -2.201  15.649   9.739  1.00  0.00    -0.497 OA
ATOM     13  C   UNL     1      -0.836  15.353   9.463  1.00  0.00     0.278 C 
ENDBRANCH   1  12
TORSDOF 1
ENDMDL
