MODEL 1
REMARK VINA RESULT:    -6.116      0.000      0.000
REMARK INTER + INTRA:          -7.350
REMARK INTER:                  -7.188
REMARK INTRA:                  -0.162
REMARK UNBOUND:                -0.162
REMARK SMILES O=C([O-])C=Cc1ccc(O)c(O)c1
REMARK SMILES IDX 6 1 13 2 7 3 11 4 8 5 9 6 5 7 4 8 2 9 1 10 3 11 12 12 10 14
REMARK H PARENT 12 13 10 15
REMARK Flexibility Score: inf
ROOT
ATOM      1  C   UNL     1      30.477  26.469  35.033  1.00  0.00    -0.022 A 
ATOM      2  C   UNL     1      30.750  26.827  33.701  1.00  0.00     0.058 A 
ATOM      3  C   UNL     1      30.407  27.470  36.011  1.00  0.00     0.012 A 
ATOM      4  C   UNL     1      30.899  28.175  33.344  1.00  0.00     0.157 A 
ATOM      5  C   UNL     1      30.554  28.814  35.659  1.00  0.00     0.051 A 
ATOM      6  C   UNL     1      30.796  29.174  34.329  1.00  0.00     0.157 A 
ENDROOT
BRANCH   1   7
ATOM      7  C   UNL     1      30.369  25.052  35.438  1.00  0.00     0.010 C 
ATOM      8  C   UNL     1      29.233  24.339  35.473  1.00  0.00     0.025 C 
BRANCH   8   9
ATOM      9  C   UNL     1      27.873  24.885  35.299  1.00  0.00     0.064 C 
ATOM     10  O   UNL     1      27.117  24.385  34.428  1.00  0.00    -0.545 OA
ATOM     11  O   UNL     1      27.385  25.892  36.124  1.00  0.00    -0.545 OA
ENDBRANCH   8   9
ENDBRANCH   1   7
BRANCH   4  12
ATOM     12  O   UNL     1      31.155  28.525  32.020  1.00  0.00    -0.504 OA
ATOM     13  H   UNL     1      32.089  28.758  31.703  1.00  0.00     0.293 HD
ENDBRANCH   4  12
BRANCH   6  14
ATOM     14  O   UNL     1      30.935  30.523  34.006  1.00  0.00    -0.504 OA
ATOM     15  H   UNL     1      31.436  31.170  34.602  1.00  0.00     0.293 HD
ENDBRANCH   6  14
TORSDOF 4
ENDMDL
MODEL 2
REMARK VINA RESULT:    -5.611     12.961     15.338
REMARK INTER + INTRA:          -6.757
REMARK INTER:                  -6.644
REMARK INTRA:                  -0.113
REMARK UNBOUND:                -0.162
REMARK SMILES O=C([O-])C=Cc1ccc(O)c(O)c1
REMARK SMILES IDX 6 1 13 2 7 3 11 4 8 5 9 6 5 7 4 8 2 9 1 10 3 11 12 12 10 14
REMARK H PARENT 12 13 10 15
REMARK Flexibility Score: inf
ROOT
ATOM      1  C   UNL     1      31.792  35.110  21.717  1.00  0.00    -0.022 A 
ATOM      2  C   UNL     1      30.670  34.781  20.936  1.00  0.00     0.058 A 
ATOM      3  C   UNL     1      33.031  34.530  21.415  1.00  0.00     0.012 A 
ATOM      4  C   UNL     1      30.799  33.924  19.833  1.00  0.00     0.157 A 
ATOM      5  C   UNL     1      33.163  33.677  20.317  1.00  0.00     0.051 A 
ATOM      6  C   UNL     1      32.053  33.373  19.520  1.00  0.00     0.157 A 
ENDROOT
BRANCH   1   7
ATOM      7  C   UNL     1      31.666  35.968  22.914  1.00  0.00     0.010 C 
ATOM      8  C   UNL     1      31.587  35.530  24.179  1.00  0.00     0.025 C 
BRANCH   8   9
ATOM      9  C   UNL     1      31.421  34.122  24.589  1.00  0.00     0.064 C 
ATOM     10  O   UNL     1      32.391  33.330  24.474  1.00  0.00    -0.545 OA
ATOM     11  O   UNL     1      30.241  33.670  25.166  1.00  0.00    -0.545 OA
ENDBRANCH   8   9
ENDBRANCH   1   7
BRANCH   4  12
ATOM     12  O   UNL     1      29.686  33.615  19.053  1.00  0.00    -0.504 OA
ATOM     13  H   UNL     1      29.690  32.832  18.409  1.00  0.00     0.293 HD
ENDBRANCH   4  12
BRANCH   6  14
ATOM     14  O   UNL     1      32.215  32.521  18.429  1.00  0.00    -0.504 OA
ATOM     15  H   UNL     1      33.024  31.920  18.331  1.00  0.00     0.293 HD
ENDBRANCH   6  14
TORSDOF 4
ENDMDL
MODEL 3
REMARK VINA RESULT:    -5.574     12.805     15.191
REMARK INTER + INTRA:          -6.714
REMARK INTER:                  -6.563
REMARK INTRA:                  -0.151
REMARK UNBOUND:                -0.162
REMARK SMILES O=C([O-])C=Cc1ccc(O)c(O)c1
REMARK SMILES IDX 6 1 13 2 7 3 11 4 8 5 9 6 5 7 4 8 2 9 1 10 3 11 12 12 10 14
REMARK H PARENT 12 13 10 15
REMARK Flexibility Score: inf
ROOT
ATOM      1  C   UNL     1      31.747  34.937  21.806  1.00  0.00    -0.022 A 
ATOM      2  C   UNL     1      33.013  34.419  21.485  1.00  0.00     0.058 A 
ATOM      3  C   UNL     1      30.656  34.645  20.977  1.00  0.00     0.012 A 
ATOM      4  C   UNL     1      33.175  33.575  20.376  1.00  0.00     0.157 A 
ATOM      5  C   UNL     1      30.813  33.805  19.872  1.00  0.00     0.051 A 
ATOM      6  C   UNL     1      32.068  33.264  19.568  1.00  0.00     0.157 A 
ENDROOT
BRANCH   1   7
ATOM      7  C   UNL     1      31.566  35.869  22.939  1.00  0.00     0.010 C 
ATOM      8  C   UNL     1      31.475  35.515  24.229  1.00  0.00     0.025 C 
BRANCH   8   9
ATOM      9  C   UNL     1      31.350  34.132  24.731  1.00  0.00     0.064 C 
ATOM     10  O   UNL     1      32.347  33.367  24.678  1.00  0.00    -0.545 OA
ATOM     11  O   UNL     1      30.178  33.680  25.326  1.00  0.00    -0.545 OA
ENDBRANCH   8   9
ENDBRANCH   1   7
BRANCH   4  12
ATOM     12  O   UNL     1      34.431  33.052  20.072  1.00  0.00    -0.504 OA
ATOM     13  H   UNL     1      34.808  32.254  20.571  1.00  0.00     0.293 HD
ENDBRANCH   4  12
BRANCH   6  14
ATOM     14  O   UNL     1      32.195  32.425  18.462  1.00  0.00    -0.504 OA
ATOM     15  H   UNL     1      31.577  32.491  17.663  1.00  0.00     0.293 HD
ENDBRANCH   6  14
TORSDOF 4
ENDMDL
MODEL 4
REMARK VINA RESULT:    -5.499      1.206      4.988
REMARK INTER + INTRA:          -6.625
REMARK INTER:                  -6.423
REMARK INTRA:                  -0.203
REMARK UNBOUND:                -0.162
REMARK SMILES O=C([O-])C=Cc1ccc(O)c(O)c1
REMARK SMILES IDX 6 1 13 2 7 3 11 4 8 5 9 6 5 7 4 8 2 9 1 10 3 11 12 12 10 14
REMARK H PARENT 12 13 10 15
REMARK Flexibility Score: inf
ROOT
ATOM      1  C   UNL     1      30.098  27.080  35.354  1.00  0.00    -0.022 A 
ATOM      2  C   UNL     1      28.702  26.937  35.440  1.00  0.00     0.058 A 
ATOM      3  C   UNL     1      30.906  25.936  35.348  1.00  0.00     0.012 A 
ATOM      4  C   UNL     1      28.120  25.661  35.466  1.00  0.00     0.157 A 
ATOM      5  C   UNL     1      30.329  24.663  35.373  1.00  0.00     0.051 A 
ATOM      6  C   UNL     1      28.938  24.519  35.428  1.00  0.00     0.157 A 
ENDROOT
BRANCH   1   7
ATOM      7  C   UNL     1      30.733  28.415  35.379  1.00  0.00     0.010 C 
ATOM      8  C   UNL     1      31.272  29.037  34.320  1.00  0.00     0.025 C 
BRANCH   8   9
ATOM      9  C   UNL     1      31.498  28.431  32.993  1.00  0.00     0.064 C 
ATOM     10  O   UNL     1      32.576  27.824  32.770  1.00  0.00    -0.545 OA
ATOM     11  O   UNL     1      30.518  28.456  32.008  1.00  0.00    -0.545 OA
ENDBRANCH   8   9
ENDBRANCH   1   7
BRANCH   4  12
ATOM     12  O   UNL     1      26.734  25.525  35.535  1.00  0.00    -0.504 OA
ATOM     13  H   UNL     1      26.165  26.163  36.080  1.00  0.00     0.293 HD
ENDBRANCH   4  12
BRANCH   6  14
ATOM     14  O   UNL     1      28.390  23.237  35.448  1.00  0.00    -0.504 OA
ATOM     15  H   UNL     1      27.924  22.864  36.266  1.00  0.00     0.293 HD
ENDBRANCH   6  14
TORSDOF 4
ENDMDL
MODEL 5
REMARK VINA RESULT:    -5.350     12.681     14.898
REMARK INTER + INTRA:          -6.451
REMARK INTER:                  -6.662
REMARK INTRA:                   0.211
REMARK UNBOUND:                -0.162
REMARK SMILES O=C([O-])C=Cc1ccc(O)c(O)c1
REMARK SMILES IDX 6 1 13 2 7 3 11 4 8 5 9 6 5 7 4 8 2 9 1 10 3 11 12 12 10 14
REMARK H PARENT 12 13 10 15
REMARK Flexibility Score: inf
ROOT
ATOM      1  C   UNL     1      31.682  34.047  22.257  1.00  0.00    -0.022 A 
ATOM      2  C   UNL     1      31.232  33.342  21.126  1.00  0.00     0.058 A 
ATOM      3  C   UNL     1      31.564  35.443  22.287  1.00  0.00     0.012 A 
ATOM      4  C   UNL     1      30.624  34.023  20.061  1.00  0.00     0.157 A 
ATOM      5  C   UNL     1      30.958  36.123  21.228  1.00  0.00     0.051 A 
ATOM      6  C   UNL     1      30.483  35.420  20.115  1.00  0.00     0.157 A 
ENDROOT
BRANCH   1   7
ATOM      7  C   UNL     1      32.373  33.355  23.365  1.00  0.00     0.010 C 
ATOM      8  C   UNL     1      32.095  33.507  24.668  1.00  0.00     0.025 C 
BRANCH   8   9
ATOM      9  C   UNL     1      31.190  34.524  25.238  1.00  0.00     0.064 C 
ATOM     10  O   UNL     1      30.006  34.205  25.519  1.00  0.00    -0.545 OA
ATOM     11  O   UNL     1      31.636  35.805  25.538  1.00  0.00    -0.545 OA
ENDBRANCH   8   9
ENDBRANCH   1   7
BRANCH   4  12
ATOM     12  O   UNL     1      30.165  33.317  18.950  1.00  0.00    -0.504 OA
ATOM     13  H   UNL     1      29.268  33.521  18.525  1.00  0.00     0.293 HD
ENDBRANCH   4  12
BRANCH   6  14
ATOM     14  O   UNL     1      29.879  36.125  19.075  1.00  0.00    -0.504 OA
ATOM     15  H   UNL     1      28.892  36.035  18.866  1.00  0.00     0.293 HD
ENDBRANCH   6  14
TORSDOF 4
ENDMDL
MODEL 6
REMARK VINA RESULT:    -5.330      1.572      2.172
REMARK INTER + INTRA:          -6.427
REMARK INTER:                  -6.370
REMARK INTRA:                  -0.057
REMARK UNBOUND:                -0.162
REMARK SMILES O=C([O-])C=Cc1ccc(O)c(O)c1
REMARK SMILES IDX 6 1 13 2 7 3 11 4 8 5 9 6 5 7 4 8 2 9 1 10 3 11 12 12 10 14
REMARK H PARENT 12 13 10 15
REMARK Flexibility Score: inf
ROOT
ATOM      1  C   UNL     1      30.551  27.426  35.100  1.00  0.00    -0.022 A 
ATOM      2  C   UNL     1      30.329  28.012  33.842  1.00  0.00     0.058 A 
ATOM      3  C   UNL     1      31.823  26.926  35.409  1.00  0.00     0.012 A 
ATOM      4  C   UNL     1      31.382  28.144  32.924  1.00  0.00     0.157 A 
ATOM      5  C   UNL     1      32.874  27.056  34.497  1.00  0.00     0.051 A 
ATOM      6  C   UNL     1      32.662  27.667  33.256  1.00  0.00     0.157 A 
ENDROOT
BRANCH   1   7
ATOM      7  C   UNL     1      29.444  27.231  36.059  1.00  0.00     0.010 C 
ATOM      8  C   UNL     1      28.655  26.148  36.125  1.00  0.00     0.025 C 
BRANCH   8   9
ATOM      9  C   UNL     1      28.626  25.049  35.140  1.00  0.00     0.064 C 
ATOM     10  O   UNL     1      27.547  24.780  34.551  1.00  0.00    -0.545 OA
ATOM     11  O   UNL     1      29.778  24.352  34.797  1.00  0.00    -0.545 OA
ENDBRANCH   8   9
ENDBRANCH   1   7
BRANCH   4  12
ATOM     12  O   UNL     1      31.159  28.740  31.684  1.00  0.00    -0.504 OA
ATOM     13  H   UNL     1      31.243  28.216  30.820  1.00  0.00     0.293 HD
ENDBRANCH   4  12
BRANCH   6  14
ATOM     14  O   UNL     1      33.729  27.786  32.368  1.00  0.00    -0.504 OA
ATOM     15  H   UNL     1      34.189  28.672  32.195  1.00  0.00     0.293 HD
ENDBRANCH   6  14
TORSDOF 4
ENDMDL
MODEL 7
REMARK VINA RESULT:    -5.287     12.629     13.296
REMARK INTER + INTRA:          -6.376
REMARK INTER:                  -6.114
REMARK INTRA:                  -0.263
REMARK UNBOUND:                -0.162
REMARK SMILES O=C([O-])C=Cc1ccc(O)c(O)c1
REMARK SMILES IDX 6 1 13 2 7 3 11 4 8 5 9 6 5 7 4 8 2 9 1 10 3 11 12 12 10 14
REMARK H PARENT 12 13 10 15
REMARK Flexibility Score: inf
ROOT
ATOM      1  C   UNL     1      19.077  33.458  29.155  1.00  0.00    -0.022 A 
ATOM      2  C   UNL     1      20.245  33.285  29.916  1.00  0.00     0.058 A 
ATOM      3  C   UNL     1      19.175  33.969  27.854  1.00  0.00     0.012 A 
ATOM      4  C   UNL     1      21.502  33.570  29.363  1.00  0.00     0.157 A 
ATOM      5  C   UNL     1      20.425  34.253  27.299  1.00  0.00     0.051 A 
ATOM      6  C   UNL     1      21.592  34.053  28.045  1.00  0.00     0.157 A 
ENDROOT
BRANCH   1   7
ATOM      7  C   UNL     1      17.740  33.212  29.737  1.00  0.00     0.010 C 
ATOM      8  C   UNL     1      17.174  32.007  29.900  1.00  0.00     0.025 C 
BRANCH   8   9
ATOM      9  C   UNL     1      17.694  30.736  29.360  1.00  0.00     0.064 C 
ATOM     10  O   UNL     1      18.475  30.044  30.061  1.00  0.00    -0.545 OA
ATOM     11  O   UNL     1      17.284  30.253  28.123  1.00  0.00    -0.545 OA
ENDBRANCH   8   9
ENDBRANCH   1   7
BRANCH   4  12
ATOM     12  O   UNL     1      22.659  33.382  30.117  1.00  0.00    -0.504 OA
ATOM     13  H   UNL     1      22.670  32.774  30.929  1.00  0.00     0.293 HD
ENDBRANCH   4  12
BRANCH   6  14
ATOM     14  O   UNL     1      22.826  34.342  27.465  1.00  0.00    -0.504 OA
ATOM     15  H   UNL     1      23.697  34.010  27.860  1.00  0.00     0.293 HD
ENDBRANCH   6  14
TORSDOF 4
ENDMDL
MODEL 8
REMARK VINA RESULT:    -5.275     17.325     18.552
REMARK INTER + INTRA:          -6.362
REMARK INTER:                  -6.202
REMARK INTRA:                  -0.160
REMARK UNBOUND:                -0.162
REMARK SMILES O=C([O-])C=Cc1ccc(O)c(O)c1
REMARK SMILES IDX 6 1 13 2 7 3 11 4 8 5 9 6 5 7 4 8 2 9 1 10 3 11 12 12 10 14
REMARK H PARENT 12 13 10 15
REMARK Flexibility Score: inf
ROOT
ATOM      1  C   UNL     1      23.054  29.705  17.314  1.00  0.00    -0.022 A 
ATOM      2  C   UNL     1      23.709  28.855  18.222  1.00  0.00     0.058 A 
ATOM      3  C   UNL     1      23.724  30.116  16.154  1.00  0.00     0.012 A 
ATOM      4  C   UNL     1      24.999  28.379  17.946  1.00  0.00     0.157 A 
ATOM      5  C   UNL     1      25.009  29.643  15.875  1.00  0.00     0.051 A 
ATOM      6  C   UNL     1      25.650  28.773  16.764  1.00  0.00     0.157 A 
ENDROOT
BRANCH   1   7
ATOM      7  C   UNL     1      21.716  30.259  17.612  1.00  0.00     0.010 C 
ATOM      8  C   UNL     1      21.473  31.323  18.391  1.00  0.00     0.025 C 
BRANCH   8   9
ATOM      9  C   UNL     1      22.467  32.011  19.237  1.00  0.00     0.064 C 
ATOM     10  O   UNL     1      22.771  33.204  18.981  1.00  0.00    -0.545 OA
ATOM     11  O   UNL     1      23.022  31.395  20.352  1.00  0.00    -0.545 OA
ENDBRANCH   8   9
ENDBRANCH   1   7
BRANCH   4  12
ATOM     12  O   UNL     1      25.637  27.524  18.842  1.00  0.00    -0.504 OA
ATOM     13  H   UNL     1      26.046  27.867  19.704  1.00  0.00     0.293 HD
ENDBRANCH   4  12
BRANCH   6  14
ATOM     14  O   UNL     1      26.930  28.314  16.458  1.00  0.00    -0.504 OA
ATOM     15  H   UNL     1      27.085  27.485  15.897  1.00  0.00     0.293 HD
ENDBRANCH   6  14
TORSDOF 4
ENDMDL
MODEL 9
REMARK VINA RESULT:    -5.224      1.674      4.889
REMARK INTER + INTRA:          -6.303
REMARK INTER:                  -6.083
REMARK INTRA:                  -0.220
REMARK UNBOUND:                -0.162
REMARK SMILES O=C([O-])C=Cc1ccc(O)c(O)c1
REMARK SMILES IDX 6 1 13 2 7 3 11 4 8 5 9 6 5 7 4 8 2 9 1 10 3 11 12 12 10 14
REMARK H PARENT 12 13 10 15
REMARK Flexibility Score: inf
ROOT
ATOM      1  C   UNL     1      30.153  27.268  35.495  1.00  0.00    -0.022 A 
ATOM      2  C   UNL     1      31.062  26.204  35.627  1.00  0.00     0.058 A 
ATOM      3  C   UNL     1      28.783  26.992  35.392  1.00  0.00     0.012 A 
ATOM      4  C   UNL     1      30.600  24.882  35.708  1.00  0.00     0.157 A 
ATOM      5  C   UNL     1      28.320  25.677  35.474  1.00  0.00     0.051 A 
ATOM      6  C   UNL     1      29.221  24.618  35.635  1.00  0.00     0.157 A 
ENDROOT
BRANCH   1   7
ATOM      7  C   UNL     1      30.623  28.663  35.355  1.00  0.00     0.010 C 
ATOM      8  C   UNL     1      31.089  29.215  34.225  1.00  0.00     0.025 C 
BRANCH   8   9
ATOM      9  C   UNL     1      31.393  28.487  32.977  1.00  0.00     0.064 C 
ATOM     10  O   UNL     1      30.557  28.502  32.038  1.00  0.00    -0.545 OA
ATOM     11  O   UNL     1      32.611  27.845  32.791  1.00  0.00    -0.545 OA
ENDBRANCH   8   9
ENDBRANCH   1   7
BRANCH   4  12
ATOM     12  O   UNL     1      31.504  23.832  35.854  1.00  0.00    -0.504 OA
ATOM     13  H   UNL     1      31.944  23.393  35.053  1.00  0.00     0.293 HD
ENDBRANCH   4  12
BRANCH   6  14
ATOM     14  O   UNL     1      28.730  23.316  35.717  1.00  0.00    -0.504 OA
ATOM     15  H   UNL     1      27.741  23.109  35.643  1.00  0.00     0.293 HD
ENDBRANCH   6  14
TORSDOF 4
ENDMDL
