MODEL 1
REMARK VINA RESULT:    -1.043      0.000      0.000
REMARK INTER + INTRA:          -1.204
REMARK INTER:                  -1.256
REMARK INTRA:                   0.052
REMARK UNBOUND:                 0.052
REMARK SMILES Oc1cc(O)c2cc(O)c(-c3ccc(O)c(O)c3)[o+]c2c1
REMARK SMILES IDX 10 1 19 2 20 3 21 4 2 5 3 6 4 7 6 8 7 9 8 10 11 11 12 12
REMARK SMILES IDX 13 13 14 14 18 15 16 16 15 17 17 19 9 21 1 23 5 25
REMARK H PARENT 15 18 17 20 9 22 1 24 5 26
REMARK Flexibility Score: inf
ROOT
ATOM      1  C   UNL     1      19.588  11.479  -9.109  1.00  0.00     0.402 A 
ATOM      2  O   UNL     1      20.096  12.668  -9.424  1.00  0.00    -0.202 OA
ATOM      3  C   UNL     1      19.380  13.647  -9.968  1.00  0.00     0.368 A 
ATOM      4  C   UNL     1      20.004  14.862 -10.261  1.00  0.00     0.162 A 
ATOM      5  C   UNL     1      19.275  15.911 -10.830  1.00  0.00     0.128 A 
ATOM      6  C   UNL     1      17.916  15.742 -11.107  1.00  0.00     0.093 A 
ATOM      7  C   UNL     1      17.268  14.533 -10.821  1.00  0.00     0.136 A 
ATOM      8  C   UNL     1      18.004  13.465 -10.247  1.00  0.00     0.125 A 
ATOM      9  C   UNL     1      17.442  12.216  -9.940  1.00  0.00     0.078 A 
ATOM     10  C   UNL     1      18.233  11.209  -9.379  1.00  0.00     0.223 A 
ENDROOT
BRANCH   1  11
ATOM     11  C   UNL     1      20.486  10.473  -8.499  1.00  0.00     0.087 A 
ATOM     12  C   UNL     1      21.762  10.213  -9.029  1.00  0.00     0.022 A 
ATOM     13  C   UNL     1      22.583   9.242  -8.451  1.00  0.00     0.051 A 
ATOM     14  C   UNL     1      22.139   8.508  -7.343  1.00  0.00     0.157 A 
ATOM     15  C   UNL     1      20.037   9.720  -7.401  1.00  0.00     0.068 A 
ATOM     16  C   UNL     1      20.858   8.746  -6.819  1.00  0.00     0.158 A 
BRANCH  14  17
ATOM     17  O   UNL     1      22.962   7.541  -6.767  1.00  0.00    -0.504 OA
ATOM     18  H   UNL     1      23.536   7.747  -5.959  1.00  0.00     0.293 HD
ENDBRANCH  14  17
BRANCH  16  19
ATOM     19  O   UNL     1      20.382   8.029  -5.722  1.00  0.00    -0.504 OA
ATOM     20  H   UNL     1      19.684   8.407  -5.093  1.00  0.00     0.293 HD
ENDBRANCH  16  19
ENDBRANCH   1  11
BRANCH  10  21
ATOM     21  O   UNL     1      17.687   9.953  -9.120  1.00  0.00    -0.500 OA
ATOM     22  H   UNL     1      17.073   9.492  -9.783  1.00  0.00     0.294 HD
ENDBRANCH  10  21
BRANCH   5  23
ATOM     23  O   UNL     1      19.889  17.125 -11.125  1.00  0.00    -0.507 OA
ATOM     24  H   UNL     1      20.811  17.353 -10.770  1.00  0.00     0.293 HD
ENDBRANCH   5  23
BRANCH   7  25
ATOM     25  O   UNL     1      15.906  14.446 -11.125  1.00  0.00    -0.507 OA
ATOM     26  H   UNL     1      15.539  14.218 -12.037  1.00  0.00     0.293 HD
ENDBRANCH   7  25
TORSDOF 6
ENDMDL
MODEL 2
REMARK VINA RESULT:    -1.032      1.320      7.219
REMARK INTER + INTRA:          -1.191
REMARK INTER:                  -0.889
REMARK INTRA:                  -0.301
REMARK UNBOUND:                 0.052
REMARK SMILES Oc1cc(O)c2cc(O)c(-c3ccc(O)c(O)c3)[o+]c2c1
REMARK SMILES IDX 10 1 19 2 20 3 21 4 2 5 3 6 4 7 6 8 7 9 8 10 11 11 12 12
REMARK SMILES IDX 13 13 14 14 18 15 16 16 15 17 17 19 9 21 1 23 5 25
REMARK H PARENT 15 18 17 20 9 22 1 24 5 26
REMARK Flexibility Score: inf
ROOT
ATOM      1  C   UNL     1      19.626  12.225  -9.443  1.00  0.00     0.402 A 
ATOM      2  O   UNL     1      19.188  11.437  -8.464  1.00  0.00    -0.202 OA
ATOM      3  C   UNL     1      19.880  10.402  -7.996  1.00  0.00     0.368 A 
ATOM      4  C   UNL     1      19.337   9.635  -6.962  1.00  0.00     0.162 A 
ATOM      5  C   UNL     1      20.044   8.543  -6.448  1.00  0.00     0.128 A 
ATOM      6  C   UNL     1      21.298   8.219  -6.971  1.00  0.00     0.093 A 
ATOM      7  C   UNL     1      21.864   8.974  -8.006  1.00  0.00     0.136 A 
ATOM      8  C   UNL     1      21.149  10.081  -8.533  1.00  0.00     0.125 A 
ATOM      9  C   UNL     1      21.632  10.885  -9.578  1.00  0.00     0.078 A 
ATOM     10  C   UNL     1      20.867  11.957 -10.049  1.00  0.00     0.223 A 
ENDROOT
BRANCH   1  11
ATOM     11  C   UNL     1      18.767  13.352  -9.870  1.00  0.00     0.087 A 
ATOM     12  C   UNL     1      17.654  13.149 -10.707  1.00  0.00     0.022 A 
ATOM     13  C   UNL     1      16.872  14.231 -11.117  1.00  0.00     0.051 A 
ATOM     14  C   UNL     1      17.194  15.532 -10.709  1.00  0.00     0.157 A 
ATOM     15  C   UNL     1      19.097  14.660  -9.481  1.00  0.00     0.068 A 
ATOM     16  C   UNL     1      18.315  15.748  -9.890  1.00  0.00     0.158 A 
BRANCH  14  17
ATOM     17  O   UNL     1      16.410  16.610 -11.118  1.00  0.00    -0.504 OA
ATOM     18  H   UNL     1      16.076  17.303 -10.459  1.00  0.00     0.293 HD
ENDBRANCH  14  17
BRANCH  16  19
ATOM     19  O   UNL     1      18.667  17.030  -9.472  1.00  0.00    -0.504 OA
ATOM     20  H   UNL     1      18.669  17.296  -8.494  1.00  0.00     0.293 HD
ENDBRANCH  16  19
ENDBRANCH   1  11
BRANCH  10  21
ATOM     21  O   UNL     1      21.323  12.724 -11.120  1.00  0.00    -0.500 OA
ATOM     22  H   UNL     1      22.029  13.442 -10.999  1.00  0.00     0.294 HD
ENDBRANCH  10  21
BRANCH   5  23
ATOM     23  O   UNL     1      19.509   7.773  -5.419  1.00  0.00    -0.507 OA
ATOM     24  H   UNL     1      20.094   7.180  -4.841  1.00  0.00     0.293 HD
ENDBRANCH   5  23
BRANCH   7  25
ATOM     25  O   UNL     1      23.124   8.587  -8.470  1.00  0.00    -0.507 OA
ATOM     26  H   UNL     1      23.490   8.812  -9.384  1.00  0.00     0.293 HD
ENDBRANCH   7  25
TORSDOF 6
ENDMDL
