MODEL 1
REMARK VINA RESULT:    -5.327      0.000      0.000
REMARK INTER + INTRA:          -9.126
REMARK INTER:                  -8.442
REMARK INTRA:                  -0.684
REMARK UNBOUND:                -0.684
REMARK SMILES CCCCCCCCCCCC(=O)[O-]
REMARK SMILES IDX 7 1 8 2 9 3 10 4 11 5 12 6 13 7 14 8 6 9 5 10 4 11 3 12 2 13
REMARK SMILES IDX 1 14
REMARK H PARENT
REMARK Flexibility Score: inf
ROOT
ATOM      1  C   UNL     1      -3.913   8.137   5.510  1.00  0.00     0.000 C 
ENDROOT
BRANCH   1   2
ATOM      2  C   UNL     1      -4.069   6.831   4.710  1.00  0.00     0.000 C 
BRANCH   2   3
ATOM      3  C   UNL     1      -2.766   6.435   3.985  1.00  0.00     0.000 C 
BRANCH   3   4
ATOM      4  C   UNL     1      -2.094   5.179   4.566  1.00  0.00     0.006 C 
BRANCH   4   5
ATOM      5  C   UNL     1      -2.836   4.615   5.784  1.00  0.00     0.053 C 
BRANCH   5   6
ATOM      6  C   UNL     1      -2.384   3.219   6.070  1.00  0.00     0.041 C 
ATOM      7  O   UNL     1      -2.476   2.329   5.184  1.00  0.00    -0.550 OA
ATOM      8  O   UNL     1      -1.815   2.910   7.300  1.00  0.00    -0.550 OA
ENDBRANCH   5   6
ENDBRANCH   4   5
ENDBRANCH   3   4
ENDBRANCH   2   3
ENDBRANCH   1   2
BRANCH   1   9
ATOM      9  C   UNL     1      -4.467   8.029   6.940  1.00  0.00     0.000 C 
BRANCH   9  10
ATOM     10  C   UNL     1      -5.403   6.822   7.122  1.00  0.00    -0.000 C 
BRANCH  10  11
ATOM     11  C   UNL     1      -6.215   6.897   8.426  1.00  0.00    -0.000 C 
BRANCH  11  12
ATOM     12  C   UNL     1      -6.971   5.595   8.731  1.00  0.00    -0.000 C 
BRANCH  12  13
ATOM     13  C   UNL     1      -8.360   5.604   8.081  1.00  0.00    -0.003 C 
ATOM     14  C   UNL     1      -9.066   6.938   8.305  1.00  0.00     0.004 C 
ENDBRANCH  12  13
ENDBRANCH  11  12
ENDBRANCH  10  11
ENDBRANCH   9  10
ENDBRANCH   1   9
TORSDOF 10
ENDMDL
MODEL 2
REMARK VINA RESULT:    -4.981      2.941      5.666
REMARK INTER + INTRA:          -8.577
REMARK INTER:                  -7.862
REMARK INTRA:                  -0.715
REMARK UNBOUND:                -0.684
REMARK SMILES CCCCCCCCCCCC(=O)[O-]
REMARK SMILES IDX 7 1 8 2 9 3 10 4 11 5 12 6 13 7 14 8 6 9 5 10 4 11 3 12 2 13
REMARK SMILES IDX 1 14
REMARK H PARENT
REMARK Flexibility Score: inf
ROOT
ATOM      1  C   UNL     1      -3.905   8.230   5.325  1.00  0.00     0.000 C 
ENDROOT
BRANCH   1   2
ATOM      2  C   UNL     1      -4.365   8.087   6.787  1.00  0.00     0.000 C 
BRANCH   2   3
ATOM      3  C   UNL     1      -5.282   6.863   6.991  1.00  0.00     0.000 C 
BRANCH   3   4
ATOM      4  C   UNL     1      -6.166   6.958   8.246  1.00  0.00     0.006 C 
BRANCH   4   5
ATOM      5  C   UNL     1      -6.784   5.612   8.644  1.00  0.00     0.053 C 
BRANCH   5   6
ATOM      6  C   UNL     1      -8.239   5.582   8.296  1.00  0.00     0.041 C 
ATOM      7  O   UNL     1      -8.902   4.521   8.434  1.00  0.00    -0.550 OA
ATOM      8  O   UNL     1      -8.875   6.740   7.865  1.00  0.00    -0.550 OA
ENDBRANCH   5   6
ENDBRANCH   4   5
ENDBRANCH   3   4
ENDBRANCH   2   3
ENDBRANCH   1   2
BRANCH   1   9
ATOM      9  C   UNL     1      -4.063   6.930   4.520  1.00  0.00     0.000 C 
BRANCH   9  10
ATOM     10  C   UNL     1      -2.757   6.497   3.834  1.00  0.00    -0.000 C 
BRANCH  10  11
ATOM     11  C   UNL     1      -2.004   5.416   4.629  1.00  0.00    -0.000 C 
BRANCH  11  12
ATOM     12  C   UNL     1      -2.932   4.582   5.523  1.00  0.00    -0.000 C 
BRANCH  12  13
ATOM     13  C   UNL     1      -2.355   3.180   5.754  1.00  0.00    -0.003 C 
ATOM     14  C   UNL     1      -1.821   3.031   7.176  1.00  0.00     0.004 C 
ENDBRANCH  12  13
ENDBRANCH  11  12
ENDBRANCH  10  11
ENDBRANCH   9  10
ENDBRANCH   1   9
TORSDOF 10
ENDMDL
MODEL 3
REMARK VINA RESULT:    -4.964      1.654      2.959
REMARK INTER + INTRA:          -8.550
REMARK INTER:                  -8.017
REMARK INTRA:                  -0.533
REMARK UNBOUND:                -0.684
REMARK SMILES CCCCCCCCCCCC(=O)[O-]
REMARK SMILES IDX 7 1 8 2 9 3 10 4 11 5 12 6 13 7 14 8 6 9 5 10 4 11 3 12 2 13
REMARK SMILES IDX 1 14
REMARK H PARENT
REMARK Flexibility Score: inf
ROOT
ATOM      1  C   UNL     1      -2.902   5.897   4.591  1.00  0.00     0.000 C 
ENDROOT
BRANCH   1   2
ATOM      2  C   UNL     1      -2.792   4.814   5.680  1.00  0.00     0.000 C 
BRANCH   2   3
ATOM      3  C   UNL     1      -2.227   3.490   5.128  1.00  0.00     0.000 C 
BRANCH   3   4
ATOM      4  C   UNL     1      -1.849   2.477   6.223  1.00  0.00     0.006 C 
BRANCH   4   5
ATOM      5  C   UNL     1      -1.783   3.106   7.620  1.00  0.00     0.053 C 
BRANCH   5   6
ATOM      6  C   UNL     1      -0.820   2.358   8.484  1.00  0.00     0.041 C 
ATOM      7  O   UNL     1      -0.449   2.841   9.586  1.00  0.00    -0.550 OA
ATOM      8  O   UNL     1      -0.367   1.102   8.096  1.00  0.00    -0.550 OA
ENDBRANCH   5   6
ENDBRANCH   4   5
ENDBRANCH   3   4
ENDBRANCH   2   3
ENDBRANCH   1   2
BRANCH   1   9
ATOM      9  C   UNL     1      -4.207   6.704   4.683  1.00  0.00     0.000 C 
BRANCH   9  10
ATOM     10  C   UNL     1      -4.034   8.022   5.457  1.00  0.00    -0.000 C 
BRANCH  10  11
ATOM     11  C   UNL     1      -4.506   7.915   6.917  1.00  0.00    -0.000 C 
BRANCH  11  12
ATOM     12  C   UNL     1      -5.380   6.677   7.169  1.00  0.00    -0.000 C 
BRANCH  12  13
ATOM     13  C   UNL     1      -6.430   6.960   8.250  1.00  0.00    -0.003 C 
ATOM     14  C   UNL     1      -5.858   7.836   9.360  1.00  0.00     0.004 C 
ENDBRANCH  12  13
ENDBRANCH  11  12
ENDBRANCH  10  11
ENDBRANCH   9  10
ENDBRANCH   1   9
TORSDOF 10
ENDMDL
MODEL 4
REMARK VINA RESULT:    -4.723      2.666      5.605
REMARK INTER + INTRA:          -8.168
REMARK INTER:                  -7.637
REMARK INTRA:                  -0.531
REMARK UNBOUND:                -0.684
REMARK SMILES CCCCCCCCCCCC(=O)[O-]
REMARK SMILES IDX 7 1 8 2 9 3 10 4 11 5 12 6 13 7 14 8 6 9 5 10 4 11 3 12 2 13
REMARK SMILES IDX 1 14
REMARK H PARENT
REMARK Flexibility Score: inf
ROOT
ATOM      1  C   UNL     1      -5.221   6.810   6.897  1.00  0.00     0.000 C 
ENDROOT
BRANCH   1   2
ATOM      2  C   UNL     1      -5.844   7.129   8.269  1.00  0.00     0.000 C 
BRANCH   2   3
ATOM      3  C   UNL     1      -7.376   6.942   8.269  1.00  0.00     0.000 C 
BRANCH   3   4
ATOM      4  C   UNL     1      -7.818   5.484   8.057  1.00  0.00     0.006 C 
BRANCH   4   5
ATOM      5  C   UNL     1      -7.746   4.646   9.339  1.00  0.00     0.053 C 
BRANCH   5   6
ATOM      6  C   UNL     1      -8.023   3.208   9.038  1.00  0.00     0.041 C 
ATOM      7  O   UNL     1      -8.894   2.895   8.184  1.00  0.00    -0.550 OA
ATOM      8  O   UNL     1      -7.285   2.211   9.665  1.00  0.00    -0.550 OA
ENDBRANCH   5   6
ENDBRANCH   4   5
ENDBRANCH   3   4
ENDBRANCH   2   3
ENDBRANCH   1   2
BRANCH   1   9
ATOM      9  C   UNL     1      -4.346   7.954   6.360  1.00  0.00     0.000 C 
BRANCH   9  10
ATOM     10  C   UNL     1      -3.744   7.640   4.980  1.00  0.00    -0.000 C 
BRANCH  10  11
ATOM     11  C   UNL     1      -3.898   6.160   4.593  1.00  0.00    -0.000 C 
BRANCH  11  12
ATOM     12  C   UNL     1      -2.637   5.334   4.886  1.00  0.00    -0.000 C 
BRANCH  12  13
ATOM     13  C   UNL     1      -2.935   4.219   5.897  1.00  0.00    -0.003 C 
ATOM     14  C   UNL     1      -2.174   2.943   5.550  1.00  0.00     0.004 C 
ENDBRANCH  12  13
ENDBRANCH  11  12
ENDBRANCH  10  11
ENDBRANCH   9  10
ENDBRANCH   1   9
TORSDOF 10
ENDMDL
MODEL 5
REMARK VINA RESULT:    -4.506      2.886      5.579
REMARK INTER + INTRA:          -7.825
REMARK INTER:                  -7.477
REMARK INTRA:                  -0.348
REMARK UNBOUND:                -0.684
REMARK SMILES CCCCCCCCCCCC(=O)[O-]
REMARK SMILES IDX 7 1 8 2 9 3 10 4 11 5 12 6 13 7 14 8 6 9 5 10 4 11 3 12 2 13
REMARK SMILES IDX 1 14
REMARK H PARENT
REMARK Flexibility Score: inf
ROOT
ATOM      1  C   UNL     1      -3.364   6.231   4.234  1.00  0.00     0.000 C 
ENDROOT
BRANCH   1   2
ATOM      2  C   UNL     1      -4.320   7.359   4.663  1.00  0.00     0.000 C 
BRANCH   2   3
ATOM      3  C   UNL     1      -3.712   8.248   5.768  1.00  0.00     0.000 C 
BRANCH   3   4
ATOM      4  C   UNL     1      -4.451   8.148   7.114  1.00  0.00     0.006 C 
BRANCH   4   5
ATOM      5  C   UNL     1      -5.307   6.881   7.232  1.00  0.00     0.053 C 
BRANCH   5   6
ATOM      6  C   UNL     1      -6.312   7.032   8.329  1.00  0.00     0.041 C 
ATOM      7  O   UNL     1      -7.500   6.650   8.157  1.00  0.00    -0.550 OA
ATOM      8  O   UNL     1      -5.928   7.550   9.559  1.00  0.00    -0.550 OA
ENDBRANCH   5   6
ENDBRANCH   4   5
ENDBRANCH   3   4
ENDBRANCH   2   3
ENDBRANCH   1   2
BRANCH   1   9
ATOM      9  C   UNL     1      -3.195   5.151   5.314  1.00  0.00     0.000 C 
BRANCH   9  10
ATOM     10  C   UNL     1      -1.972   4.252   5.065  1.00  0.00    -0.000 C 
BRANCH  10  11
ATOM     11  C   UNL     1      -2.047   2.927   5.843  1.00  0.00    -0.000 C 
BRANCH  11  12
ATOM     12  C   UNL     1      -2.088   3.133   7.364  1.00  0.00    -0.000 C 
BRANCH  12  13
ATOM     13  C   UNL     1      -0.992   2.315   8.057  1.00  0.00    -0.003 C 
ATOM     14  C   UNL     1      -1.239   2.224   9.561  1.00  0.00     0.004 C 
ENDBRANCH  12  13
ENDBRANCH  11  12
ENDBRANCH  10  11
ENDBRANCH   9  10
ENDBRANCH   1   9
TORSDOF 10
ENDMDL
MODEL 6
REMARK VINA RESULT:    -4.082     13.323     16.854
REMARK INTER + INTRA:          -7.153
REMARK INTER:                  -6.575
REMARK INTRA:                  -0.578
REMARK UNBOUND:                -0.684
REMARK SMILES CCCCCCCCCCCC(=O)[O-]
REMARK SMILES IDX 7 1 8 2 9 3 10 4 11 5 12 6 13 7 14 8 6 9 5 10 4 11 3 12 2 13
REMARK SMILES IDX 1 14
REMARK H PARENT
REMARK Flexibility Score: inf
ROOT
ATOM      1  C   UNL     1       7.077   6.121  -2.730  1.00  0.00     0.000 C 
ENDROOT
BRANCH   1   2
ATOM      2  C   UNL     1       8.253   7.077  -2.463  1.00  0.00     0.000 C 
BRANCH   2   3
ATOM      3  C   UNL     1       7.792   8.542  -2.321  1.00  0.00     0.000 C 
BRANCH   3   4
ATOM      4  C   UNL     1       6.290   8.688  -2.020  1.00  0.00     0.006 C 
BRANCH   4   5
ATOM      5  C   UNL     1       5.841  10.151  -1.919  1.00  0.00     0.053 C 
BRANCH   5   6
ATOM      6  C   UNL     1       4.348  10.239  -1.919  1.00  0.00     0.041 C 
ATOM      7  O   UNL     1       3.726  10.474  -2.989  1.00  0.00    -0.550 OA
ATOM      8  O   UNL     1       3.638  10.014  -0.746  1.00  0.00    -0.550 OA
ENDBRANCH   5   6
ENDBRANCH   4   5
ENDBRANCH   3   4
ENDBRANCH   2   3
ENDBRANCH   1   2
BRANCH   1   9
ATOM      9  C   UNL     1       7.157   5.448  -4.110  1.00  0.00     0.000 C 
BRANCH   9  10
ATOM     10  C   UNL     1       8.213   6.095  -5.023  1.00  0.00    -0.000 C 
BRANCH  10  11
ATOM     11  C   UNL     1       7.705   6.296  -6.461  1.00  0.00    -0.000 C 
BRANCH  11  12
ATOM     12  C   UNL     1       7.871   5.041  -7.330  1.00  0.00    -0.000 C 
BRANCH  12  13
ATOM     13  C   UNL     1       9.255   4.412  -7.124  1.00  0.00    -0.003 C 
ATOM     14  C   UNL     1       9.457   3.210  -8.043  1.00  0.00     0.004 C 
ENDBRANCH  12  13
ENDBRANCH  11  12
ENDBRANCH  10  11
ENDBRANCH   9  10
ENDBRANCH   1   9
TORSDOF 10
ENDMDL
MODEL 7
REMARK VINA RESULT:    -4.061     15.171     18.603
REMARK INTER + INTRA:          -7.119
REMARK INTER:                  -6.396
REMARK INTRA:                  -0.723
REMARK UNBOUND:                -0.684
REMARK SMILES CCCCCCCCCCCC(=O)[O-]
REMARK SMILES IDX 7 1 8 2 9 3 10 4 11 5 12 6 13 7 14 8 6 9 5 10 4 11 3 12 2 13
REMARK SMILES IDX 1 14
REMARK H PARENT
REMARK Flexibility Score: inf
ROOT
ATOM      1  C   UNL     1       8.021   6.586  -6.801  1.00  0.00     0.000 C 
ENDROOT
BRANCH   1   2
ATOM      2  C   UNL     1       7.748   5.400  -5.858  1.00  0.00     0.000 C 
BRANCH   2   3
ATOM      3  C   UNL     1       8.195   5.694  -4.410  1.00  0.00     0.000 C 
BRANCH   3   4
ATOM      4  C   UNL     1       7.096   5.441  -3.364  1.00  0.00     0.006 C 
BRANCH   4   5
ATOM      5  C   UNL     1       7.529   5.818  -1.942  1.00  0.00     0.053 C 
BRANCH   5   6
ATOM      6  C   UNL     1       7.651   4.594  -1.091  1.00  0.00     0.041 C 
ATOM      7  O   UNL     1       6.619   4.007  -0.674  1.00  0.00    -0.550 OA
ATOM      8  O   UNL     1       8.906   4.072  -0.799  1.00  0.00    -0.550 OA
ENDBRANCH   5   6
ENDBRANCH   4   5
ENDBRANCH   3   4
ENDBRANCH   2   3
ENDBRANCH   1   2
BRANCH   1   9
ATOM      9  C   UNL     1       7.365   6.413  -8.180  1.00  0.00     0.000 C 
BRANCH   9  10
ATOM     10  C   UNL     1       8.302   6.808  -9.334  1.00  0.00    -0.000 C 
BRANCH  10  11
ATOM     11  C   UNL     1       9.710   6.208  -9.182  1.00  0.00    -0.000 C 
BRANCH  11  12
ATOM     12  C   UNL     1       9.950   5.011 -10.114  1.00  0.00    -0.000 C 
BRANCH  12  13
ATOM     13  C   UNL     1      10.473   3.802  -9.329  1.00  0.00    -0.003 C 
ATOM     14  C   UNL     1       9.369   3.172  -8.485  1.00  0.00     0.004 C 
ENDBRANCH  12  13
ENDBRANCH  11  12
ENDBRANCH  10  11
ENDBRANCH   9  10
ENDBRANCH   1   9
TORSDOF 10
ENDMDL
MODEL 8
REMARK VINA RESULT:    -4.048     17.293     18.971
REMARK INTER + INTRA:          -7.098
REMARK INTER:                  -5.503
REMARK INTRA:                  -1.595
REMARK UNBOUND:                -0.684
REMARK SMILES CCCCCCCCCCCC(=O)[O-]
REMARK SMILES IDX 7 1 8 2 9 3 10 4 11 5 12 6 13 7 14 8 6 9 5 10 4 11 3 12 2 13
REMARK SMILES IDX 1 14
REMARK H PARENT
REMARK Flexibility Score: inf
ROOT
ATOM      1  C   UNL     1      -0.580  -2.500  -8.897  1.00  0.00     0.000 C 
ENDROOT
BRANCH   1   2
ATOM      2  C   UNL     1      -1.101  -2.687  -7.461  1.00  0.00     0.000 C 
BRANCH   2   3
ATOM      3  C   UNL     1      -2.126  -3.836  -7.359  1.00  0.00     0.000 C 
BRANCH   3   4
ATOM      4  C   UNL     1      -2.373  -4.561  -8.694  1.00  0.00     0.006 C 
BRANCH   4   5
ATOM      5  C   UNL     1      -2.907  -5.986  -8.509  1.00  0.00     0.053 C 
BRANCH   5   6
ATOM      6  C   UNL     1      -4.399  -6.000  -8.608  1.00  0.00     0.041 C 
ATOM      7  O   UNL     1      -4.999  -5.119  -9.278  1.00  0.00    -0.550 OA
ATOM      8  O   UNL     1      -5.127  -7.016  -8.000  1.00  0.00    -0.550 OA
ENDBRANCH   5   6
ENDBRANCH   4   5
ENDBRANCH   3   4
ENDBRANCH   2   3
ENDBRANCH   1   2
BRANCH   1   9
ATOM      9  C   UNL     1       0.937  -2.719  -9.014  1.00  0.00     0.000 C 
BRANCH   9  10
ATOM     10  C   UNL     1       1.291  -4.013  -9.766  1.00  0.00    -0.000 C 
BRANCH  10  11
ATOM     11  C   UNL     1       1.309  -5.244  -8.844  1.00  0.00    -0.000 C 
BRANCH  11  12
ATOM     12  C   UNL     1       2.041  -4.984  -7.519  1.00  0.00    -0.000 C 
BRANCH  12  13
ATOM     13  C   UNL     1       1.165  -5.374  -6.323  1.00  0.00    -0.003 C 
ATOM     14  C   UNL     1       0.272  -6.565  -6.659  1.00  0.00     0.004 C 
ENDBRANCH  12  13
ENDBRANCH  11  12
ENDBRANCH  10  11
ENDBRANCH   9  10
ENDBRANCH   1   9
TORSDOF 10
ENDMDL
MODEL 9
REMARK VINA RESULT:    -2.468     13.871     14.700
REMARK INTER + INTRA:          -4.594
REMARK INTER:                  -3.626
REMARK INTRA:                  -0.969
REMARK UNBOUND:                -0.684
REMARK SMILES CCCCCCCCCCCC(=O)[O-]
REMARK SMILES IDX 7 1 8 2 9 3 10 4 11 5 12 6 13 7 14 8 6 9 5 10 4 11 3 12 2 13
REMARK SMILES IDX 1 14
REMARK H PARENT
REMARK Flexibility Score: inf
ROOT
ATOM      1  C   UNL     1       5.891   9.437  -1.837  1.00  0.00     0.000 C 
ENDROOT
BRANCH   1   2
ATOM      2  C   UNL     1       7.258   8.813  -2.172  1.00  0.00     0.000 C 
BRANCH   2   3
ATOM      3  C   UNL     1       7.387   7.373  -1.635  1.00  0.00     0.000 C 
BRANCH   3   4
ATOM      4  C   UNL     1       7.006   6.295  -2.665  1.00  0.00     0.006 C 
BRANCH   4   5
ATOM      5  C   UNL     1       7.852   5.022  -2.537  1.00  0.00     0.053 C 
BRANCH   5   6
ATOM      6  C   UNL     1       7.766   4.477  -1.147  1.00  0.00     0.041 C 
ATOM      7  O   UNL     1       6.674   4.027  -0.709  1.00  0.00    -0.550 OA
ATOM      8  O   UNL     1       8.903   4.420  -0.350  1.00  0.00    -0.550 OA
ENDBRANCH   5   6
ENDBRANCH   4   5
ENDBRANCH   3   4
ENDBRANCH   2   3
ENDBRANCH   1   2
BRANCH   1   9
ATOM      9  C   UNL     1       6.012  10.745  -1.039  1.00  0.00     0.000 C 
BRANCH   9  10
ATOM     10  C   UNL     1       7.473  11.125  -0.744  1.00  0.00    -0.000 C 
BRANCH  10  11
ATOM     11  C   UNL     1       7.833  10.976   0.744  1.00  0.00    -0.000 C 
BRANCH  11  12
ATOM     12  C   UNL     1       9.132  10.189   0.965  1.00  0.00    -0.000 C 
BRANCH  12  13
ATOM     13  C   UNL     1       8.887   8.970   1.864  1.00  0.00    -0.003 C 
ATOM     14  C   UNL     1       9.556   7.722   1.295  1.00  0.00     0.004 C 
ENDBRANCH  12  13
ENDBRANCH  11  12
ENDBRANCH  10  11
ENDBRANCH   9  10
ENDBRANCH   1   9
TORSDOF 10
ENDMDL
