MODEL 1
REMARK VINA RESULT:    -2.424      0.000      0.000
REMARK INTER + INTRA:          -4.746
REMARK INTER:                  -4.408
REMARK INTRA:                  -0.338
REMARK UNBOUND:                -0.338
REMARK SMILES CCCCCCCCCCCCCC[C@H](C)C(=O)[O-]
REMARK SMILES IDX 9 1 10 2 11 3 12 4 13 5 14 6 15 7 16 8 17 9 18 10 19 11 8 12
REMARK SMILES IDX 7 13 6 14 5 15 4 16 3 17 2 18 1 19
REMARK H PARENT
REMARK Flexibility Score: inf
ROOT
ATOM      1  C   UNL     1     -31.717 -22.345 -21.439  1.00  0.00     0.000 C 
ENDROOT
BRANCH   1   2
ATOM      2  C   UNL     1     -30.646 -22.911 -22.390  1.00  0.00     0.000 C 
BRANCH   2   3
ATOM      3  C   UNL     1     -29.344 -22.096 -22.383  1.00  0.00     0.000 C 
BRANCH   3   4
ATOM      4  C   UNL     1     -28.460 -22.481 -21.187  1.00  0.00     0.000 C 
BRANCH   4   5
ATOM      5  C   UNL     1     -29.259 -23.125 -20.042  1.00  0.00     0.001 C 
BRANCH   5   6
ATOM      6  C   UNL     1     -29.288 -22.253 -18.774  1.00  0.00     0.009 C 
BRANCH   6   7
ATOM      7  C   UNL     1     -28.673 -22.977 -17.557  1.00  0.00     0.032 C 
ATOM      8  C   UNL     1     -29.570 -22.818 -16.326  1.00  0.00     0.014 C 
BRANCH   7   9
ATOM      9  C   UNL     1     -27.294 -22.457 -17.249  1.00  0.00     0.044 C 
ATOM     10  O   UNL     1     -26.759 -21.601 -18.001  1.00  0.00    -0.550 OA
ATOM     11  O   UNL     1     -26.602 -22.921 -16.137  1.00  0.00    -0.550 OA
ENDBRANCH   7   9
ENDBRANCH   6   7
ENDBRANCH   5   6
ENDBRANCH   4   5
ENDBRANCH   3   4
ENDBRANCH   2   3
ENDBRANCH   1   2
BRANCH   1  12
ATOM     12  C   UNL     1     -31.642 -20.827 -21.195  1.00  0.00     0.000 C 
BRANCH  12  13
ATOM     13  C   UNL     1     -32.943 -20.095 -21.561  1.00  0.00    -0.000 C 
BRANCH  13  14
ATOM     14  C   UNL     1     -32.939 -19.550 -23.001  1.00  0.00    -0.000 C 
BRANCH  14  15
ATOM     15  C   UNL     1     -31.587 -19.641 -23.740  1.00  0.00    -0.000 C 
BRANCH  15  16
ATOM     16  C   UNL     1     -31.475 -20.783 -24.766  1.00  0.00    -0.000 C 
BRANCH  16  17
ATOM     17  C   UNL     1     -30.890 -20.321 -26.112  1.00  0.00    -0.000 C 
BRANCH  17  18
ATOM     18  C   UNL     1     -30.664 -21.487 -27.086  1.00  0.00    -0.003 C 
ATOM     19  C   UNL     1     -31.698 -22.602 -26.927  1.00  0.00     0.004 C 
ENDBRANCH  17  18
ENDBRANCH  16  17
ENDBRANCH  15  16
ENDBRANCH  14  15
ENDBRANCH  13  14
ENDBRANCH  12  13
ENDBRANCH   1  12
TORSDOF 14
ENDMDL
MODEL 2
REMARK VINA RESULT:    -1.748      1.413      3.179
REMARK INTER + INTRA:          -3.517
REMARK INTER:                  -2.586
REMARK INTRA:                  -0.930
REMARK UNBOUND:                -0.338
REMARK SMILES CCCCCCCCCCCCCC[C@H](C)C(=O)[O-]
REMARK SMILES IDX 9 1 10 2 11 3 12 4 13 5 14 6 15 7 16 8 17 9 18 10 19 11 8 12
REMARK SMILES IDX 7 13 6 14 5 15 4 16 3 17 2 18 1 19
REMARK H PARENT
REMARK Flexibility Score: inf
ROOT
ATOM      1  C   UNL     1     -32.022 -19.794 -22.451  1.00  0.00     0.000 C 
ENDROOT
BRANCH   1   2
ATOM      2  C   UNL     1     -31.927 -20.812 -21.300  1.00  0.00     0.000 C 
BRANCH   2   3
ATOM      3  C   UNL     1     -31.551 -22.224 -21.775  1.00  0.00     0.000 C 
BRANCH   3   4
ATOM      4  C   UNL     1     -30.841 -23.008 -20.660  1.00  0.00     0.000 C 
BRANCH   4   5
ATOM      5  C   UNL     1     -29.572 -22.303 -20.156  1.00  0.00     0.001 C 
BRANCH   5   6
ATOM      6  C   UNL     1     -28.846 -23.100 -19.056  1.00  0.00     0.009 C 
BRANCH   6   7
ATOM      7  C   UNL     1     -28.327 -22.188 -17.925  1.00  0.00     0.032 C 
ATOM      8  C   UNL     1     -26.822 -21.948 -18.075  1.00  0.00     0.014 C 
BRANCH   7   9
ATOM      9  C   UNL     1     -28.612 -22.778 -16.570  1.00  0.00     0.044 C 
ATOM     10  O   UNL     1     -27.663 -23.124 -15.819  1.00  0.00    -0.550 OA
ATOM     11  O   UNL     1     -29.923 -22.949 -16.140  1.00  0.00    -0.550 OA
ENDBRANCH   7   9
ENDBRANCH   6   7
ENDBRANCH   5   6
ENDBRANCH   4   5
ENDBRANCH   3   4
ENDBRANCH   2   3
ENDBRANCH   1   2
BRANCH   1  12
ATOM     12  C   UNL     1     -32.337 -20.394 -23.834  1.00  0.00     0.000 C 
BRANCH  12  13
ATOM     13  C   UNL     1     -32.042 -19.425 -24.990  1.00  0.00    -0.000 C 
BRANCH  13  14
ATOM     14  C   UNL     1     -31.241 -20.079 -26.131  1.00  0.00    -0.000 C 
BRANCH  14  15
ATOM     15  C   UNL     1     -30.274 -21.202 -25.702  1.00  0.00    -0.000 C 
BRANCH  15  16
ATOM     16  C   UNL     1     -29.344 -20.854 -24.525  1.00  0.00    -0.000 C 
BRANCH  16  17
ATOM     17  C   UNL     1     -28.872 -22.096 -23.751  1.00  0.00    -0.000 C 
BRANCH  17  18
ATOM     18  C   UNL     1     -27.783 -21.766 -22.718  1.00  0.00    -0.003 C 
ATOM     19  C   UNL     1     -26.965 -22.990 -22.305  1.00  0.00     0.004 C 
ENDBRANCH  17  18
ENDBRANCH  16  17
ENDBRANCH  15  16
ENDBRANCH  14  15
ENDBRANCH  13  14
ENDBRANCH  12  13
ENDBRANCH   1  12
TORSDOF 14
ENDMDL
MODEL 3
REMARK VINA RESULT:    -1.159      3.576      7.925
REMARK INTER + INTRA:          -2.445
REMARK INTER:                  -2.901
REMARK INTRA:                   0.456
REMARK UNBOUND:                -0.338
REMARK SMILES CCCCCCCCCCCCCC[C@H](C)C(=O)[O-]
REMARK SMILES IDX 9 1 10 2 11 3 12 4 13 5 14 6 15 7 16 8 17 9 18 10 19 11 8 12
REMARK SMILES IDX 7 13 6 14 5 15 4 16 3 17 2 18 1 19
REMARK H PARENT
REMARK Flexibility Score: inf
ROOT
ATOM      1  C   UNL     1     -30.306 -22.296 -22.480  1.00  0.00     0.000 C 
ENDROOT
BRANCH   1   2
ATOM      2  C   UNL     1     -31.038 -22.214 -21.128  1.00  0.00     0.000 C 
BRANCH   2   3
ATOM      3  C   UNL     1     -32.241 -21.260 -21.153  1.00  0.00     0.000 C 
BRANCH   3   4
ATOM      4  C   UNL     1     -31.908 -19.976 -21.928  1.00  0.00     0.000 C 
BRANCH   4   5
ATOM      5  C   UNL     1     -32.872 -19.722 -23.098  1.00  0.00     0.001 C 
BRANCH   5   6
ATOM      6  C   UNL     1     -32.697 -20.736 -24.243  1.00  0.00     0.009 C 
BRANCH   6   7
ATOM      7  C   UNL     1     -31.296 -20.651 -24.885  1.00  0.00     0.032 C 
ATOM      8  C   UNL     1     -30.950 -19.201 -25.236  1.00  0.00     0.014 C 
BRANCH   7   9
ATOM      9  C   UNL     1     -31.207 -21.506 -26.122  1.00  0.00     0.044 C 
ATOM     10  O   UNL     1     -32.075 -22.390 -26.342  1.00  0.00    -0.550 OA
ATOM     11  O   UNL     1     -30.166 -21.327 -27.025  1.00  0.00    -0.550 OA
ENDBRANCH   7   9
ENDBRANCH   6   7
ENDBRANCH   5   6
ENDBRANCH   4   5
ENDBRANCH   3   4
ENDBRANCH   2   3
ENDBRANCH   1   2
BRANCH   1  12
ATOM     12  C   UNL     1     -28.821 -21.892 -22.449  1.00  0.00     0.000 C 
BRANCH  12  13
ATOM     13  C   UNL     1     -27.960 -22.830 -21.587  1.00  0.00    -0.000 C 
BRANCH  13  14
ATOM     14  C   UNL     1     -28.588 -23.125 -20.213  1.00  0.00    -0.000 C 
BRANCH  14  15
ATOM     15  C   UNL     1     -28.596 -21.943 -19.221  1.00  0.00    -0.000 C 
BRANCH  15  16
ATOM     16  C   UNL     1     -28.462 -22.330 -17.737  1.00  0.00    -0.000 C 
BRANCH  16  17
ATOM     17  C   UNL     1     -27.002 -22.563 -17.311  1.00  0.00    -0.000 C 
BRANCH  17  18
ATOM     18  C   UNL     1     -26.861 -22.789 -15.798  1.00  0.00    -0.003 C 
ATOM     19  C   UNL     1     -25.405 -22.780 -15.330  1.00  0.00     0.004 C 
ENDBRANCH  17  18
ENDBRANCH  16  17
ENDBRANCH  15  16
ENDBRANCH  14  15
ENDBRANCH  13  14
ENDBRANCH  12  13
ENDBRANCH   1  12
TORSDOF 14
ENDMDL
MODEL 4
REMARK VINA RESULT:    -1.054      2.206      3.419
REMARK INTER + INTRA:          -2.255
REMARK INTER:                  -2.997
REMARK INTRA:                   0.742
REMARK UNBOUND:                -0.338
REMARK SMILES CCCCCCCCCCCCCC[C@H](C)C(=O)[O-]
REMARK SMILES IDX 9 1 10 2 11 3 12 4 13 5 14 6 15 7 16 8 17 9 18 10 19 11 8 12
REMARK SMILES IDX 7 13 6 14 5 15 4 16 3 17 2 18 1 19
REMARK H PARENT
REMARK Flexibility Score: inf
ROOT
ATOM      1  C   UNL     1     -30.947 -20.218 -20.673  1.00  0.00     0.000 C 
ENDROOT
BRANCH   1   2
ATOM      2  C   UNL     1     -29.998 -19.697 -19.578  1.00  0.00     0.000 C 
BRANCH   2   3
ATOM      3  C   UNL     1     -28.697 -20.507 -19.474  1.00  0.00     0.000 C 
BRANCH   3   4
ATOM      4  C   UNL     1     -28.804 -21.577 -18.376  1.00  0.00     0.000 C 
BRANCH   4   5
ATOM      5  C   UNL     1     -28.734 -23.008 -18.932  1.00  0.00     0.001 C 
BRANCH   5   6
ATOM      6  C   UNL     1     -27.987 -23.087 -20.276  1.00  0.00     0.009 C 
BRANCH   6   7
ATOM      7  C   UNL     1     -28.761 -22.387 -21.413  1.00  0.00     0.032 C 
ATOM      8  C   UNL     1     -30.071 -23.124 -21.707  1.00  0.00     0.014 C 
BRANCH   7   9
ATOM      9  C   UNL     1     -27.934 -22.304 -22.669  1.00  0.00     0.044 C 
ATOM     10  O   UNL     1     -26.787 -22.821 -22.705  1.00  0.00    -0.550 OA
ATOM     11  O   UNL     1     -28.429 -21.654 -23.793  1.00  0.00    -0.550 OA
ENDBRANCH   7   9
ENDBRANCH   6   7
ENDBRANCH   5   6
ENDBRANCH   4   5
ENDBRANCH   3   4
ENDBRANCH   2   3
ENDBRANCH   1   2
BRANCH   1  12
ATOM     12  C   UNL     1     -32.121 -19.286 -21.023  1.00  0.00     0.000 C 
BRANCH  12  13
ATOM     13  C   UNL     1     -32.777 -19.627 -22.371  1.00  0.00    -0.000 C 
BRANCH  13  14
ATOM     14  C   UNL     1     -32.423 -21.041 -22.869  1.00  0.00    -0.000 C 
BRANCH  14  15
ATOM     15  C   UNL     1     -31.579 -21.096 -24.159  1.00  0.00    -0.000 C 
BRANCH  15  16
ATOM     16  C   UNL     1     -31.520 -19.784 -24.962  1.00  0.00    -0.000 C 
BRANCH  16  17
ATOM     17  C   UNL     1     -30.943 -19.975 -26.375  1.00  0.00    -0.000 C 
BRANCH  17  18
ATOM     18  C   UNL     1     -30.492 -21.421 -26.635  1.00  0.00    -0.003 C 
ATOM     19  C   UNL     1     -31.663 -22.372 -26.887  1.00  0.00     0.004 C 
ENDBRANCH  17  18
ENDBRANCH  16  17
ENDBRANCH  15  16
ENDBRANCH  14  15
ENDBRANCH  13  14
ENDBRANCH  12  13
ENDBRANCH   1  12
TORSDOF 14
ENDMDL
MODEL 5
REMARK VINA RESULT:    -0.973      3.219      5.108
REMARK INTER + INTRA:          -2.108
REMARK INTER:                  -1.743
REMARK INTRA:                  -0.365
REMARK UNBOUND:                -0.338
REMARK SMILES CCCCCCCCCCCCCC[C@H](C)C(=O)[O-]
REMARK SMILES IDX 9 1 10 2 11 3 12 4 13 5 14 6 15 7 16 8 17 9 18 10 19 11 8 12
REMARK SMILES IDX 7 13 6 14 5 15 4 16 3 17 2 18 1 19
REMARK H PARENT
REMARK Flexibility Score: inf
ROOT
ATOM      1  C   UNL     1     -28.344 -23.122 -19.220  1.00  0.00     0.000 C 
ENDROOT
BRANCH   1   2
ATOM      2  C   UNL     1     -28.318 -21.818 -18.401  1.00  0.00     0.000 C 
BRANCH   2   3
ATOM      3  C   UNL     1     -27.787 -20.617 -19.199  1.00  0.00     0.000 C 
BRANCH   3   4
ATOM      4  C   UNL     1     -28.941 -19.821 -19.827  1.00  0.00     0.000 C 
BRANCH   4   5
ATOM      5  C   UNL     1     -29.968 -20.722 -20.532  1.00  0.00     0.001 C 
BRANCH   5   6
ATOM      6  C   UNL     1     -31.398 -20.154 -20.470  1.00  0.00     0.009 C 
BRANCH   6   7
ATOM      7  C   UNL     1     -32.340 -20.842 -21.480  1.00  0.00     0.032 C 
ATOM      8  C   UNL     1     -31.704 -22.125 -22.024  1.00  0.00     0.014 C 
BRANCH   7   9
ATOM      9  C   UNL     1     -32.684 -19.925 -22.623  1.00  0.00     0.044 C 
ATOM     10  O   UNL     1     -32.460 -20.282 -23.809  1.00  0.00    -0.550 OA
ATOM     11  O   UNL     1     -33.245 -18.677 -22.378  1.00  0.00    -0.550 OA
ENDBRANCH   7   9
ENDBRANCH   6   7
ENDBRANCH   5   6
ENDBRANCH   4   5
ENDBRANCH   3   4
ENDBRANCH   2   3
ENDBRANCH   1   2
BRANCH   1  12
ATOM     12  C   UNL     1     -27.456 -23.125 -20.478  1.00  0.00     0.000 C 
BRANCH  12  13
ATOM     13  C   UNL     1     -28.265 -23.078 -21.784  1.00  0.00    -0.000 C 
BRANCH  13  14
ATOM     14  C   UNL     1     -27.552 -22.298 -22.903  1.00  0.00    -0.000 C 
BRANCH  14  15
ATOM     15  C   UNL     1     -28.372 -21.158 -23.543  1.00  0.00    -0.000 C 
BRANCH  15  16
ATOM     16  C   UNL     1     -29.586 -21.610 -24.375  1.00  0.00    -0.000 C 
BRANCH  16  17
ATOM     17  C   UNL     1     -30.106 -20.510 -25.316  1.00  0.00    -0.000 C 
BRANCH  17  18
ATOM     18  C   UNL     1     -30.310 -21.015 -26.753  1.00  0.00    -0.003 C 
ATOM     19  C   UNL     1     -31.322 -22.157 -26.843  1.00  0.00     0.004 C 
ENDBRANCH  17  18
ENDBRANCH  16  17
ENDBRANCH  15  16
ENDBRANCH  14  15
ENDBRANCH  13  14
ENDBRANCH  12  13
ENDBRANCH   1  12
TORSDOF 14
ENDMDL
MODEL 6
REMARK VINA RESULT:    -0.945      1.192      3.017
REMARK INTER + INTRA:          -2.056
REMARK INTER:                  -3.015
REMARK INTRA:                   0.959
REMARK UNBOUND:                -0.338
REMARK SMILES CCCCCCCCCCCCCC[C@H](C)C(=O)[O-]
REMARK SMILES IDX 9 1 10 2 11 3 12 4 13 5 14 6 15 7 16 8 17 9 18 10 19 11 8 12
REMARK SMILES IDX 7 13 6 14 5 15 4 16 3 17 2 18 1 19
REMARK H PARENT
REMARK Flexibility Score: inf
ROOT
ATOM      1  C   UNL     1     -27.919 -21.768 -23.383  1.00  0.00     0.000 C 
ENDROOT
BRANCH   1   2
ATOM      2  C   UNL     1     -27.716 -22.575 -22.087  1.00  0.00     0.000 C 
BRANCH   2   3
ATOM      3  C   UNL     1     -29.000 -22.711 -21.256  1.00  0.00     0.000 C 
BRANCH   3   4
ATOM      4  C   UNL     1     -29.252 -21.444 -20.424  1.00  0.00     0.000 C 
BRANCH   4   5
ATOM      5  C   UNL     1     -29.113 -21.689 -18.913  1.00  0.00     0.001 C 
BRANCH   5   6
ATOM      6  C   UNL     1     -28.354 -22.988 -18.589  1.00  0.00     0.009 C 
BRANCH   6   7
ATOM      7  C   UNL     1     -28.043 -23.119 -17.083  1.00  0.00     0.032 C 
ATOM      8  C   UNL     1     -29.144 -22.462 -16.245  1.00  0.00     0.014 C 
BRANCH   7   9
ATOM      9  C   UNL     1     -26.713 -22.501 -16.742  1.00  0.00     0.044 C 
ATOM     10  O   UNL     1     -26.167 -21.695 -17.540  1.00  0.00    -0.550 OA
ATOM     11  O   UNL     1     -26.076 -22.818 -15.548  1.00  0.00    -0.550 OA
ENDBRANCH   7   9
ENDBRANCH   6   7
ENDBRANCH   5   6
ENDBRANCH   4   5
ENDBRANCH   3   4
ENDBRANCH   2   3
ENDBRANCH   1   2
BRANCH   1  12
ATOM     12  C   UNL     1     -29.385 -21.476 -23.751  1.00  0.00     0.000 C 
BRANCH  12  13
ATOM     13  C   UNL     1     -29.535 -20.780 -25.114  1.00  0.00    -0.000 C 
BRANCH  13  14
ATOM     14  C   UNL     1     -30.992 -20.397 -25.434  1.00  0.00    -0.000 C 
BRANCH  14  15
ATOM     15  C   UNL     1     -31.992 -20.567 -24.271  1.00  0.00    -0.000 C 
BRANCH  15  16
ATOM     16  C   UNL     1     -32.570 -19.257 -23.705  1.00  0.00    -0.000 C 
BRANCH  16  17
ATOM     17  C   UNL     1     -32.987 -19.378 -22.229  1.00  0.00    -0.000 C 
BRANCH  17  18
ATOM     18  C   UNL     1     -32.075 -20.328 -21.437  1.00  0.00    -0.003 C 
ATOM     19  C   UNL     1     -32.080 -21.754 -21.989  1.00  0.00     0.004 C 
ENDBRANCH  17  18
ENDBRANCH  16  17
ENDBRANCH  15  16
ENDBRANCH  14  15
ENDBRANCH  13  14
ENDBRANCH  12  13
ENDBRANCH   1  12
TORSDOF 14
ENDMDL
MODEL 7
REMARK VINA RESULT:     0.521      1.853      5.912
REMARK INTER + INTRA:           0.609
REMARK INTER:                   0.912
REMARK INTRA:                  -0.303
REMARK UNBOUND:                -0.338
REMARK SMILES CCCCCCCCCCCCCC[C@H](C)C(=O)[O-]
REMARK SMILES IDX 9 1 10 2 11 3 12 4 13 5 14 6 15 7 16 8 17 9 18 10 19 11 8 12
REMARK SMILES IDX 7 13 6 14 5 15 4 16 3 17 2 18 1 19
REMARK H PARENT
REMARK Flexibility Score: inf
ROOT
ATOM      1  C   UNL     1     -32.542 -19.322 -22.532  1.00  0.00     0.000 C 
ENDROOT
BRANCH   1   2
ATOM      2  C   UNL     1     -32.561 -19.856 -23.977  1.00  0.00     0.000 C 
BRANCH   2   3
ATOM      3  C   UNL     1     -31.356 -19.388 -24.806  1.00  0.00     0.000 C 
BRANCH   3   4
ATOM      4  C   UNL     1     -30.710 -20.568 -25.548  1.00  0.00     0.000 C 
BRANCH   4   5
ATOM      5  C   UNL     1     -30.221 -21.672 -24.596  1.00  0.00     0.001 C 
BRANCH   5   6
ATOM      6  C   UNL     1     -28.800 -21.413 -24.065  1.00  0.00     0.009 C 
BRANCH   6   7
ATOM      7  C   UNL     1     -28.633 -21.877 -22.603  1.00  0.00     0.032 C 
ATOM      8  C   UNL     1     -28.684 -20.680 -21.648  1.00  0.00     0.014 C 
BRANCH   7   9
ATOM      9  C   UNL     1     -27.340 -22.623 -22.408  1.00  0.00     0.044 C 
ATOM     10  O   UNL     1     -26.567 -22.813 -23.384  1.00  0.00    -0.550 OA
ATOM     11  O   UNL     1     -26.992 -23.112 -21.154  1.00  0.00    -0.550 OA
ENDBRANCH   7   9
ENDBRANCH   6   7
ENDBRANCH   5   6
ENDBRANCH   4   5
ENDBRANCH   3   4
ENDBRANCH   2   3
ENDBRANCH   1   2
BRANCH   1  12
ATOM     12  C   UNL     1     -32.238 -20.372 -21.448  1.00  0.00     0.000 C 
BRANCH  12  13
ATOM     13  C   UNL     1     -32.104 -21.796 -22.011  1.00  0.00    -0.000 C 
BRANCH  13  14
ATOM     14  C   UNL     1     -31.754 -22.836 -20.932  1.00  0.00    -0.000 C 
BRANCH  14  15
ATOM     15  C   UNL     1     -30.303 -22.785 -20.409  1.00  0.00    -0.000 C 
BRANCH  15  16
ATOM     16  C   UNL     1     -30.135 -23.078 -18.907  1.00  0.00    -0.000 C 
BRANCH  16  17
ATOM     17  C   UNL     1     -28.661 -23.104 -18.467  1.00  0.00    -0.000 C 
BRANCH  17  18
ATOM     18  C   UNL     1     -28.504 -23.049 -16.939  1.00  0.00    -0.003 C 
ATOM     19  C   UNL     1     -27.044 -23.122 -16.489  1.00  0.00     0.004 C 
ENDBRANCH  17  18
ENDBRANCH  16  17
ENDBRANCH  15  16
ENDBRANCH  14  15
ENDBRANCH  13  14
ENDBRANCH  12  13
ENDBRANCH   1  12
TORSDOF 14
ENDMDL
