MODEL 1
REMARK VINA RESULT:    -4.415      0.000      0.000
REMARK INTER + INTRA:         -10.983
REMARK INTER:                  -8.286
REMARK INTRA:                  -2.697
REMARK UNBOUND:                -2.697
REMARK SMILES CCCCCCCCC=CCCCCCCCC(=O)[O-]
REMARK SMILES IDX 10 1 9 2 11 3 12 4 13 5 14 6 15 7 16 8 17 9 18 10 19 11
REMARK SMILES IDX 20 12 8 13 7 14 6 15 5 16 4 17 3 18 2 19 1 20
REMARK H PARENT
REMARK Flexibility Score: inf
ROOT
ATOM      1  C   UNL     1     -31.252  91.312   5.958  1.00  0.00    -0.031 C 
ATOM      2  C   UNL     1     -31.231  90.657   7.128  1.00  0.00    -0.031 C 
ENDROOT
BRANCH   1   3
ATOM      3  C   UNL     1     -32.550  91.805   5.379  1.00  0.00     0.027 C 
BRANCH   3   4
ATOM      4  C   UNL     1     -33.539  92.191   6.488  1.00  0.00     0.004 C 
BRANCH   4   5
ATOM      5  C   UNL     1     -33.930  93.677   6.441  1.00  0.00     0.000 C 
BRANCH   5   6
ATOM      6  C   UNL     1     -34.638  94.142   7.725  1.00  0.00     0.000 C 
BRANCH   6   7
ATOM      7  C   UNL     1     -34.907  95.655   7.736  1.00  0.00     0.000 C 
BRANCH   7   8
ATOM      8  C   UNL     1     -33.664  96.484   7.361  1.00  0.00     0.006 C 
BRANCH   8   9
ATOM      9  C   UNL     1     -33.702  97.893   7.970  1.00  0.00     0.053 C 
BRANCH   9  10
ATOM     10  C   UNL     1     -32.991  98.890   7.109  1.00  0.00     0.041 C 
ATOM     11  O   UNL     1     -32.636  98.580   5.940  1.00  0.00    -0.550 OA
ATOM     12  O   UNL     1     -32.747 100.172   7.583  1.00  0.00    -0.550 OA
ENDBRANCH   9  10
ENDBRANCH   8   9
ENDBRANCH   7   8
ENDBRANCH   6   7
ENDBRANCH   5   6
ENDBRANCH   4   5
ENDBRANCH   3   4
ENDBRANCH   1   3
BRANCH   2  13
ATOM     13  C   UNL     1     -29.948  90.147   7.727  1.00  0.00     0.027 C 
BRANCH  13  14
ATOM     14  C   UNL     1     -28.739  91.034   7.380  1.00  0.00     0.004 C 
BRANCH  14  15
ATOM     15  C   UNL     1     -28.129  91.775   8.588  1.00  0.00     0.000 C 
BRANCH  15  16
ATOM     16  C   UNL     1     -28.349  93.302   8.596  1.00  0.00     0.000 C 
BRANCH  16  17
ATOM     17  C   UNL     1     -29.087  93.862   7.367  1.00  0.00    -0.000 C 
BRANCH  17  18
ATOM     18  C   UNL     1     -30.426  94.529   7.727  1.00  0.00    -0.000 C 
BRANCH  18  19
ATOM     19  C   UNL     1     -31.110  93.863   8.931  1.00  0.00    -0.003 C 
ATOM     20  C   UNL     1     -31.558  94.871   9.990  1.00  0.00     0.004 C 
ENDBRANCH  18  19
ENDBRANCH  17  18
ENDBRANCH  16  17
ENDBRANCH  15  16
ENDBRANCH  14  15
ENDBRANCH  13  14
ENDBRANCH   2  13
TORSDOF 15
ENDMDL
MODEL 2
REMARK VINA RESULT:    -4.337      1.620      4.273
REMARK INTER + INTRA:         -10.838
REMARK INTER:                  -7.945
REMARK INTRA:                  -2.892
REMARK UNBOUND:                -2.697
REMARK SMILES CCCCCCCCC=CCCCCCCCC(=O)[O-]
REMARK SMILES IDX 10 1 9 2 11 3 12 4 13 5 14 6 15 7 16 8 17 9 18 10 19 11
REMARK SMILES IDX 20 12 8 13 7 14 6 15 5 16 4 17 3 18 2 19 1 20
REMARK H PARENT
REMARK Flexibility Score: inf
ROOT
ATOM      1  C   UNL     1     -34.324  92.816   8.530  1.00  0.00    -0.031 C 
ATOM      2  C   UNL     1     -35.297  92.560   7.643  1.00  0.00    -0.031 C 
ENDROOT
BRANCH   1   3
ATOM      3  C   UNL     1     -34.652  93.054   9.979  1.00  0.00     0.027 C 
BRANCH   3   4
ATOM      4  C   UNL     1     -33.375  93.202  10.818  1.00  0.00     0.004 C 
BRANCH   4   5
ATOM      5  C   UNL     1     -32.104  92.849  10.028  1.00  0.00     0.000 C 
BRANCH   5   6
ATOM      6  C   UNL     1     -31.080  93.997  10.015  1.00  0.00     0.000 C 
BRANCH   6   7
ATOM      7  C   UNL     1     -30.649  94.386   8.592  1.00  0.00     0.000 C 
BRANCH   7   8
ATOM      8  C   UNL     1     -31.697  95.251   7.867  1.00  0.00     0.006 C 
BRANCH   8   9
ATOM      9  C   UNL     1     -32.382  96.246   8.813  1.00  0.00     0.053 C 
BRANCH   9  10
ATOM     10  C   UNL     1     -33.611  96.841   8.199  1.00  0.00     0.041 C 
ATOM     11  O   UNL     1     -34.423  96.112   7.570  1.00  0.00    -0.550 OA
ATOM     12  O   UNL     1     -33.878  98.196   8.348  1.00  0.00    -0.550 OA
ENDBRANCH   9  10
ENDBRANCH   8   9
ENDBRANCH   7   8
ENDBRANCH   6   7
ENDBRANCH   5   6
ENDBRANCH   4   5
ENDBRANCH   3   4
ENDBRANCH   1   3
BRANCH   2  13
ATOM     13  C   UNL     1     -34.997  92.326   6.187  1.00  0.00     0.027 C 
BRANCH  13  14
ATOM     14  C   UNL     1     -33.654  92.937   5.752  1.00  0.00     0.004 C 
BRANCH  14  15
ATOM     15  C   UNL     1     -32.593  91.900   5.329  1.00  0.00     0.000 C 
BRANCH  15  16
ATOM     16  C   UNL     1     -31.376  91.788   6.269  1.00  0.00     0.000 C 
BRANCH  16  17
ATOM     17  C   UNL     1     -31.452  90.653   7.305  1.00  0.00    -0.000 C 
BRANCH  17  18
ATOM     18  C   UNL     1     -30.108  90.390   8.004  1.00  0.00    -0.000 C 
BRANCH  18  19
ATOM     19  C   UNL     1     -28.947  91.161   7.357  1.00  0.00    -0.003 C 
ATOM     20  C   UNL     1     -27.686  91.169   8.221  1.00  0.00     0.004 C 
ENDBRANCH  18  19
ENDBRANCH  17  18
ENDBRANCH  16  17
ENDBRANCH  15  16
ENDBRANCH  14  15
ENDBRANCH  13  14
ENDBRANCH   2  13
TORSDOF 15
ENDMDL
MODEL 3
REMARK VINA RESULT:    -4.317     16.911     18.649
REMARK INTER + INTRA:         -10.799
REMARK INTER:                  -7.781
REMARK INTRA:                  -3.018
REMARK UNBOUND:                -2.697
REMARK SMILES CCCCCCCCC=CCCCCCCCC(=O)[O-]
REMARK SMILES IDX 10 1 9 2 11 3 12 4 13 5 14 6 15 7 16 8 17 9 18 10 19 11
REMARK SMILES IDX 20 12 8 13 7 14 6 15 5 16 4 17 3 18 2 19 1 20
REMARK H PARENT
REMARK Flexibility Score: inf
ROOT
ATOM      1  C   UNL     1     -17.884  93.987  -7.382  1.00  0.00    -0.031 C 
ATOM      2  C   UNL     1     -17.692  92.984  -6.512  1.00  0.00    -0.031 C 
ENDROOT
BRANCH   1   3
ATOM      3  C   UNL     1     -19.150  94.067  -8.191  1.00  0.00     0.027 C 
BRANCH   3   4
ATOM      4  C   UNL     1     -19.681  95.507  -8.244  1.00  0.00     0.004 C 
BRANCH   4   5
ATOM      5  C   UNL     1     -21.200  95.586  -8.020  1.00  0.00     0.000 C 
BRANCH   5   6
ATOM      6  C   UNL     1     -21.590  95.390  -6.545  1.00  0.00     0.000 C 
BRANCH   6   7
ATOM      7  C   UNL     1     -22.248  94.026  -6.285  1.00  0.00     0.000 C 
BRANCH   7   8
ATOM      8  C   UNL     1     -21.496  93.193  -5.229  1.00  0.00     0.006 C 
BRANCH   8   9
ATOM      9  C   UNL     1     -20.595  94.061  -4.340  1.00  0.00     0.053 C 
BRANCH   9  10
ATOM     10  C   UNL     1     -19.778  93.232  -3.399  1.00  0.00     0.041 C 
ATOM     11  O   UNL     1     -19.394  93.714  -2.300  1.00  0.00    -0.550 OA
ATOM     12  O   UNL     1     -19.468  91.917  -3.718  1.00  0.00    -0.550 OA
ENDBRANCH   9  10
ENDBRANCH   8   9
ENDBRANCH   7   8
ENDBRANCH   6   7
ENDBRANCH   5   6
ENDBRANCH   4   5
ENDBRANCH   3   4
ENDBRANCH   1   3
BRANCH   2  13
ATOM     13  C   UNL     1     -16.432  92.875  -5.696  1.00  0.00     0.027 C 
BRANCH  13  14
ATOM     14  C   UNL     1     -15.875  94.248  -5.280  1.00  0.00     0.004 C 
BRANCH  14  15
ATOM     15  C   UNL     1     -16.197  94.648  -3.826  1.00  0.00     0.000 C 
BRANCH  15  16
ATOM     16  C   UNL     1     -17.150  95.851  -3.674  1.00  0.00     0.000 C 
BRANCH  16  17
ATOM     17  C   UNL     1     -17.327  96.708  -4.940  1.00  0.00    -0.000 C 
BRANCH  17  18
ATOM     18  C   UNL     1     -18.761  97.241  -5.105  1.00  0.00    -0.000 C 
BRANCH  18  19
ATOM     19  C   UNL     1     -18.841  98.420  -6.087  1.00  0.00    -0.003 C 
ATOM     20  C   UNL     1     -20.275  98.880  -6.345  1.00  0.00     0.004 C 
ENDBRANCH  18  19
ENDBRANCH  17  18
ENDBRANCH  16  17
ENDBRANCH  15  16
ENDBRANCH  14  15
ENDBRANCH  13  14
ENDBRANCH   2  13
TORSDOF 15
ENDMDL
MODEL 4
REMARK VINA RESULT:    -4.313      0.913      3.039
REMARK INTER + INTRA:         -10.791
REMARK INTER:                  -8.009
REMARK INTRA:                  -2.782
REMARK UNBOUND:                -2.697
REMARK SMILES CCCCCCCCC=CCCCCCCCC(=O)[O-]
REMARK SMILES IDX 10 1 9 2 11 3 12 4 13 5 14 6 15 7 16 8 17 9 18 10 19 11
REMARK SMILES IDX 20 12 8 13 7 14 6 15 5 16 4 17 3 18 2 19 1 20
REMARK H PARENT
REMARK Flexibility Score: inf
ROOT
ATOM      1  C   UNL     1     -30.911  93.911   9.199  1.00  0.00    -0.031 C 
ATOM      2  C   UNL     1     -30.456  94.143   7.959  1.00  0.00    -0.031 C 
ENDROOT
BRANCH   1   3
ATOM      3  C   UNL     1     -32.327  94.256   9.572  1.00  0.00     0.027 C 
BRANCH   3   4
ATOM      4  C   UNL     1     -33.315  93.228   9.001  1.00  0.00     0.004 C 
BRANCH   4   5
ATOM      5  C   UNL     1     -34.463  93.883   8.217  1.00  0.00     0.000 C 
BRANCH   5   6
ATOM      6  C   UNL     1     -34.002  95.113   7.415  1.00  0.00     0.000 C 
BRANCH   6   7
ATOM      7  C   UNL     1     -34.760  96.391   7.808  1.00  0.00     0.000 C 
BRANCH   7   8
ATOM      8  C   UNL     1     -33.825  97.596   8.023  1.00  0.00     0.006 C 
BRANCH   8   9
ATOM      9  C   UNL     1     -32.419  97.346   7.459  1.00  0.00     0.053 C 
BRANCH   9  10
ATOM     10  C   UNL     1     -31.983  98.448   6.544  1.00  0.00     0.041 C 
ATOM     11  O   UNL     1     -32.777  98.907   5.681  1.00  0.00    -0.550 OA
ATOM     12  O   UNL     1     -30.711  98.991   6.665  1.00  0.00    -0.550 OA
ENDBRANCH   9  10
ENDBRANCH   8   9
ENDBRANCH   7   8
ENDBRANCH   6   7
ENDBRANCH   5   6
ENDBRANCH   4   5
ENDBRANCH   3   4
ENDBRANCH   1   3
BRANCH   2  13
ATOM     13  C   UNL     1     -29.042  93.815   7.560  1.00  0.00     0.027 C 
BRANCH  13  14
ATOM     14  C   UNL     1     -28.268  93.084   8.671  1.00  0.00     0.004 C 
BRANCH  14  15
ATOM     15  C   UNL     1     -27.888  91.629   8.327  1.00  0.00     0.000 C 
BRANCH  15  16
ATOM     16  C   UNL     1     -28.794  90.946   7.282  1.00  0.00     0.000 C 
BRANCH  16  17
ATOM     17  C   UNL     1     -29.944  90.106   7.866  1.00  0.00    -0.000 C 
BRANCH  17  18
ATOM     18  C   UNL     1     -31.327  90.557   7.366  1.00  0.00    -0.000 C 
BRANCH  18  19
ATOM     19  C   UNL     1     -31.271  91.184   5.964  1.00  0.00    -0.003 C 
ATOM     20  C   UNL     1     -32.576  91.876   5.572  1.00  0.00     0.004 C 
ENDBRANCH  18  19
ENDBRANCH  17  18
ENDBRANCH  16  17
ENDBRANCH  15  16
ENDBRANCH  14  15
ENDBRANCH  13  14
ENDBRANCH   2  13
TORSDOF 15
ENDMDL
MODEL 5
REMARK VINA RESULT:    -4.303     17.481     19.391
REMARK INTER + INTRA:         -10.773
REMARK INTER:                  -7.628
REMARK INTRA:                  -3.144
REMARK UNBOUND:                -2.697
REMARK SMILES CCCCCCCCC=CCCCCCCCC(=O)[O-]
REMARK SMILES IDX 10 1 9 2 11 3 12 4 13 5 14 6 15 7 16 8 17 9 18 10 19 11
REMARK SMILES IDX 20 12 8 13 7 14 6 15 5 16 4 17 3 18 2 19 1 20
REMARK H PARENT
REMARK Flexibility Score: inf
ROOT
ATOM      1  C   UNL     1     -16.505  93.050  -6.499  1.00  0.00    -0.031 C 
ATOM      2  C   UNL     1     -16.033  94.080  -7.215  1.00  0.00    -0.031 C 
ENDROOT
BRANCH   1   3
ATOM      3  C   UNL     1     -16.251  92.965  -5.018  1.00  0.00     0.027 C 
BRANCH   3   4
ATOM      4  C   UNL     1     -16.078  94.363  -4.407  1.00  0.00     0.004 C 
BRANCH   4   5
ATOM      5  C   UNL     1     -17.241  94.750  -3.479  1.00  0.00     0.000 C 
BRANCH   5   6
ATOM      6  C   UNL     1     -17.966  96.025  -3.943  1.00  0.00     0.000 C 
BRANCH   6   7
ATOM      7  C   UNL     1     -17.227  96.742  -5.085  1.00  0.00     0.000 C 
BRANCH   7   8
ATOM      8  C   UNL     1     -18.157  97.629  -5.933  1.00  0.00     0.006 C 
BRANCH   8   9
ATOM      9  C   UNL     1     -19.578  97.697  -5.355  1.00  0.00     0.053 C 
BRANCH   9  10
ATOM     10  C   UNL     1     -20.532  98.356  -6.302  1.00  0.00     0.041 C 
ATOM     11  O   UNL     1     -21.614  97.789  -6.610  1.00  0.00    -0.550 OA
ATOM     12  O   UNL     1     -20.243  99.611  -6.821  1.00  0.00    -0.550 OA
ENDBRANCH   9  10
ENDBRANCH   8   9
ENDBRANCH   7   8
ENDBRANCH   6   7
ENDBRANCH   5   6
ENDBRANCH   4   5
ENDBRANCH   3   4
ENDBRANCH   1   3
BRANCH   2  13
ATOM     13  C   UNL     1     -16.266  94.186  -8.698  1.00  0.00     0.027 C 
BRANCH  13  14
ATOM     14  C   UNL     1     -17.426  95.134  -9.049  1.00  0.00     0.004 C 
BRANCH  14  15
ATOM     15  C   UNL     1     -18.808  94.452  -9.106  1.00  0.00     0.000 C 
BRANCH  15  16
ATOM     16  C   UNL     1     -19.809  94.910  -8.026  1.00  0.00     0.000 C 
BRANCH  16  17
ATOM     17  C   UNL     1     -19.621  94.260  -6.644  1.00  0.00    -0.000 C 
BRANCH  17  18
ATOM     18  C   UNL     1     -20.877  94.359  -5.761  1.00  0.00    -0.000 C 
BRANCH  18  19
ATOM     19  C   UNL     1     -20.695  93.669  -4.401  1.00  0.00    -0.003 C 
ATOM     20  C   UNL     1     -19.948  92.339  -4.505  1.00  0.00     0.004 C 
ENDBRANCH  18  19
ENDBRANCH  17  18
ENDBRANCH  16  17
ENDBRANCH  15  16
ENDBRANCH  14  15
ENDBRANCH  13  14
ENDBRANCH   2  13
TORSDOF 15
ENDMDL
MODEL 6
REMARK VINA RESULT:    -4.286      1.193      2.439
REMARK INTER + INTRA:         -10.742
REMARK INTER:                  -8.890
REMARK INTRA:                  -1.852
REMARK UNBOUND:                -2.697
REMARK SMILES CCCCCCCCC=CCCCCCCCC(=O)[O-]
REMARK SMILES IDX 10 1 9 2 11 3 12 4 13 5 14 6 15 7 16 8 17 9 18 10 19 11
REMARK SMILES IDX 20 12 8 13 7 14 6 15 5 16 4 17 3 18 2 19 1 20
REMARK H PARENT
REMARK Flexibility Score: inf
ROOT
ATOM      1  C   UNL     1     -33.544  91.846   6.229  1.00  0.00    -0.031 C 
ATOM      2  C   UNL     1     -32.303  92.143   5.817  1.00  0.00    -0.031 C 
ENDROOT
BRANCH   1   3
ATOM      3  C   UNL     1     -34.679  92.804   5.992  1.00  0.00     0.027 C 
BRANCH   3   4
ATOM      4  C   UNL     1     -35.459  93.068   7.288  1.00  0.00     0.004 C 
BRANCH   4   5
ATOM      5  C   UNL     1     -34.733  94.045   8.227  1.00  0.00     0.000 C 
BRANCH   5   6
ATOM      6  C   UNL     1     -34.676  95.475   7.662  1.00  0.00     0.000 C 
BRANCH   6   7
ATOM      7  C   UNL     1     -33.245  95.916   7.317  1.00  0.00     0.000 C 
BRANCH   7   8
ATOM      8  C   UNL     1     -33.145  97.421   7.004  1.00  0.00     0.006 C 
BRANCH   8   9
ATOM      9  C   UNL     1     -33.593  98.290   8.187  1.00  0.00     0.053 C 
BRANCH   9  10
ATOM     10  C   UNL     1     -32.427  98.882   8.915  1.00  0.00     0.041 C 
ATOM     11  O   UNL     1     -32.388  98.862  10.174  1.00  0.00    -0.550 OA
ATOM     12  O   UNL     1     -31.367  99.429   8.204  1.00  0.00    -0.550 OA
ENDBRANCH   9  10
ENDBRANCH   8   9
ENDBRANCH   7   8
ENDBRANCH   6   7
ENDBRANCH   5   6
ENDBRANCH   4   5
ENDBRANCH   3   4
ENDBRANCH   1   3
BRANCH   2  13
ATOM     13  C   UNL     1     -31.148  91.206   6.047  1.00  0.00     0.027 C 
BRANCH  13  14
ATOM     14  C   UNL     1     -31.183  90.552   7.440  1.00  0.00     0.004 C 
BRANCH  14  15
ATOM     15  C   UNL     1     -29.850  89.907   7.872  1.00  0.00     0.000 C 
BRANCH  15  16
ATOM     16  C   UNL     1     -28.583  90.601   7.332  1.00  0.00     0.000 C 
BRANCH  16  17
ATOM     17  C   UNL     1     -27.716  91.297   8.397  1.00  0.00    -0.000 C 
BRANCH  17  18
ATOM     18  C   UNL     1     -28.242  92.692   8.775  1.00  0.00    -0.000 C 
BRANCH  18  19
ATOM     19  C   UNL     1     -28.619  93.533   7.546  1.00  0.00    -0.003 C 
ATOM     20  C   UNL     1     -29.896  94.346   7.753  1.00  0.00     0.004 C 
ENDBRANCH  18  19
ENDBRANCH  17  18
ENDBRANCH  16  17
ENDBRANCH  15  16
ENDBRANCH  14  15
ENDBRANCH  13  14
ENDBRANCH   2  13
TORSDOF 15
ENDMDL
MODEL 7
REMARK VINA RESULT:    -4.267      3.139      5.599
REMARK INTER + INTRA:         -10.706
REMARK INTER:                  -7.962
REMARK INTRA:                  -2.745
REMARK UNBOUND:                -2.697
REMARK SMILES CCCCCCCCC=CCCCCCCCC(=O)[O-]
REMARK SMILES IDX 10 1 9 2 11 3 12 4 13 5 14 6 15 7 16 8 17 9 18 10 19 11
REMARK SMILES IDX 20 12 8 13 7 14 6 15 5 16 4 17 3 18 2 19 1 20
REMARK H PARENT
REMARK Flexibility Score: inf
ROOT
ATOM      1  C   UNL     1     -34.897  93.671   8.424  1.00  0.00    -0.031 C 
ATOM      2  C   UNL     1     -34.177  92.838   9.190  1.00  0.00    -0.031 C 
ENDROOT
BRANCH   1   3
ATOM      3  C   UNL     1     -35.296  93.275   7.028  1.00  0.00     0.027 C 
BRANCH   3   4
ATOM      4  C   UNL     1     -34.448  92.099   6.523  1.00  0.00     0.004 C 
BRANCH   4   5
ATOM      5  C   UNL     1     -33.336  92.542   5.559  1.00  0.00     0.000 C 
BRANCH   5   6
ATOM      6  C   UNL     1     -32.200  91.510   5.456  1.00  0.00     0.000 C 
BRANCH   6   7
ATOM      7  C   UNL     1     -31.367  91.418   6.745  1.00  0.00     0.000 C 
BRANCH   7   8
ATOM      8  C   UNL     1     -29.855  91.568   6.489  1.00  0.00     0.006 C 
BRANCH   8   9
ATOM      9  C   UNL     1     -29.033  90.513   7.242  1.00  0.00     0.053 C 
BRANCH   9  10
ATOM     10  C   UNL     1     -28.042  91.141   8.173  1.00  0.00     0.041 C 
ATOM     11  O   UNL     1     -27.304  90.419   8.894  1.00  0.00    -0.550 OA
ATOM     12  O   UNL     1     -27.910  92.523   8.221  1.00  0.00    -0.550 OA
ENDBRANCH   9  10
ENDBRANCH   8   9
ENDBRANCH   7   8
ENDBRANCH   6   7
ENDBRANCH   5   6
ENDBRANCH   4   5
ENDBRANCH   3   4
ENDBRANCH   1   3
BRANCH   2  13
ATOM     13  C   UNL     1     -33.758  93.212  10.586  1.00  0.00     0.027 C 
BRANCH  13  14
ATOM     14  C   UNL     1     -32.479  94.068  10.613  1.00  0.00     0.004 C 
BRANCH  14  15
ATOM     15  C   UNL     1     -31.306  93.481   9.802  1.00  0.00     0.000 C 
BRANCH  15  16
ATOM     16  C   UNL     1     -30.588  94.480   8.873  1.00  0.00     0.000 C 
BRANCH  16  17
ATOM     17  C   UNL     1     -31.403  94.935   7.648  1.00  0.00    -0.000 C 
BRANCH  17  18
ATOM     18  C   UNL     1     -31.917  96.379   7.776  1.00  0.00    -0.000 C 
BRANCH  18  19
ATOM     19  C   UNL     1     -33.325  96.557   7.187  1.00  0.00    -0.003 C 
ATOM     20  C   UNL     1     -34.248  97.372   8.093  1.00  0.00     0.004 C 
ENDBRANCH  18  19
ENDBRANCH  17  18
ENDBRANCH  16  17
ENDBRANCH  15  16
ENDBRANCH  14  15
ENDBRANCH  13  14
ENDBRANCH   2  13
TORSDOF 15
ENDMDL
MODEL 8
REMARK VINA RESULT:    -4.207      2.095      4.253
REMARK INTER + INTRA:         -10.593
REMARK INTER:                  -8.343
REMARK INTRA:                  -2.250
REMARK UNBOUND:                -2.697
REMARK SMILES CCCCCCCCC=CCCCCCCCC(=O)[O-]
REMARK SMILES IDX 10 1 9 2 11 3 12 4 13 5 14 6 15 7 16 8 17 9 18 10 19 11
REMARK SMILES IDX 20 12 8 13 7 14 6 15 5 16 4 17 3 18 2 19 1 20
REMARK H PARENT
REMARK Flexibility Score: inf
ROOT
ATOM      1  C   UNL     1     -34.768  94.752   7.594  1.00  0.00    -0.031 C 
ATOM      2  C   UNL     1     -34.133  94.070   6.630  1.00  0.00    -0.031 C 
ENDROOT
BRANCH   1   3
ATOM      3  C   UNL     1     -34.537  96.229   7.765  1.00  0.00     0.027 C 
BRANCH   3   4
ATOM      4  C   UNL     1     -33.261  96.678   7.038  1.00  0.00     0.004 C 
BRANCH   4   5
ATOM      5  C   UNL     1     -32.352  97.548   7.920  1.00  0.00     0.000 C 
BRANCH   5   6
ATOM      6  C   UNL     1     -33.148  98.440   8.888  1.00  0.00     0.000 C 
BRANCH   6   7
ATOM      7  C   UNL     1     -32.245  99.386   9.697  1.00  0.00     0.000 C 
BRANCH   7   8
ATOM      8  C   UNL     1     -31.924 100.691   8.945  1.00  0.00     0.006 C 
BRANCH   8   9
ATOM      9  C   UNL     1     -30.462 101.121   9.130  1.00  0.00     0.053 C 
BRANCH   9  10
ATOM     10  C   UNL     1     -29.677 100.979   7.863  1.00  0.00     0.041 C 
ATOM     11  O   UNL     1     -28.904 101.900   7.489  1.00  0.00    -0.550 OA
ATOM     12  O   UNL     1     -29.772  99.815   7.112  1.00  0.00    -0.550 OA
ENDBRANCH   9  10
ENDBRANCH   8   9
ENDBRANCH   7   8
ENDBRANCH   6   7
ENDBRANCH   5   6
ENDBRANCH   4   5
ENDBRANCH   3   4
ENDBRANCH   1   3
BRANCH   2  13
ATOM     13  C   UNL     1     -34.340  92.591   6.441  1.00  0.00     0.027 C 
BRANCH  13  14
ATOM     14  C   UNL     1     -33.138  91.906   5.768  1.00  0.00     0.004 C 
BRANCH  14  15
ATOM     15  C   UNL     1     -31.802  92.091   6.516  1.00  0.00     0.000 C 
BRANCH  15  16
ATOM     16  C   UNL     1     -31.673  91.296   7.831  1.00  0.00     0.000 C 
BRANCH  16  17
ATOM     17  C   UNL     1     -31.309  92.136   9.069  1.00  0.00    -0.000 C 
BRANCH  17  18
ATOM     18  C   UNL     1     -31.054  93.615   8.734  1.00  0.00    -0.000 C 
BRANCH  18  19
ATOM     19  C   UNL     1     -31.613  94.565   9.803  1.00  0.00    -0.003 C 
ATOM     20  C   UNL     1     -32.795  93.969  10.567  1.00  0.00     0.004 C 
ENDBRANCH  18  19
ENDBRANCH  17  18
ENDBRANCH  16  17
ENDBRANCH  15  16
ENDBRANCH  14  15
ENDBRANCH  13  14
ENDBRANCH   2  13
TORSDOF 15
ENDMDL
MODEL 9
REMARK VINA RESULT:    -4.206     16.020     17.716
REMARK INTER + INTRA:         -10.591
REMARK INTER:                  -7.827
REMARK INTRA:                  -2.764
REMARK UNBOUND:                -2.697
REMARK SMILES CCCCCCCCC=CCCCCCCCC(=O)[O-]
REMARK SMILES IDX 10 1 9 2 11 3 12 4 13 5 14 6 15 7 16 8 17 9 18 10 19 11
REMARK SMILES IDX 20 12 8 13 7 14 6 15 5 16 4 17 3 18 2 19 1 20
REMARK H PARENT
REMARK Flexibility Score: inf
ROOT
ATOM      1  C   UNL     1     -20.558  92.611  -3.386  1.00  0.00    -0.031 C 
ATOM      2  C   UNL     1     -19.347  93.050  -3.757  1.00  0.00    -0.031 C 
ENDROOT
BRANCH   1   3
ATOM      3  C   UNL     1     -21.325  91.653  -4.257  1.00  0.00     0.027 C 
BRANCH   3   4
ATOM      4  C   UNL     1     -21.775  92.328  -5.560  1.00  0.00     0.004 C 
BRANCH   4   5
ATOM      5  C   UNL     1     -22.950  93.296  -5.349  1.00  0.00     0.000 C 
BRANCH   5   6
ATOM      6  C   UNL     1     -22.547  94.767  -5.549  1.00  0.00     0.000 C 
BRANCH   6   7
ATOM      7  C   UNL     1     -21.207  94.916  -6.288  1.00  0.00     0.000 C 
BRANCH   7   8
ATOM      8  C   UNL     1     -20.839  96.386  -6.563  1.00  0.00     0.006 C 
BRANCH   8   9
ATOM      9  C   UNL     1     -21.222  97.307  -5.397  1.00  0.00     0.053 C 
BRANCH   9  10
ATOM     10  C   UNL     1     -21.360  98.732  -5.836  1.00  0.00     0.041 C 
ATOM     11  O   UNL     1     -21.665  99.626  -5.002  1.00  0.00    -0.550 OA
ATOM     12  O   UNL     1     -21.120  99.080  -7.158  1.00  0.00    -0.550 OA
ENDBRANCH   9  10
ENDBRANCH   8   9
ENDBRANCH   7   8
ENDBRANCH   6   7
ENDBRANCH   5   6
ENDBRANCH   4   5
ENDBRANCH   3   4
ENDBRANCH   1   3
BRANCH   2  13
ATOM     13  C   UNL     1     -18.561  94.014  -2.909  1.00  0.00     0.027 C 
BRANCH  13  14
ATOM     14  C   UNL     1     -18.765  95.479  -3.333  1.00  0.00     0.004 C 
BRANCH  14  15
ATOM     15  C   UNL     1     -17.460  96.233  -3.659  1.00  0.00     0.000 C 
BRANCH  15  16
ATOM     16  C   UNL     1     -17.349  96.755  -5.106  1.00  0.00     0.000 C 
BRANCH  16  17
ATOM     17  C   UNL     1     -16.963  95.695  -6.154  1.00  0.00    -0.000 C 
BRANCH  17  18
ATOM     18  C   UNL     1     -15.875  94.730  -5.655  1.00  0.00    -0.000 C 
BRANCH  18  19
ATOM     19  C   UNL     1     -16.225  93.258  -5.926  1.00  0.00    -0.003 C 
ATOM     20  C   UNL     1     -17.449  93.096  -6.828  1.00  0.00     0.004 C 
ENDBRANCH  18  19
ENDBRANCH  17  18
ENDBRANCH  16  17
ENDBRANCH  15  16
ENDBRANCH  14  15
ENDBRANCH  13  14
ENDBRANCH   2  13
TORSDOF 15
ENDMDL
