MODEL 1
REMARK VINA RESULT:    -0.727      0.000      0.000
REMARK INTER + INTRA:          -1.958
REMARK INTER:                  -1.279
REMARK INTRA:                  -0.679
REMARK UNBOUND:                -0.679
REMARK SMILES CCCCCCCCCCCCCCC(=O)[O-]
REMARK SMILES IDX 9 1 10 2 11 3 12 4 13 5 14 6 15 7 16 8 17 9 8 10 7 11 6 12
REMARK SMILES IDX 5 13 4 14 3 15 2 16 1 17
REMARK H PARENT
REMARK Flexibility Score: inf
ROOT
ATOM      1  C   UNL     1      -4.926  34.932  22.114  1.00  0.00     0.000 C 
ENDROOT
BRANCH   1   2
ATOM      2  C   UNL     1      -5.568  34.300  23.362  1.00  0.00     0.000 C 
BRANCH   2   3
ATOM      3  C   UNL     1      -6.124  35.364  24.332  1.00  0.00     0.000 C 
BRANCH   3   4
ATOM      4  C   UNL     1      -5.040  36.264  24.948  1.00  0.00     0.000 C 
BRANCH   4   5
ATOM      5  C   UNL     1      -5.333  37.760  24.773  1.00  0.00     0.006 C 
BRANCH   5   6
ATOM      6  C   UNL     1      -6.109  38.020  23.478  1.00  0.00     0.053 C 
BRANCH   6   7
ATOM      7  C   UNL     1      -5.648  39.290  22.837  1.00  0.00     0.041 C 
ATOM      8  O   UNL     1      -4.984  40.129  23.501  1.00  0.00    -0.550 OA
ATOM      9  O   UNL     1      -5.910  39.526  21.495  1.00  0.00    -0.550 OA
ENDBRANCH   6   7
ENDBRANCH   5   6
ENDBRANCH   4   5
ENDBRANCH   3   4
ENDBRANCH   2   3
ENDBRANCH   1   2
BRANCH   1  10
ATOM     10  C   UNL     1      -5.932  35.722  21.261  1.00  0.00     0.000 C 
BRANCH  10  11
ATOM     11  C   UNL     1      -5.383  36.064  19.865  1.00  0.00    -0.000 C 
BRANCH  11  12
ATOM     12  C   UNL     1      -4.408  34.999  19.337  1.00  0.00    -0.000 C 
BRANCH  12  13
ATOM     13  C   UNL     1      -4.697  34.602  17.881  1.00  0.00    -0.000 C 
BRANCH  13  14
ATOM     14  C   UNL     1      -4.252  35.706  16.911  1.00  0.00    -0.000 C 
BRANCH  14  15
ATOM     15  C   UNL     1      -3.044  35.296  16.049  1.00  0.00    -0.000 C 
BRANCH  15  16
ATOM     16  C   UNL     1      -2.951  36.006  14.686  1.00  0.00    -0.003 C 
ATOM     17  C   UNL     1      -3.889  37.206  14.573  1.00  0.00     0.004 C 
ENDBRANCH  15  16
ENDBRANCH  14  15
ENDBRANCH  13  14
ENDBRANCH  12  13
ENDBRANCH  11  12
ENDBRANCH  10  11
ENDBRANCH   1  10
TORSDOF 13
ENDMDL
MODEL 2
REMARK VINA RESULT:    -0.653      1.182      2.113
REMARK INTER + INTRA:          -1.829
REMARK INTER:                  -1.639
REMARK INTRA:                  -0.190
REMARK UNBOUND:                -0.679
REMARK SMILES CCCCCCCCCCCCCCC(=O)[O-]
REMARK SMILES IDX 9 1 10 2 11 3 12 4 13 5 14 6 15 7 16 8 17 9 8 10 7 11 6 12
REMARK SMILES IDX 5 13 4 14 3 15 2 16 1 17
REMARK H PARENT
REMARK Flexibility Score: inf
ROOT
ATOM      1  C   UNL     1      -5.313  36.947  20.894  1.00  0.00     0.000 C 
ENDROOT
BRANCH   1   2
ATOM      2  C   UNL     1      -4.904  35.861  21.905  1.00  0.00     0.000 C 
BRANCH   2   3
ATOM      3  C   UNL     1      -6.113  35.035  22.392  1.00  0.00     0.000 C 
BRANCH   3   4
ATOM      4  C   UNL     1      -5.910  34.406  23.781  1.00  0.00     0.000 C 
BRANCH   4   5
ATOM      5  C   UNL     1      -5.588  35.444  24.865  1.00  0.00     0.006 C 
BRANCH   5   6
ATOM      6  C   UNL     1      -6.124  36.826  24.479  1.00  0.00     0.053 C 
BRANCH   6   7
ATOM      7  C   UNL     1      -5.147  37.892  24.859  1.00  0.00     0.041 C 
ATOM      8  O   UNL     1      -4.601  37.876  25.993  1.00  0.00    -0.550 OA
ATOM      9  O   UNL     1      -4.801  38.876  23.942  1.00  0.00    -0.550 OA
ENDBRANCH   6   7
ENDBRANCH   5   6
ENDBRANCH   4   5
ENDBRANCH   3   4
ENDBRANCH   2   3
ENDBRANCH   1   2
BRANCH   1  10
ATOM     10  C   UNL     1      -5.126  36.503  19.434  1.00  0.00     0.000 C 
BRANCH  10  11
ATOM     11  C   UNL     1      -4.592  35.065  19.316  1.00  0.00    -0.000 C 
BRANCH  11  12
ATOM     12  C   UNL     1      -4.415  34.619  17.856  1.00  0.00    -0.000 C 
BRANCH  12  13
ATOM     13  C   UNL     1      -4.040  35.781  16.923  1.00  0.00    -0.000 C 
BRANCH  13  14
ATOM     14  C   UNL     1      -3.171  35.290  15.755  1.00  0.00    -0.000 C 
BRANCH  14  15
ATOM     15  C   UNL     1      -3.034  36.330  14.629  1.00  0.00    -0.000 C 
BRANCH  15  16
ATOM     16  C   UNL     1      -4.359  36.964  14.168  1.00  0.00    -0.003 C 
ATOM     17  C   UNL     1      -4.326  38.491  14.181  1.00  0.00     0.004 C 
ENDBRANCH  15  16
ENDBRANCH  14  15
ENDBRANCH  13  14
ENDBRANCH  12  13
ENDBRANCH  11  12
ENDBRANCH  10  11
ENDBRANCH   1  10
TORSDOF 13
ENDMDL
MODEL 3
REMARK VINA RESULT:    -0.379      3.069      7.139
REMARK INTER + INTRA:          -1.347
REMARK INTER:                  -0.662
REMARK INTRA:                  -0.684
REMARK UNBOUND:                -0.679
REMARK SMILES CCCCCCCCCCCCCCC(=O)[O-]
REMARK SMILES IDX 9 1 10 2 11 3 12 4 13 5 14 6 15 7 16 8 17 9 8 10 7 11 6 12
REMARK SMILES IDX 5 13 4 14 3 15 2 16 1 17
REMARK H PARENT
REMARK Flexibility Score: inf
ROOT
ATOM      1  C   UNL     1      -5.018  36.065  21.221  1.00  0.00     0.000 C 
ENDROOT
BRANCH   1   2
ATOM      2  C   UNL     1      -5.582  36.207  19.797  1.00  0.00     0.000 C 
BRANCH   2   3
ATOM      3  C   UNL     1      -5.799  34.838  19.118  1.00  0.00     0.000 C 
BRANCH   3   4
ATOM      4  C   UNL     1      -4.677  34.452  18.139  1.00  0.00     0.000 C 
BRANCH   4   5
ATOM      5  C   UNL     1      -4.429  35.518  17.063  1.00  0.00     0.006 C 
BRANCH   5   6
ATOM      6  C   UNL     1      -3.174  35.192  16.247  1.00  0.00     0.053 C 
BRANCH   6   7
ATOM      7  C   UNL     1      -3.143  36.001  14.989  1.00  0.00     0.041 C 
ATOM      8  O   UNL     1      -4.145  36.682  14.650  1.00  0.00    -0.550 OA
ATOM      9  O   UNL     1      -1.990  36.040  14.218  1.00  0.00    -0.550 OA
ENDBRANCH   6   7
ENDBRANCH   5   6
ENDBRANCH   4   5
ENDBRANCH   3   4
ENDBRANCH   2   3
ENDBRANCH   1   2
BRANCH   1  10
ATOM     10  C   UNL     1      -6.109  35.810  22.273  1.00  0.00     0.000 C 
BRANCH  10  11
ATOM     11  C   UNL     1      -5.740  34.678  23.247  1.00  0.00    -0.000 C 
BRANCH  11  12
ATOM     12  C   UNL     1      -5.541  35.179  24.687  1.00  0.00    -0.000 C 
BRANCH  12  13
ATOM     13  C   UNL     1      -6.114  36.589  24.907  1.00  0.00    -0.000 C 
BRANCH  13  14
ATOM     14  C   UNL     1      -5.098  37.665  24.496  1.00  0.00    -0.000 C 
BRANCH  14  15
ATOM     15  C   UNL     1      -5.764  38.946  23.962  1.00  0.00    -0.000 C 
BRANCH  15  16
ATOM     16  C   UNL     1      -5.045  39.600  22.768  1.00  0.00    -0.003 C 
ATOM     17  C   UNL     1      -5.918  39.682  21.517  1.00  0.00     0.004 C 
ENDBRANCH  15  16
ENDBRANCH  14  15
ENDBRANCH  13  14
ENDBRANCH  12  13
ENDBRANCH  11  12
ENDBRANCH  10  11
ENDBRANCH   1  10
TORSDOF 13
ENDMDL
MODEL 4
REMARK VINA RESULT:    -0.122      3.213      7.584
REMARK INTER + INTRA:          -0.893
REMARK INTER:                   0.054
REMARK INTRA:                  -0.947
REMARK UNBOUND:                -0.679
REMARK SMILES CCCCCCCCCCCCCCC(=O)[O-]
REMARK SMILES IDX 9 1 10 2 11 3 12 4 13 5 14 6 15 7 16 8 17 9 8 10 7 11 6 12
REMARK SMILES IDX 5 13 4 14 3 15 2 16 1 17
REMARK H PARENT
REMARK Flexibility Score: inf
ROOT
ATOM      1  C   UNL     1      -4.862  37.196  20.636  1.00  0.00     0.000 C 
ENDROOT
BRANCH   1   2
ATOM      2  C   UNL     1      -5.361  36.343  19.457  1.00  0.00     0.000 C 
BRANCH   2   3
ATOM      3  C   UNL     1      -4.506  35.074  19.254  1.00  0.00     0.000 C 
BRANCH   3   4
ATOM      4  C   UNL     1      -4.547  34.527  17.817  1.00  0.00     0.000 C 
BRANCH   4   5
ATOM      5  C   UNL     1      -4.249  35.599  16.760  1.00  0.00     0.006 C 
BRANCH   5   6
ATOM      6  C   UNL     1      -2.997  35.242  15.954  1.00  0.00     0.053 C 
BRANCH   6   7
ATOM      7  C   UNL     1      -2.933  36.053  14.699  1.00  0.00     0.041 C 
ATOM      8  O   UNL     1      -3.973  36.596  14.243  1.00  0.00    -0.550 OA
ATOM      9  O   UNL     1      -1.716  36.249  14.060  1.00  0.00    -0.550 OA
ENDBRANCH   6   7
ENDBRANCH   5   6
ENDBRANCH   4   5
ENDBRANCH   3   4
ENDBRANCH   2   3
ENDBRANCH   1   2
BRANCH   1  10
ATOM     10  C   UNL     1      -5.779  38.393  20.937  1.00  0.00     0.000 C 
BRANCH  10  11
ATOM     11  C   UNL     1      -5.098  39.453  21.820  1.00  0.00    -0.000 C 
BRANCH  11  12
ATOM     12  C   UNL     1      -5.773  39.600  23.193  1.00  0.00    -0.000 C 
BRANCH  12  13
ATOM     13  C   UNL     1      -5.166  38.669  24.255  1.00  0.00    -0.000 C 
BRANCH  13  14
ATOM     14  C   UNL     1      -6.095  37.478  24.537  1.00  0.00    -0.000 C 
BRANCH  14  15
ATOM     15  C   UNL     1      -5.335  36.218  24.988  1.00  0.00    -0.000 C 
BRANCH  15  16
ATOM     16  C   UNL     1      -5.959  34.888  24.531  1.00  0.00    -0.003 C 
ATOM     17  C   UNL     1      -5.931  34.705  23.014  1.00  0.00     0.004 C 
ENDBRANCH  15  16
ENDBRANCH  14  15
ENDBRANCH  13  14
ENDBRANCH  12  13
ENDBRANCH  11  12
ENDBRANCH  10  11
ENDBRANCH   1  10
TORSDOF 13
ENDMDL
MODEL 5
REMARK VINA RESULT:     0.051      2.009      3.020
REMARK INTER + INTRA:          -0.589
REMARK INTER:                   0.121
REMARK INTRA:                  -0.709
REMARK UNBOUND:                -0.679
REMARK SMILES CCCCCCCCCCCCCCC(=O)[O-]
REMARK SMILES IDX 9 1 10 2 11 3 12 4 13 5 14 6 15 7 16 8 17 9 8 10 7 11 6 12
REMARK SMILES IDX 5 13 4 14 3 15 2 16 1 17
REMARK H PARENT
REMARK Flexibility Score: inf
ROOT
ATOM      1  C   UNL     1      -4.930  35.999  20.055  1.00  0.00     0.000 C 
ENDROOT
BRANCH   1   2
ATOM      2  C   UNL     1      -5.927  37.043  20.589  1.00  0.00     0.000 C 
BRANCH   2   3
ATOM      3  C   UNL     1      -5.376  38.481  20.483  1.00  0.00     0.000 C 
BRANCH   3   4
ATOM      4  C   UNL     1      -5.586  39.317  21.756  1.00  0.00     0.000 C 
BRANCH   4   5
ATOM      5  C   UNL     1      -6.107  38.486  22.937  1.00  0.00     0.006 C 
BRANCH   5   6
ATOM      6  C   UNL     1      -5.306  38.777  24.209  1.00  0.00     0.053 C 
BRANCH   6   7
ATOM      7  C   UNL     1      -5.346  37.603  25.134  1.00  0.00     0.041 C 
ATOM      8  O   UNL     1      -4.743  37.646  26.238  1.00  0.00    -0.550 OA
ATOM      9  O   UNL     1      -6.090  36.480  24.799  1.00  0.00    -0.550 OA
ENDBRANCH   6   7
ENDBRANCH   5   6
ENDBRANCH   4   5
ENDBRANCH   3   4
ENDBRANCH   2   3
ENDBRANCH   1   2
BRANCH   1  10
ATOM     10  C   UNL     1      -5.584  34.978  19.110  1.00  0.00     0.000 C 
BRANCH  10  11
ATOM     11  C   UNL     1      -4.591  34.395  18.091  1.00  0.00    -0.000 C 
BRANCH  11  12
ATOM     12  C   UNL     1      -4.269  35.377  16.953  1.00  0.00    -0.000 C 
BRANCH  12  13
ATOM     13  C   UNL     1      -2.932  35.065  16.261  1.00  0.00    -0.000 C 
BRANCH  13  14
ATOM     14  C   UNL     1      -2.586  36.142  15.222  1.00  0.00    -0.000 C 
BRANCH  14  15
ATOM     15  C   UNL     1      -3.506  36.103  13.988  1.00  0.00    -0.000 C 
BRANCH  15  16
ATOM     16  C   UNL     1      -4.488  37.282  13.875  1.00  0.00    -0.003 C 
ATOM     17  C   UNL     1      -4.030  38.517  14.650  1.00  0.00     0.004 C 
ENDBRANCH  15  16
ENDBRANCH  14  15
ENDBRANCH  13  14
ENDBRANCH  12  13
ENDBRANCH  11  12
ENDBRANCH  10  11
ENDBRANCH   1  10
TORSDOF 13
ENDMDL
MODEL 6
REMARK VINA RESULT:     0.461      2.132      3.891
REMARK INTER + INTRA:           0.133
REMARK INTER:                   0.954
REMARK INTRA:                  -0.822
REMARK UNBOUND:                -0.679
REMARK SMILES CCCCCCCCCCCCCCC(=O)[O-]
REMARK SMILES IDX 9 1 10 2 11 3 12 4 13 5 14 6 15 7 16 8 17 9 8 10 7 11 6 12
REMARK SMILES IDX 5 13 4 14 3 15 2 16 1 17
REMARK H PARENT
REMARK Flexibility Score: inf
ROOT
ATOM      1  C   UNL     1      -4.765  36.354  25.620  1.00  0.00     0.000 C 
ENDROOT
BRANCH   1   2
ATOM      2  C   UNL     1      -4.528  37.870  25.496  1.00  0.00     0.000 C 
BRANCH   2   3
ATOM      3  C   UNL     1      -5.653  38.571  24.705  1.00  0.00     0.000 C 
BRANCH   3   4
ATOM      4  C   UNL     1      -5.172  39.794  23.906  1.00  0.00     0.000 C 
BRANCH   4   5
ATOM      5  C   UNL     1      -5.889  39.946  22.557  1.00  0.00     0.006 C 
BRANCH   5   6
ATOM      6  C   UNL     1      -5.732  38.681  21.707  1.00  0.00     0.053 C 
BRANCH   6   7
ATOM      7  C   UNL     1      -5.790  39.017  20.251  1.00  0.00     0.041 C 
ATOM      8  O   UNL     1      -6.089  40.183  19.882  1.00  0.00    -0.550 OA
ATOM      9  O   UNL     1      -5.465  38.057  19.303  1.00  0.00    -0.550 OA
ENDBRANCH   6   7
ENDBRANCH   5   6
ENDBRANCH   4   5
ENDBRANCH   3   4
ENDBRANCH   2   3
ENDBRANCH   1   2
BRANCH   1  10
ATOM     10  C   UNL     1      -6.125  35.915  25.053  1.00  0.00     0.000 C 
BRANCH  10  11
ATOM     11  C   UNL     1      -6.068  34.528  24.389  1.00  0.00    -0.000 C 
BRANCH  11  12
ATOM     12  C   UNL     1      -6.083  34.607  22.854  1.00  0.00    -0.000 C 
BRANCH  12  13
ATOM     13  C   UNL     1      -5.064  35.616  22.303  1.00  0.00    -0.000 C 
BRANCH  13  14
ATOM     14  C   UNL     1      -4.682  35.277  20.854  1.00  0.00    -0.000 C 
BRANCH  14  15
ATOM     15  C   UNL     1      -5.854  34.691  20.046  1.00  0.00    -0.000 C 
BRANCH  15  16
ATOM     16  C   UNL     1      -5.780  34.936  18.529  1.00  0.00    -0.003 C 
ATOM     17  C   UNL     1      -4.653  34.158  17.852  1.00  0.00     0.004 C 
ENDBRANCH  15  16
ENDBRANCH  14  15
ENDBRANCH  13  14
ENDBRANCH  12  13
ENDBRANCH  11  12
ENDBRANCH  10  11
ENDBRANCH   1  10
TORSDOF 13
ENDMDL
MODEL 7
REMARK VINA RESULT:     0.525      3.171      7.529
REMARK INTER + INTRA:           0.244
REMARK INTER:                   0.212
REMARK INTRA:                   0.032
REMARK UNBOUND:                -0.679
REMARK SMILES CCCCCCCCCCCCCCC(=O)[O-]
REMARK SMILES IDX 9 1 10 2 11 3 12 4 13 5 14 6 15 7 16 8 17 9 8 10 7 11 6 12
REMARK SMILES IDX 5 13 4 14 3 15 2 16 1 17
REMARK H PARENT
REMARK Flexibility Score: inf
ROOT
ATOM      1  C   UNL     1      -5.139  35.099  21.595  1.00  0.00     0.000 C 
ENDROOT
BRANCH   1   2
ATOM      2  C   UNL     1      -4.295  34.660  20.385  1.00  0.00     0.000 C 
BRANCH   2   3
ATOM      3  C   UNL     1      -4.968  35.024  19.045  1.00  0.00     0.000 C 
BRANCH   3   4
ATOM      4  C   UNL     1      -4.212  34.498  17.813  1.00  0.00     0.000 C 
BRANCH   4   5
ATOM      5  C   UNL     1      -4.189  35.501  16.652  1.00  0.00     0.006 C 
BRANCH   5   6
ATOM      6  C   UNL     1      -2.898  35.371  15.839  1.00  0.00     0.053 C 
BRANCH   6   7
ATOM      7  C   UNL     1      -2.943  36.260  14.638  1.00  0.00     0.041 C 
ATOM      8  O   UNL     1      -1.945  36.345  13.875  1.00  0.00    -0.550 OA
ATOM      9  O   UNL     1      -4.104  36.957  14.333  1.00  0.00    -0.550 OA
ENDBRANCH   6   7
ENDBRANCH   5   6
ENDBRANCH   4   5
ENDBRANCH   3   4
ENDBRANCH   2   3
ENDBRANCH   1   2
BRANCH   1  10
ATOM     10  C   UNL     1      -6.117  36.237  21.260  1.00  0.00     0.000 C 
BRANCH  10  11
ATOM     11  C   UNL     1      -5.397  37.539  20.869  1.00  0.00    -0.000 C 
BRANCH  11  12
ATOM     12  C   UNL     1      -6.073  38.787  21.460  1.00  0.00    -0.000 C 
BRANCH  12  13
ATOM     13  C   UNL     1      -5.149  39.570  22.406  1.00  0.00    -0.000 C 
BRANCH  13  14
ATOM     14  C   UNL     1      -5.371  39.148  23.866  1.00  0.00    -0.000 C 
BRANCH  14  15
ATOM     15  C   UNL     1      -6.035  37.766  23.997  1.00  0.00    -0.000 C 
BRANCH  15  16
ATOM     16  C   UNL     1      -5.463  36.877  25.116  1.00  0.00    -0.003 C 
ATOM     17  C   UNL     1      -4.583  37.647  26.099  1.00  0.00     0.004 C 
ENDBRANCH  15  16
ENDBRANCH  14  15
ENDBRANCH  13  14
ENDBRANCH  12  13
ENDBRANCH  11  12
ENDBRANCH  10  11
ENDBRANCH   1  10
TORSDOF 13
ENDMDL
MODEL 8
REMARK VINA RESULT:     1.512      2.147      3.202
REMARK INTER + INTRA:           1.983
REMARK INTER:                   2.432
REMARK INTRA:                  -0.449
REMARK UNBOUND:                -0.679
REMARK SMILES CCCCCCCCCCCCCCC(=O)[O-]
REMARK SMILES IDX 9 1 10 2 11 3 12 4 13 5 14 6 15 7 16 8 17 9 8 10 7 11 6 12
REMARK SMILES IDX 5 13 4 14 3 15 2 16 1 17
REMARK H PARENT
REMARK Flexibility Score: inf
ROOT
ATOM      1  C   UNL     1      -5.198  38.639  20.196  1.00  0.00     0.000 C 
ENDROOT
BRANCH   1   2
ATOM      2  C   UNL     1      -6.105  39.417  21.166  1.00  0.00     0.000 C 
BRANCH   2   3
ATOM      3  C   UNL     1      -5.336  39.918  22.407  1.00  0.00     0.000 C 
BRANCH   3   4
ATOM      4  C   UNL     1      -5.265  38.886  23.545  1.00  0.00     0.000 C 
BRANCH   4   5
ATOM      5  C   UNL     1      -5.864  37.527  23.158  1.00  0.00     0.006 C 
BRANCH   5   6
ATOM      6  C   UNL     1      -6.102  36.659  24.397  1.00  0.00     0.053 C 
BRANCH   6   7
ATOM      7  C   UNL     1      -6.101  35.209  24.030  1.00  0.00     0.041 C 
ATOM      8  O   UNL     1      -6.125  34.328  24.928  1.00  0.00    -0.550 OA
ATOM      9  O   UNL     1      -6.124  34.831  22.694  1.00  0.00    -0.550 OA
ENDBRANCH   6   7
ENDBRANCH   5   6
ENDBRANCH   4   5
ENDBRANCH   3   4
ENDBRANCH   2   3
ENDBRANCH   1   2
BRANCH   1  10
ATOM     10  C   UNL     1      -5.720  37.226  19.893  1.00  0.00     0.000 C 
BRANCH  10  11
ATOM     11  C   UNL     1      -4.586  36.218  19.638  1.00  0.00    -0.000 C 
BRANCH  11  12
ATOM     12  C   UNL     1      -5.110  34.807  19.328  1.00  0.00    -0.000 C 
BRANCH  12  13
ATOM     13  C   UNL     1      -4.606  34.271  17.978  1.00  0.00    -0.000 C 
BRANCH  13  14
ATOM     14  C   UNL     1      -3.656  35.275  17.309  1.00  0.00    -0.000 C 
BRANCH  14  15
ATOM     15  C   UNL     1      -3.666  35.178  15.772  1.00  0.00    -0.000 C 
BRANCH  15  16
ATOM     16  C   UNL     1      -3.003  36.361  15.045  1.00  0.00    -0.003 C 
ATOM     17  C   UNL     1      -3.980  37.148  14.172  1.00  0.00     0.004 C 
ENDBRANCH  15  16
ENDBRANCH  14  15
ENDBRANCH  13  14
ENDBRANCH  12  13
ENDBRANCH  11  12
ENDBRANCH  10  11
ENDBRANCH   1  10
TORSDOF 13
ENDMDL
