MODEL 1
REMARK VINA RESULT:    -3.855      0.000      0.000
REMARK INTER + INTRA:          -5.495
REMARK INTER:                  -5.207
REMARK INTRA:                  -0.288
REMARK UNBOUND:                -0.288
REMARK SMILES CCCCCCC=CC(=O)[O-]
REMARK SMILES IDX 5 1 6 2 7 3 8 4 9 5 10 6 11 7 4 8 3 9 2 10 1 11
REMARK H PARENT
REMARK Flexibility Score: inf
ROOT
ATOM      1  C   UNL     1     121.236  69.533  -0.399  1.00  0.00     0.004 C 
ENDROOT
BRANCH   1   2
ATOM      2  C   UNL     1     120.742  70.882   0.144  1.00  0.00     0.027 C 
BRANCH   2   3
ATOM      3  C   UNL     1     120.562  70.835   1.634  1.00  0.00    -0.025 C 
ATOM      4  C   UNL     1     120.889  71.874   2.412  1.00  0.00     0.020 C 
BRANCH   4   5
ATOM      5  C   UNL     1     120.733  71.845   3.874  1.00  0.00     0.064 C 
ATOM      6  O   UNL     1     120.179  72.795   4.489  1.00  0.00    -0.545 OA
ATOM      7  O   UNL     1     121.206  70.753   4.590  1.00  0.00    -0.545 OA
ENDBRANCH   4   5
ENDBRANCH   2   3
ENDBRANCH   1   2
BRANCH   1   8
ATOM      8  C   UNL     1     120.252  68.916  -1.414  1.00  0.00     0.000 C 
BRANCH   8   9
ATOM      9  C   UNL     1     120.123  67.383  -1.312  1.00  0.00    -0.000 C 
BRANCH   9  10
ATOM     10  C   UNL     1     120.116  66.847   0.134  1.00  0.00    -0.003 C 
ATOM     11  C   UNL     1     120.085  65.320   0.196  1.00  0.00     0.004 C 
ENDBRANCH   9  10
ENDBRANCH   8   9
ENDBRANCH   1   8
TORSDOF 6
ENDMDL
MODEL 2
REMARK VINA RESULT:    -3.700      2.994      4.888
REMARK INTER + INTRA:          -5.286
REMARK INTER:                  -4.978
REMARK INTRA:                  -0.307
REMARK UNBOUND:                -0.288
REMARK SMILES CCCCCCC=CC(=O)[O-]
REMARK SMILES IDX 5 1 6 2 7 3 8 4 9 5 10 6 11 7 4 8 3 9 2 10 1 11
REMARK H PARENT
REMARK Flexibility Score: inf
ROOT
ATOM      1  C   UNL     1     121.209  71.715   3.735  1.00  0.00     0.004 C 
ENDROOT
BRANCH   1   2
ATOM      2  C   UNL     1     120.161  71.132   4.695  1.00  0.00     0.027 C 
BRANCH   2   3
ATOM      3  C   UNL     1     120.103  71.914   5.976  1.00  0.00    -0.025 C 
ATOM      4  C   UNL     1     120.759  71.513   7.070  1.00  0.00     0.020 C 
BRANCH   4   5
ATOM      5  C   UNL     1     120.706  72.256   8.339  1.00  0.00     0.064 C 
ATOM      6  O   UNL     1     120.907  73.499   8.374  1.00  0.00    -0.545 OA
ATOM      7  O   UNL     1     120.431  71.576   9.518  1.00  0.00    -0.545 OA
ENDBRANCH   4   5
ENDBRANCH   2   3
ENDBRANCH   1   2
BRANCH   1   8
ATOM      8  C   UNL     1     120.641  72.864   2.877  1.00  0.00     0.000 C 
BRANCH   8   9
ATOM      9  C   UNL     1     120.736  72.620   1.357  1.00  0.00    -0.000 C 
BRANCH   9  10
ATOM     10  C   UNL     1     120.041  71.329   0.882  1.00  0.00    -0.003 C 
ATOM     11  C   UNL     1     121.003  70.360   0.195  1.00  0.00     0.004 C 
ENDBRANCH   9  10
ENDBRANCH   8   9
ENDBRANCH   1   8
TORSDOF 6
ENDMDL
MODEL 3
REMARK VINA RESULT:    -3.625      2.983      5.889
REMARK INTER + INTRA:          -5.184
REMARK INTER:                  -4.934
REMARK INTRA:                  -0.251
REMARK UNBOUND:                -0.288
REMARK SMILES CCCCCCC=CC(=O)[O-]
REMARK SMILES IDX 5 1 6 2 7 3 8 4 9 5 10 6 11 7 4 8 3 9 2 10 1 11
REMARK H PARENT
REMARK Flexibility Score: inf
ROOT
ATOM      1  C   UNL     1     121.294  72.513   2.995  1.00  0.00     0.004 C 
ENDROOT
BRANCH   1   2
ATOM      2  C   UNL     1     120.703  72.723   1.593  1.00  0.00     0.027 C 
BRANCH   2   3
ATOM      3  C   UNL     1     120.308  71.416   0.968  1.00  0.00    -0.025 C 
ATOM      4  C   UNL     1     121.197  70.653   0.322  1.00  0.00     0.020 C 
BRANCH   4   5
ATOM      5  C   UNL     1     120.830  69.375  -0.309  1.00  0.00     0.064 C 
ATOM      6  O   UNL     1     121.043  68.277   0.271  1.00  0.00    -0.545 OA
ATOM      7  O   UNL     1     120.239  69.380  -1.566  1.00  0.00    -0.545 OA
ENDBRANCH   4   5
ENDBRANCH   2   3
ENDBRANCH   1   2
BRANCH   1   8
ATOM      8  C   UNL     1     120.238  72.030   4.010  1.00  0.00     0.000 C 
BRANCH   8   9
ATOM      9  C   UNL     1     120.786  71.057   5.073  1.00  0.00    -0.000 C 
BRANCH   9  10
ATOM     10  C   UNL     1     120.060  71.134   6.431  1.00  0.00    -0.003 C 
ATOM     11  C   UNL     1     120.995  71.511   7.579  1.00  0.00     0.004 C 
ENDBRANCH   9  10
ENDBRANCH   8   9
ENDBRANCH   1   8
TORSDOF 6
ENDMDL
MODEL 4
REMARK VINA RESULT:    -3.479      2.345      3.530
REMARK INTER + INTRA:          -4.987
REMARK INTER:                  -4.782
REMARK INTRA:                  -0.205
REMARK UNBOUND:                -0.288
REMARK SMILES CCCCCCC=CC(=O)[O-]
REMARK SMILES IDX 5 1 6 2 7 3 8 4 9 5 10 6 11 7 4 8 3 9 2 10 1 11
REMARK H PARENT
REMARK Flexibility Score: inf
ROOT
ATOM      1  C   UNL     1     120.881  69.658  -1.195  1.00  0.00     0.004 C 
ENDROOT
BRANCH   1   2
ATOM      2  C   UNL     1     120.277  69.222   0.148  1.00  0.00     0.027 C 
BRANCH   2   3
ATOM      3  C   UNL     1     120.148  70.385   1.090  1.00  0.00    -0.025 C 
ATOM      4  C   UNL     1     120.949  71.453   0.997  1.00  0.00     0.020 C 
BRANCH   4   5
ATOM      5  C   UNL     1     120.848  72.597   1.916  1.00  0.00     0.064 C 
ATOM      6  O   UNL     1     120.336  73.687   1.546  1.00  0.00    -0.545 OA
ATOM      7  O   UNL     1     121.326  72.474   3.214  1.00  0.00    -0.545 OA
ENDBRANCH   4   5
ENDBRANCH   2   3
ENDBRANCH   1   2
BRANCH   1   8
ATOM      8  C   UNL     1     120.157  69.018  -2.397  1.00  0.00     0.000 C 
BRANCH   8   9
ATOM      9  C   UNL     1     119.875  69.997  -3.554  1.00  0.00    -0.000 C 
BRANCH   9  10
ATOM     10  C   UNL     1     120.318  69.481  -4.938  1.00  0.00    -0.003 C 
ATOM     11  C   UNL     1     120.257  70.561  -6.017  1.00  0.00     0.004 C 
ENDBRANCH   9  10
ENDBRANCH   8   9
ENDBRANCH   1   8
TORSDOF 6
ENDMDL
MODEL 5
REMARK VINA RESULT:    -3.424      2.158      3.297
REMARK INTER + INTRA:          -4.913
REMARK INTER:                  -4.649
REMARK INTRA:                  -0.264
REMARK UNBOUND:                -0.288
REMARK SMILES CCCCCCC=CC(=O)[O-]
REMARK SMILES IDX 5 1 6 2 7 3 8 4 9 5 10 6 11 7 4 8 3 9 2 10 1 11
REMARK H PARENT
REMARK Flexibility Score: inf
ROOT
ATOM      1  C   UNL     1     120.184  72.741   1.321  1.00  0.00     0.004 C 
ENDROOT
BRANCH   1   2
ATOM      2  C   UNL     1     120.028  73.205   2.777  1.00  0.00     0.027 C 
BRANCH   2   3
ATOM      3  C   UNL     1     119.921  72.035   3.712  1.00  0.00    -0.025 C 
ATOM      4  C   UNL     1     120.236  72.144   5.008  1.00  0.00     0.020 C 
BRANCH   4   5
ATOM      5  C   UNL     1     120.151  71.008   5.939  1.00  0.00     0.064 C 
ATOM      6  O   UNL     1     119.875  69.849   5.529  1.00  0.00    -0.545 OA
ATOM      7  O   UNL     1     120.376  71.217   7.293  1.00  0.00    -0.545 OA
ENDBRANCH   4   5
ENDBRANCH   2   3
ENDBRANCH   1   2
BRANCH   1   8
ATOM      8  C   UNL     1     120.972  71.420   1.209  1.00  0.00     0.000 C 
BRANCH   8   9
ATOM      9  C   UNL     1     120.218  70.301   0.463  1.00  0.00    -0.000 C 
BRANCH   9  10
ATOM     10  C   UNL     1     121.049  69.604  -0.633  1.00  0.00    -0.003 C 
ATOM     11  C   UNL     1     120.265  69.405  -1.930  1.00  0.00     0.004 C 
ENDBRANCH   9  10
ENDBRANCH   8   9
ENDBRANCH   1   8
TORSDOF 6
ENDMDL
MODEL 6
REMARK VINA RESULT:    -3.300      3.569      4.693
REMARK INTER + INTRA:          -4.746
REMARK INTER:                  -4.621
REMARK INTRA:                  -0.125
REMARK UNBOUND:                -0.288
REMARK SMILES CCCCCCC=CC(=O)[O-]
REMARK SMILES IDX 5 1 6 2 7 3 8 4 9 5 10 6 11 7 4 8 3 9 2 10 1 11
REMARK H PARENT
REMARK Flexibility Score: inf
ROOT
ATOM      1  C   UNL     1     120.153  69.679  -3.520  1.00  0.00     0.004 C 
ENDROOT
BRANCH   1   2
ATOM      2  C   UNL     1     120.100  68.822  -2.246  1.00  0.00     0.027 C 
BRANCH   2   3
ATOM      3  C   UNL     1     119.876  69.672  -1.028  1.00  0.00    -0.025 C 
ATOM      4  C   UNL     1     120.874  69.967  -0.188  1.00  0.00     0.020 C 
BRANCH   4   5
ATOM      5  C   UNL     1     120.675  70.787   1.017  1.00  0.00     0.064 C 
ATOM      6  O   UNL     1     120.818  72.038   0.985  1.00  0.00    -0.545 OA
ATOM      7  O   UNL     1     120.323  70.171   2.211  1.00  0.00    -0.545 OA
ENDBRANCH   4   5
ENDBRANCH   2   3
ENDBRANCH   1   2
BRANCH   1   8
ATOM      8  C   UNL     1     120.123  68.823  -4.802  1.00  0.00     0.000 C 
BRANCH   8   9
ATOM      9  C   UNL     1     120.323  69.630  -6.101  1.00  0.00    -0.000 C 
BRANCH   9  10
ATOM     10  C   UNL     1     119.936  68.866  -7.383  1.00  0.00    -0.003 C 
ATOM     11  C   UNL     1     121.025  67.899  -7.844  1.00  0.00     0.004 C 
ENDBRANCH   9  10
ENDBRANCH   8   9
ENDBRANCH   1   8
TORSDOF 6
ENDMDL
MODEL 7
REMARK VINA RESULT:    -3.075      6.425      8.429
REMARK INTER + INTRA:          -4.441
REMARK INTER:                  -4.178
REMARK INTRA:                  -0.263
REMARK UNBOUND:                -0.288
REMARK SMILES CCCCCCC=CC(=O)[O-]
REMARK SMILES IDX 5 1 6 2 7 3 8 4 9 5 10 6 11 7 4 8 3 9 2 10 1 11
REMARK H PARENT
REMARK Flexibility Score: inf
ROOT
ATOM      1  C   UNL     1     120.142  69.140  -3.975  1.00  0.00     0.004 C 
ENDROOT
BRANCH   1   2
ATOM      2  C   UNL     1     119.875  67.632  -4.099  1.00  0.00     0.027 C 
BRANCH   2   3
ATOM      3  C   UNL     1     120.185  67.137  -5.482  1.00  0.00    -0.025 C 
ATOM      4  C   UNL     1     120.981  66.081  -5.685  1.00  0.00     0.020 C 
BRANCH   4   5
ATOM      5  C   UNL     1     121.308  65.587  -7.032  1.00  0.00     0.064 C 
ATOM      6  O   UNL     1     121.372  66.372  -8.016  1.00  0.00    -0.545 OA
ATOM      7  O   UNL     1     121.551  64.233  -7.222  1.00  0.00    -0.545 OA
ENDBRANCH   4   5
ENDBRANCH   2   3
ENDBRANCH   1   2
BRANCH   1   8
ATOM      8  C   UNL     1     119.903  69.660  -2.542  1.00  0.00     0.000 C 
BRANCH   8   9
ATOM      9  C   UNL     1     120.010  68.574  -1.453  1.00  0.00    -0.000 C 
BRANCH   9  10
ATOM     10  C   UNL     1     121.035  68.891  -0.346  1.00  0.00    -0.003 C 
ATOM     11  C   UNL     1     120.992  70.354   0.095  1.00  0.00     0.004 C 
ENDBRANCH   9  10
ENDBRANCH   8   9
ENDBRANCH   1   8
TORSDOF 6
ENDMDL
MODEL 8
REMARK VINA RESULT:    -3.067      4.057      7.550
REMARK INTER + INTRA:          -4.431
REMARK INTER:                  -4.199
REMARK INTRA:                  -0.232
REMARK UNBOUND:                -0.288
REMARK SMILES CCCCCCC=CC(=O)[O-]
REMARK SMILES IDX 5 1 6 2 7 3 8 4 9 5 10 6 11 7 4 8 3 9 2 10 1 11
REMARK H PARENT
REMARK Flexibility Score: inf
ROOT
ATOM      1  C   UNL     1     120.886  71.184   6.843  1.00  0.00     0.004 C 
ENDROOT
BRANCH   1   2
ATOM      2  C   UNL     1     119.909  71.492   5.699  1.00  0.00     0.027 C 
BRANCH   2   3
ATOM      3  C   UNL     1     120.602  71.454   4.367  1.00  0.00    -0.025 C 
ATOM      4  C   UNL     1     120.173  72.189   3.335  1.00  0.00     0.020 C 
BRANCH   4   5
ATOM      5  C   UNL     1     120.829  72.158   2.018  1.00  0.00     0.064 C 
ATOM      6  O   UNL     1     121.102  73.222   1.401  1.00  0.00    -0.545 OA
ATOM      7  O   UNL     1     121.152  70.935   1.445  1.00  0.00    -0.545 OA
ENDBRANCH   4   5
ENDBRANCH   2   3
ENDBRANCH   1   2
BRANCH   1   8
ATOM      8  C   UNL     1     120.178  70.570   8.068  1.00  0.00     0.000 C 
BRANCH   8   9
ATOM      9  C   UNL     1     119.989  71.551   9.242  1.00  0.00    -0.000 C 
BRANCH   9  10
ATOM     10  C   UNL     1     120.530  72.969   8.971  1.00  0.00    -0.003 C 
ATOM     11  C   UNL     1     119.876  74.029   9.856  1.00  0.00     0.004 C 
ENDBRANCH   9  10
ENDBRANCH   8   9
ENDBRANCH   1   8
TORSDOF 6
ENDMDL
MODEL 9
REMARK VINA RESULT:    -2.190      3.224      5.803
REMARK INTER + INTRA:          -3.247
REMARK INTER:                  -2.979
REMARK INTRA:                  -0.268
REMARK UNBOUND:                -0.288
REMARK SMILES CCCCCCC=CC(=O)[O-]
REMARK SMILES IDX 5 1 6 2 7 3 8 4 9 5 10 6 11 7 4 8 3 9 2 10 1 11
REMARK H PARENT
REMARK Flexibility Score: inf
ROOT
ATOM      1  C   UNL     1     120.213  71.306   0.976  1.00  0.00     0.004 C 
ENDROOT
BRANCH   1   2
ATOM      2  C   UNL     1     121.010  70.334   0.093  1.00  0.00     0.027 C 
BRANCH   2   3
ATOM      3  C   UNL     1     120.388  68.968   0.088  1.00  0.00    -0.025 C 
ATOM      4  C   UNL     1     120.994  67.925  -0.490  1.00  0.00     0.020 C 
BRANCH   4   5
ATOM      5  C   UNL     1     120.396  66.581  -0.517  1.00  0.00     0.064 C 
ATOM      6  O   UNL     1     119.875  66.120  -1.568  1.00  0.00    -0.545 OA
ATOM      7  O   UNL     1     120.405  65.806   0.636  1.00  0.00    -0.545 OA
ENDBRANCH   4   5
ENDBRANCH   2   3
ENDBRANCH   1   2
BRANCH   1   8
ATOM      8  C   UNL     1     121.101  72.418   1.571  1.00  0.00     0.000 C 
BRANCH   8   9
ATOM      9  C   UNL     1     121.271  72.335   3.101  1.00  0.00    -0.000 C 
BRANCH   9  10
ATOM     10  C   UNL     1     120.022  71.826   3.847  1.00  0.00    -0.003 C 
ATOM     11  C   UNL     1     120.361  71.159   5.179  1.00  0.00     0.004 C 
ENDBRANCH   9  10
ENDBRANCH   8   9
ENDBRANCH   1   8
TORSDOF 6
ENDMDL
