MODEL 1
REMARK VINA RESULT:    -8.753      0.000      0.000
REMARK INTER + INTRA:          -9.861
REMARK INTER:                  -9.520
REMARK INTRA:                  -0.341
REMARK UNBOUND:                -0.341
REMARK SMILES C[C@H]1[C@H]2C3=CC[C@H]4[C@@]5(C)CC[C@H](O)C(C)(C)[C@H]5CC[C@]4(C)[C@@]3(C)CC[C@@]2(C(=O)[O-])CC[C@@H]1C
REMARK SMILES IDX 26 1 30 2 25 3 3 4 31 5 24 6 4 7 2 8 32 9 22 10 5 11 1 12
REMARK SMILES IDX 33 13 23 14 20 15 6 16 7 17 19 18 21 19 8 20 18 21 17 22
REMARK SMILES IDX 10 23 9 24 14 25 11 26 12 27 15 28 16 29 27 30 28 31 29 32
REMARK SMILES IDX 13 33
REMARK H PARENT 13 34
REMARK Flexibility Score: inf
ROOT
ATOM      1  C   UNL     1      10.842   6.423  22.762  1.00  0.00     0.017 C 
ATOM      2  C   UNL     1      11.296   5.118  22.033  1.00  0.00     0.014 C 
ATOM      3  C   UNL     1       9.952   5.934  23.935  1.00  0.00     0.014 C 
ATOM      4  C   UNL     1      10.026   7.407  21.817  1.00  0.00     0.030 C 
ATOM      5  C   UNL     1      11.966   5.339  20.674  1.00  0.00     0.004 C 
ATOM      6  C   UNL     1       9.351   7.056  24.781  1.00  0.00     0.013 C 
ATOM      7  C   UNL     1       8.696   7.940  22.438  1.00  0.00    -0.063 C 
ATOM      8  C   UNL     1       9.857   6.833  20.357  1.00  0.00    -0.003 C 
ATOM      9  C   UNL     1      11.188   6.301  19.746  1.00  0.00    -0.011 C 
ATOM     10  C   UNL     1       8.576   8.158  23.968  1.00  0.00    -0.006 C 
ATOM     11  C   UNL     1       7.743   8.479  21.626  1.00  0.00    -0.027 C 
ATOM     12  C   UNL     1       8.706   5.789  20.248  1.00  0.00     0.008 C 
ATOM     13  C   UNL     1      12.096   7.450  19.251  1.00  0.00     0.008 C 
ATOM     14  C   UNL     1       9.332   9.503  24.229  1.00  0.00     0.017 C 
ATOM     15  C   UNL     1       7.017   8.193  24.401  1.00  0.00    -0.020 C 
ATOM     16  C   UNL     1       6.363   8.904  22.059  1.00  0.00     0.032 C 
ATOM     17  C   UNL     1       6.279   9.299  23.551  1.00  0.00     0.006 C 
ATOM     18  C   UNL     1       6.835   8.545  25.897  1.00  0.00     0.008 C 
ATOM     19  C   UNL     1       6.420   6.760  24.152  1.00  0.00     0.012 C 
ATOM     20  C   UNL     1       4.843   9.859  24.017  1.00  0.00    -0.025 C 
ATOM     21  C   UNL     1       5.366   8.715  26.279  1.00  0.00     0.005 C 
ATOM     22  C   UNL     1       4.736   9.961  25.602  1.00  0.00     0.003 C 
ATOM     23  C   UNL     1       3.669   9.004  23.443  1.00  0.00     0.010 C 
ATOM     24  C   UNL     1       4.722  11.300  23.410  1.00  0.00     0.012 C 
ATOM     25  C   UNL     1       3.277  10.285  26.168  1.00  0.00    -0.006 C 
ATOM     26  C   UNL     1       2.277   9.367  23.977  1.00  0.00     0.033 C 
ATOM     27  C   UNL     1       2.219   9.351  25.512  1.00  0.00     0.120 C 
ATOM     28  C   UNL     1       3.207  10.066  27.709  1.00  0.00     0.014 C 
ATOM     29  C   UNL     1       2.903  11.786  25.949  1.00  0.00     0.014 C 
ENDROOT
BRANCH   1  30
ATOM     30  C   UNL     1      12.105   7.123  23.283  1.00  0.00     0.048 C 
ATOM     31  O   UNL     1      12.299   8.343  23.043  1.00  0.00    -0.550 OA
ATOM     32  O   UNL     1      13.090   6.432  23.990  1.00  0.00    -0.550 OA
ENDBRANCH   1  30
BRANCH  27  33
ATOM     33  O   UNL     1       0.929   9.730  25.922  1.00  0.00    -0.393 OA
ATOM     34  H   UNL     1       0.604   9.051  26.569  1.00  0.00     0.210 HD
ENDBRANCH  27  33
TORSDOF 2
ENDMDL
MODEL 2
REMARK VINA RESULT:    -8.566      1.617      8.381
REMARK INTER + INTRA:          -9.658
REMARK INTER:                  -9.265
REMARK INTRA:                  -0.393
REMARK UNBOUND:                -0.341
REMARK SMILES C[C@H]1[C@H]2C3=CC[C@H]4[C@@]5(C)CC[C@H](O)C(C)(C)[C@H]5CC[C@]4(C)[C@@]3(C)CC[C@@]2(C(=O)[O-])CC[C@@H]1C
REMARK SMILES IDX 26 1 30 2 25 3 3 4 31 5 24 6 4 7 2 8 32 9 22 10 5 11 1 12
REMARK SMILES IDX 33 13 23 14 20 15 6 16 7 17 19 18 21 19 8 20 18 21 17 22
REMARK SMILES IDX 10 23 9 24 14 25 11 26 12 27 15 28 16 29 27 30 28 31 29 32
REMARK SMILES IDX 13 33
REMARK H PARENT 13 34
REMARK Flexibility Score: inf
ROOT
ATOM      1  C   UNL     1       2.669   8.822  24.869  1.00  0.00     0.017 C 
ATOM      2  C   UNL     1       1.943   9.360  26.143  1.00  0.00     0.014 C 
ATOM      3  C   UNL     1       3.712   7.805  25.405  1.00  0.00     0.014 C 
ATOM      4  C   UNL     1       3.387   9.968  24.035  1.00  0.00     0.030 C 
ATOM      5  C   UNL     1       1.050  10.581  25.908  1.00  0.00     0.004 C 
ATOM      6  C   UNL     1       4.584   7.167  24.324  1.00  0.00     0.013 C 
ATOM      7  C   UNL     1       4.863   9.647  23.637  1.00  0.00    -0.063 C 
ATOM      8  C   UNL     1       3.206  11.391  24.694  1.00  0.00    -0.003 C 
ATOM      9  C   UNL     1       1.732  11.703  25.091  1.00  0.00    -0.011 C 
ATOM     10  C   UNL     1       5.300   8.185  23.363  1.00  0.00    -0.006 C 
ATOM     11  C   UNL     1       5.692  10.658  23.255  1.00  0.00    -0.027 C 
ATOM     12  C   UNL     1       4.193  11.642  25.871  1.00  0.00     0.008 C 
ATOM     13  C   UNL     1       0.875  12.097  23.866  1.00  0.00     0.008 C 
ATOM     14  C   UNL     1       4.760   7.881  21.926  1.00  0.00     0.017 C 
ATOM     15  C   UNL     1       6.909   8.056  23.494  1.00  0.00    -0.020 C 
ATOM     16  C   UNL     1       7.167  10.523  22.978  1.00  0.00     0.032 C 
ATOM     17  C   UNL     1       7.583   9.104  22.525  1.00  0.00     0.006 C 
ATOM     18  C   UNL     1       7.415   6.649  23.096  1.00  0.00     0.008 C 
ATOM     19  C   UNL     1       7.286   8.313  24.999  1.00  0.00     0.012 C 
ATOM     20  C   UNL     1       9.133   8.956  22.120  1.00  0.00    -0.025 C 
ATOM     21  C   UNL     1       8.940   6.562  23.085  1.00  0.00     0.005 C 
ATOM     22  C   UNL     1       9.557   7.430  21.957  1.00  0.00     0.003 C 
ATOM     23  C   UNL     1      10.074   9.680  23.136  1.00  0.00     0.010 C 
ATOM     24  C   UNL     1       9.290   9.673  20.734  1.00  0.00     0.012 C 
ATOM     25  C   UNL     1      11.125   7.172  21.784  1.00  0.00    -0.006 C 
ATOM     26  C   UNL     1      11.574   9.442  22.917  1.00  0.00     0.033 C 
ATOM     27  C   UNL     1      11.927   7.948  22.867  1.00  0.00     0.120 C 
ATOM     28  C   UNL     1      11.469   5.660  21.937  1.00  0.00     0.014 C 
ATOM     29  C   UNL     1      11.609   7.561  20.351  1.00  0.00     0.014 C 
ENDROOT
BRANCH   1  30
ATOM     30  C   UNL     1       1.615   8.123  24.000  1.00  0.00     0.048 C 
ATOM     31  O   UNL     1       1.359   8.553  22.844  1.00  0.00    -0.550 OA
ATOM     32  O   UNL     1       0.882   7.031  24.468  1.00  0.00    -0.550 OA
ENDBRANCH   1  30
BRANCH  27  33
ATOM     33  O   UNL     1      13.306   7.815  22.627  1.00  0.00    -0.393 OA
ATOM     34  H   UNL     1      13.789   8.190  23.408  1.00  0.00     0.210 HD
ENDBRANCH  27  33
TORSDOF 2
ENDMDL
MODEL 3
REMARK VINA RESULT:    -8.456      3.562      6.852
REMARK INTER + INTRA:          -9.538
REMARK INTER:                  -9.168
REMARK INTRA:                  -0.371
REMARK UNBOUND:                -0.341
REMARK SMILES C[C@H]1[C@H]2C3=CC[C@H]4[C@@]5(C)CC[C@H](O)C(C)(C)[C@H]5CC[C@]4(C)[C@@]3(C)CC[C@@]2(C(=O)[O-])CC[C@@H]1C
REMARK SMILES IDX 26 1 30 2 25 3 3 4 31 5 24 6 4 7 2 8 32 9 22 10 5 11 1 12
REMARK SMILES IDX 33 13 23 14 20 15 6 16 7 17 19 18 21 19 8 20 18 21 17 22
REMARK SMILES IDX 10 23 9 24 14 25 11 26 12 27 15 28 16 29 27 30 28 31 29 32
REMARK SMILES IDX 13 33
REMARK H PARENT 13 34
REMARK Flexibility Score: inf
ROOT
ATOM      1  C   UNL     1       3.128   4.673  21.863  1.00  0.00     0.017 C 
ATOM      2  C   UNL     1       2.687   3.884  20.590  1.00  0.00     0.014 C 
ATOM      3  C   UNL     1       3.102   6.165  21.434  1.00  0.00     0.014 C 
ATOM      4  C   UNL     1       4.578   4.266  22.372  1.00  0.00     0.030 C 
ATOM      5  C   UNL     1       2.892   2.368  20.668  1.00  0.00     0.004 C 
ATOM      6  C   UNL     1       3.543   7.142  22.524  1.00  0.00     0.013 C 
ATOM      7  C   UNL     1       5.519   5.476  22.671  1.00  0.00    -0.063 C 
ATOM      8  C   UNL     1       5.242   3.158  21.466  1.00  0.00    -0.003 C 
ATOM      9  C   UNL     1       4.296   1.956  21.171  1.00  0.00    -0.011 C 
ATOM     10  C   UNL     1       4.934   6.817  23.183  1.00  0.00    -0.006 C 
ATOM     11  C   UNL     1       6.864   5.277  22.755  1.00  0.00    -0.027 C 
ATOM     12  C   UNL     1       5.872   3.738  20.165  1.00  0.00     0.008 C 
ATOM     13  C   UNL     1       4.194   0.992  22.375  1.00  0.00     0.008 C 
ATOM     14  C   UNL     1       4.647   6.561  24.699  1.00  0.00     0.017 C 
ATOM     15  C   UNL     1       5.985   8.018  22.913  1.00  0.00    -0.020 C 
ATOM     16  C   UNL     1       7.902   6.361  22.898  1.00  0.00     0.032 C 
ATOM     17  C   UNL     1       7.367   7.642  23.578  1.00  0.00     0.006 C 
ATOM     18  C   UNL     1       5.512   9.357  23.529  1.00  0.00     0.008 C 
ATOM     19  C   UNL     1       6.109   8.203  21.356  1.00  0.00     0.012 C 
ATOM     20  C   UNL     1       8.477   8.777  23.840  1.00  0.00    -0.025 C 
ATOM     21  C   UNL     1       6.561  10.459  23.397  1.00  0.00     0.005 C 
ATOM     22  C   UNL     1       7.817  10.164  24.259  1.00  0.00     0.003 C 
ATOM     23  C   UNL     1       9.419   8.969  22.608  1.00  0.00     0.010 C 
ATOM     24  C   UNL     1       9.355   8.257  25.032  1.00  0.00     0.012 C 
ATOM     25  C   UNL     1       8.819  11.407  24.316  1.00  0.00    -0.006 C 
ATOM     26  C   UNL     1      10.395  10.149  22.713  1.00  0.00     0.033 C 
ATOM     27  C   UNL     1       9.680  11.472  23.022  1.00  0.00     0.120 C 
ATOM     28  C   UNL     1       8.042  12.753  24.433  1.00  0.00     0.014 C 
ATOM     29  C   UNL     1       9.728  11.347  25.585  1.00  0.00     0.014 C 
ENDROOT
BRANCH   1  30
ATOM     30  C   UNL     1       2.091   4.397  22.959  1.00  0.00     0.048 C 
ATOM     31  O   UNL     1       0.891   4.746  22.799  1.00  0.00    -0.550 OA
ATOM     32  O   UNL     1       2.441   3.802  24.172  1.00  0.00    -0.550 OA
ENDBRANCH   1  30
BRANCH  27  33
ATOM     33  O   UNL     1      10.642  12.491  23.139  1.00  0.00    -0.393 OA
ATOM     34  H   UNL     1      10.542  12.902  24.037  1.00  0.00     0.210 HD
ENDBRANCH  27  33
TORSDOF 2
ENDMDL
MODEL 4
REMARK VINA RESULT:    -8.437      1.575      2.471
REMARK INTER + INTRA:          -9.517
REMARK INTER:                  -9.125
REMARK INTRA:                  -0.392
REMARK UNBOUND:                -0.341
REMARK SMILES C[C@H]1[C@H]2C3=CC[C@H]4[C@@]5(C)CC[C@H](O)C(C)(C)[C@H]5CC[C@]4(C)[C@@]3(C)CC[C@@]2(C(=O)[O-])CC[C@@H]1C
REMARK SMILES IDX 26 1 30 2 25 3 3 4 31 5 24 6 4 7 2 8 32 9 22 10 5 11 1 12
REMARK SMILES IDX 33 13 23 14 20 15 6 16 7 17 19 18 21 19 8 20 18 21 17 22
REMARK SMILES IDX 10 23 9 24 14 25 11 26 12 27 15 28 16 29 27 30 28 31 29 32
REMARK SMILES IDX 13 33
REMARK H PARENT 13 34
REMARK Flexibility Score: inf
ROOT
ATOM      1  C   UNL     1      10.324   7.810  22.771  1.00  0.00     0.017 C 
ATOM      2  C   UNL     1      11.521   6.903  23.199  1.00  0.00     0.014 C 
ATOM      3  C   UNL     1      10.031   8.693  24.014  1.00  0.00     0.014 C 
ATOM      4  C   UNL     1       9.033   6.979  22.363  1.00  0.00     0.030 C 
ATOM      5  C   UNL     1      11.829   5.748  22.241  1.00  0.00     0.004 C 
ATOM      6  C   UNL     1       8.852   9.650  23.843  1.00  0.00     0.013 C 
ATOM      7  C   UNL     1       7.709   7.476  23.028  1.00  0.00    -0.063 C 
ATOM      8  C   UNL     1       9.257   5.422  22.490  1.00  0.00    -0.003 C 
ATOM      9  C   UNL     1      10.580   4.934  21.827  1.00  0.00    -0.011 C 
ATOM     10  C   UNL     1       7.515   8.977  23.360  1.00  0.00    -0.006 C 
ATOM     11  C   UNL     1       6.622   6.655  23.058  1.00  0.00    -0.027 C 
ATOM     12  C   UNL     1       9.114   4.908  23.953  1.00  0.00     0.008 C 
ATOM     13  C   UNL     1      10.458   4.849  20.289  1.00  0.00     0.008 C 
ATOM     14  C   UNL     1       7.168   9.637  21.985  1.00  0.00     0.017 C 
ATOM     15  C   UNL     1       6.355   9.150  24.476  1.00  0.00    -0.020 C 
ATOM     16  C   UNL     1       5.331   6.940  23.781  1.00  0.00     0.032 C 
ATOM     17  C   UNL     1       5.041   8.448  23.955  1.00  0.00     0.006 C 
ATOM     18  C   UNL     1       6.023  10.638  24.746  1.00  0.00     0.008 C 
ATOM     19  C   UNL     1       6.879   8.508  25.812  1.00  0.00     0.012 C 
ATOM     20  C   UNL     1       3.618   8.785  24.629  1.00  0.00    -0.025 C 
ATOM     21  C   UNL     1       4.837  10.805  25.694  1.00  0.00     0.005 C 
ATOM     22  C   UNL     1       3.512  10.317  25.049  1.00  0.00     0.003 C 
ATOM     23  C   UNL     1       3.317   7.860  25.851  1.00  0.00     0.010 C 
ATOM     24  C   UNL     1       2.538   8.488  23.531  1.00  0.00     0.012 C 
ATOM     25  C   UNL     1       2.235  10.696  25.931  1.00  0.00    -0.006 C 
ATOM     26  C   UNL     1       2.061   8.228  26.652  1.00  0.00     0.033 C 
ATOM     27  C   UNL     1       2.070   9.694  27.110  1.00  0.00     0.120 C 
ATOM     28  C   UNL     1       2.372  12.123  26.541  1.00  0.00     0.014 C 
ATOM     29  C   UNL     1       0.938  10.745  25.061  1.00  0.00     0.014 C 
ENDROOT
BRANCH   1  30
ATOM     30  C   UNL     1      10.794   8.665  21.587  1.00  0.00     0.048 C 
ATOM     31  O   UNL     1      10.221   8.571  20.470  1.00  0.00    -0.550 OA
ATOM     32  O   UNL     1      11.884   9.530  21.691  1.00  0.00    -0.550 OA
ENDBRANCH   1  30
BRANCH  27  33
ATOM     33  O   UNL     1       0.875   9.961  27.801  1.00  0.00    -0.393 OA
ATOM     34  H   UNL     1       1.029  10.753  28.379  1.00  0.00     0.210 HD
ENDBRANCH  27  33
TORSDOF 2
ENDMDL
MODEL 5
REMARK VINA RESULT:    -8.275      1.545      2.439
REMARK INTER + INTRA:          -9.341
REMARK INTER:                  -8.949
REMARK INTRA:                  -0.393
REMARK UNBOUND:                -0.341
REMARK SMILES C[C@H]1[C@H]2C3=CC[C@H]4[C@@]5(C)CC[C@H](O)C(C)(C)[C@H]5CC[C@]4(C)[C@@]3(C)CC[C@@]2(C(=O)[O-])CC[C@@H]1C
REMARK SMILES IDX 26 1 30 2 25 3 3 4 31 5 24 6 4 7 2 8 32 9 22 10 5 11 1 12
REMARK SMILES IDX 33 13 23 14 20 15 6 16 7 17 19 18 21 19 8 20 18 21 17 22
REMARK SMILES IDX 10 23 9 24 14 25 11 26 12 27 15 28 16 29 27 30 28 31 29 32
REMARK SMILES IDX 13 33
REMARK H PARENT 13 34
REMARK Flexibility Score: inf
ROOT
ATOM      1  C   UNL     1      10.502   6.706  20.642  1.00  0.00     0.017 C 
ATOM      2  C   UNL     1      11.029   6.752  19.172  1.00  0.00     0.014 C 
ATOM      3  C   UNL     1       9.063   6.135  20.530  1.00  0.00     0.014 C 
ATOM      4  C   UNL     1      10.481   8.135  21.336  1.00  0.00     0.030 C 
ATOM      5  C   UNL     1      12.332   7.532  18.979  1.00  0.00     0.004 C 
ATOM      6  C   UNL     1       8.320   6.035  21.862  1.00  0.00     0.013 C 
ATOM      7  C   UNL     1       9.140   8.482  22.057  1.00  0.00    -0.063 C 
ATOM      8  C   UNL     1      10.993   9.277  20.374  1.00  0.00    -0.003 C 
ATOM      9  C   UNL     1      12.330   8.923  19.657  1.00  0.00    -0.011 C 
ATOM     10  C   UNL     1       8.286   7.362  22.705  1.00  0.00    -0.006 C 
ATOM     11  C   UNL     1       8.857   9.778  22.367  1.00  0.00    -0.027 C 
ATOM     12  C   UNL     1       9.903   9.758  19.373  1.00  0.00     0.008 C 
ATOM     13  C   UNL     1      13.550   9.086  20.593  1.00  0.00     0.008 C 
ATOM     14  C   UNL     1       9.021   7.042  24.049  1.00  0.00     0.017 C 
ATOM     15  C   UNL     1       6.762   7.872  22.902  1.00  0.00    -0.020 C 
ATOM     16  C   UNL     1       7.553  10.279  22.932  1.00  0.00     0.032 C 
ATOM     17  C   UNL     1       6.779   9.210  23.739  1.00  0.00     0.006 C 
ATOM     18  C   UNL     1       5.897   6.843  23.671  1.00  0.00     0.008 C 
ATOM     19  C   UNL     1       6.139   8.076  21.473  1.00  0.00     0.012 C 
ATOM     20  C   UNL     1       5.435   9.744  24.444  1.00  0.00    -0.025 C 
ATOM     21  C   UNL     1       4.500   7.376  23.980  1.00  0.00     0.005 C 
ATOM     22  C   UNL     1       4.542   8.547  24.997  1.00  0.00     0.003 C 
ATOM     23  C   UNL     1       4.598  10.656  23.491  1.00  0.00     0.010 C 
ATOM     24  C   UNL     1       5.901  10.625  25.656  1.00  0.00     0.012 C 
ATOM     25  C   UNL     1       3.085   8.960  25.506  1.00  0.00    -0.006 C 
ATOM     26  C   UNL     1       3.220  11.067  24.027  1.00  0.00     0.033 C 
ATOM     27  C   UNL     1       2.374   9.857  24.451  1.00  0.00     0.120 C 
ATOM     28  C   UNL     1       2.190   7.706  25.736  1.00  0.00     0.014 C 
ATOM     29  C   UNL     1       3.150   9.680  26.890  1.00  0.00     0.014 C 
ENDROOT
BRANCH   1  30
ATOM     30  C   UNL     1      11.412   5.754  21.428  1.00  0.00     0.048 C 
ATOM     31  O   UNL     1      12.081   6.179  22.407  1.00  0.00    -0.550 OA
ATOM     32  O   UNL     1      11.566   4.415  21.065  1.00  0.00    -0.550 OA
ENDBRANCH   1  30
BRANCH  27  33
ATOM     33  O   UNL     1       1.148  10.316  24.963  1.00  0.00    -0.393 OA
ATOM     34  H   UNL     1       0.748  10.927  24.292  1.00  0.00     0.210 HD
ENDBRANCH  27  33
TORSDOF 2
ENDMDL
MODEL 6
REMARK VINA RESULT:    -8.258      1.671      8.274
REMARK INTER + INTRA:          -9.322
REMARK INTER:                  -8.986
REMARK INTRA:                  -0.337
REMARK UNBOUND:                -0.341
REMARK SMILES C[C@H]1[C@H]2C3=CC[C@H]4[C@@]5(C)CC[C@H](O)C(C)(C)[C@H]5CC[C@]4(C)[C@@]3(C)CC[C@@]2(C(=O)[O-])CC[C@@H]1C
REMARK SMILES IDX 26 1 30 2 25 3 3 4 31 5 24 6 4 7 2 8 32 9 22 10 5 11 1 12
REMARK SMILES IDX 33 13 23 14 20 15 6 16 7 17 19 18 21 19 8 20 18 21 17 22
REMARK SMILES IDX 10 23 9 24 14 25 11 26 12 27 15 28 16 29 27 30 28 31 29 32
REMARK SMILES IDX 13 33
REMARK H PARENT 13 34
REMARK Flexibility Score: inf
ROOT
ATOM      1  C   UNL     1       3.420  10.135  25.009  1.00  0.00     0.017 C 
ATOM      2  C   UNL     1       1.971  10.430  24.505  1.00  0.00     0.014 C 
ATOM      3  C   UNL     1       4.347  10.872  24.006  1.00  0.00     0.014 C 
ATOM      4  C   UNL     1       3.759   8.584  25.045  1.00  0.00     0.030 C 
ATOM      5  C   UNL     1       0.875   9.590  25.167  1.00  0.00     0.004 C 
ATOM      6  C   UNL     1       5.840  10.692  24.278  1.00  0.00     0.013 C 
ATOM      7  C   UNL     1       5.122   8.207  24.382  1.00  0.00    -0.063 C 
ATOM      8  C   UNL     1       2.552   7.694  24.553  1.00  0.00    -0.003 C 
ATOM      9  C   UNL     1       1.195   8.078  25.217  1.00  0.00    -0.011 C 
ATOM     10  C   UNL     1       6.314   9.198  24.420  1.00  0.00    -0.006 C 
ATOM     11  C   UNL     1       5.361   6.915  24.021  1.00  0.00    -0.027 C 
ATOM     12  C   UNL     1       2.443   7.626  23.002  1.00  0.00     0.008 C 
ATOM     13  C   UNL     1       1.083   7.534  26.660  1.00  0.00     0.008 C 
ATOM     14  C   UNL     1       6.887   9.060  25.870  1.00  0.00     0.017 C 
ATOM     15  C   UNL     1       7.380   8.827  23.261  1.00  0.00    -0.020 C 
ATOM     16  C   UNL     1       6.563   6.429  23.252  1.00  0.00     0.032 C 
ATOM     17  C   UNL     1       7.814   7.319  23.434  1.00  0.00     0.006 C 
ATOM     18  C   UNL     1       8.656   9.699  23.341  1.00  0.00     0.008 C 
ATOM     19  C   UNL     1       6.686   9.087  21.874  1.00  0.00     0.012 C 
ATOM     20  C   UNL     1       9.142   6.767  22.711  1.00  0.00    -0.025 C 
ATOM     21  C   UNL     1       9.722   9.262  22.338  1.00  0.00     0.005 C 
ATOM     22  C   UNL     1      10.297   7.863  22.683  1.00  0.00     0.003 C 
ATOM     23  C   UNL     1       8.847   6.245  21.269  1.00  0.00     0.010 C 
ATOM     24  C   UNL     1       9.626   5.546  23.568  1.00  0.00     0.012 C 
ATOM     25  C   UNL     1      11.567   7.492  21.787  1.00  0.00    -0.006 C 
ATOM     26  C   UNL     1      10.086   5.861  20.449  1.00  0.00     0.033 C 
ATOM     27  C   UNL     1      11.116   6.999  20.382  1.00  0.00     0.120 C 
ATOM     28  C   UNL     1      12.491   8.729  21.577  1.00  0.00     0.014 C 
ATOM     29  C   UNL     1      12.464   6.423  22.488  1.00  0.00     0.014 C 
ENDROOT
BRANCH   1  30
ATOM     30  C   UNL     1       3.547  10.733  26.417  1.00  0.00     0.048 C 
ATOM     31  O   UNL     1       3.505   9.986  27.429  1.00  0.00    -0.550 OA
ATOM     32  O   UNL     1       3.666  12.108  26.624  1.00  0.00    -0.550 OA
ENDBRANCH   1  30
BRANCH  27  33
ATOM     33  O   UNL     1      12.233   6.557  19.650  1.00  0.00    -0.393 OA
ATOM     34  H   UNL     1      12.965   6.374  20.294  1.00  0.00     0.210 HD
ENDBRANCH  27  33
TORSDOF 2
ENDMDL
MODEL 7
REMARK VINA RESULT:    -8.087      3.201      9.341
REMARK INTER + INTRA:          -9.137
REMARK INTER:                  -8.780
REMARK INTRA:                  -0.356
REMARK UNBOUND:                -0.341
REMARK SMILES C[C@H]1[C@H]2C3=CC[C@H]4[C@@]5(C)CC[C@H](O)C(C)(C)[C@H]5CC[C@]4(C)[C@@]3(C)CC[C@@]2(C(=O)[O-])CC[C@@H]1C
REMARK SMILES IDX 26 1 30 2 25 3 3 4 31 5 24 6 4 7 2 8 32 9 22 10 5 11 1 12
REMARK SMILES IDX 33 13 23 14 20 15 6 16 7 17 19 18 21 19 8 20 18 21 17 22
REMARK SMILES IDX 10 23 9 24 14 25 11 26 12 27 15 28 16 29 27 30 28 31 29 32
REMARK SMILES IDX 13 33
REMARK H PARENT 13 34
REMARK Flexibility Score: inf
ROOT
ATOM      1  C   UNL     1       9.124   9.677  22.535  1.00  0.00     0.017 C 
ATOM      2  C   UNL     1       7.632   9.974  22.891  1.00  0.00     0.014 C 
ATOM      3  C   UNL     1       9.132   9.473  20.996  1.00  0.00     0.014 C 
ATOM      4  C   UNL     1       9.690   8.386  23.269  1.00  0.00     0.030 C 
ATOM      5  C   UNL     1       7.309   9.945  24.388  1.00  0.00     0.004 C 
ATOM      6  C   UNL     1      10.501   9.125  20.413  1.00  0.00     0.013 C 
ATOM      7  C   UNL     1      10.441   7.388  22.332  1.00  0.00    -0.063 C 
ATOM      8  C   UNL     1       8.608   7.696  24.188  1.00  0.00    -0.003 C 
ATOM      9  C   UNL     1       7.861   8.699  25.119  1.00  0.00    -0.011 C 
ATOM     10  C   UNL     1      11.225   7.909  21.100  1.00  0.00    -0.006 C 
ATOM     11  C   UNL     1      10.648   6.105  22.741  1.00  0.00    -0.027 C 
ATOM     12  C   UNL     1       7.621   6.796  23.388  1.00  0.00     0.008 C 
ATOM     13  C   UNL     1       8.721   9.105  26.338  1.00  0.00     0.008 C 
ATOM     14  C   UNL     1      12.555   8.476  21.697  1.00  0.00     0.017 C 
ATOM     15  C   UNL     1      11.449   6.707  20.038  1.00  0.00    -0.020 C 
ATOM     16  C   UNL     1      11.229   5.000  21.897  1.00  0.00     0.032 C 
ATOM     17  C   UNL     1      12.162   5.507  20.774  1.00  0.00     0.006 C 
ATOM     18  C   UNL     1      12.345   7.136  18.852  1.00  0.00     0.008 C 
ATOM     19  C   UNL     1      10.038   6.301  19.474  1.00  0.00     0.012 C 
ATOM     20  C   UNL     1      12.881   4.345  19.923  1.00  0.00    -0.025 C 
ATOM     21  C   UNL     1      12.672   5.971  17.920  1.00  0.00     0.005 C 
ATOM     22  C   UNL     1      13.579   4.919  18.612  1.00  0.00     0.003 C 
ATOM     23  C   UNL     1      11.892   3.192  19.557  1.00  0.00     0.010 C 
ATOM     24  C   UNL     1      13.987   3.743  20.860  1.00  0.00     0.012 C 
ATOM     25  C   UNL     1      14.118   3.817  17.588  1.00  0.00    -0.006 C 
ATOM     26  C   UNL     1      12.455   2.130  18.603  1.00  0.00     0.033 C 
ATOM     27  C   UNL     1      13.024   2.745  17.316  1.00  0.00     0.120 C 
ATOM     28  C   UNL     1      14.501   4.457  16.220  1.00  0.00     0.014 C 
ATOM     29  C   UNL     1      15.430   3.149  18.111  1.00  0.00     0.014 C 
ENDROOT
BRANCH   1  30
ATOM     30  C   UNL     1       9.947  10.909  22.931  1.00  0.00     0.048 C 
ATOM     31  O   UNL     1      10.672  10.884  23.960  1.00  0.00    -0.550 OA
ATOM     32  O   UNL     1       9.887  12.099  22.204  1.00  0.00    -0.550 OA
ENDBRANCH   1  30
BRANCH  27  33
ATOM     33  O   UNL     1      13.552   1.716  16.515  1.00  0.00    -0.393 OA
ATOM     34  H   UNL     1      14.464   1.988  16.234  1.00  0.00     0.210 HD
ENDBRANCH  27  33
TORSDOF 2
ENDMDL
MODEL 8
REMARK VINA RESULT:    -7.896      3.408      4.906
REMARK INTER + INTRA:          -8.929
REMARK INTER:                  -8.561
REMARK INTRA:                  -0.369
REMARK UNBOUND:                -0.341
REMARK SMILES C[C@H]1[C@H]2C3=CC[C@H]4[C@@]5(C)CC[C@H](O)C(C)(C)[C@H]5CC[C@]4(C)[C@@]3(C)CC[C@@]2(C(=O)[O-])CC[C@@H]1C
REMARK SMILES IDX 26 1 30 2 25 3 3 4 31 5 24 6 4 7 2 8 32 9 22 10 5 11 1 12
REMARK SMILES IDX 33 13 23 14 20 15 6 16 7 17 19 18 21 19 8 20 18 21 17 22
REMARK SMILES IDX 10 23 9 24 14 25 11 26 12 27 15 28 16 29 27 30 28 31 29 32
REMARK SMILES IDX 13 33
REMARK H PARENT 13 34
REMARK Flexibility Score: inf
ROOT
ATOM      1  C   UNL     1      10.686   8.055  22.540  1.00  0.00     0.017 C 
ATOM      2  C   UNL     1      12.212   7.836  22.792  1.00  0.00     0.014 C 
ATOM      3  C   UNL     1       9.989   7.478  23.801  1.00  0.00     0.014 C 
ATOM      4  C   UNL     1      10.163   7.321  21.231  1.00  0.00     0.030 C 
ATOM      5  C   UNL     1      13.106   8.075  21.572  1.00  0.00     0.004 C 
ATOM      6  C   UNL     1       8.463   7.545  23.765  1.00  0.00     0.013 C 
ATOM      7  C   UNL     1       8.861   6.484  21.438  1.00  0.00    -0.063 C 
ATOM      8  C   UNL     1      11.310   6.533  20.487  1.00  0.00    -0.003 C 
ATOM      9  C   UNL     1      12.606   7.374  20.287  1.00  0.00    -0.011 C 
ATOM     10  C   UNL     1       7.801   6.926  22.479  1.00  0.00    -0.006 C 
ATOM     11  C   UNL     1       8.519   5.534  20.523  1.00  0.00    -0.027 C 
ATOM     12  C   UNL     1      11.608   5.148  21.133  1.00  0.00     0.008 C 
ATOM     13  C   UNL     1      12.466   8.383  19.123  1.00  0.00     0.008 C 
ATOM     14  C   UNL     1       7.034   8.096  21.778  1.00  0.00     0.017 C 
ATOM     15  C   UNL     1       6.856   5.672  22.874  1.00  0.00    -0.020 C 
ATOM     16  C   UNL     1       7.377   4.560  20.658  1.00  0.00     0.032 C 
ATOM     17  C   UNL     1       6.228   5.076  21.554  1.00  0.00     0.006 C 
ATOM     18  C   UNL     1       5.693   6.089  23.805  1.00  0.00     0.008 C 
ATOM     19  C   UNL     1       7.748   4.622  23.631  1.00  0.00     0.012 C 
ATOM     20  C   UNL     1       4.948   4.103  21.631  1.00  0.00    -0.025 C 
ATOM     21  C   UNL     1       4.721   4.941  24.069  1.00  0.00     0.005 C 
ATOM     22  C   UNL     1       3.944   4.539  22.787  1.00  0.00     0.003 C 
ATOM     23  C   UNL     1       5.362   2.606  21.801  1.00  0.00     0.010 C 
ATOM     24  C   UNL     1       4.216   4.240  20.250  1.00  0.00     0.012 C 
ATOM     25  C   UNL     1       2.765   3.505  23.093  1.00  0.00    -0.006 C 
ATOM     26  C   UNL     1       4.201   1.634  22.054  1.00  0.00     0.033 C 
ATOM     27  C   UNL     1       3.331   2.063  23.244  1.00  0.00     0.120 C 
ATOM     28  C   UNL     1       2.029   3.863  24.419  1.00  0.00     0.014 C 
ATOM     29  C   UNL     1       1.665   3.555  21.986  1.00  0.00     0.014 C 
ENDROOT
BRANCH   1  30
ATOM     30  C   UNL     1      10.450   9.566  22.425  1.00  0.00     0.048 C 
ATOM     31  O   UNL     1      10.647  10.317  23.417  1.00  0.00    -0.550 OA
ATOM     32  O   UNL     1       9.972  10.149  21.250  1.00  0.00    -0.550 OA
ENDBRANCH   1  30
BRANCH  27  33
ATOM     33  O   UNL     1       2.273   1.148  23.387  1.00  0.00    -0.393 OA
ATOM     34  H   UNL     1       1.552   1.593  23.903  1.00  0.00     0.210 HD
ENDBRANCH  27  33
TORSDOF 2
ENDMDL
MODEL 9
REMARK VINA RESULT:    -7.882      3.362      5.827
REMARK INTER + INTRA:          -8.914
REMARK INTER:                  -8.548
REMARK INTRA:                  -0.366
REMARK UNBOUND:                -0.341
REMARK SMILES C[C@H]1[C@H]2C3=CC[C@H]4[C@@]5(C)CC[C@H](O)C(C)(C)[C@H]5CC[C@]4(C)[C@@]3(C)CC[C@@]2(C(=O)[O-])CC[C@@H]1C
REMARK SMILES IDX 26 1 30 2 25 3 3 4 31 5 24 6 4 7 2 8 32 9 22 10 5 11 1 12
REMARK SMILES IDX 33 13 23 14 20 15 6 16 7 17 19 18 21 19 8 20 18 21 17 22
REMARK SMILES IDX 10 23 9 24 14 25 11 26 12 27 15 28 16 29 27 30 28 31 29 32
REMARK SMILES IDX 13 33
REMARK H PARENT 13 34
REMARK Flexibility Score: inf
ROOT
ATOM      1  C   UNL     1       9.382   9.736  22.464  1.00  0.00     0.017 C 
ATOM      2  C   UNL     1       9.517  11.275  22.229  1.00  0.00     0.014 C 
ATOM      3  C   UNL     1       8.750   9.189  21.157  1.00  0.00     0.014 C 
ATOM      4  C   UNL     1       8.469   9.379  23.715  1.00  0.00     0.030 C 
ATOM      5  C   UNL     1       9.865  12.089  23.479  1.00  0.00     0.004 C 
ATOM      6  C   UNL     1       8.483   7.685  21.168  1.00  0.00     0.013 C 
ATOM      7  C   UNL     1       7.384   8.293  23.431  1.00  0.00    -0.063 C 
ATOM      8  C   UNL     1       7.902  10.666  24.430  1.00  0.00    -0.003 C 
ATOM      9  C   UNL     1       8.990  11.747  24.708  1.00  0.00    -0.011 C 
ATOM     10  C   UNL     1       7.652   7.167  22.399  1.00  0.00    -0.006 C 
ATOM     11  C   UNL     1       6.325   8.161  24.279  1.00  0.00    -0.027 C 
ATOM     12  C   UNL     1       6.659  11.263  23.706  1.00  0.00     0.008 C 
ATOM     13  C   UNL     1       9.866  11.384  25.929  1.00  0.00     0.008 C 
ATOM     14  C   UNL     1       8.579   6.160  23.157  1.00  0.00     0.017 C 
ATOM     15  C   UNL     1       6.251   6.520  21.909  1.00  0.00    -0.020 C 
ATOM     16  C   UNL     1       5.137   7.260  24.061  1.00  0.00     0.032 C 
ATOM     17  C   UNL     1       5.448   6.030  23.177  1.00  0.00     0.006 C 
ATOM     18  C   UNL     1       6.465   5.299  20.983  1.00  0.00     0.008 C 
ATOM     19  C   UNL     1       5.472   7.624  21.106  1.00  0.00     0.012 C 
ATOM     20  C   UNL     1       4.228   4.994  23.015  1.00  0.00    -0.025 C 
ATOM     21  C   UNL     1       5.153   4.602  20.630  1.00  0.00     0.005 C 
ATOM     22  C   UNL     1       4.509   3.925  21.869  1.00  0.00     0.003 C 
ATOM     23  C   UNL     1       2.871   5.725  22.760  1.00  0.00     0.010 C 
ATOM     24  C   UNL     1       4.112   4.242  24.387  1.00  0.00     0.012 C 
ATOM     25  C   UNL     1       3.266   3.001  21.477  1.00  0.00    -0.006 C 
ATOM     26  C   UNL     1       1.689   4.805  22.425  1.00  0.00     0.033 C 
ATOM     27  C   UNL     1       1.995   3.868  21.247  1.00  0.00     0.120 C 
ATOM     28  C   UNL     1       3.541   2.212  20.162  1.00  0.00     0.014 C 
ATOM     29  C   UNL     1       3.004   1.910  22.563  1.00  0.00     0.014 C 
ENDROOT
BRANCH   1  30
ATOM     30  C   UNL     1      10.796   9.176  22.669  1.00  0.00     0.048 C 
ATOM     31  O   UNL     1      11.065   8.494  23.692  1.00  0.00    -0.550 OA
ATOM     32  O   UNL     1      11.829   9.438  21.767  1.00  0.00    -0.550 OA
ENDBRANCH   1  30
BRANCH  27  33
ATOM     33  O   UNL     1       0.882   3.036  21.027  1.00  0.00    -0.393 OA
ATOM     34  H   UNL     1       0.735   2.977  20.048  1.00  0.00     0.210 HD
ENDBRANCH  27  33
TORSDOF 2
ENDMDL
