MODEL 1
REMARK VINA RESULT:    -5.570      0.000      0.000
REMARK INTER + INTRA:          -9.870
REMARK INTER:                  -8.175
REMARK INTRA:                  -1.695
REMARK UNBOUND:                -1.695
REMARK SMILES O=c1c(O[C@@H]2O[C@H](CO)[C@H](O)[C@@H](O)[C@@H]2O)c(-c2ccc(O)c(O)c2)oc2cc(O)cc(O)c12
REMARK SMILES IDX 4 1 3 2 16 3 25 4 2 5 26 6 1 7 33 8 27 9 31 10 28 11 30 12
REMARK SMILES IDX 17 13 18 14 19 15 20 16 24 17 22 18 21 19 23 21 32 23 29 25
REMARK SMILES IDX 5 27 14 28 6 29 12 30 7 31 10 32 15 33 13 35 8 37 9 38 11 40
REMARK H PARENT 21 20 23 22 32 24 29 26 15 34 13 36 9 39 11 41
REMARK Flexibility Score: inf
ROOT
ATOM      1  O   UNL     1      -9.184   3.450 -26.846  1.00  0.00    -0.454 OA
ENDROOT
BRANCH   1   2
ATOM      2  C   UNL     1      -8.346   4.576 -26.817  1.00  0.00     0.214 A 
ATOM      3  C   UNL     1      -8.588   5.678 -25.966  1.00  0.00     0.180 A 
ATOM      4  O   UNL     1      -7.710   6.677 -25.920  1.00  0.00    -0.452 OA
ATOM      5  C   UNL     1      -7.245   4.624 -27.683  1.00  0.00     0.239 A 
ATOM      6  C   UNL     1      -6.620   6.730 -26.676  1.00  0.00     0.146 A 
ATOM      7  O   UNL     1      -7.072   3.686 -28.509  1.00  0.00    -0.285 OA
ATOM      8  C   UNL     1      -6.346   5.707 -27.612  1.00  0.00     0.111 A 
ATOM      9  C   UNL     1      -5.750   7.816 -26.543  1.00  0.00     0.094 A 
ATOM     10  C   UNL     1      -5.186   5.804 -28.420  1.00  0.00     0.134 A 
ATOM     11  C   UNL     1      -4.601   7.901 -27.337  1.00  0.00     0.123 A 
ATOM     12  C   UNL     1      -4.326   6.902 -28.272  1.00  0.00     0.093 A 
BRANCH   3  13
ATOM     13  C   UNL     1      -9.798   5.788 -25.120  1.00  0.00     0.025 A 
ATOM     14  C   UNL     1     -11.071   5.996 -25.681  1.00  0.00     0.016 A 
ATOM     15  C   UNL     1     -12.198   6.076 -24.860  1.00  0.00     0.051 A 
ATOM     16  C   UNL     1     -12.072   5.975 -23.471  1.00  0.00     0.157 A 
ATOM     17  C   UNL     1      -9.672   5.713 -23.722  1.00  0.00     0.062 A 
ATOM     18  C   UNL     1     -10.803   5.801 -22.898  1.00  0.00     0.158 A 
BRANCH  16  19
ATOM     19  O   UNL     1     -13.216   6.053 -22.677  1.00  0.00    -0.504 OA
ATOM     20  H   UNL     1     -14.147   6.016 -23.072  1.00  0.00     0.293 HD
ENDBRANCH  16  19
BRANCH  18  21
ATOM     21  O   UNL     1     -10.666   5.709 -21.514  1.00  0.00    -0.504 OA
ATOM     22  H   UNL     1     -11.445   5.891 -20.890  1.00  0.00     0.293 HD
ENDBRANCH  18  21
ENDBRANCH   3  13
BRANCH  10  23
ATOM     23  O   UNL     1      -4.882   4.819 -29.362  1.00  0.00    -0.507 OA
ATOM     24  H   UNL     1      -3.939   4.465 -29.478  1.00  0.00     0.293 HD
ENDBRANCH  10  23
BRANCH  11  25
ATOM     25  O   UNL     1      -3.726   8.977 -27.204  1.00  0.00    -0.508 OA
ATOM     26  H   UNL     1      -4.060   9.906 -26.977  1.00  0.00     0.293 HD
ENDBRANCH  11  25
ENDBRANCH   1   2
BRANCH   1  27
ATOM     27  C   UNL     1      -9.217   2.421 -25.846  1.00  0.00     0.339 C 
ATOM     28  C   UNL     1      -9.161   1.003 -26.463  1.00  0.00     0.214 C 
ATOM     29  O   UNL     1      -8.161   2.573 -24.920  1.00  0.00    -0.332 OA
ATOM     30  C   UNL     1      -8.773  -0.054 -25.392  1.00  0.00     0.180 C 
ATOM     31  C   UNL     1      -8.414   1.847 -23.722  1.00  0.00     0.179 C 
ATOM     32  C   UNL     1      -9.084   0.448 -23.973  1.00  0.00     0.177 C 
BRANCH  28  33
ATOM     33  O   UNL     1      -8.221   0.963 -27.503  1.00  0.00    -0.384 OA
ATOM     34  H   UNL     1      -7.884   0.031 -27.552  1.00  0.00     0.211 HD
ENDBRANCH  28  33
BRANCH  30  35
ATOM     35  O   UNL     1      -9.469  -1.252 -25.624  1.00  0.00    -0.387 OA
ATOM     36  H   UNL     1      -9.739  -1.244 -26.580  1.00  0.00     0.211 HD
ENDBRANCH  30  35
BRANCH  31  37
ATOM     37  C   UNL     1      -7.093   1.753 -22.937  1.00  0.00     0.191 C 
BRANCH  37  38
ATOM     38  O   UNL     1      -7.327   1.684 -21.556  1.00  0.00    -0.394 OA
ATOM     39  H   UNL     1      -6.899   0.846 -21.237  1.00  0.00     0.210 HD
ENDBRANCH  37  38
ENDBRANCH  31  37
BRANCH  32  40
ATOM     40  O   UNL     1      -8.678  -0.512 -23.031  1.00  0.00    -0.387 OA
ATOM     41  H   UNL     1      -8.587  -0.040 -22.163  1.00  0.00     0.211 HD
ENDBRANCH  32  40
ENDBRANCH   1  27
TORSDOF 12
ENDMDL
MODEL 2
REMARK VINA RESULT:    -5.386     12.595     15.130
REMARK INTER + INTRA:          -9.600
REMARK INTER:                  -7.865
REMARK INTRA:                  -1.735
REMARK UNBOUND:                -1.695
REMARK SMILES O=c1c(O[C@@H]2O[C@H](CO)[C@H](O)[C@@H](O)[C@@H]2O)c(-c2ccc(O)c(O)c2)oc2cc(O)cc(O)c12
REMARK SMILES IDX 4 1 3 2 16 3 25 4 2 5 26 6 1 7 33 8 27 9 31 10 28 11 30 12
REMARK SMILES IDX 17 13 18 14 19 15 20 16 24 17 22 18 21 19 23 21 32 23 29 25
REMARK SMILES IDX 5 27 14 28 6 29 12 30 7 31 10 32 15 33 13 35 8 37 9 38 11 40
REMARK H PARENT 21 20 23 22 32 24 29 26 15 34 13 36 9 39 11 41
REMARK Flexibility Score: inf
ROOT
ATOM      1  O   UNL     1     -16.133   3.612 -35.111  1.00  0.00    -0.454 OA
ENDROOT
BRANCH   1   2
ATOM      2  C   UNL     1     -16.937   4.762 -35.072  1.00  0.00     0.214 A 
ATOM      3  C   UNL     1     -16.613   5.938 -35.787  1.00  0.00     0.180 A 
ATOM      4  O   UNL     1     -17.458   6.964 -35.781  1.00  0.00    -0.452 OA
ATOM      5  C   UNL     1     -18.090   4.758 -34.274  1.00  0.00     0.239 A 
ATOM      6  C   UNL     1     -18.592   6.975 -35.092  1.00  0.00     0.146 A 
ATOM      7  O   UNL     1     -18.341   3.745 -33.563  1.00  0.00    -0.285 OA
ATOM      8  C   UNL     1     -18.953   5.871 -34.285  1.00  0.00     0.111 A 
ATOM      9  C   UNL     1     -19.423   8.098 -35.162  1.00  0.00     0.094 A 
ATOM     10  C   UNL     1     -20.159   5.923 -33.544  1.00  0.00     0.134 A 
ATOM     11  C   UNL     1     -20.617   8.139 -34.435  1.00  0.00     0.123 A 
ATOM     12  C   UNL     1     -20.978   7.059 -33.628  1.00  0.00     0.093 A 
BRANCH   3  13
ATOM     13  C   UNL     1     -15.348   6.093 -36.542  1.00  0.00     0.025 A 
ATOM     14  C   UNL     1     -14.112   6.231 -35.885  1.00  0.00     0.016 A 
ATOM     15  C   UNL     1     -12.933   6.357 -36.623  1.00  0.00     0.051 A 
ATOM     16  C   UNL     1     -12.969   6.372 -38.021  1.00  0.00     0.157 A 
ATOM     17  C   UNL     1     -15.384   6.135 -37.946  1.00  0.00     0.062 A 
ATOM     18  C   UNL     1     -14.200   6.269 -38.686  1.00  0.00     0.158 A 
BRANCH  16  19
ATOM     19  O   UNL     1     -11.775   6.493 -38.730  1.00  0.00    -0.504 OA
ATOM     20  H   UNL     1     -11.367   7.394 -38.947  1.00  0.00     0.293 HD
ENDBRANCH  16  19
BRANCH  18  21
ATOM     21  O   UNL     1     -14.247   6.294 -40.079  1.00  0.00    -0.504 OA
ATOM     22  H   UNL     1     -13.433   6.535 -40.634  1.00  0.00     0.293 HD
ENDBRANCH  18  21
ENDBRANCH   3  13
BRANCH  10  23
ATOM     23  O   UNL     1     -20.549   4.857 -32.731  1.00  0.00    -0.507 OA
ATOM     24  H   UNL     1     -20.377   3.894 -32.996  1.00  0.00     0.293 HD
ENDBRANCH  10  23
BRANCH  11  25
ATOM     25  O   UNL     1     -21.453   9.251 -34.507  1.00  0.00    -0.508 OA
ATOM     26  H   UNL     1     -21.124  10.178 -34.261  1.00  0.00     0.293 HD
ENDBRANCH  11  25
ENDBRANCH   1   2
BRANCH   1  27
ATOM     27  C   UNL     1     -16.141   2.636 -36.164  1.00  0.00     0.339 C 
ATOM     28  C   UNL     1     -16.193   1.189 -35.619  1.00  0.00     0.214 C 
ATOM     29  O   UNL     1     -17.223   2.845 -37.048  1.00  0.00    -0.332 OA
ATOM     30  C   UNL     1     -16.623   0.192 -36.731  1.00  0.00     0.180 C 
ATOM     31  C   UNL     1     -17.012   2.180 -38.289  1.00  0.00     0.179 C 
ATOM     32  C   UNL     1     -16.350   0.764 -38.131  1.00  0.00     0.177 C 
BRANCH  28  33
ATOM     33  O   UNL     1     -17.102   1.103 -34.554  1.00  0.00    -0.384 OA
ATOM     34  H   UNL     1     -17.153   0.146 -34.295  1.00  0.00     0.211 HD
ENDBRANCH  28  33
BRANCH  30  35
ATOM     35  O   UNL     1     -15.933  -1.023 -36.582  1.00  0.00    -0.387 OA
ATOM     36  H   UNL     1     -16.549  -1.645 -36.111  1.00  0.00     0.211 HD
ENDBRANCH  30  35
BRANCH  31  37
ATOM     37  C   UNL     1     -18.357   2.138 -39.037  1.00  0.00     0.191 C 
BRANCH  37  38
ATOM     38  O   UNL     1     -18.170   1.882 -40.403  1.00  0.00    -0.394 OA
ATOM     39  H   UNL     1     -17.206   2.035 -40.591  1.00  0.00     0.210 HD
ENDBRANCH  37  38
ENDBRANCH  31  37
BRANCH  32  40
ATOM     40  O   UNL     1     -16.793  -0.142 -39.108  1.00  0.00    -0.387 OA
ATOM     41  H   UNL     1     -17.446   0.346 -39.675  1.00  0.00     0.211 HD
ENDBRANCH  32  40
ENDBRANCH   1  27
TORSDOF 12
ENDMDL
MODEL 3
REMARK VINA RESULT:    -5.338     12.542     14.828
REMARK INTER + INTRA:          -9.529
REMARK INTER:                  -7.960
REMARK INTRA:                  -1.569
REMARK UNBOUND:                -1.695
REMARK SMILES O=c1c(O[C@@H]2O[C@H](CO)[C@H](O)[C@@H](O)[C@@H]2O)c(-c2ccc(O)c(O)c2)oc2cc(O)cc(O)c12
REMARK SMILES IDX 4 1 3 2 16 3 25 4 2 5 26 6 1 7 33 8 27 9 31 10 28 11 30 12
REMARK SMILES IDX 17 13 18 14 19 15 20 16 24 17 22 18 21 19 23 21 32 23 29 25
REMARK SMILES IDX 5 27 14 28 6 29 12 30 7 31 10 32 15 33 13 35 8 37 9 38 11 40
REMARK H PARENT 21 20 23 22 32 24 29 26 15 34 13 36 9 39 11 41
REMARK Flexibility Score: inf
ROOT
ATOM      1  O   UNL     1     -15.875  -1.158 -37.028  1.00  0.00    -0.454 OA
ENDROOT
BRANCH   1   2
ATOM      2  C   UNL     1     -15.591   0.202 -36.827  1.00  0.00     0.214 A 
ATOM      3  C   UNL     1     -14.687   0.649 -35.836  1.00  0.00     0.180 A 
ATOM      4  O   UNL     1     -14.393   1.943 -35.751  1.00  0.00    -0.452 OA
ATOM      5  C   UNL     1     -16.247   1.156 -37.617  1.00  0.00     0.239 A 
ATOM      6  C   UNL     1     -14.942   2.871 -36.525  1.00  0.00     0.146 A 
ATOM      7  O   UNL     1     -17.120   0.773 -38.443  1.00  0.00    -0.285 OA
ATOM      8  C   UNL     1     -15.915   2.520 -37.487  1.00  0.00     0.111 A 
ATOM      9  C   UNL     1     -14.555   4.206 -36.369  1.00  0.00     0.094 A 
ATOM     10  C   UNL     1     -16.499   3.537 -38.282  1.00  0.00     0.134 A 
ATOM     11  C   UNL     1     -15.128   5.205 -37.163  1.00  0.00     0.123 A 
ATOM     12  C   UNL     1     -16.098   4.870 -38.110  1.00  0.00     0.093 A 
BRANCH   3  13
ATOM     13  C   UNL     1     -14.054  -0.266 -34.858  1.00  0.00     0.025 A 
ATOM     14  C   UNL     1     -14.494  -0.335 -33.523  1.00  0.00     0.016 A 
ATOM     15  C   UNL     1     -13.890  -1.220 -32.628  1.00  0.00     0.051 A 
ATOM     16  C   UNL     1     -12.827  -2.030 -33.040  1.00  0.00     0.157 A 
ATOM     17  C   UNL     1     -12.968  -1.062 -35.261  1.00  0.00     0.062 A 
ATOM     18  C   UNL     1     -12.358  -1.946 -34.360  1.00  0.00     0.158 A 
BRANCH  16  19
ATOM     19  O   UNL     1     -12.249  -2.909 -32.124  1.00  0.00    -0.504 OA
ATOM     20  H   UNL     1     -12.795  -3.390 -31.422  1.00  0.00     0.293 HD
ENDBRANCH  16  19
BRANCH  18  21
ATOM     21  O   UNL     1     -11.292  -2.742 -34.776  1.00  0.00    -0.504 OA
ATOM     22  H   UNL     1     -11.164  -2.990 -35.751  1.00  0.00     0.293 HD
ENDBRANCH  18  21
ENDBRANCH   3  13
BRANCH  10  23
ATOM     23  O   UNL     1     -17.469   3.233 -39.239  1.00  0.00    -0.507 OA
ATOM     24  H   UNL     1     -18.344   2.787 -38.990  1.00  0.00     0.293 HD
ENDBRANCH  10  23
BRANCH  11  25
ATOM     25  O   UNL     1     -14.741   6.535 -37.018  1.00  0.00    -0.508 OA
ATOM     26  H   UNL     1     -13.809   6.846 -37.270  1.00  0.00     0.293 HD
ENDBRANCH  11  25
ENDBRANCH   1   2
BRANCH   1  27
ATOM     27  C   UNL     1     -15.150  -2.030 -37.908  1.00  0.00     0.339 C 
ATOM     28  C   UNL     1     -16.090  -2.931 -38.743  1.00  0.00     0.214 C 
ATOM     29  O   UNL     1     -14.308  -1.298 -38.775  1.00  0.00    -0.332 OA
ATOM     30  C   UNL     1     -15.340  -3.541 -39.960  1.00  0.00     0.180 C 
ATOM     31  C   UNL     1     -13.301  -2.129 -39.343  1.00  0.00     0.179 C 
ATOM     32  C   UNL     1     -13.821  -3.561 -39.727  1.00  0.00     0.177 C 
BRANCH  28  33
ATOM     33  O   UNL     1     -17.187  -2.191 -39.209  1.00  0.00    -0.384 OA
ATOM     34  H   UNL     1     -16.928  -1.233 -39.165  1.00  0.00     0.211 HD
ENDBRANCH  28  33
BRANCH  30  35
ATOM     35  O   UNL     1     -15.792  -4.850 -40.197  1.00  0.00    -0.387 OA
ATOM     36  H   UNL     1     -14.984  -5.406 -40.357  1.00  0.00     0.211 HD
ENDBRANCH  30  35
BRANCH  31  37
ATOM     37  C   UNL     1     -12.677  -1.373 -40.530  1.00  0.00     0.191 C 
BRANCH  37  38
ATOM     38  O   UNL     1     -13.606  -0.507 -41.125  1.00  0.00    -0.394 OA
ATOM     39  H   UNL     1     -13.632   0.311 -40.562  1.00  0.00     0.210 HD
ENDBRANCH  37  38
ENDBRANCH  31  37
BRANCH  32  40
ATOM     40  O   UNL     1     -13.174  -4.074 -40.863  1.00  0.00    -0.387 OA
ATOM     41  H   UNL     1     -12.241  -3.737 -40.837  1.00  0.00     0.211 HD
ENDBRANCH  32  40
ENDBRANCH   1  27
TORSDOF 12
ENDMDL
MODEL 4
REMARK VINA RESULT:    -5.203     11.576     14.038
REMARK INTER + INTRA:          -9.331
REMARK INTER:                  -7.497
REMARK INTRA:                  -1.834
REMARK UNBOUND:                -1.695
REMARK SMILES O=c1c(O[C@@H]2O[C@H](CO)[C@H](O)[C@@H](O)[C@@H]2O)c(-c2ccc(O)c(O)c2)oc2cc(O)cc(O)c12
REMARK SMILES IDX 4 1 3 2 16 3 25 4 2 5 26 6 1 7 33 8 27 9 31 10 28 11 30 12
REMARK SMILES IDX 17 13 18 14 19 15 20 16 24 17 22 18 21 19 23 21 32 23 29 25
REMARK SMILES IDX 5 27 14 28 6 29 12 30 7 31 10 32 15 33 13 35 8 37 9 38 11 40
REMARK H PARENT 21 20 23 22 32 24 29 26 15 34 13 36 9 39 11 41
REMARK Flexibility Score: inf
ROOT
ATOM      1  O   UNL     1     -14.520   3.834 -34.608  1.00  0.00    -0.454 OA
ENDROOT
BRANCH   1   2
ATOM      2  C   UNL     1     -15.271   3.029 -35.479  1.00  0.00     0.214 A 
ATOM      3  C   UNL     1     -16.639   3.268 -35.742  1.00  0.00     0.180 A 
ATOM      4  O   UNL     1     -17.275   2.525 -36.643  1.00  0.00    -0.452 OA
ATOM      5  C   UNL     1     -14.652   1.931 -36.090  1.00  0.00     0.239 A 
ATOM      6  C   UNL     1     -16.706   1.517 -37.293  1.00  0.00     0.146 A 
ATOM      7  O   UNL     1     -13.456   1.657 -35.794  1.00  0.00    -0.285 OA
ATOM      8  C   UNL     1     -15.364   1.159 -37.031  1.00  0.00     0.111 A 
ATOM      9  C   UNL     1     -17.454   0.803 -38.235  1.00  0.00     0.094 A 
ATOM     10  C   UNL     1     -14.792   0.064 -37.724  1.00  0.00     0.134 A 
ATOM     11  C   UNL     1     -16.881  -0.271 -38.924  1.00  0.00     0.123 A 
ATOM     12  C   UNL     1     -15.560  -0.639 -38.665  1.00  0.00     0.093 A 
BRANCH   3  13
ATOM     13  C   UNL     1     -17.420   4.312 -35.039  1.00  0.00     0.025 A 
ATOM     14  C   UNL     1     -18.083   4.044 -33.827  1.00  0.00     0.016 A 
ATOM     15  C   UNL     1     -18.796   5.054 -33.177  1.00  0.00     0.051 A 
ATOM     16  C   UNL     1     -18.880   6.334 -33.733  1.00  0.00     0.157 A 
ATOM     17  C   UNL     1     -17.528   5.593 -35.608  1.00  0.00     0.062 A 
ATOM     18  C   UNL     1     -18.250   6.604 -34.958  1.00  0.00     0.158 A 
BRANCH  16  19
ATOM     19  O   UNL     1     -19.594   7.323 -33.057  1.00  0.00    -0.504 OA
ATOM     20  H   UNL     1     -20.396   7.784 -33.469  1.00  0.00     0.293 HD
ENDBRANCH  16  19
BRANCH  18  21
ATOM     21  O   UNL     1     -18.337   7.874 -35.524  1.00  0.00    -0.504 OA
ATOM     22  H   UNL     1     -18.468   8.702 -34.954  1.00  0.00     0.293 HD
ENDBRANCH  18  21
ENDBRANCH   3  13
BRANCH  10  23
ATOM     23  O   UNL     1     -13.473  -0.326 -37.490  1.00  0.00    -0.507 OA
ATOM     24  H   UNL     1     -12.721  -0.067 -38.119  1.00  0.00     0.293 HD
ENDBRANCH  10  23
BRANCH  11  25
ATOM     25  O   UNL     1     -17.619  -0.981 -39.869  1.00  0.00    -0.508 OA
ATOM     26  H   UNL     1     -17.168  -1.476 -40.629  1.00  0.00     0.293 HD
ENDBRANCH  11  25
ENDBRANCH   1   2
BRANCH   1  27
ATOM     27  C   UNL     1     -13.821   5.029 -34.986  1.00  0.00     0.339 C 
ATOM     28  C   UNL     1     -12.353   5.028 -34.496  1.00  0.00     0.214 C 
ATOM     29  O   UNL     1     -13.848   5.217 -36.387  1.00  0.00    -0.332 OA
ATOM     30  C   UNL     1     -11.512   6.091 -35.256  1.00  0.00     0.180 C 
ATOM     31  C   UNL     1     -13.543   6.563 -36.735  1.00  0.00     0.179 C 
ATOM     32  C   UNL     1     -12.407   7.191 -35.850  1.00  0.00     0.177 C 
BRANCH  28  33
ATOM     33  O   UNL     1     -11.776   3.765 -34.694  1.00  0.00    -0.384 OA
ATOM     34  H   UNL     1     -11.359   3.776 -35.594  1.00  0.00     0.211 HD
ENDBRANCH  28  33
BRANCH  30  35
ATOM     35  O   UNL     1     -10.573   6.673 -34.388  1.00  0.00    -0.387 OA
ATOM     36  H   UNL     1     -10.641   6.184 -33.526  1.00  0.00     0.211 HD
ENDBRANCH  30  35
BRANCH  31  37
ATOM     37  C   UNL     1     -13.228   6.603 -38.241  1.00  0.00     0.191 C 
BRANCH  37  38
ATOM     38  O   UNL     1     -13.643   7.814 -38.814  1.00  0.00    -0.394 OA
ATOM     39  H   UNL     1     -14.615   7.898 -38.628  1.00  0.00     0.210 HD
ENDBRANCH  37  38
ENDBRANCH  31  37
BRANCH  32  40
ATOM     40  O   UNL     1     -11.619   8.106 -36.568  1.00  0.00    -0.387 OA
ATOM     41  H   UNL     1     -11.905   9.013 -36.283  1.00  0.00     0.211 HD
ENDBRANCH  32  40
ENDBRANCH   1  27
TORSDOF 12
ENDMDL
MODEL 5
REMARK VINA RESULT:    -5.200     12.428     15.012
REMARK INTER + INTRA:          -9.327
REMARK INTER:                  -8.568
REMARK INTRA:                  -0.758
REMARK UNBOUND:                -1.695
REMARK SMILES O=c1c(O[C@@H]2O[C@H](CO)[C@H](O)[C@@H](O)[C@@H]2O)c(-c2ccc(O)c(O)c2)oc2cc(O)cc(O)c12
REMARK SMILES IDX 4 1 3 2 16 3 25 4 2 5 26 6 1 7 33 8 27 9 31 10 28 11 30 12
REMARK SMILES IDX 17 13 18 14 19 15 20 16 24 17 22 18 21 19 23 21 32 23 29 25
REMARK SMILES IDX 5 27 14 28 6 29 12 30 7 31 10 32 15 33 13 35 8 37 9 38 11 40
REMARK H PARENT 21 20 23 22 32 24 29 26 15 34 13 36 9 39 11 41
REMARK Flexibility Score: inf
ROOT
ATOM      1  O   UNL     1     -12.189   4.419 -40.013  1.00  0.00    -0.454 OA
ENDROOT
BRANCH   1   2
ATOM      2  C   UNL     1     -12.418   3.127 -39.515  1.00  0.00     0.214 A 
ATOM      3  C   UNL     1     -13.386   2.859 -38.520  1.00  0.00     0.180 A 
ATOM      4  O   UNL     1     -13.619   1.603 -38.151  1.00  0.00    -0.452 OA
ATOM      5  C   UNL     1     -11.642   2.065 -39.999  1.00  0.00     0.239 A 
ATOM      6  C   UNL     1     -12.951   0.562 -38.634  1.00  0.00     0.146 A 
ATOM      7  O   UNL     1     -10.715   2.307 -40.822  1.00  0.00    -0.285 OA
ATOM      8  C   UNL     1     -11.911   0.749 -39.573  1.00  0.00     0.111 A 
ATOM      9  C   UNL     1     -13.280  -0.724 -38.194  1.00  0.00     0.094 A 
ATOM     10  C   UNL     1     -11.202  -0.380 -40.052  1.00  0.00     0.134 A 
ATOM     11  C   UNL     1     -12.582  -1.836 -38.678  1.00  0.00     0.123 A 
ATOM     12  C   UNL     1     -11.547  -1.661 -39.598  1.00  0.00     0.093 A 
BRANCH   3  13
ATOM     13  C   UNL     1     -14.156   3.928 -37.843  1.00  0.00     0.025 A 
ATOM     14  C   UNL     1     -15.419   4.334 -38.310  1.00  0.00     0.016 A 
ATOM     15  C   UNL     1     -16.130   5.331 -37.640  1.00  0.00     0.051 A 
ATOM     16  C   UNL     1     -15.586   5.955 -36.513  1.00  0.00     0.157 A 
ATOM     17  C   UNL     1     -13.601   4.575 -36.725  1.00  0.00     0.062 A 
ATOM     18  C   UNL     1     -14.313   5.581 -36.057  1.00  0.00     0.158 A 
BRANCH  16  19
ATOM     19  O   UNL     1     -16.323   6.943 -35.861  1.00  0.00    -0.504 OA
ATOM     20  H   UNL     1     -16.801   7.679 -36.366  1.00  0.00     0.293 HD
ENDBRANCH  16  19
BRANCH  18  21
ATOM     21  O   UNL     1     -13.758   6.205 -34.940  1.00  0.00    -0.504 OA
ATOM     22  H   UNL     1     -14.252   6.936 -34.440  1.00  0.00     0.293 HD
ENDBRANCH  18  21
ENDBRANCH   3  13
BRANCH  10  23
ATOM     23  O   UNL     1     -10.164  -0.238 -40.975  1.00  0.00    -0.507 OA
ATOM     24  H   UNL     1      -9.250  -0.647 -40.817  1.00  0.00     0.293 HD
ENDBRANCH  10  23
BRANCH  11  25
ATOM     25  O   UNL     1     -12.911  -3.120 -38.249  1.00  0.00    -0.508 OA
ATOM     26  H   UNL     1     -12.579  -3.943 -38.739  1.00  0.00     0.293 HD
ENDBRANCH  11  25
ENDBRANCH   1   2
BRANCH   1  27
ATOM     27  C   UNL     1     -12.057   5.601 -39.209  1.00  0.00     0.339 C 
ATOM     28  C   UNL     1     -10.630   5.760 -38.633  1.00  0.00     0.214 C 
ATOM     29  O   UNL     1     -12.400   6.759 -39.942  1.00  0.00    -0.332 OA
ATOM     30  C   UNL     1     -10.388   7.214 -38.140  1.00  0.00     0.180 C 
ATOM     31  C   UNL     1     -12.678   7.855 -39.076  1.00  0.00     0.179 C 
ATOM     32  C   UNL     1     -11.715   7.929 -37.838  1.00  0.00     0.177 C 
BRANCH  28  33
ATOM     33  O   UNL     1      -9.673   5.446 -39.611  1.00  0.00    -0.384 OA
ATOM     34  H   UNL     1      -8.941   6.110 -39.522  1.00  0.00     0.211 HD
ENDBRANCH  28  33
BRANCH  30  35
ATOM     35  O   UNL     1      -9.590   7.204 -36.984  1.00  0.00    -0.387 OA
ATOM     36  H   UNL     1      -9.110   8.073 -36.962  1.00  0.00     0.211 HD
ENDBRANCH  30  35
BRANCH  31  37
ATOM     37  C   UNL     1     -12.674   9.140 -39.924  1.00  0.00     0.191 C 
BRANCH  37  38
ATOM     38  O   UNL     1     -13.695  10.015 -39.526  1.00  0.00    -0.394 OA
ATOM     39  H   UNL     1     -13.824  10.659 -40.271  1.00  0.00     0.210 HD
ENDBRANCH  37  38
ENDBRANCH  31  37
BRANCH  32  40
ATOM     40  O   UNL     1     -11.460   9.252 -37.441  1.00  0.00    -0.387 OA
ATOM     41  H   UNL     1     -10.638   9.231 -36.885  1.00  0.00     0.211 HD
ENDBRANCH  32  40
ENDBRANCH   1  27
TORSDOF 12
ENDMDL
MODEL 6
REMARK VINA RESULT:    -5.189     11.171     14.120
REMARK INTER + INTRA:          -9.311
REMARK INTER:                  -7.915
REMARK INTRA:                  -1.396
REMARK UNBOUND:                -1.695
REMARK SMILES O=c1c(O[C@@H]2O[C@H](CO)[C@H](O)[C@@H](O)[C@@H]2O)c(-c2ccc(O)c(O)c2)oc2cc(O)cc(O)c12
REMARK SMILES IDX 4 1 3 2 16 3 25 4 2 5 26 6 1 7 33 8 27 9 31 10 28 11 30 12
REMARK SMILES IDX 17 13 18 14 19 15 20 16 24 17 22 18 21 19 23 21 32 23 29 25
REMARK SMILES IDX 5 27 14 28 6 29 12 30 7 31 10 32 15 33 13 35 8 37 9 38 11 40
REMARK H PARENT 21 20 23 22 32 24 29 26 15 34 13 36 9 39 11 41
REMARK Flexibility Score: inf
ROOT
ATOM      1  O   UNL     1     -14.331   6.063 -36.589  1.00  0.00    -0.454 OA
ENDROOT
BRANCH   1   2
ATOM      2  C   UNL     1     -14.554   4.790 -36.040  1.00  0.00     0.214 A 
ATOM      3  C   UNL     1     -13.656   4.192 -35.126  1.00  0.00     0.180 A 
ATOM      4  O   UNL     1     -13.965   3.022 -34.573  1.00  0.00    -0.452 OA
ATOM      5  C   UNL     1     -15.691   4.072 -36.433  1.00  0.00     0.239 A 
ATOM      6  C   UNL     1     -15.065   2.340 -34.868  1.00  0.00     0.146 A 
ATOM      7  O   UNL     1     -16.451   4.559 -37.315  1.00  0.00    -0.285 OA
ATOM      8  C   UNL     1     -15.976   2.828 -35.833  1.00  0.00     0.111 A 
ATOM      9  C   UNL     1     -15.308   1.124 -34.221  1.00  0.00     0.094 A 
ATOM     10  C   UNL     1     -17.128   2.066 -36.142  1.00  0.00     0.134 A 
ATOM     11  C   UNL     1     -16.453   0.381 -34.524  1.00  0.00     0.123 A 
ATOM     12  C   UNL     1     -17.354   0.849 -35.482  1.00  0.00     0.093 A 
BRANCH   3  13
ATOM     13  C   UNL     1     -12.359   4.805 -34.759  1.00  0.00     0.025 A 
ATOM     14  C   UNL     1     -11.136   4.221 -35.137  1.00  0.00     0.016 A 
ATOM     15  C   UNL     1      -9.929   4.831 -34.792  1.00  0.00     0.051 A 
ATOM     16  C   UNL     1      -9.919   6.015 -34.049  1.00  0.00     0.157 A 
ATOM     17  C   UNL     1     -12.345   5.980 -33.989  1.00  0.00     0.062 A 
ATOM     18  C   UNL     1     -11.132   6.589 -33.637  1.00  0.00     0.158 A 
BRANCH  16  19
ATOM     19  O   UNL     1      -8.697   6.605 -33.726  1.00  0.00    -0.504 OA
ATOM     20  H   UNL     1      -8.628   7.378 -33.076  1.00  0.00     0.293 HD
ENDBRANCH  16  19
BRANCH  18  21
ATOM     21  O   UNL     1     -11.131   7.764 -32.887  1.00  0.00    -0.504 OA
ATOM     22  H   UNL     1     -10.892   8.658 -33.301  1.00  0.00     0.293 HD
ENDBRANCH  18  21
ENDBRANCH   3  13
BRANCH  10  23
ATOM     23  O   UNL     1     -18.050   2.509 -37.092  1.00  0.00    -0.507 OA
ATOM     24  H   UNL     1     -18.568   3.372 -36.971  1.00  0.00     0.293 HD
ENDBRANCH  10  23
BRANCH  11  25
ATOM     25  O   UNL     1     -16.705  -0.827 -33.877  1.00  0.00    -0.508 OA
ATOM     26  H   UNL     1     -17.032  -1.642 -34.384  1.00  0.00     0.293 HD
ENDBRANCH  11  25
ENDBRANCH   1   2
BRANCH   1  27
ATOM     27  C   UNL     1     -13.347   6.369 -37.588  1.00  0.00     0.339 C 
ATOM     28  C   UNL     1     -13.748   5.837 -38.985  1.00  0.00     0.214 C 
ATOM     29  O   UNL     1     -13.111   7.760 -37.665  1.00  0.00    -0.332 OA
ATOM     30  C   UNL     1     -12.915   6.526 -40.102  1.00  0.00     0.180 C 
ATOM     31  C   UNL     1     -11.880   8.041 -38.323  1.00  0.00     0.179 C 
ATOM     32  C   UNL     1     -11.601   7.097 -39.547  1.00  0.00     0.177 C 
BRANCH  28  33
ATOM     33  O   UNL     1     -15.110   6.072 -39.223  1.00  0.00    -0.384 OA
ATOM     34  H   UNL     1     -15.617   5.473 -38.614  1.00  0.00     0.211 HD
ENDBRANCH  28  33
BRANCH  30  35
ATOM     35  O   UNL     1     -12.628   5.607 -41.125  1.00  0.00    -0.387 OA
ATOM     36  H   UNL     1     -13.066   5.950 -41.948  1.00  0.00     0.211 HD
ENDBRANCH  30  35
BRANCH  31  37
ATOM     37  C   UNL     1     -11.872   9.534 -38.696  1.00  0.00     0.191 C 
BRANCH  37  38
ATOM     38  O   UNL     1     -12.962   9.858 -39.517  1.00  0.00    -0.394 OA
ATOM     39  H   UNL     1     -12.769  10.751 -39.906  1.00  0.00     0.210 HD
ENDBRANCH  37  38
ENDBRANCH  31  37
BRANCH  32  40
ATOM     40  O   UNL     1     -10.898   7.752 -40.573  1.00  0.00    -0.387 OA
ATOM     41  H   UNL     1     -11.430   7.636 -41.402  1.00  0.00     0.211 HD
ENDBRANCH  32  40
ENDBRANCH   1  27
TORSDOF 12
ENDMDL
MODEL 7
REMARK VINA RESULT:    -5.112      2.016      7.070
REMARK INTER + INTRA:          -9.198
REMARK INTER:                  -7.363
REMARK INTRA:                  -1.835
REMARK UNBOUND:                -1.695
REMARK SMILES O=c1c(O[C@@H]2O[C@H](CO)[C@H](O)[C@@H](O)[C@@H]2O)c(-c2ccc(O)c(O)c2)oc2cc(O)cc(O)c12
REMARK SMILES IDX 4 1 3 2 16 3 25 4 2 5 26 6 1 7 33 8 27 9 31 10 28 11 30 12
REMARK SMILES IDX 17 13 18 14 19 15 20 16 24 17 22 18 21 19 23 21 32 23 29 25
REMARK SMILES IDX 5 27 14 28 6 29 12 30 7 31 10 32 15 33 13 35 8 37 9 38 11 40
REMARK H PARENT 21 20 23 22 32 24 29 26 15 34 13 36 9 39 11 41
REMARK Flexibility Score: inf
ROOT
ATOM      1  O   UNL     1     -10.756   3.610 -27.206  1.00  0.00    -0.454 OA
ENDROOT
BRANCH   1   2
ATOM      2  C   UNL     1     -10.021   2.721 -26.405  1.00  0.00     0.214 A 
ATOM      3  C   UNL     1      -8.642   2.897 -26.147  1.00  0.00     0.180 A 
ATOM      4  O   UNL     1      -8.020   2.071 -25.310  1.00  0.00    -0.452 OA
ATOM      5  C   UNL     1     -10.668   1.603 -25.862  1.00  0.00     0.239 A 
ATOM      6  C   UNL     1      -8.614   1.039 -24.723  1.00  0.00     0.146 A 
ATOM      7  O   UNL     1     -11.877   1.389 -26.158  1.00  0.00    -0.285 OA
ATOM      8  C   UNL     1      -9.970   0.744 -24.989  1.00  0.00     0.111 A 
ATOM      9  C   UNL     1      -7.877   0.238 -23.845  1.00  0.00     0.094 A 
ATOM     10  C   UNL     1     -10.568  -0.377 -24.365  1.00  0.00     0.134 A 
ATOM     11  C   UNL     1      -8.476  -0.864 -23.224  1.00  0.00     0.123 A 
ATOM     12  C   UNL     1      -9.813  -1.170 -23.488  1.00  0.00     0.093 A 
BRANCH   3  13
ATOM     13  C   UNL     1      -7.836   3.962 -26.788  1.00  0.00     0.025 A 
ATOM     14  C   UNL     1      -7.136   3.734 -27.986  1.00  0.00     0.016 A 
ATOM     15  C   UNL     1      -6.399   4.763 -28.577  1.00  0.00     0.051 A 
ATOM     16  C   UNL     1      -6.330   6.022 -27.974  1.00  0.00     0.157 A 
ATOM     17  C   UNL     1      -7.743   5.221 -26.170  1.00  0.00     0.062 A 
ATOM     18  C   UNL     1      -6.998   6.252 -26.761  1.00  0.00     0.158 A 
BRANCH  16  19
ATOM     19  O   UNL     1      -5.591   7.032 -28.591  1.00  0.00    -0.504 OA
ATOM     20  H   UNL     1      -4.862   7.538 -28.106  1.00  0.00     0.293 HD
ENDBRANCH  16  19
BRANCH  18  21
ATOM     21  O   UNL     1      -6.925   7.501 -26.147  1.00  0.00    -0.504 OA
ATOM     22  H   UNL     1      -7.087   8.357 -26.666  1.00  0.00     0.293 HD
ENDBRANCH  18  21
ENDBRANCH   3  13
BRANCH  10  23
ATOM     23  O   UNL     1     -11.903  -0.707 -24.605  1.00  0.00    -0.507 OA
ATOM     24  H   UNL     1     -12.438  -0.262 -25.343  1.00  0.00     0.293 HD
ENDBRANCH  10  23
BRANCH  11  25
ATOM     25  O   UNL     1      -7.750  -1.661 -22.342  1.00  0.00    -0.508 OA
ATOM     26  H   UNL     1      -6.805  -1.959 -22.554  1.00  0.00     0.293 HD
ENDBRANCH  11  25
ENDBRANCH   1   2
BRANCH   1  27
ATOM     27  C   UNL     1     -11.394   4.807 -26.737  1.00  0.00     0.339 C 
ATOM     28  C   UNL     1     -12.870   4.900 -27.192  1.00  0.00     0.214 C 
ATOM     29  O   UNL     1     -11.329   4.905 -25.329  1.00  0.00    -0.332 OA
ATOM     30  C   UNL     1     -13.646   5.948 -26.348  1.00  0.00     0.180 C 
ATOM     31  C   UNL     1     -11.567   6.238 -24.891  1.00  0.00     0.179 C 
ATOM     32  C   UNL     1     -12.692   6.969 -25.709  1.00  0.00     0.177 C 
BRANCH  28  33
ATOM     33  O   UNL     1     -13.498   3.653 -27.060  1.00  0.00    -0.384 OA
ATOM     34  H   UNL     1     -14.258   3.644 -27.699  1.00  0.00     0.211 HD
ENDBRANCH  28  33
BRANCH  30  35
ATOM     35  O   UNL     1     -14.577   6.623 -27.156  1.00  0.00    -0.387 OA
ATOM     36  H   UNL     1     -15.196   7.099 -26.542  1.00  0.00     0.211 HD
ENDBRANCH  30  35
BRANCH  31  37
ATOM     37  C   UNL     1     -11.849   6.196 -23.378  1.00  0.00     0.191 C 
BRANCH  37  38
ATOM     38  O   UNL     1     -11.480   7.400 -22.760  1.00  0.00    -0.394 OA
ATOM     39  H   UNL     1     -11.964   8.124 -23.238  1.00  0.00     0.210 HD
ENDBRANCH  37  38
ENDBRANCH  31  37
BRANCH  32  40
ATOM     40  O   UNL     1     -13.423   7.870 -24.917  1.00  0.00    -0.387 OA
ATOM     41  H   UNL     1     -14.078   7.331 -24.401  1.00  0.00     0.211 HD
ENDBRANCH  32  40
ENDBRANCH   1  27
TORSDOF 12
ENDMDL
MODEL 8
REMARK VINA RESULT:    -5.097      1.923      5.901
REMARK INTER + INTRA:          -9.176
REMARK INTER:                  -7.535
REMARK INTRA:                  -1.641
REMARK UNBOUND:                -1.695
REMARK SMILES O=c1c(O[C@@H]2O[C@H](CO)[C@H](O)[C@@H](O)[C@@H]2O)c(-c2ccc(O)c(O)c2)oc2cc(O)cc(O)c12
REMARK SMILES IDX 4 1 3 2 16 3 25 4 2 5 26 6 1 7 33 8 27 9 31 10 28 11 30 12
REMARK SMILES IDX 17 13 18 14 19 15 20 16 24 17 22 18 21 19 23 21 32 23 29 25
REMARK SMILES IDX 5 27 14 28 6 29 12 30 7 31 10 32 15 33 13 35 8 37 9 38 11 40
REMARK H PARENT 21 20 23 22 32 24 29 26 15 34 13 36 9 39 11 41
REMARK Flexibility Score: inf
ROOT
ATOM      1  O   UNL     1     -10.278   4.577 -24.158  1.00  0.00    -0.454 OA
ENDROOT
BRANCH   1   2
ATOM      2  C   UNL     1      -9.339   4.464 -25.195  1.00  0.00     0.214 A 
ATOM      3  C   UNL     1      -9.200   3.288 -25.966  1.00  0.00     0.180 A 
ATOM      4  O   UNL     1      -8.353   3.271 -26.992  1.00  0.00    -0.452 OA
ATOM      5  C   UNL     1      -8.487   5.545 -25.459  1.00  0.00     0.239 A 
ATOM      6  C   UNL     1      -7.576   4.298 -27.317  1.00  0.00     0.146 A 
ATOM      7  O   UNL     1      -8.543   6.567 -24.719  1.00  0.00    -0.285 OA
ATOM      8  C   UNL     1      -7.594   5.484 -26.548  1.00  0.00     0.111 A 
ATOM      9  C   UNL     1      -6.729   4.189 -28.424  1.00  0.00     0.094 A 
ATOM     10  C   UNL     1      -6.737   6.552 -26.907  1.00  0.00     0.134 A 
ATOM     11  C   UNL     1      -5.892   5.251 -28.779  1.00  0.00     0.123 A 
ATOM     12  C   UNL     1      -5.894   6.423 -28.021  1.00  0.00     0.093 A 
BRANCH   3  13
ATOM     13  C   UNL     1      -9.949   2.044 -25.674  1.00  0.00     0.025 A 
ATOM     14  C   UNL     1     -10.985   1.595 -26.513  1.00  0.00     0.016 A 
ATOM     15  C   UNL     1     -11.661   0.409 -26.222  1.00  0.00     0.051 A 
ATOM     16  C   UNL     1     -11.335  -0.333 -25.083  1.00  0.00     0.157 A 
ATOM     17  C   UNL     1      -9.641   1.310 -24.516  1.00  0.00     0.062 A 
ATOM     18  C   UNL     1     -10.326   0.122 -24.221  1.00  0.00     0.158 A 
BRANCH  16  19
ATOM     19  O   UNL     1     -12.025  -1.517 -24.823  1.00  0.00    -0.504 OA
ATOM     20  H   UNL     1     -12.649  -1.936 -25.501  1.00  0.00     0.293 HD
ENDBRANCH  16  19
BRANCH  18  21
ATOM     21  O   UNL     1     -10.001  -0.605 -23.077  1.00  0.00    -0.504 OA
ATOM     22  H   UNL     1     -10.603  -0.610 -22.262  1.00  0.00     0.293 HD
ENDBRANCH  18  21
ENDBRANCH   3  13
BRANCH  10  23
ATOM     23  O   UNL     1      -6.720   7.738 -26.171  1.00  0.00    -0.507 OA
ATOM     24  H   UNL     1      -5.855   8.226 -25.966  1.00  0.00     0.293 HD
ENDBRANCH  10  23
BRANCH  11  25
ATOM     25  O   UNL     1      -5.051   5.152 -29.886  1.00  0.00    -0.508 OA
ATOM     26  H   UNL     1      -4.949   4.282 -30.397  1.00  0.00     0.293 HD
ENDBRANCH  11  25
ENDBRANCH   1   2
BRANCH   1  27
ATOM     27  C   UNL     1     -11.614   5.081 -24.306  1.00  0.00     0.339 C 
ATOM     28  C   UNL     1     -11.968   6.127 -23.222  1.00  0.00     0.214 C 
ATOM     29  O   UNL     1     -11.808   5.646 -25.586  1.00  0.00    -0.332 OA
ATOM     30  C   UNL     1     -13.217   6.955 -23.636  1.00  0.00     0.180 C 
ATOM     31  C   UNL     1     -13.193   5.762 -25.896  1.00  0.00     0.179 C 
ATOM     32  C   UNL     1     -14.070   6.201 -24.668  1.00  0.00     0.177 C 
BRANCH  28  33
ATOM     33  O   UNL     1     -10.889   7.000 -23.019  1.00  0.00    -0.384 OA
ATOM     34  H   UNL     1     -10.586   7.298 -23.916  1.00  0.00     0.211 HD
ENDBRANCH  28  33
BRANCH  30  35
ATOM     35  O   UNL     1     -14.000   7.242 -22.505  1.00  0.00    -0.387 OA
ATOM     36  H   UNL     1     -13.746   8.155 -22.207  1.00  0.00     0.211 HD
ENDBRANCH  30  35
BRANCH  31  37
ATOM     37  C   UNL     1     -13.330   6.705 -27.106  1.00  0.00     0.191 C 
BRANCH  37  38
ATOM     38  O   UNL     1     -14.608   6.614 -27.677  1.00  0.00    -0.394 OA
ATOM     39  H   UNL     1     -15.257   6.632 -26.924  1.00  0.00     0.210 HD
ENDBRANCH  37  38
ENDBRANCH  31  37
BRANCH  32  40
ATOM     40  O   UNL     1     -15.161   6.998 -25.053  1.00  0.00    -0.387 OA
ATOM     41  H   UNL     1     -14.874   7.508 -25.854  1.00  0.00     0.211 HD
ENDBRANCH  32  40
ENDBRANCH   1  27
TORSDOF 12
ENDMDL
MODEL 9
REMARK VINA RESULT:    -5.070     11.431     14.442
REMARK INTER + INTRA:          -9.135
REMARK INTER:                  -7.449
REMARK INTRA:                  -1.687
REMARK UNBOUND:                -1.695
REMARK SMILES O=c1c(O[C@@H]2O[C@H](CO)[C@H](O)[C@@H](O)[C@@H]2O)c(-c2ccc(O)c(O)c2)oc2cc(O)cc(O)c12
REMARK SMILES IDX 4 1 3 2 16 3 25 4 2 5 26 6 1 7 33 8 27 9 31 10 28 11 30 12
REMARK SMILES IDX 17 13 18 14 19 15 20 16 24 17 22 18 21 19 23 21 32 23 29 25
REMARK SMILES IDX 5 27 14 28 6 29 12 30 7 31 10 32 15 33 13 35 8 37 9 38 11 40
REMARK H PARENT 21 20 23 22 32 24 29 26 15 34 13 36 9 39 11 41
REMARK Flexibility Score: inf
ROOT
ATOM      1  O   UNL     1     -14.704   4.845 -37.764  1.00  0.00    -0.454 OA
ENDROOT
BRANCH   1   2
ATOM      2  C   UNL     1     -15.636   4.618 -36.740  1.00  0.00     0.214 A 
ATOM      3  C   UNL     1     -15.763   3.366 -36.094  1.00  0.00     0.180 A 
ATOM      4  O   UNL     1     -16.604   3.237 -35.072  1.00  0.00    -0.452 OA
ATOM      5  C   UNL     1     -16.494   5.659 -36.359  1.00  0.00     0.239 A 
ATOM      6  C   UNL     1     -17.386   4.218 -34.638  1.00  0.00     0.146 A 
ATOM      7  O   UNL     1     -16.449   6.752 -36.989  1.00  0.00    -0.285 OA
ATOM      8  C   UNL     1     -17.380   5.478 -35.279  1.00  0.00     0.111 A 
ATOM      9  C   UNL     1     -18.226   3.987 -33.544  1.00  0.00     0.094 A 
ATOM     10  C   UNL     1     -18.243   6.497 -34.806  1.00  0.00     0.134 A 
ATOM     11  C   UNL     1     -19.069   5.001 -33.076  1.00  0.00     0.123 A 
ATOM     12  C   UNL     1     -19.079   6.245 -33.708  1.00  0.00     0.093 A 
BRANCH   3  13
ATOM     13  C   UNL     1     -15.007   2.166 -36.518  1.00  0.00     0.025 A 
ATOM     14  C   UNL     1     -13.895   1.702 -35.793  1.00  0.00     0.016 A 
ATOM     15  C   UNL     1     -13.212   0.556 -36.206  1.00  0.00     0.051 A 
ATOM     16  C   UNL     1     -13.610  -0.129 -37.357  1.00  0.00     0.157 A 
ATOM     17  C   UNL     1     -15.388   1.489 -37.690  1.00  0.00     0.062 A 
ATOM     18  C   UNL     1     -14.698   0.342 -38.108  1.00  0.00     0.158 A 
BRANCH  16  19
ATOM     19  O   UNL     1     -12.912  -1.275 -37.741  1.00  0.00    -0.504 OA
ATOM     20  H   UNL     1     -12.618  -1.430 -38.697  1.00  0.00     0.293 HD
ENDBRANCH  16  19
BRANCH  18  21
ATOM     21  O   UNL     1     -15.095  -0.329 -39.263  1.00  0.00    -0.504 OA
ATOM     22  H   UNL     1     -14.585  -1.134 -39.611  1.00  0.00     0.293 HD
ENDBRANCH  18  21
ENDBRANCH   3  13
BRANCH  10  23
ATOM     23  O   UNL     1     -18.273   7.753 -35.414  1.00  0.00    -0.507 OA
ATOM     24  H   UNL     1     -17.938   7.895 -36.360  1.00  0.00     0.293 HD
ENDBRANCH  10  23
BRANCH  11  25
ATOM     25  O   UNL     1     -19.903   4.780 -31.981  1.00  0.00    -0.508 OA
ATOM     26  H   UNL     1     -19.765   5.268 -31.104  1.00  0.00     0.293 HD
ENDBRANCH  11  25
ENDBRANCH   1   2
BRANCH   1  27
ATOM     27  C   UNL     1     -13.383   5.375 -37.574  1.00  0.00     0.339 C 
ATOM     28  C   UNL     1     -13.064   6.518 -38.566  1.00  0.00     0.214 C 
ATOM     29  O   UNL     1     -13.202   5.836 -36.251  1.00  0.00    -0.332 OA
ATOM     30  C   UNL     1     -11.839   7.345 -38.084  1.00  0.00     0.180 C 
ATOM     31  C   UNL     1     -11.820   5.966 -35.932  1.00  0.00     0.179 C 
ATOM     32  C   UNL     1     -10.961   6.533 -37.119  1.00  0.00     0.177 C 
BRANCH  28  33
ATOM     33  O   UNL     1     -14.168   7.373 -38.694  1.00  0.00    -0.384 OA
ATOM     34  H   UNL     1     -14.942   6.808 -38.955  1.00  0.00     0.211 HD
ENDBRANCH  28  33
BRANCH  30  35
ATOM     35  O   UNL     1     -11.068   7.750 -39.187  1.00  0.00    -0.387 OA
ATOM     36  H   UNL     1     -10.981   6.958 -39.780  1.00  0.00     0.211 HD
ENDBRANCH  30  35
BRANCH  31  37
ATOM     37  C   UNL     1     -11.708   6.807 -34.648  1.00  0.00     0.191 C 
BRANCH  37  38
ATOM     38  O   UNL     1     -10.489   6.574 -33.994  1.00  0.00    -0.394 OA
ATOM     39  H   UNL     1     -10.519   7.091 -33.146  1.00  0.00     0.210 HD
ENDBRANCH  37  38
ENDBRANCH  31  37
BRANCH  32  40
ATOM     40  O   UNL     1      -9.892   7.327 -36.669  1.00  0.00    -0.387 OA
ATOM     41  H   UNL     1     -10.233   8.257 -36.611  1.00  0.00     0.211 HD
ENDBRANCH  32  40
ENDBRANCH   1  27
TORSDOF 12
ENDMDL
