MODEL 1
REMARK VINA RESULT:    -6.725      0.000      0.000
REMARK INTER + INTRA:          -6.725
REMARK INTER:                  -6.725
REMARK INTRA:                   0.000
REMARK UNBOUND:                 0.000
REMARK SMILES C=C1CCC[C@]2(C)CC(=O)C(=C(C)C)C[C@H]12
REMARK SMILES IDX 13 1 12 2 11 3 15 4 16 5 2 6 1 7 3 8 4 9 5 10 6 11 8 12 9 13
REMARK SMILES IDX 10 14 7 15 14 16
REMARK H PARENT
REMARK Flexibility Score: inf
ROOT
ATOM      1  C   UNL     1      32.460  22.234   7.345  1.00  0.00     0.039 C 
ATOM      2  C   UNL     1      31.083  22.816   7.133  1.00  0.00    -0.070 C 
ATOM      3  C   UNL     1      30.075  22.077   6.585  1.00  0.00    -0.006 C 
ATOM      4  C   UNL     1      28.697  22.656   6.332  1.00  0.00     0.047 C 
ATOM      5  C   UNL     1      28.011  22.083   5.064  1.00  0.00     0.025 C 
ATOM      6  C   UNL     1      26.563  22.542   5.045  1.00  0.00    -0.073 C 
ATOM      7  C   UNL     1      26.193  23.603   4.309  1.00  0.00     0.008 C 
ATOM      8  C   UNL     1      25.578  21.884   5.988  1.00  0.00     0.031 C 
ATOM      9  C   UNL     1      25.704  20.355   5.961  1.00  0.00     0.005 C 
ATOM     10  C   UNL     1      27.165  19.875   6.042  1.00  0.00     0.008 C 
ATOM     11  C   UNL     1      28.077  20.526   4.959  1.00  0.00    -0.018 C 
ATOM     12  C   UNL     1      29.538  20.034   5.126  1.00  0.00     0.088 C 
ATOM     13  C   UNL     1      30.210  20.627   6.324  1.00  0.00     0.159 C 
ATOM     14  O   UNL     1      30.878  19.881   7.091  1.00  0.00    -0.295 OA
ATOM     15  C   UNL     1      27.614  20.079   3.545  1.00  0.00     0.012 C 
ATOM     16  C   UNL     1      30.877  24.263   7.515  1.00  0.00     0.039 C 
ENDROOT
TORSDOF 0
ENDMDL
MODEL 2
REMARK VINA RESULT:    -5.815      1.440      4.698
REMARK INTER + INTRA:          -5.815
REMARK INTER:                  -5.815
REMARK INTRA:                   0.000
REMARK UNBOUND:                 0.000
REMARK SMILES C=C1CCC[C@]2(C)CC(=O)C(=C(C)C)C[C@H]12
REMARK SMILES IDX 13 1 12 2 11 3 15 4 16 5 2 6 1 7 3 8 4 9 5 10 6 11 8 12 9 13
REMARK SMILES IDX 10 14 7 15 14 16
REMARK H PARENT
REMARK Flexibility Score: inf
ROOT
ATOM      1  C   UNL     1      27.947  19.876   3.877  1.00  0.00     0.039 C 
ATOM      2  C   UNL     1      27.875  21.226   4.551  1.00  0.00    -0.070 C 
ATOM      3  C   UNL     1      28.788  21.600   5.493  1.00  0.00    -0.006 C 
ATOM      4  C   UNL     1      28.710  22.936   6.204  1.00  0.00     0.047 C 
ATOM      5  C   UNL     1      29.196  22.879   7.676  1.00  0.00     0.025 C 
ATOM      6  C   UNL     1      29.305  24.298   8.209  1.00  0.00    -0.073 C 
ATOM      7  C   UNL     1      28.316  24.828   8.947  1.00  0.00     0.008 C 
ATOM      8  C   UNL     1      30.469  25.157   7.760  1.00  0.00     0.031 C 
ATOM      9  C   UNL     1      31.799  24.398   7.852  1.00  0.00     0.005 C 
ATOM     10  C   UNL     1      31.718  22.978   7.260  1.00  0.00     0.008 C 
ATOM     11  C   UNL     1      30.556  22.136   7.866  1.00  0.00    -0.018 C 
ATOM     12  C   UNL     1      30.505  20.738   7.195  1.00  0.00     0.088 C 
ATOM     13  C   UNL     1      29.992  20.793   5.792  1.00  0.00     0.159 C 
ATOM     14  O   UNL     1      30.594  20.153   4.887  1.00  0.00    -0.295 OA
ATOM     15  C   UNL     1      30.814  21.897   9.379  1.00  0.00     0.012 C 
ATOM     16  C   UNL     1      26.727  22.130   4.167  1.00  0.00     0.039 C 
ENDROOT
TORSDOF 0
ENDMDL
MODEL 3
REMARK VINA RESULT:    -5.709      1.555      2.613
REMARK INTER + INTRA:          -5.709
REMARK INTER:                  -5.709
REMARK INTRA:                   0.000
REMARK UNBOUND:                 0.000
REMARK SMILES C=C1CCC[C@]2(C)CC(=O)C(=C(C)C)C[C@H]12
REMARK SMILES IDX 13 1 12 2 11 3 15 4 16 5 2 6 1 7 3 8 4 9 5 10 6 11 8 12 9 13
REMARK SMILES IDX 10 14 7 15 14 16
REMARK H PARENT
REMARK Flexibility Score: inf
ROOT
ATOM      1  C   UNL     1      32.116  21.750   8.614  1.00  0.00     0.039 C 
ATOM      2  C   UNL     1      31.545  21.674   7.218  1.00  0.00    -0.070 C 
ATOM      3  C   UNL     1      30.199  21.610   7.001  1.00  0.00    -0.006 C 
ATOM      4  C   UNL     1      29.611  21.497   5.609  1.00  0.00     0.047 C 
ATOM      5  C   UNL     1      28.316  20.645   5.555  1.00  0.00     0.025 C 
ATOM      6  C   UNL     1      27.688  20.800   4.179  1.00  0.00    -0.073 C 
ATOM      7  C   UNL     1      27.892  19.875   3.228  1.00  0.00     0.008 C 
ATOM      8  C   UNL     1      26.965  22.090   3.851  1.00  0.00     0.031 C 
ATOM      9  C   UNL     1      26.008  22.503   4.977  1.00  0.00     0.005 C 
ATOM     10  C   UNL     1      26.653  22.408   6.373  1.00  0.00     0.008 C 
ATOM     11  C   UNL     1      27.273  21.008   6.659  1.00  0.00    -0.018 C 
ATOM     12  C   UNL     1      27.942  20.996   8.058  1.00  0.00     0.088 C 
ATOM     13  C   UNL     1      29.214  21.781   8.093  1.00  0.00     0.159 C 
ATOM     14  O   UNL     1      29.426  22.575   9.049  1.00  0.00    -0.295 OA
ATOM     15  C   UNL     1      26.152  19.933   6.690  1.00  0.00     0.012 C 
ATOM     16  C   UNL     1      32.527  21.633   6.070  1.00  0.00     0.039 C 
ENDROOT
TORSDOF 0
ENDMDL
MODEL 4
REMARK VINA RESULT:    -5.649      0.980      1.132
REMARK INTER + INTRA:          -5.649
REMARK INTER:                  -5.649
REMARK INTRA:                   0.000
REMARK UNBOUND:                 0.000
REMARK SMILES C=C1CCC[C@]2(C)CC(=O)C(=C(C)C)C[C@H]12
REMARK SMILES IDX 13 1 12 2 11 3 15 4 16 5 2 6 1 7 3 8 4 9 5 10 6 11 8 12 9 13
REMARK SMILES IDX 10 14 7 15 14 16
REMARK H PARENT
REMARK Flexibility Score: inf
ROOT
ATOM      1  C   UNL     1      32.477  23.721   8.022  1.00  0.00     0.039 C 
ATOM      2  C   UNL     1      31.023  23.877   7.645  1.00  0.00    -0.070 C 
ATOM      3  C   UNL     1      30.299  22.832   7.150  1.00  0.00    -0.006 C 
ATOM      4  C   UNL     1      28.849  22.981   6.733  1.00  0.00     0.047 C 
ATOM      5  C   UNL     1      28.462  22.092   5.522  1.00  0.00     0.025 C 
ATOM      6  C   UNL     1      26.953  22.136   5.349  1.00  0.00    -0.073 C 
ATOM      7  C   UNL     1      26.393  22.959   4.448  1.00  0.00     0.008 C 
ATOM      8  C   UNL     1      26.087  21.357   6.316  1.00  0.00     0.031 C 
ATOM      9  C   UNL     1      26.608  19.927   6.517  1.00  0.00     0.005 C 
ATOM     10  C   UNL     1      28.129  19.875   6.754  1.00  0.00     0.008 C 
ATOM     11  C   UNL     1      28.940  20.611   5.646  1.00  0.00    -0.018 C 
ATOM     12  C   UNL     1      30.456  20.557   5.970  1.00  0.00     0.088 C 
ATOM     13  C   UNL     1      30.831  21.452   7.108  1.00  0.00     0.159 C 
ATOM     14  O   UNL     1      31.593  21.015   8.014  1.00  0.00    -0.295 OA
ATOM     15  C   UNL     1      28.748  19.886   4.286  1.00  0.00     0.012 C 
ATOM     16  C   UNL     1      30.411  25.250   7.803  1.00  0.00     0.039 C 
ENDROOT
TORSDOF 0
ENDMDL
MODEL 5
REMARK VINA RESULT:    -5.414      1.802      5.316
REMARK INTER + INTRA:          -5.414
REMARK INTER:                  -5.414
REMARK INTRA:                   0.000
REMARK UNBOUND:                 0.000
REMARK SMILES C=C1CCC[C@]2(C)CC(=O)C(=C(C)C)C[C@H]12
REMARK SMILES IDX 13 1 12 2 11 3 15 4 16 5 2 6 1 7 3 8 4 9 5 10 6 11 8 12 9 13
REMARK SMILES IDX 10 14 7 15 14 16
REMARK H PARENT
REMARK Flexibility Score: inf
ROOT
ATOM      1  C   UNL     1      26.618  21.235   4.214  1.00  0.00     0.039 C 
ATOM      2  C   UNL     1      28.045  20.898   4.582  1.00  0.00    -0.070 C 
ATOM      3  C   UNL     1      28.677  21.517   5.620  1.00  0.00    -0.006 C 
ATOM      4  C   UNL     1      30.119  21.217   5.979  1.00  0.00     0.047 C 
ATOM      5  C   UNL     1      30.890  22.452   6.516  1.00  0.00     0.025 C 
ATOM      6  C   UNL     1      32.228  21.988   7.067  1.00  0.00    -0.073 C 
ATOM      7  C   UNL     1      33.342  22.084   6.323  1.00  0.00     0.008 C 
ATOM      8  C   UNL     1      32.258  21.273   8.401  1.00  0.00     0.031 C 
ATOM      9  C   UNL     1      31.418  22.008   9.455  1.00  0.00     0.005 C 
ATOM     10  C   UNL     1      30.034  22.430   8.927  1.00  0.00     0.008 C 
ATOM     11  C   UNL     1      30.116  23.256   7.608  1.00  0.00    -0.018 C 
ATOM     12  C   UNL     1      28.689  23.608   7.110  1.00  0.00     0.088 C 
ATOM     13  C   UNL     1      27.968  22.423   6.551  1.00  0.00     0.159 C 
ATOM     14  O   UNL     1      26.769  22.214   6.883  1.00  0.00    -0.295 OA
ATOM     15  C   UNL     1      30.841  24.603   7.876  1.00  0.00     0.012 C 
ATOM     16  C   UNL     1      28.755  19.875   3.727  1.00  0.00     0.039 C 
ENDROOT
TORSDOF 0
ENDMDL
MODEL 6
REMARK VINA RESULT:    -5.084      1.683      4.840
REMARK INTER + INTRA:          -5.084
REMARK INTER:                  -5.084
REMARK INTRA:                   0.000
REMARK UNBOUND:                 0.000
REMARK SMILES C=C1CCC[C@]2(C)CC(=O)C(=C(C)C)C[C@H]12
REMARK SMILES IDX 13 1 12 2 11 3 15 4 16 5 2 6 1 7 3 8 4 9 5 10 6 11 8 12 9 13
REMARK SMILES IDX 10 14 7 15 14 16
REMARK H PARENT
REMARK Flexibility Score: inf
ROOT
ATOM      1  C   UNL     1      25.281  21.800   4.854  1.00  0.00     0.039 C 
ATOM      2  C   UNL     1      26.624  22.492   4.834  1.00  0.00    -0.070 C 
ATOM      3  C   UNL     1      27.631  22.116   5.674  1.00  0.00    -0.006 C 
ATOM      4  C   UNL     1      28.971  22.823   5.692  1.00  0.00     0.047 C 
ATOM      5  C   UNL     1      29.615  22.888   7.102  1.00  0.00     0.025 C 
ATOM      6  C   UNL     1      31.042  23.390   6.964  1.00  0.00    -0.073 C 
ATOM      7  C   UNL     1      31.335  24.682   7.180  1.00  0.00     0.008 C 
ATOM      8  C   UNL     1      32.097  22.446   6.423  1.00  0.00     0.031 C 
ATOM      9  C   UNL     1      32.028  21.073   7.103  1.00  0.00     0.005 C 
ATOM     10  C   UNL     1      30.591  20.525   7.195  1.00  0.00     0.008 C 
ATOM     11  C   UNL     1      29.603  21.526   7.866  1.00  0.00    -0.018 C 
ATOM     12  C   UNL     1      28.171  20.930   7.886  1.00  0.00     0.088 C 
ATOM     13  C   UNL     1      27.538  20.913   6.531  1.00  0.00     0.159 C 
ATOM     14  O   UNL     1      26.937  19.875   6.141  1.00  0.00    -0.295 OA
ATOM     15  C   UNL     1      30.013  21.755   9.347  1.00  0.00     0.012 C 
ATOM     16  C   UNL     1      26.794  23.644   3.871  1.00  0.00     0.039 C 
ENDROOT
TORSDOF 0
ENDMDL
MODEL 7
REMARK VINA RESULT:    -4.996      3.502      5.518
REMARK INTER + INTRA:          -4.996
REMARK INTER:                  -4.996
REMARK INTRA:                   0.000
REMARK UNBOUND:                 0.000
REMARK SMILES C=C1CCC[C@]2(C)CC(=O)C(=C(C)C)C[C@H]12
REMARK SMILES IDX 13 1 12 2 11 3 15 4 16 5 2 6 1 7 3 8 4 9 5 10 6 11 8 12 9 13
REMARK SMILES IDX 10 14 7 15 14 16
REMARK H PARENT
REMARK Flexibility Score: inf
ROOT
ATOM      1  C   UNL     1      24.572  26.105   2.544  1.00  0.00     0.039 C 
ATOM      2  C   UNL     1      23.981  25.151   3.555  1.00  0.00    -0.070 C 
ATOM      3  C   UNL     1      24.628  24.006   3.917  1.00  0.00    -0.006 C 
ATOM      4  C   UNL     1      24.033  23.021   4.903  1.00  0.00     0.047 C 
ATOM      5  C   UNL     1      24.390  21.544   4.590  1.00  0.00     0.025 C 
ATOM      6  C   UNL     1      23.955  20.679   5.761  1.00  0.00    -0.073 C 
ATOM      7  C   UNL     1      22.789  20.015   5.722  1.00  0.00     0.008 C 
ATOM      8  C   UNL     1      24.778  20.706   7.031  1.00  0.00     0.031 C 
ATOM      9  C   UNL     1      26.278  20.572   6.736  1.00  0.00     0.005 C 
ATOM     10  C   UNL     1      26.744  21.489   5.590  1.00  0.00     0.008 C 
ATOM     11  C   UNL     1      25.905  21.308   4.290  1.00  0.00    -0.018 C 
ATOM     12  C   UNL     1      26.397  22.291   3.196  1.00  0.00     0.088 C 
ATOM     13  C   UNL     1      26.010  23.707   3.479  1.00  0.00     0.159 C 
ATOM     14  O   UNL     1      26.867  24.623   3.343  1.00  0.00    -0.295 OA
ATOM     15  C   UNL     1      26.108  19.875   3.728  1.00  0.00     0.012 C 
ATOM     16  C   UNL     1      22.624  25.498   4.122  1.00  0.00     0.039 C 
ENDROOT
TORSDOF 0
ENDMDL
MODEL 8
REMARK VINA RESULT:    -4.892      2.147      4.875
REMARK INTER + INTRA:          -4.892
REMARK INTER:                  -4.892
REMARK INTRA:                   0.000
REMARK UNBOUND:                 0.000
REMARK SMILES C=C1CCC[C@]2(C)CC(=O)C(=C(C)C)C[C@H]12
REMARK SMILES IDX 13 1 12 2 11 3 15 4 16 5 2 6 1 7 3 8 4 9 5 10 6 11 8 12 9 13
REMARK SMILES IDX 10 14 7 15 14 16
REMARK H PARENT
REMARK Flexibility Score: inf
ROOT
ATOM      1  C   UNL     1      23.507  23.262   4.963  1.00  0.00     0.039 C 
ATOM      2  C   UNL     1      24.969  23.571   5.185  1.00  0.00    -0.070 C 
ATOM      3  C   UNL     1      25.844  22.611   5.603  1.00  0.00    -0.006 C 
ATOM      4  C   UNL     1      27.306  22.913   5.864  1.00  0.00     0.047 C 
ATOM      5  C   UNL     1      27.907  22.084   7.030  1.00  0.00     0.025 C 
ATOM      6  C   UNL     1      29.413  22.283   7.043  1.00  0.00    -0.073 C 
ATOM      7  C   UNL     1      29.977  23.170   7.879  1.00  0.00     0.008 C 
ATOM      8  C   UNL     1      30.249  21.584   5.991  1.00  0.00     0.031 C 
ATOM      9  C   UNL     1      29.860  20.107   5.849  1.00  0.00     0.005 C 
ATOM     10  C   UNL     1      28.336  19.897   5.774  1.00  0.00     0.008 C 
ATOM     11  C   UNL     1      27.574  20.559   6.960  1.00  0.00    -0.018 C 
ATOM     12  C   UNL     1      26.046  20.348   6.797  1.00  0.00     0.088 C 
ATOM     13  C   UNL     1      25.464  21.184   5.703  1.00  0.00     0.159 C 
ATOM     14  O   UNL     1      24.661  20.661   4.883  1.00  0.00    -0.295 OA
ATOM     15  C   UNL     1      27.980  19.875   8.293  1.00  0.00     0.012 C 
ATOM     16  C   UNL     1      25.416  24.997   4.961  1.00  0.00     0.039 C 
ENDROOT
TORSDOF 0
ENDMDL
