MODEL 1
REMARK VINA RESULT:    -5.967      0.000      0.000
REMARK INTER + INTRA:          -5.967
REMARK INTER:                  -5.967
REMARK INTRA:                   0.000
REMARK UNBOUND:                 0.000
REMARK SMILES CC1=CC(=O)[C@@H]2C[C@H]1C2(C)C
REMARK SMILES IDX 1 1 2 2 3 3 4 4 5 5 6 6 7 7 8 8 9 9 10 10 11 11
REMARK H PARENT
REMARK Flexibility Score: inf
ROOT
ATOM      1  C   UNL     1     -14.020 -13.977  28.946  1.00  0.00     0.040 C 
ATOM      2  C   UNL     1     -13.077 -15.111  29.200  1.00  0.00    -0.066 C 
ATOM      3  C   UNL     1     -13.145 -15.874  30.327  1.00  0.00     0.047 C 
ATOM      4  C   UNL     1     -12.135 -16.977  30.442  1.00  0.00     0.159 C 
ATOM      5  O   UNL     1     -12.121 -17.776  31.414  1.00  0.00    -0.295 OA
ATOM      6  C   UNL     1     -11.125 -17.060  29.298  1.00  0.00     0.067 C 
ATOM      7  C   UNL     1     -10.676 -15.599  29.083  1.00  0.00     0.021 C 
ATOM      8  C   UNL     1     -11.940 -15.431  28.209  1.00  0.00     0.022 C 
ATOM      9  C   UNL     1     -11.894 -16.965  27.950  1.00  0.00    -0.019 C 
ATOM     10  C   UNL     1     -13.243 -17.727  27.813  1.00  0.00     0.012 C 
ATOM     11  C   UNL     1     -11.004 -17.332  26.735  1.00  0.00     0.012 C 
ENDROOT
TORSDOF 0
ENDMDL
MODEL 2
REMARK VINA RESULT:    -5.790      1.684      2.983
REMARK INTER + INTRA:          -5.790
REMARK INTER:                  -5.790
REMARK INTRA:                   0.000
REMARK UNBOUND:                 0.000
REMARK SMILES CC1=CC(=O)[C@@H]2C[C@H]1C2(C)C
REMARK SMILES IDX 1 1 2 2 3 3 4 4 5 5 6 6 7 7 8 8 9 9 10 10 11 11
REMARK H PARENT
REMARK Flexibility Score: inf
ROOT
ATOM      1  C   UNL     1     -13.699 -13.982  28.604  1.00  0.00     0.040 C 
ATOM      2  C   UNL     1     -12.920 -15.260  28.649  1.00  0.00    -0.066 C 
ATOM      3  C   UNL     1     -12.516 -15.904  27.518  1.00  0.00     0.047 C 
ATOM      4  C   UNL     1     -11.741 -17.172  27.720  1.00  0.00     0.159 C 
ATOM      5  O   UNL     1     -11.277 -17.836  26.756  1.00  0.00    -0.295 OA
ATOM      6  C   UNL     1     -11.558 -17.602  29.176  1.00  0.00     0.067 C 
ATOM      7  C   UNL     1     -12.959 -17.425  29.801  1.00  0.00     0.021 C 
ATOM      8  C   UNL     1     -12.588 -15.937  29.993  1.00  0.00     0.022 C 
ATOM      9  C   UNL     1     -11.093 -16.369  30.001  1.00  0.00    -0.019 C 
ATOM     10  C   UNL     1     -10.048 -15.407  29.368  1.00  0.00     0.012 C 
ATOM     11  C   UNL     1     -10.599 -16.760  31.417  1.00  0.00     0.012 C 
ENDROOT
TORSDOF 0
ENDMDL
MODEL 3
REMARK VINA RESULT:    -5.710      1.731      3.007
REMARK INTER + INTRA:          -5.710
REMARK INTER:                  -5.710
REMARK INTRA:                   0.000
REMARK UNBOUND:                 0.000
REMARK SMILES CC1=CC(=O)[C@@H]2C[C@H]1C2(C)C
REMARK SMILES IDX 1 1 2 2 3 3 4 4 5 5 6 6 7 7 8 8 9 9 10 10 11 11
REMARK H PARENT
REMARK Flexibility Score: inf
ROOT
ATOM      1  C   UNL     1     -12.831 -18.160  31.022  1.00  0.00     0.040 C 
ATOM      2  C   UNL     1     -12.851 -17.247  29.835  1.00  0.00    -0.066 C 
ATOM      3  C   UNL     1     -13.250 -15.947  29.925  1.00  0.00     0.047 C 
ATOM      4  C   UNL     1     -13.213 -15.155  28.652  1.00  0.00     0.159 C 
ATOM      5  O   UNL     1     -13.516 -13.934  28.612  1.00  0.00    -0.295 OA
ATOM      6  C   UNL     1     -12.784 -15.934  27.408  1.00  0.00     0.067 C 
ATOM      7  C   UNL     1     -13.584 -17.252  27.494  1.00  0.00     0.021 C 
ATOM      8  C   UNL     1     -12.468 -17.765  28.434  1.00  0.00     0.022 C 
ATOM      9  C   UNL     1     -11.506 -16.750  27.752  1.00  0.00    -0.019 C 
ATOM     10  C   UNL     1     -10.411 -16.075  28.625  1.00  0.00     0.012 C 
ATOM     11  C   UNL     1     -10.826 -17.339  26.490  1.00  0.00     0.012 C 
ENDROOT
TORSDOF 0
ENDMDL
MODEL 4
REMARK VINA RESULT:    -5.591      1.382      2.959
REMARK INTER + INTRA:          -5.591
REMARK INTER:                  -5.591
REMARK INTRA:                   0.000
REMARK UNBOUND:                 0.000
REMARK SMILES CC1=CC(=O)[C@@H]2C[C@H]1C2(C)C
REMARK SMILES IDX 1 1 2 2 3 3 4 4 5 5 6 6 7 7 8 8 9 9 10 10 11 11
REMARK H PARENT
REMARK Flexibility Score: inf
ROOT
ATOM      1  C   UNL     1      -9.875 -15.879  31.394  1.00  0.00     0.040 C 
ATOM      2  C   UNL     1     -10.975 -16.251  30.450  1.00  0.00    -0.066 C 
ATOM      3  C   UNL     1     -11.569 -17.478  30.473  1.00  0.00     0.047 C 
ATOM      4  C   UNL     1     -12.659 -17.704  29.469  1.00  0.00     0.159 C 
ATOM      5  O   UNL     1     -13.312 -18.779  29.417  1.00  0.00    -0.295 OA
ATOM      6  C   UNL     1     -12.918 -16.541  28.511  1.00  0.00     0.067 C 
ATOM      7  C   UNL     1     -11.509 -16.101  28.060  1.00  0.00     0.021 C 
ATOM      8  C   UNL     1     -11.449 -15.268  29.361  1.00  0.00     0.022 C 
ATOM      9  C   UNL     1     -13.004 -15.228  29.339  1.00  0.00    -0.019 C 
ATOM     10  C   UNL     1     -13.758 -15.259  30.699  1.00  0.00     0.012 C 
ATOM     11  C   UNL     1     -13.552 -14.041  28.507  1.00  0.00     0.012 C 
ENDROOT
TORSDOF 0
ENDMDL
MODEL 5
REMARK VINA RESULT:    -5.585      1.690      3.054
REMARK INTER + INTRA:          -5.585
REMARK INTER:                  -5.585
REMARK INTRA:                   0.000
REMARK UNBOUND:                 0.000
REMARK SMILES CC1=CC(=O)[C@@H]2C[C@H]1C2(C)C
REMARK SMILES IDX 1 1 2 2 3 3 4 4 5 5 6 6 7 7 8 8 9 9 10 10 11 11
REMARK H PARENT
REMARK Flexibility Score: inf
ROOT
ATOM      1  C   UNL     1     -11.014 -17.342  25.929  1.00  0.00     0.040 C 
ATOM      2  C   UNL     1     -11.402 -16.747  27.246  1.00  0.00    -0.066 C 
ATOM      3  C   UNL     1     -12.479 -15.923  27.383  1.00  0.00     0.047 C 
ATOM      4  C   UNL     1     -12.746 -15.407  28.765  1.00  0.00     0.159 C 
ATOM      5  O   UNL     1     -13.734 -14.673  29.028  1.00  0.00    -0.295 OA
ATOM      6  C   UNL     1     -11.733 -15.830  29.829  1.00  0.00     0.067 C 
ATOM      7  C   UNL     1     -10.362 -15.609  29.154  1.00  0.00     0.021 C 
ATOM      8  C   UNL     1     -10.554 -17.000  28.508  1.00  0.00     0.022 C 
ATOM      9  C   UNL     1     -11.489 -17.361  29.698  1.00  0.00    -0.019 C 
ATOM     10  C   UNL     1     -12.710 -18.282  29.419  1.00  0.00     0.012 C 
ATOM     11  C   UNL     1     -10.711 -17.939  30.907  1.00  0.00     0.012 C 
ENDROOT
TORSDOF 0
ENDMDL
MODEL 6
REMARK VINA RESULT:    -5.537      1.950      3.595
REMARK INTER + INTRA:          -5.537
REMARK INTER:                  -5.537
REMARK INTRA:                   0.000
REMARK UNBOUND:                 0.000
REMARK SMILES CC1=CC(=O)[C@@H]2C[C@H]1C2(C)C
REMARK SMILES IDX 1 1 2 2 3 3 4 4 5 5 6 6 7 7 8 8 9 9 10 10 11 11
REMARK H PARENT
REMARK Flexibility Score: inf
ROOT
ATOM      1  C   UNL     1     -12.463 -19.807  31.517  1.00  0.00     0.040 C 
ATOM      2  C   UNL     1     -12.687 -18.357  31.219  1.00  0.00    -0.066 C 
ATOM      3  C   UNL     1     -13.515 -17.580  31.972  1.00  0.00     0.047 C 
ATOM      4  C   UNL     1     -13.637 -16.145  31.554  1.00  0.00     0.159 C 
ATOM      5  O   UNL     1     -14.338 -15.317  32.193  1.00  0.00    -0.295 OA
ATOM      6  C   UNL     1     -12.855 -15.761  30.298  1.00  0.00     0.067 C 
ATOM      7  C   UNL     1     -13.156 -16.901  29.302  1.00  0.00     0.021 C 
ATOM      8  C   UNL     1     -12.024 -17.690  29.998  1.00  0.00     0.022 C 
ATOM      9  C   UNL     1     -11.411 -16.324  30.423  1.00  0.00    -0.019 C 
ATOM     10  C   UNL     1     -10.700 -16.235  31.803  1.00  0.00     0.012 C 
ATOM     11  C   UNL     1     -10.458 -15.745  29.347  1.00  0.00     0.012 C 
ENDROOT
TORSDOF 0
ENDMDL
MODEL 7
REMARK VINA RESULT:    -5.455      1.791      3.266
REMARK INTER + INTRA:          -5.455
REMARK INTER:                  -5.455
REMARK INTRA:                   0.000
REMARK UNBOUND:                 0.000
REMARK SMILES CC1=CC(=O)[C@@H]2C[C@H]1C2(C)C
REMARK SMILES IDX 1 1 2 2 3 3 4 4 5 5 6 6 7 7 8 8 9 9 10 10 11 11
REMARK H PARENT
REMARK Flexibility Score: inf
ROOT
ATOM      1  C   UNL     1     -12.889 -15.229  28.258  1.00  0.00     0.040 C 
ATOM      2  C   UNL     1     -12.821 -16.237  29.362  1.00  0.00    -0.066 C 
ATOM      3  C   UNL     1     -13.022 -17.568  29.145  1.00  0.00     0.047 C 
ATOM      4  C   UNL     1     -12.919 -18.457  30.348  1.00  0.00     0.159 C 
ATOM      5  O   UNL     1     -13.043 -19.708  30.271  1.00  0.00    -0.295 OA
ATOM      6  C   UNL     1     -12.658 -17.739  31.673  1.00  0.00     0.067 C 
ATOM      7  C   UNL     1     -13.638 -16.546  31.655  1.00  0.00     0.021 C 
ATOM      8  C   UNL     1     -12.573 -15.798  30.819  1.00  0.00     0.022 C 
ATOM      9  C   UNL     1     -11.500 -16.722  31.464  1.00  0.00    -0.019 C 
ATOM     10  C   UNL     1     -10.285 -17.154  30.595  1.00  0.00     0.012 C 
ATOM     11  C   UNL     1     -10.963 -16.158  32.804  1.00  0.00     0.012 C 
ENDROOT
TORSDOF 0
ENDMDL
MODEL 8
REMARK VINA RESULT:    -5.451      2.031      3.569
REMARK INTER + INTRA:          -5.451
REMARK INTER:                  -5.451
REMARK INTRA:                   0.000
REMARK UNBOUND:                 0.000
REMARK SMILES CC1=CC(=O)[C@@H]2C[C@H]1C2(C)C
REMARK SMILES IDX 1 1 2 2 3 3 4 4 5 5 6 6 7 7 8 8 9 9 10 10 11 11
REMARK H PARENT
REMARK Flexibility Score: inf
ROOT
ATOM      1  C   UNL     1     -12.831 -19.808  29.513  1.00  0.00     0.040 C 
ATOM      2  C   UNL     1     -12.633 -18.548  28.729  1.00  0.00    -0.066 C 
ATOM      3  C   UNL     1     -13.598 -18.041  27.912  1.00  0.00     0.047 C 
ATOM      4  C   UNL     1     -13.257 -16.770  27.194  1.00  0.00     0.159 C 
ATOM      5  O   UNL     1     -14.079 -16.181  26.444  1.00  0.00    -0.295 OA
ATOM      6  C   UNL     1     -11.842 -16.242  27.434  1.00  0.00     0.067 C 
ATOM      7  C   UNL     1     -10.945 -17.491  27.297  1.00  0.00     0.021 C 
ATOM      8  C   UNL     1     -11.290 -17.793  28.773  1.00  0.00     0.022 C 
ATOM      9  C   UNL     1     -11.556 -16.271  28.962  1.00  0.00    -0.019 C 
ATOM     10  C   UNL     1     -12.690 -15.839  29.935  1.00  0.00     0.012 C 
ATOM     11  C   UNL     1     -10.272 -15.489  29.336  1.00  0.00     0.012 C 
ENDROOT
TORSDOF 0
ENDMDL
MODEL 9
REMARK VINA RESULT:    -5.438      1.058      3.267
REMARK INTER + INTRA:          -5.438
REMARK INTER:                  -5.438
REMARK INTRA:                   0.000
REMARK UNBOUND:                 0.000
REMARK SMILES CC1=CC(=O)[C@@H]2C[C@H]1C2(C)C
REMARK SMILES IDX 1 1 2 2 3 3 4 4 5 5 6 6 7 7 8 8 9 9 10 10 11 11
REMARK H PARENT
REMARK Flexibility Score: inf
ROOT
ATOM      1  C   UNL     1     -10.631 -17.373  25.698  1.00  0.00     0.040 C 
ATOM      2  C   UNL     1     -11.383 -17.280  26.989  1.00  0.00    -0.066 C 
ATOM      3  C   UNL     1     -11.113 -18.096  28.047  1.00  0.00     0.047 C 
ATOM      4  C   UNL     1     -11.947 -17.884  29.275  1.00  0.00     0.159 C 
ATOM      5  O   UNL     1     -11.766 -18.544  30.331  1.00  0.00    -0.295 OA
ATOM      6  C   UNL     1     -13.032 -16.814  29.153  1.00  0.00     0.067 C 
ATOM      7  C   UNL     1     -13.695 -17.103  27.789  1.00  0.00     0.021 C 
ATOM      8  C   UNL     1     -12.547 -16.284  27.156  1.00  0.00     0.022 C 
ATOM      9  C   UNL     1     -12.403 -15.542  28.516  1.00  0.00    -0.019 C 
ATOM     10  C   UNL     1     -10.980 -15.114  28.972  1.00  0.00     0.012 C 
ATOM     11  C   UNL     1     -13.337 -14.309  28.618  1.00  0.00     0.012 C 
ENDROOT
TORSDOF 0
ENDMDL
