MODEL 1
REMARK VINA RESULT:    -3.490      0.000      0.000
REMARK INTER + INTRA:          -4.923
REMARK INTER:                  -4.510
REMARK INTRA:                  -0.413
REMARK UNBOUND:                -0.413
REMARK SMILES CCO[C@@H]1O[C@H](CO)[C@H](O)[C@H](O)[C@H]1O
REMARK SMILES IDX 4 1 13 2 11 3 9 4 6 5 5 6 3 7 2 8 1 9 14 10 12 12 7 14 8 15
REMARK SMILES IDX 10 17
REMARK H PARENT 14 11 12 13 8 16 10 18
REMARK Flexibility Score: inf
ROOT
ATOM      1  C   UNL     1      -9.389   4.512  -3.184  1.00  0.00     0.281 C 
ATOM      2  C   UNL     1      -8.274   4.839  -2.163  1.00  0.00     0.202 C 
ATOM      3  C   UNL     1      -8.737   5.936  -1.177  1.00  0.00     0.179 C 
ATOM      4  C   UNL     1      -9.875   6.797  -1.788  1.00  0.00     0.177 C 
ATOM      5  C   UNL     1      -9.794   6.886  -3.341  1.00  0.00     0.178 C 
ATOM      6  O   UNL     1      -9.754   5.623  -4.004  1.00  0.00    -0.341 OA
ENDROOT
BRANCH   1   7
ATOM      7  O   UNL     1      -9.035   3.381  -3.968  1.00  0.00    -0.350 OA
BRANCH   7   8
ATOM      8  C   UNL     1      -8.899   3.696  -5.341  1.00  0.00     0.160 C 
ATOM      9  C   UNL     1      -8.910   2.409  -6.150  1.00  0.00     0.035 C 
ENDBRANCH   7   8
ENDBRANCH   1   7
BRANCH   2  10
ATOM     10  O   UNL     1      -7.934   3.673  -1.457  1.00  0.00    -0.385 OA
ATOM     11  H   UNL     1      -7.846   3.931  -0.503  1.00  0.00     0.211 HD
ENDBRANCH   2  10
BRANCH   3  12
ATOM     12  O   UNL     1      -7.627   6.726  -0.825  1.00  0.00    -0.387 OA
ATOM     13  H   UNL     1      -6.885   6.476  -1.436  1.00  0.00     0.211 HD
ENDBRANCH   3  12
BRANCH   5  14
ATOM     14  C   UNL     1      -8.633   7.766  -3.850  1.00  0.00     0.191 C 
BRANCH  14  15
ATOM     15  O   UNL     1      -8.877   9.117  -3.564  1.00  0.00    -0.394 OA
ATOM     16  H   UNL     1      -8.014   9.502  -3.258  1.00  0.00     0.210 HD
ENDBRANCH  14  15
ENDBRANCH   5  14
BRANCH   4  17
ATOM     17  O   UNL     1      -9.994   8.060  -1.178  1.00  0.00    -0.387 OA
ATOM     18  H   UNL     1      -9.750   7.973  -0.222  1.00  0.00     0.211 HD
ENDBRANCH   4  17
TORSDOF 7
ENDMDL
MODEL 2
REMARK VINA RESULT:    -3.215     20.977     22.213
REMARK INTER + INTRA:          -4.568
REMARK INTER:                  -4.325
REMARK INTRA:                  -0.243
REMARK UNBOUND:                -0.413
REMARK SMILES CCO[C@@H]1O[C@H](CO)[C@H](O)[C@H](O)[C@H]1O
REMARK SMILES IDX 4 1 13 2 11 3 9 4 6 5 5 6 3 7 2 8 1 9 14 10 12 12 7 14 8 15
REMARK SMILES IDX 10 17
REMARK H PARENT 14 11 12 13 8 16 10 18
REMARK Flexibility Score: inf
ROOT
ATOM      1  C   UNL     1       9.175  -7.711  -7.435  1.00  0.00     0.281 C 
ATOM      2  C   UNL     1       9.002  -6.386  -6.657  1.00  0.00     0.202 C 
ATOM      3  C   UNL     1       9.179  -6.614  -5.138  1.00  0.00     0.179 C 
ATOM      4  C   UNL     1       8.900  -8.092  -4.755  1.00  0.00     0.177 C 
ATOM      5  C   UNL     1       7.872  -8.775  -5.705  1.00  0.00     0.178 C 
ATOM      6  O   UNL     1       8.211  -8.707  -7.090  1.00  0.00    -0.341 OA
ENDROOT
BRANCH   1   7
ATOM      7  O   UNL     1       9.196  -7.471  -8.835  1.00  0.00    -0.350 OA
BRANCH   7   8
ATOM      8  C   UNL     1       7.897  -7.331  -9.379  1.00  0.00     0.160 C 
ATOM      9  C   UNL     1       7.810  -6.008 -10.125  1.00  0.00     0.035 C 
ENDBRANCH   7   8
ENDBRANCH   1   7
BRANCH   2  10
ATOM     10  O   UNL     1       9.943  -5.451  -7.115  1.00  0.00    -0.385 OA
ATOM     11  H   UNL     1       9.900  -4.674  -6.498  1.00  0.00     0.211 HD
ENDBRANCH   2  10
BRANCH   3  12
ATOM     12  O   UNL     1       8.329  -5.733  -4.445  1.00  0.00    -0.387 OA
ATOM     13  H   UNL     1       8.674  -4.815  -4.596  1.00  0.00     0.211 HD
ENDBRANCH   3  12
BRANCH   5  14
ATOM     14  C   UNL     1       6.424  -8.280  -5.510  1.00  0.00     0.191 C 
BRANCH  14  15
ATOM     15  O   UNL     1       5.539  -9.365  -5.436  1.00  0.00    -0.394 OA
ATOM     16  H   UNL     1       4.625  -8.995  -5.561  1.00  0.00     0.210 HD
ENDBRANCH  14  15
ENDBRANCH   5  14
BRANCH   4  17
ATOM     17  O   UNL     1       8.571  -8.253  -3.395  1.00  0.00    -0.387 OA
ATOM     18  H   UNL     1       8.390  -9.212  -3.226  1.00  0.00     0.211 HD
ENDBRANCH   4  17
TORSDOF 7
ENDMDL
MODEL 3
REMARK VINA RESULT:    -3.149      1.318      1.486
REMARK INTER + INTRA:          -4.482
REMARK INTER:                  -4.000
REMARK INTRA:                  -0.482
REMARK UNBOUND:                -0.413
REMARK SMILES CCO[C@@H]1O[C@H](CO)[C@H](O)[C@H](O)[C@H]1O
REMARK SMILES IDX 4 1 13 2 11 3 9 4 6 5 5 6 3 7 2 8 1 9 14 10 12 12 7 14 8 15
REMARK SMILES IDX 10 17
REMARK H PARENT 14 11 12 13 8 16 10 18
REMARK Flexibility Score: inf
ROOT
ATOM      1  C   UNL     1      -9.813   5.659  -4.257  1.00  0.00     0.281 C 
ATOM      2  C   UNL     1      -8.695   5.211  -3.287  1.00  0.00     0.202 C 
ATOM      3  C   UNL     1      -8.912   5.815  -1.881  1.00  0.00     0.179 C 
ATOM      4  C   UNL     1      -9.778   7.101  -1.950  1.00  0.00     0.177 C 
ATOM      5  C   UNL     1      -9.615   7.864  -3.297  1.00  0.00     0.178 C 
ATOM      6  O   UNL     1      -9.860   7.072  -4.459  1.00  0.00    -0.341 OA
ENDROOT
BRANCH   1   7
ATOM      7  O   UNL     1      -9.716   4.960  -5.491  1.00  0.00    -0.350 OA
BRANCH   7   8
ATOM      8  C   UNL     1      -8.742   5.517  -6.353  1.00  0.00     0.160 C 
ATOM      9  C   UNL     1      -7.865   4.402  -6.899  1.00  0.00     0.035 C 
ENDBRANCH   7   8
ENDBRANCH   1   7
BRANCH   2  10
ATOM     10  O   UNL     1      -8.680   3.808  -3.210  1.00  0.00    -0.385 OA
ATOM     11  H   UNL     1      -7.922   3.561  -2.619  1.00  0.00     0.211 HD
ENDBRANCH   2  10
BRANCH   3  12
ATOM     12  O   UNL     1      -7.658   6.070  -1.298  1.00  0.00    -0.387 OA
ATOM     13  H   UNL     1      -7.818   6.281  -0.340  1.00  0.00     0.211 HD
ENDBRANCH   3  12
BRANCH   5  14
ATOM     14  C   UNL     1      -8.254   8.576  -3.444  1.00  0.00     0.191 C 
BRANCH  14  15
ATOM     15  O   UNL     1      -8.145   9.625  -2.520  1.00  0.00    -0.394 OA
ATOM     16  H   UNL     1      -8.339   9.237  -1.626  1.00  0.00     0.210 HD
ENDBRANCH  14  15
ENDBRANCH   5  14
BRANCH   4  17
ATOM     17  O   UNL     1      -9.608   7.936  -0.830  1.00  0.00    -0.387 OA
ATOM     18  H   UNL     1      -9.543   7.369  -0.020  1.00  0.00     0.211 HD
ENDBRANCH   4  17
TORSDOF 7
ENDMDL
MODEL 4
REMARK VINA RESULT:    -3.111      3.114      6.665
REMARK INTER + INTRA:          -4.433
REMARK INTER:                  -4.274
REMARK INTRA:                  -0.159
REMARK UNBOUND:                -0.413
REMARK SMILES CCO[C@@H]1O[C@H](CO)[C@H](O)[C@H](O)[C@H]1O
REMARK SMILES IDX 4 1 13 2 11 3 9 4 6 5 5 6 3 7 2 8 1 9 14 10 12 12 7 14 8 15
REMARK SMILES IDX 10 17
REMARK H PARENT 14 11 12 13 8 16 10 18
REMARK Flexibility Score: inf
ROOT
ATOM      1  C   UNL     1      -8.725   3.478  -5.894  1.00  0.00     0.281 C 
ATOM      2  C   UNL     1      -7.855   4.087  -7.018  1.00  0.00     0.202 C 
ATOM      3  C   UNL     1      -8.364   3.642  -8.409  1.00  0.00     0.179 C 
ATOM      4  C   UNL     1      -9.169   2.319  -8.315  1.00  0.00     0.177 C 
ATOM      5  C   UNL     1      -8.701   1.411  -7.139  1.00  0.00     0.178 C 
ATOM      6  O   UNL     1      -8.701   2.050  -5.863  1.00  0.00    -0.341 OA
ENDROOT
BRANCH   1   7
ATOM      7  O   UNL     1      -8.375   4.032  -4.633  1.00  0.00    -0.350 OA
BRANCH   7   8
ATOM      8  C   UNL     1      -9.385   3.842  -3.660  1.00  0.00     0.160 C 
ATOM      9  C   UNL     1      -8.819   4.162  -2.285  1.00  0.00     0.035 C 
ENDBRANCH   7   8
ENDBRANCH   1   7
BRANCH   2  10
ATOM     10  O   UNL     1      -7.884   5.488  -6.922  1.00  0.00    -0.385 OA
ATOM     11  H   UNL     1      -8.833   5.746  -6.788  1.00  0.00     0.211 HD
ENDBRANCH   2  10
BRANCH   3  12
ATOM     12  O   UNL     1      -7.263   3.514  -9.275  1.00  0.00    -0.387 OA
ATOM     13  H   UNL     1      -6.956   2.571  -9.219  1.00  0.00     0.211 HD
ENDBRANCH   3  12
BRANCH   5  14
ATOM     14  C   UNL     1      -7.328   0.750  -7.377  1.00  0.00     0.191 C 
BRANCH  14  15
ATOM     15  O   UNL     1      -6.886   0.101  -6.215  1.00  0.00    -0.394 OA
ATOM     16  H   UNL     1      -6.114  -0.464  -6.481  1.00  0.00     0.210 HD
ENDBRANCH  14  15
ENDBRANCH   5  14
BRANCH   4  17
ATOM     17  O   UNL     1      -9.233   1.628  -9.540  1.00  0.00    -0.387 OA
ATOM     18  H   UNL     1     -10.118   1.190  -9.610  1.00  0.00     0.211 HD
ENDBRANCH   4  17
TORSDOF 7
ENDMDL
MODEL 5
REMARK VINA RESULT:    -2.977      2.845      5.215
REMARK INTER + INTRA:          -4.261
REMARK INTER:                  -3.858
REMARK INTRA:                  -0.403
REMARK UNBOUND:                -0.413
REMARK SMILES CCO[C@@H]1O[C@H](CO)[C@H](O)[C@H](O)[C@H]1O
REMARK SMILES IDX 4 1 13 2 11 3 9 4 6 5 5 6 3 7 2 8 1 9 14 10 12 12 7 14 8 15
REMARK SMILES IDX 10 17
REMARK H PARENT 14 11 12 13 8 16 10 18
REMARK Flexibility Score: inf
ROOT
ATOM      1  C   UNL     1      -8.617   3.862  -5.117  1.00  0.00     0.281 C 
ATOM      2  C   UNL     1      -8.682   2.897  -6.324  1.00  0.00     0.202 C 
ATOM      3  C   UNL     1      -7.815   3.418  -7.493  1.00  0.00     0.179 C 
ATOM      4  C   UNL     1      -7.607   4.953  -7.396  1.00  0.00     0.177 C 
ATOM      5  C   UNL     1      -8.794   5.678  -6.696  1.00  0.00     0.178 C 
ATOM      6  O   UNL     1      -9.119   5.168  -5.403  1.00  0.00    -0.341 OA
ENDROOT
BRANCH   1   7
ATOM      7  O   UNL     1      -9.260   3.293  -3.985  1.00  0.00    -0.350 OA
BRANCH   7   8
ATOM      8  C   UNL     1      -9.651   4.270  -3.039  1.00  0.00     0.160 C 
ATOM      9  C   UNL     1      -8.679   4.248  -1.869  1.00  0.00     0.035 C 
ENDBRANCH   7   8
ENDBRANCH   1   7
BRANCH   2  10
ATOM     10  O   UNL     1      -8.238   1.625  -5.927  1.00  0.00    -0.385 OA
ATOM     11  H   UNL     1      -7.499   1.768  -5.279  1.00  0.00     0.211 HD
ENDBRANCH   2  10
BRANCH   3  12
ATOM     12  O   UNL     1      -8.426   3.058  -8.707  1.00  0.00    -0.387 OA
ATOM     13  H   UNL     1      -8.707   2.109  -8.623  1.00  0.00     0.211 HD
ENDBRANCH   3  12
BRANCH   5  14
ATOM     14  C   UNL     1     -10.074   5.741  -7.555  1.00  0.00     0.191 C 
BRANCH  14  15
ATOM     15  O   UNL     1      -9.875   6.562  -8.675  1.00  0.00    -0.394 OA
ATOM     16  H   UNL     1      -9.646   5.961  -9.431  1.00  0.00     0.210 HD
ENDBRANCH  14  15
ENDBRANCH   5  14
BRANCH   4  17
ATOM     17  O   UNL     1      -7.267   5.539  -8.631  1.00  0.00    -0.387 OA
ATOM     18  H   UNL     1      -6.421   5.133  -8.950  1.00  0.00     0.211 HD
ENDBRANCH   4  17
TORSDOF 7
ENDMDL
MODEL 6
REMARK VINA RESULT:    -2.930     19.415     21.022
REMARK INTER + INTRA:          -4.199
REMARK INTER:                  -3.759
REMARK INTRA:                  -0.440
REMARK UNBOUND:                -0.413
REMARK SMILES CCO[C@@H]1O[C@H](CO)[C@H](O)[C@H](O)[C@H]1O
REMARK SMILES IDX 4 1 13 2 11 3 9 4 6 5 5 6 3 7 2 8 1 9 14 10 12 12 7 14 8 15
REMARK SMILES IDX 10 17
REMARK H PARENT 14 11 12 13 8 16 10 18
REMARK Flexibility Score: inf
ROOT
ATOM      1  C   UNL     1       7.845  -2.326   8.782  1.00  0.00     0.281 C 
ATOM      2  C   UNL     1       8.414  -0.906   8.549  1.00  0.00     0.202 C 
ATOM      3  C   UNL     1       7.579   0.152   9.306  1.00  0.00     0.179 C 
ATOM      4  C   UNL     1       6.141  -0.362   9.586  1.00  0.00     0.177 C 
ATOM      5  C   UNL     1       5.645  -1.373   8.510  1.00  0.00     0.178 C 
ATOM      6  O   UNL     1       6.509  -2.491   8.305  1.00  0.00    -0.341 OA
ENDROOT
BRANCH   1   7
ATOM      7  O   UNL     1       8.716  -3.310   8.241  1.00  0.00    -0.350 OA
BRANCH   7   8
ATOM      8  C   UNL     1       8.547  -3.472   6.845  1.00  0.00     0.160 C 
ATOM      9  C   UNL     1       8.979  -4.876   6.451  1.00  0.00     0.035 C 
ENDBRANCH   7   8
ENDBRANCH   1   7
BRANCH   2  10
ATOM     10  O   UNL     1       9.749  -0.863   8.981  1.00  0.00    -0.385 OA
ATOM     11  H   UNL     1       9.729  -0.812   9.972  1.00  0.00     0.211 HD
ENDBRANCH   2  10
BRANCH   3  12
ATOM     12  O   UNL     1       7.564   1.340   8.555  1.00  0.00    -0.387 OA
ATOM     13  H   UNL     1       6.619   1.641   8.503  1.00  0.00     0.211 HD
ENDBRANCH   3  12
BRANCH   5  14
ATOM     14  C   UNL     1       5.323  -0.722   7.150  1.00  0.00     0.191 C 
BRANCH  14  15
ATOM     15  O   UNL     1       4.158   0.054   7.238  1.00  0.00    -0.394 OA
ATOM     16  H   UNL     1       4.210   0.547   8.099  1.00  0.00     0.210 HD
ENDBRANCH  14  15
ENDBRANCH   5  14
BRANCH   4  17
ATOM     17  O   UNL     1       5.223   0.680   9.815  1.00  0.00    -0.387 OA
ATOM     18  H   UNL     1       4.391   0.291  10.188  1.00  0.00     0.211 HD
ENDBRANCH   4  17
TORSDOF 7
ENDMDL
MODEL 7
REMARK VINA RESULT:    -2.878     21.202     22.344
REMARK INTER + INTRA:          -4.133
REMARK INTER:                  -3.709
REMARK INTRA:                  -0.424
REMARK UNBOUND:                -0.413
REMARK SMILES CCO[C@@H]1O[C@H](CO)[C@H](O)[C@H](O)[C@H]1O
REMARK SMILES IDX 4 1 13 2 11 3 9 4 6 5 5 6 3 7 2 8 1 9 14 10 12 12 7 14 8 15
REMARK SMILES IDX 10 17
REMARK H PARENT 14 11 12 13 8 16 10 18
REMARK Flexibility Score: inf
ROOT
ATOM      1  C   UNL     1       8.892  -6.449  -6.775  1.00  0.00     0.281 C 
ATOM      2  C   UNL     1       8.379  -7.877  -7.074  1.00  0.00     0.202 C 
ATOM      3  C   UNL     1       7.292  -8.295  -6.058  1.00  0.00     0.179 C 
ATOM      4  C   UNL     1       7.417  -7.488  -4.738  1.00  0.00     0.177 C 
ATOM      5  C   UNL     1       8.882  -7.050  -4.438  1.00  0.00     0.178 C 
ATOM      6  O   UNL     1       9.509  -6.321  -5.493  1.00  0.00    -0.341 OA
ENDROOT
BRANCH   1   7
ATOM      7  O   UNL     1       9.751  -5.997  -7.813  1.00  0.00    -0.350 OA
BRANCH   7   8
ATOM      8  C   UNL     1       9.403  -4.707  -8.279  1.00  0.00     0.160 C 
ATOM      9  C   UNL     1       8.961  -4.805  -9.731  1.00  0.00     0.035 C 
ENDBRANCH   7   8
ENDBRANCH   1   7
BRANCH   2  10
ATOM     10  O   UNL     1       7.859  -7.921  -8.378  1.00  0.00    -0.385 OA
ATOM     11  H   UNL     1       6.912  -8.207  -8.300  1.00  0.00     0.211 HD
ENDBRANCH   2  10
BRANCH   3  12
ATOM     12  O   UNL     1       7.395  -9.679  -5.826  1.00  0.00    -0.387 OA
ATOM     13  H   UNL     1       8.032 -10.040  -6.497  1.00  0.00     0.211 HD
ENDBRANCH   3  12
BRANCH   5  14
ATOM     14  C   UNL     1       9.800  -8.212  -4.006  1.00  0.00     0.191 C 
BRANCH  14  15
ATOM     15  O   UNL     1       9.420  -8.697  -2.746  1.00  0.00    -0.394 OA
ATOM     16  H   UNL     1       9.001  -7.936  -2.263  1.00  0.00     0.210 HD
ENDBRANCH  14  15
ENDBRANCH   5  14
BRANCH   4  17
ATOM     17  O   UNL     1       6.809  -8.131  -3.643  1.00  0.00    -0.387 OA
ATOM     18  H   UNL     1       6.281  -7.462  -3.138  1.00  0.00     0.211 HD
ENDBRANCH   4  17
TORSDOF 7
ENDMDL
MODEL 8
REMARK VINA RESULT:    -2.777     18.232     19.452
REMARK INTER + INTRA:          -4.001
REMARK INTER:                  -3.762
REMARK INTRA:                  -0.239
REMARK UNBOUND:                -0.413
REMARK SMILES CCO[C@@H]1O[C@H](CO)[C@H](O)[C@H](O)[C@H]1O
REMARK SMILES IDX 4 1 13 2 11 3 9 4 6 5 5 6 3 7 2 8 1 9 14 10 12 12 7 14 8 15
REMARK SMILES IDX 10 17
REMARK H PARENT 14 11 12 13 8 16 10 18
REMARK Flexibility Score: inf
ROOT
ATOM      1  C   UNL     1       9.203   9.050   2.736  1.00  0.00     0.281 C 
ATOM      2  C   UNL     1       8.030   8.882   3.729  1.00  0.00     0.202 C 
ATOM      3  C   UNL     1       8.530   8.322   5.081  1.00  0.00     0.179 C 
ATOM      4  C   UNL     1       9.870   7.557   4.911  1.00  0.00     0.177 C 
ATOM      5  C   UNL     1      10.019   6.912   3.501  1.00  0.00     0.178 C 
ATOM      6  O   UNL     1       9.859   7.823   2.414  1.00  0.00    -0.341 OA
ENDROOT
BRANCH   1   7
ATOM      7  O   UNL     1       8.775   9.734   1.566  1.00  0.00    -0.350 OA
BRANCH   7   8
ATOM      8  C   UNL     1       9.571   9.424   0.437  1.00  0.00     0.160 C 
ATOM      9  C   UNL     1       8.664   9.019  -0.715  1.00  0.00     0.035 C 
ENDBRANCH   7   8
ENDBRANCH   1   7
BRANCH   2  10
ATOM     10  O   UNL     1       7.404  10.124   3.926  1.00  0.00    -0.385 OA
ATOM     11  H   UNL     1       7.528  10.643   3.089  1.00  0.00     0.211 HD
ENDBRANCH   2  10
BRANCH   3  12
ATOM     12  O   UNL     1       7.531   7.496   5.627  1.00  0.00    -0.387 OA
ATOM     13  H   UNL     1       6.935   7.226   4.880  1.00  0.00     0.211 HD
ENDBRANCH   3  12
BRANCH   5  14
ATOM     14  C   UNL     1       9.104   5.690   3.279  1.00  0.00     0.191 C 
BRANCH  14  15
ATOM     15  O   UNL     1       8.612   5.675   1.966  1.00  0.00    -0.394 OA
ATOM     16  H   UNL     1       7.641   5.478   2.029  1.00  0.00     0.210 HD
ENDBRANCH  14  15
ENDBRANCH   5  14
BRANCH   4  17
ATOM     17  O   UNL     1      10.115   6.643   5.953  1.00  0.00    -0.387 OA
ATOM     18  H   UNL     1       9.805   5.747   5.666  1.00  0.00     0.211 HD
ENDBRANCH   4  17
TORSDOF 7
ENDMDL
