MODEL 1
REMARK VINA RESULT:    -4.939      0.000      0.000
REMARK INTER + INTRA:         -14.839
REMARK INTER:                 -11.291
REMARK INTRA:                  -3.548
REMARK UNBOUND:                -3.548
REMARK SMILES CCCCCCCCCCCCCCCCCCCCCCCC(=O)[O-]
REMARK SMILES IDX 13 1 14 2 15 3 16 4 17 5 18 6 19 7 20 8 21 9 22 10 23 11
REMARK SMILES IDX 24 12 25 13 26 14 12 15 11 16 10 17 9 18 8 19 7 20 6 21 5 22
REMARK SMILES IDX 4 23 3 24 2 25 1 26
REMARK H PARENT
REMARK Flexibility Score: inf
ROOT
ATOM      1  C   UNL     1      17.671 -31.207  20.817  1.00  0.00     0.000 C 
ENDROOT
BRANCH   1   2
ATOM      2  C   UNL     1      17.978 -30.675  22.229  1.00  0.00     0.000 C 
BRANCH   2   3
ATOM      3  C   UNL     1      16.800 -30.728  23.220  1.00  0.00     0.000 C 
BRANCH   3   4
ATOM      4  C   UNL     1      16.696 -32.077  23.951  1.00  0.00     0.000 C 
BRANCH   4   5
ATOM      5  C   UNL     1      15.511 -32.935  23.469  1.00  0.00     0.000 C 
BRANCH   5   6
ATOM      6  C   UNL     1      14.251 -32.149  23.049  1.00  0.00     0.000 C 
BRANCH   6   7
ATOM      7  C   UNL     1      13.874 -32.267  21.561  1.00  0.00     0.000 C 
BRANCH   7   8
ATOM      8  C   UNL     1      13.120 -31.033  21.036  1.00  0.00     0.000 C 
BRANCH   8   9
ATOM      9  C   UNL     1      12.024 -30.545  22.001  1.00  0.00     0.000 C 
BRANCH   9  10
ATOM     10  C   UNL     1      12.149 -29.072  22.436  1.00  0.00     0.006 C 
BRANCH  10  11
ATOM     11  C   UNL     1      12.465 -28.913  23.929  1.00  0.00     0.053 C 
BRANCH  11  12
ATOM     12  C   UNL     1      12.917 -27.518  24.223  1.00  0.00     0.041 C 
ATOM     13  O   UNL     1      13.092 -27.147  25.415  1.00  0.00    -0.550 OA
ATOM     14  O   UNL     1      13.171 -26.634  23.181  1.00  0.00    -0.550 OA
ENDBRANCH  11  12
ENDBRANCH  10  11
ENDBRANCH   9  10
ENDBRANCH   8   9
ENDBRANCH   7   8
ENDBRANCH   6   7
ENDBRANCH   5   6
ENDBRANCH   4   5
ENDBRANCH   3   4
ENDBRANCH   2   3
ENDBRANCH   1   2
BRANCH   1  15
ATOM     15  C   UNL     1      18.591 -32.362  20.397  1.00  0.00     0.000 C 
BRANCH  15  16
ATOM     16  C   UNL     1      17.860 -33.328  19.454  1.00  0.00     0.000 C 
BRANCH  16  17
ATOM     17  C   UNL     1      16.530 -33.839  20.036  1.00  0.00     0.000 C 
BRANCH  17  18
ATOM     18  C   UNL     1      16.349 -35.370  19.998  1.00  0.00    -0.000 C 
BRANCH  18  19
ATOM     19  C   UNL     1      17.628 -36.174  19.690  1.00  0.00    -0.000 C 
BRANCH  19  20
ATOM     20  C   UNL     1      17.831 -37.433  20.550  1.00  0.00    -0.000 C 
BRANCH  20  21
ATOM     21  C   UNL     1      18.762 -37.192  21.750  1.00  0.00    -0.000 C 
BRANCH  21  22
ATOM     22  C   UNL     1      19.351 -35.772  21.762  1.00  0.00    -0.000 C 
BRANCH  22  23
ATOM     23  C   UNL     1      18.894 -34.951  22.979  1.00  0.00    -0.000 C 
BRANCH  23  24
ATOM     24  C   UNL     1      17.851 -35.721  23.798  1.00  0.00    -0.000 C 
BRANCH  24  25
ATOM     25  C   UNL     1      17.960 -35.377  25.288  1.00  0.00    -0.003 C 
ATOM     26  C   UNL     1      17.059 -36.276  26.130  1.00  0.00     0.004 C 
ENDBRANCH  24  25
ENDBRANCH  23  24
ENDBRANCH  22  23
ENDBRANCH  21  22
ENDBRANCH  20  21
ENDBRANCH  19  20
ENDBRANCH  18  19
ENDBRANCH  17  18
ENDBRANCH  16  17
ENDBRANCH  15  16
ENDBRANCH   1  15
TORSDOF 22
ENDMDL
MODEL 2
REMARK VINA RESULT:    -4.866      2.626      4.667
REMARK INTER + INTRA:         -14.671
REMARK INTER:                 -10.859
REMARK INTRA:                  -3.812
REMARK UNBOUND:                -3.548
REMARK SMILES CCCCCCCCCCCCCCCCCCCCCCCC(=O)[O-]
REMARK SMILES IDX 13 1 14 2 15 3 16 4 17 5 18 6 19 7 20 8 21 9 22 10 23 11
REMARK SMILES IDX 24 12 25 13 26 14 12 15 11 16 10 17 9 18 8 19 7 20 6 21 5 22
REMARK SMILES IDX 4 23 3 24 2 25 1 26
REMARK H PARENT
REMARK Flexibility Score: inf
ROOT
ATOM      1  C   UNL     1      17.501 -35.024  19.979  1.00  0.00     0.000 C 
ENDROOT
BRANCH   1   2
ATOM      2  C   UNL     1      16.498 -33.991  19.431  1.00  0.00     0.000 C 
BRANCH   2   3
ATOM      3  C   UNL     1      15.041 -34.184  19.893  1.00  0.00     0.000 C 
BRANCH   3   4
ATOM      4  C   UNL     1      14.620 -33.176  20.976  1.00  0.00     0.000 C 
BRANCH   4   5
ATOM      5  C   UNL     1      13.529 -32.199  20.499  1.00  0.00     0.000 C 
BRANCH   5   6
ATOM      6  C   UNL     1      13.297 -30.970  21.405  1.00  0.00     0.000 C 
BRANCH   6   7
ATOM      7  C   UNL     1      13.206 -31.277  22.910  1.00  0.00     0.000 C 
BRANCH   7   8
ATOM      8  C   UNL     1      14.440 -30.796  23.693  1.00  0.00     0.000 C 
BRANCH   8   9
ATOM      9  C   UNL     1      15.399 -29.946  22.838  1.00  0.00     0.000 C 
BRANCH   9  10
ATOM     10  C   UNL     1      16.762 -30.602  22.545  1.00  0.00     0.006 C 
BRANCH  10  11
ATOM     11  C   UNL     1      17.205 -30.437  21.085  1.00  0.00     0.053 C 
BRANCH  11  12
ATOM     12  C   UNL     1      18.672 -30.694  20.950  1.00  0.00     0.041 C 
ATOM     13  O   UNL     1      19.088 -31.846  20.655  1.00  0.00    -0.550 OA
ATOM     14  O   UNL     1      19.580 -29.655  21.125  1.00  0.00    -0.550 OA
ENDBRANCH  11  12
ENDBRANCH  10  11
ENDBRANCH   9  10
ENDBRANCH   8   9
ENDBRANCH   7   8
ENDBRANCH   6   7
ENDBRANCH   5   6
ENDBRANCH   4   5
ENDBRANCH   3   4
ENDBRANCH   2   3
ENDBRANCH   1   2
BRANCH   1  15
ATOM     15  C   UNL     1      16.962 -36.461  19.942  1.00  0.00     0.000 C 
BRANCH  15  16
ATOM     16  C   UNL     1      17.977 -37.440  20.550  1.00  0.00     0.000 C 
BRANCH  16  17
ATOM     17  C   UNL     1      18.774 -36.828  21.716  1.00  0.00     0.000 C 
BRANCH  17  18
ATOM     18  C   UNL     1      19.117 -37.808  22.855  1.00  0.00    -0.000 C 
BRANCH  18  19
ATOM     19  C   UNL     1      20.180 -37.306  23.854  1.00  0.00    -0.000 C 
BRANCH  19  20
ATOM     20  C   UNL     1      19.645 -36.946  25.251  1.00  0.00    -0.000 C 
BRANCH  20  21
ATOM     21  C   UNL     1      18.291 -37.606  25.559  1.00  0.00    -0.000 C 
BRANCH  21  22
ATOM     22  C   UNL     1      17.244 -36.598  26.062  1.00  0.00    -0.000 C 
BRANCH  22  23
ATOM     23  C   UNL     1      17.681 -35.139  25.858  1.00  0.00    -0.000 C 
BRANCH  23  24
ATOM     24  C   UNL     1      16.627 -34.356  25.065  1.00  0.00    -0.000 C 
BRANCH  24  25
ATOM     25  C   UNL     1      17.035 -34.223  23.593  1.00  0.00    -0.003 C 
ATOM     26  C   UNL     1      18.461 -33.698  23.461  1.00  0.00     0.004 C 
ENDBRANCH  24  25
ENDBRANCH  23  24
ENDBRANCH  22  23
ENDBRANCH  21  22
ENDBRANCH  20  21
ENDBRANCH  19  20
ENDBRANCH  18  19
ENDBRANCH  17  18
ENDBRANCH  16  17
ENDBRANCH  15  16
ENDBRANCH   1  15
TORSDOF 22
ENDMDL
MODEL 3
REMARK VINA RESULT:    -4.863      3.695      6.253
REMARK INTER + INTRA:         -14.665
REMARK INTER:                 -11.486
REMARK INTRA:                  -3.179
REMARK UNBOUND:                -3.548
REMARK SMILES CCCCCCCCCCCCCCCCCCCCCCCC(=O)[O-]
REMARK SMILES IDX 13 1 14 2 15 3 16 4 17 5 18 6 19 7 20 8 21 9 22 10 23 11
REMARK SMILES IDX 24 12 25 13 26 14 12 15 11 16 10 17 9 18 8 19 7 20 6 21 5 22
REMARK SMILES IDX 4 23 3 24 2 25 1 26
REMARK H PARENT
REMARK Flexibility Score: inf
ROOT
ATOM      1  C   UNL     1      18.281 -35.608  22.903  1.00  0.00     0.000 C 
ENDROOT
BRANCH   1   2
ATOM      2  C   UNL     1      18.627 -34.130  23.169  1.00  0.00     0.000 C 
BRANCH   2   3
ATOM      3  C   UNL     1      19.888 -33.614  22.451  1.00  0.00     0.000 C 
BRANCH   3   4
ATOM      4  C   UNL     1      19.715 -32.194  21.887  1.00  0.00     0.000 C 
BRANCH   4   5
ATOM      5  C   UNL     1      18.800 -32.144  20.649  1.00  0.00     0.000 C 
BRANCH   5   6
ATOM      6  C   UNL     1      17.836 -30.939  20.585  1.00  0.00     0.000 C 
BRANCH   6   7
ATOM      7  C   UNL     1      18.245 -29.730  21.445  1.00  0.00     0.000 C 
BRANCH   7   8
ATOM      8  C   UNL     1      18.304 -28.419  20.642  1.00  0.00     0.000 C 
BRANCH   8   9
ATOM      9  C   UNL     1      19.723 -27.828  20.561  1.00  0.00     0.000 C 
BRANCH   9  10
ATOM     10  C   UNL     1      19.782 -26.294  20.434  1.00  0.00     0.006 C 
BRANCH  10  11
ATOM     11  C   UNL     1      20.749 -25.646  21.435  1.00  0.00     0.053 C 
BRANCH  11  12
ATOM     12  C   UNL     1      21.924 -25.057  20.722  1.00  0.00     0.041 C 
ATOM     13  O   UNL     1      22.741 -24.327  21.346  1.00  0.00    -0.550 OA
ATOM     14  O   UNL     1      22.134 -25.335  19.377  1.00  0.00    -0.550 OA
ENDBRANCH  11  12
ENDBRANCH  10  11
ENDBRANCH   9  10
ENDBRANCH   8   9
ENDBRANCH   7   8
ENDBRANCH   6   7
ENDBRANCH   5   6
ENDBRANCH   4   5
ENDBRANCH   3   4
ENDBRANCH   2   3
ENDBRANCH   1   2
BRANCH   1  15
ATOM     15  C   UNL     1      18.877 -36.137  21.591  1.00  0.00     0.000 C 
BRANCH  15  16
ATOM     16  C   UNL     1      17.997 -37.248  21.001  1.00  0.00     0.000 C 
BRANCH  16  17
ATOM     17  C   UNL     1      17.303 -36.829  19.692  1.00  0.00     0.000 C 
BRANCH  17  18
ATOM     18  C   UNL     1      17.601 -35.388  19.230  1.00  0.00    -0.000 C 
BRANCH  18  19
ATOM     19  C   UNL     1      16.390 -34.435  19.234  1.00  0.00    -0.000 C 
BRANCH  19  20
ATOM     20  C   UNL     1      15.334 -34.724  20.317  1.00  0.00    -0.000 C 
BRANCH  20  21
ATOM     21  C   UNL     1      15.388 -33.725  21.484  1.00  0.00    -0.000 C 
BRANCH  21  22
ATOM     22  C   UNL     1      14.476 -32.507  21.260  1.00  0.00    -0.000 C 
BRANCH  22  23
ATOM     23  C   UNL     1      13.941 -31.917  22.574  1.00  0.00    -0.000 C 
BRANCH  23  24
ATOM     24  C   UNL     1      14.978 -30.991  23.222  1.00  0.00    -0.000 C 
BRANCH  24  25
ATOM     25  C   UNL     1      14.745 -29.533  22.812  1.00  0.00    -0.003 C 
ATOM     26  C   UNL     1      13.513 -28.955  23.503  1.00  0.00     0.004 C 
ENDBRANCH  24  25
ENDBRANCH  23  24
ENDBRANCH  22  23
ENDBRANCH  21  22
ENDBRANCH  20  21
ENDBRANCH  19  20
ENDBRANCH  18  19
ENDBRANCH  17  18
ENDBRANCH  16  17
ENDBRANCH  15  16
ENDBRANCH   1  15
TORSDOF 22
ENDMDL
MODEL 4
REMARK VINA RESULT:    -4.861      2.714      6.325
REMARK INTER + INTRA:         -14.660
REMARK INTER:                 -11.252
REMARK INTRA:                  -3.408
REMARK UNBOUND:                -3.548
REMARK SMILES CCCCCCCCCCCCCCCCCCCCCCCC(=O)[O-]
REMARK SMILES IDX 13 1 14 2 15 3 16 4 17 5 18 6 19 7 20 8 21 9 22 10 23 11
REMARK SMILES IDX 24 12 25 13 26 14 12 15 11 16 10 17 9 18 8 19 7 20 6 21 5 22
REMARK SMILES IDX 4 23 3 24 2 25 1 26
REMARK H PARENT
REMARK Flexibility Score: inf
ROOT
ATOM      1  C   UNL     1      16.164 -35.800  19.847  1.00  0.00     0.000 C 
ENDROOT
BRANCH   1   2
ATOM      2  C   UNL     1      17.493 -36.576  19.786  1.00  0.00     0.000 C 
BRANCH   2   3
ATOM      3  C   UNL     1      18.080 -36.976  21.153  1.00  0.00     0.000 C 
BRANCH   3   4
ATOM      4  C   UNL     1      17.886 -35.891  22.226  1.00  0.00     0.000 C 
BRANCH   4   5
ATOM      5  C   UNL     1      19.214 -35.281  22.714  1.00  0.00     0.000 C 
BRANCH   5   6
ATOM      6  C   UNL     1      19.081 -34.178  23.787  1.00  0.00     0.000 C 
BRANCH   6   7
ATOM      7  C   UNL     1      18.400 -34.619  25.095  1.00  0.00     0.000 C 
BRANCH   7   8
ATOM      8  C   UNL     1      16.938 -34.150  25.193  1.00  0.00     0.000 C 
BRANCH   8   9
ATOM      9  C   UNL     1      16.629 -32.952  24.276  1.00  0.00     0.000 C 
BRANCH   9  10
ATOM     10  C   UNL     1      15.287 -33.038  23.525  1.00  0.00     0.006 C 
BRANCH  10  11
ATOM     11  C   UNL     1      14.664 -31.662  23.251  1.00  0.00     0.053 C 
BRANCH  11  12
ATOM     12  C   UNL     1      13.683 -31.746  22.125  1.00  0.00     0.041 C 
ATOM     13  O   UNL     1      13.904 -32.512  21.149  1.00  0.00    -0.550 OA
ATOM     14  O   UNL     1      12.512 -30.999  22.165  1.00  0.00    -0.550 OA
ENDBRANCH  11  12
ENDBRANCH  10  11
ENDBRANCH   9  10
ENDBRANCH   8   9
ENDBRANCH   7   8
ENDBRANCH   6   7
ENDBRANCH   5   6
ENDBRANCH   4   5
ENDBRANCH   3   4
ENDBRANCH   2   3
ENDBRANCH   1   2
BRANCH   1  15
ATOM     15  C   UNL     1      16.285 -34.360  19.330  1.00  0.00     0.000 C 
BRANCH  15  16
ATOM     16  C   UNL     1      17.736 -34.040  18.940  1.00  0.00     0.000 C 
BRANCH  16  17
ATOM     17  C   UNL     1      18.396 -33.018  19.882  1.00  0.00     0.000 C 
BRANCH  17  18
ATOM     18  C   UNL     1      17.415 -32.090  20.626  1.00  0.00    -0.000 C 
BRANCH  18  19
ATOM     19  C   UNL     1      18.001 -30.732  21.064  1.00  0.00    -0.000 C 
BRANCH  19  20
ATOM     20  C   UNL     1      18.775 -30.753  22.394  1.00  0.00    -0.000 C 
BRANCH  20  21
ATOM     21  C   UNL     1      20.152 -30.078  22.293  1.00  0.00    -0.000 C 
BRANCH  21  22
ATOM     22  C   UNL     1      20.546 -29.756  20.842  1.00  0.00    -0.000 C 
BRANCH  22  23
ATOM     23  C   UNL     1      20.871 -28.269  20.632  1.00  0.00    -0.000 C 
BRANCH  23  24
ATOM     24  C   UNL     1      19.587 -27.437  20.523  1.00  0.00    -0.000 C 
BRANCH  24  25
ATOM     25  C   UNL     1      19.887 -25.941  20.672  1.00  0.00    -0.003 C 
ATOM     26  C   UNL     1      21.157 -25.555  19.919  1.00  0.00     0.004 C 
ENDBRANCH  24  25
ENDBRANCH  23  24
ENDBRANCH  22  23
ENDBRANCH  21  22
ENDBRANCH  20  21
ENDBRANCH  19  20
ENDBRANCH  18  19
ENDBRANCH  17  18
ENDBRANCH  16  17
ENDBRANCH  15  16
ENDBRANCH   1  15
TORSDOF 22
ENDMDL
MODEL 5
REMARK VINA RESULT:    -4.858      3.911      6.249
REMARK INTER + INTRA:         -14.654
REMARK INTER:                 -11.024
REMARK INTRA:                  -3.630
REMARK UNBOUND:                -3.548
REMARK SMILES CCCCCCCCCCCCCCCCCCCCCCCC(=O)[O-]
REMARK SMILES IDX 13 1 14 2 15 3 16 4 17 5 18 6 19 7 20 8 21 9 22 10 23 11
REMARK SMILES IDX 24 12 25 13 26 14 12 15 11 16 10 17 9 18 8 19 7 20 6 21 5 22
REMARK SMILES IDX 4 23 3 24 2 25 1 26
REMARK H PARENT
REMARK Flexibility Score: inf
ROOT
ATOM      1  C   UNL     1      16.536 -31.274  23.522  1.00  0.00     0.000 C 
ENDROOT
BRANCH   1   2
ATOM      2  C   UNL     1      16.454 -29.920  22.793  1.00  0.00     0.000 C 
BRANCH   2   3
ATOM      3  C   UNL     1      17.058 -29.901  21.377  1.00  0.00     0.000 C 
BRANCH   3   4
ATOM      4  C   UNL     1      17.448 -31.302  20.876  1.00  0.00     0.000 C 
BRANCH   4   5
ATOM      5  C   UNL     1      18.971 -31.532  20.852  1.00  0.00     0.000 C 
BRANCH   5   6
ATOM      6  C   UNL     1      19.811 -30.493  21.628  1.00  0.00     0.000 C 
BRANCH   6   7
ATOM      7  C   UNL     1      21.023 -29.932  20.864  1.00  0.00     0.000 C 
BRANCH   7   8
ATOM      8  C   UNL     1      21.166 -28.407  21.008  1.00  0.00     0.000 C 
BRANCH   8   9
ATOM      9  C   UNL     1      19.938 -27.637  20.489  1.00  0.00     0.000 C 
BRANCH   9  10
ATOM     10  C   UNL     1      19.975 -26.116  20.728  1.00  0.00     0.006 C 
BRANCH  10  11
ATOM     11  C   UNL     1      20.877 -25.374  19.733  1.00  0.00     0.053 C 
BRANCH  11  12
ATOM     12  C   UNL     1      22.112 -24.878  20.415  1.00  0.00     0.041 C 
ATOM     13  O   UNL     1      23.246 -25.294  20.052  1.00  0.00    -0.550 OA
ATOM     14  O   UNL     1      22.016 -23.936  21.433  1.00  0.00    -0.550 OA
ENDBRANCH  11  12
ENDBRANCH  10  11
ENDBRANCH   9  10
ENDBRANCH   8   9
ENDBRANCH   7   8
ENDBRANCH   6   7
ENDBRANCH   5   6
ENDBRANCH   4   5
ENDBRANCH   3   4
ENDBRANCH   2   3
ENDBRANCH   1   2
BRANCH   1  15
ATOM     15  C   UNL     1      17.698 -31.349  24.521  1.00  0.00     0.000 C 
BRANCH  15  16
ATOM     16  C   UNL     1      18.218 -32.788  24.647  1.00  0.00     0.000 C 
BRANCH  16  17
ATOM     17  C   UNL     1      17.473 -33.776  23.731  1.00  0.00     0.000 C 
BRANCH  17  18
ATOM     18  C   UNL     1      17.754 -35.265  24.015  1.00  0.00    -0.000 C 
BRANCH  18  19
ATOM     19  C   UNL     1      18.454 -36.029  22.874  1.00  0.00    -0.000 C 
BRANCH  19  20
ATOM     20  C   UNL     1      19.113 -35.142  21.802  1.00  0.00    -0.000 C 
BRANCH  20  21
ATOM     21  C   UNL     1      18.479 -35.316  20.412  1.00  0.00    -0.000 C 
BRANCH  21  22
ATOM     22  C   UNL     1      17.433 -36.443  20.378  1.00  0.00    -0.000 C 
BRANCH  22  23
ATOM     23  C   UNL     1      16.128 -36.018  19.688  1.00  0.00    -0.000 C 
BRANCH  23  24
ATOM     24  C   UNL     1      15.907 -34.506  19.814  1.00  0.00    -0.000 C 
BRANCH  24  25
ATOM     25  C   UNL     1      15.029 -34.179  21.027  1.00  0.00    -0.003 C 
ATOM     26  C   UNL     1      14.220 -32.905  20.796  1.00  0.00     0.004 C 
ENDBRANCH  24  25
ENDBRANCH  23  24
ENDBRANCH  22  23
ENDBRANCH  21  22
ENDBRANCH  20  21
ENDBRANCH  19  20
ENDBRANCH  18  19
ENDBRANCH  17  18
ENDBRANCH  16  17
ENDBRANCH  15  16
ENDBRANCH   1  15
TORSDOF 22
ENDMDL
MODEL 6
REMARK VINA RESULT:    -4.837      1.588      3.723
REMARK INTER + INTRA:         -14.605
REMARK INTER:                 -11.019
REMARK INTRA:                  -3.586
REMARK UNBOUND:                -3.548
REMARK SMILES CCCCCCCCCCCCCCCCCCCCCCCC(=O)[O-]
REMARK SMILES IDX 13 1 14 2 15 3 16 4 17 5 18 6 19 7 20 8 21 9 22 10 23 11
REMARK SMILES IDX 24 12 25 13 26 14 12 15 11 16 10 17 9 18 8 19 7 20 6 21 5 22
REMARK SMILES IDX 4 23 3 24 2 25 1 26
REMARK H PARENT
REMARK Flexibility Score: inf
ROOT
ATOM      1  C   UNL     1      17.949 -34.240  19.627  1.00  0.00     0.000 C 
ENDROOT
BRANCH   1   2
ATOM      2  C   UNL     1      18.589 -35.175  20.671  1.00  0.00     0.000 C 
BRANCH   2   3
ATOM      3  C   UNL     1      19.408 -34.469  21.768  1.00  0.00     0.000 C 
BRANCH   3   4
ATOM      4  C   UNL     1      18.881 -33.061  22.093  1.00  0.00     0.000 C 
BRANCH   4   5
ATOM      5  C   UNL     1      19.921 -31.954  21.839  1.00  0.00     0.000 C 
BRANCH   5   6
ATOM      6  C   UNL     1      19.446 -30.793  20.937  1.00  0.00     0.000 C 
BRANCH   6   7
ATOM      7  C   UNL     1      17.924 -30.715  20.722  1.00  0.00     0.000 C 
BRANCH   7   8
ATOM      8  C   UNL     1      17.220 -29.820  21.757  1.00  0.00     0.000 C 
BRANCH   8   9
ATOM      9  C   UNL     1      15.686 -29.843  21.626  1.00  0.00     0.000 C 
BRANCH   9  10
ATOM     10  C   UNL     1      14.919 -29.519  22.922  1.00  0.00     0.006 C 
BRANCH  10  11
ATOM     11  C   UNL     1      13.495 -30.093  22.935  1.00  0.00     0.053 C 
BRANCH  11  12
ATOM     12  C   UNL     1      12.518 -29.059  23.399  1.00  0.00     0.041 C 
ATOM     13  O   UNL     1      12.766 -28.370  24.425  1.00  0.00    -0.550 OA
ATOM     14  O   UNL     1      11.347 -28.838  22.685  1.00  0.00    -0.550 OA
ENDBRANCH  11  12
ENDBRANCH  10  11
ENDBRANCH   9  10
ENDBRANCH   8   9
ENDBRANCH   7   8
ENDBRANCH   6   7
ENDBRANCH   5   6
ENDBRANCH   4   5
ENDBRANCH   3   4
ENDBRANCH   2   3
ENDBRANCH   1   2
BRANCH   1  15
ATOM     15  C   UNL     1      16.580 -34.732  19.139  1.00  0.00     0.000 C 
BRANCH  15  16
ATOM     16  C   UNL     1      15.597 -34.863  20.311  1.00  0.00     0.000 C 
BRANCH  16  17
ATOM     17  C   UNL     1      15.319 -33.520  21.010  1.00  0.00     0.000 C 
BRANCH  17  18
ATOM     18  C   UNL     1      14.973 -33.627  22.509  1.00  0.00    -0.000 C 
BRANCH  18  19
ATOM     19  C   UNL     1      15.996 -32.984  23.466  1.00  0.00    -0.000 C 
BRANCH  19  20
ATOM     20  C   UNL     1      16.198 -33.725  24.800  1.00  0.00    -0.000 C 
BRANCH  20  21
ATOM     21  C   UNL     1      17.586 -33.480  25.414  1.00  0.00    -0.000 C 
BRANCH  21  22
ATOM     22  C   UNL     1      18.420 -34.768  25.520  1.00  0.00    -0.000 C 
BRANCH  22  23
ATOM     23  C   UNL     1      17.751 -35.965  24.828  1.00  0.00    -0.000 C 
BRANCH  23  24
ATOM     24  C   UNL     1      18.418 -37.282  25.244  1.00  0.00    -0.000 C 
BRANCH  24  25
ATOM     25  C   UNL     1      18.043 -37.657  26.683  1.00  0.00    -0.003 C 
ATOM     26  C   UNL     1      16.529 -37.732  26.857  1.00  0.00     0.004 C 
ENDBRANCH  24  25
ENDBRANCH  23  24
ENDBRANCH  22  23
ENDBRANCH  21  22
ENDBRANCH  20  21
ENDBRANCH  19  20
ENDBRANCH  18  19
ENDBRANCH  17  18
ENDBRANCH  16  17
ENDBRANCH  15  16
ENDBRANCH   1  15
TORSDOF 22
ENDMDL
MODEL 7
REMARK VINA RESULT:    -4.825      3.679      5.817
REMARK INTER + INTRA:         -14.580
REMARK INTER:                 -10.964
REMARK INTRA:                  -3.615
REMARK UNBOUND:                -3.548
REMARK SMILES CCCCCCCCCCCCCCCCCCCCCCCC(=O)[O-]
REMARK SMILES IDX 13 1 14 2 15 3 16 4 17 5 18 6 19 7 20 8 21 9 22 10 23 11
REMARK SMILES IDX 24 12 25 13 26 14 12 15 11 16 10 17 9 18 8 19 7 20 6 21 5 22
REMARK SMILES IDX 4 23 3 24 2 25 1 26
REMARK H PARENT
REMARK Flexibility Score: inf
ROOT
ATOM      1  C   UNL     1      14.472 -31.420  23.056  1.00  0.00     0.000 C 
ENDROOT
BRANCH   1   2
ATOM      2  C   UNL     1      15.538 -30.323  23.240  1.00  0.00     0.000 C 
BRANCH   2   3
ATOM      3  C   UNL     1      15.835 -29.482  21.984  1.00  0.00     0.000 C 
BRANCH   3   4
ATOM      4  C   UNL     1      17.272 -29.667  21.469  1.00  0.00     0.000 C 
BRANCH   4   5
ATOM      5  C   UNL     1      17.524 -31.064  20.870  1.00  0.00     0.000 C 
BRANCH   5   6
ATOM      6  C   UNL     1      18.994 -31.536  20.884  1.00  0.00     0.000 C 
BRANCH   6   7
ATOM      7  C   UNL     1      19.764 -31.235  22.182  1.00  0.00     0.000 C 
BRANCH   7   8
ATOM      8  C   UNL     1      20.934 -30.258  21.969  1.00  0.00     0.000 C 
BRANCH   8   9
ATOM      9  C   UNL     1      20.831 -29.478  20.645  1.00  0.00     0.000 C 
BRANCH   9  10
ATOM     10  C   UNL     1      21.045 -27.958  20.767  1.00  0.00     0.006 C 
BRANCH  10  11
ATOM     11  C   UNL     1      22.050 -27.580  21.865  1.00  0.00     0.053 C 
BRANCH  11  12
ATOM     12  C   UNL     1      22.883 -26.415  21.434  1.00  0.00     0.041 C 
ATOM     13  O   UNL     1      23.615 -26.504  20.411  1.00  0.00    -0.550 OA
ATOM     14  O   UNL     1      22.833 -25.222  22.146  1.00  0.00    -0.550 OA
ENDBRANCH  11  12
ENDBRANCH  10  11
ENDBRANCH   9  10
ENDBRANCH   8   9
ENDBRANCH   7   8
ENDBRANCH   6   7
ENDBRANCH   5   6
ENDBRANCH   4   5
ENDBRANCH   3   4
ENDBRANCH   2   3
ENDBRANCH   1   2
BRANCH   1  15
ATOM     15  C   UNL     1      13.459 -31.093  21.949  1.00  0.00     0.000 C 
BRANCH  15  16
ATOM     16  C   UNL     1      13.603 -32.069  20.773  1.00  0.00     0.000 C 
BRANCH  16  17
ATOM     17  C   UNL     1      14.601 -33.205  21.057  1.00  0.00     0.000 C 
BRANCH  17  18
ATOM     18  C   UNL     1      14.938 -34.094  19.843  1.00  0.00    -0.000 C 
BRANCH  18  19
ATOM     19  C   UNL     1      16.443 -34.270  19.556  1.00  0.00    -0.000 C 
BRANCH  19  20
ATOM     20  C   UNL     1      16.908 -35.726  19.373  1.00  0.00    -0.000 C 
BRANCH  20  21
ATOM     21  C   UNL     1      17.596 -36.294  20.625  1.00  0.00    -0.000 C 
BRANCH  21  22
ATOM     22  C   UNL     1      18.190 -35.195  21.521  1.00  0.00    -0.000 C 
BRANCH  22  23
ATOM     23  C   UNL     1      18.428 -35.669  22.963  1.00  0.00    -0.000 C 
BRANCH  23  24
ATOM     24  C   UNL     1      17.368 -35.094  23.911  1.00  0.00    -0.000 C 
BRANCH  24  25
ATOM     25  C   UNL     1      17.217 -33.582  23.712  1.00  0.00    -0.003 C 
ATOM     26  C   UNL     1      17.921 -32.805  24.821  1.00  0.00     0.004 C 
ENDBRANCH  24  25
ENDBRANCH  23  24
ENDBRANCH  22  23
ENDBRANCH  21  22
ENDBRANCH  20  21
ENDBRANCH  19  20
ENDBRANCH  18  19
ENDBRANCH  17  18
ENDBRANCH  16  17
ENDBRANCH  15  16
ENDBRANCH   1  15
TORSDOF 22
ENDMDL
MODEL 8
REMARK VINA RESULT:    -4.802      2.148      4.816
REMARK INTER + INTRA:         -14.526
REMARK INTER:                 -10.660
REMARK INTRA:                  -3.865
REMARK UNBOUND:                -3.548
REMARK SMILES CCCCCCCCCCCCCCCCCCCCCCCC(=O)[O-]
REMARK SMILES IDX 13 1 14 2 15 3 16 4 17 5 18 6 19 7 20 8 21 9 22 10 23 11
REMARK SMILES IDX 24 12 25 13 26 14 12 15 11 16 10 17 9 18 8 19 7 20 6 21 5 22
REMARK SMILES IDX 4 23 3 24 2 25 1 26
REMARK H PARENT
REMARK Flexibility Score: inf
ROOT
ATOM      1  C   UNL     1      16.886 -36.044  20.602  1.00  0.00     0.000 C 
ENDROOT
BRANCH   1   2
ATOM      2  C   UNL     1      17.996 -37.081  20.858  1.00  0.00     0.000 C 
BRANCH   2   3
ATOM      3  C   UNL     1      18.864 -36.817  22.103  1.00  0.00     0.000 C 
BRANCH   3   4
ATOM      4  C   UNL     1      19.351 -35.361  22.193  1.00  0.00     0.000 C 
BRANCH   4   5
ATOM      5  C   UNL     1      18.831 -34.628  23.444  1.00  0.00     0.000 C 
BRANCH   5   6
ATOM      6  C   UNL     1      17.637 -35.299  24.158  1.00  0.00     0.000 C 
BRANCH   6   7
ATOM      7  C   UNL     1      16.733 -34.343  24.956  1.00  0.00     0.000 C 
BRANCH   7   8
ATOM      8  C   UNL     1      16.309 -33.107  24.145  1.00  0.00     0.000 C 
BRANCH   8   9
ATOM      9  C   UNL     1      14.857 -33.191  23.637  1.00  0.00     0.000 C 
BRANCH   9  10
ATOM     10  C   UNL     1      14.049 -31.886  23.761  1.00  0.00     0.006 C 
BRANCH  10  11
ATOM     11  C   UNL     1      14.857 -30.640  23.373  1.00  0.00     0.053 C 
BRANCH  11  12
ATOM     12  C   UNL     1      13.967 -29.440  23.298  1.00  0.00     0.041 C 
ATOM     13  O   UNL     1      14.272 -28.473  22.548  1.00  0.00    -0.550 OA
ATOM     14  O   UNL     1      12.789 -29.399  24.034  1.00  0.00    -0.550 OA
ENDBRANCH  11  12
ENDBRANCH  10  11
ENDBRANCH   9  10
ENDBRANCH   8   9
ENDBRANCH   7   8
ENDBRANCH   6   7
ENDBRANCH   5   6
ENDBRANCH   4   5
ENDBRANCH   3   4
ENDBRANCH   2   3
ENDBRANCH   1   2
BRANCH   1  15
ATOM     15  C   UNL     1      16.880 -35.513  19.162  1.00  0.00     0.000 C 
BRANCH  15  16
ATOM     16  C   UNL     1      17.119 -33.997  19.138  1.00  0.00     0.000 C 
BRANCH  16  17
ATOM     17  C   UNL     1      16.566 -33.285  20.385  1.00  0.00     0.000 C 
BRANCH  17  18
ATOM     18  C   UNL     1      17.354 -32.033  20.823  1.00  0.00    -0.000 C 
BRANCH  18  19
ATOM     19  C   UNL     1      18.864 -32.068  20.513  1.00  0.00    -0.000 C 
BRANCH  19  20
ATOM     20  C   UNL     1      19.772 -31.517  21.628  1.00  0.00    -0.000 C 
BRANCH  20  21
ATOM     21  C   UNL     1      18.989 -30.772  22.721  1.00  0.00    -0.000 C 
BRANCH  21  22
ATOM     22  C   UNL     1      19.548 -31.034  24.129  1.00  0.00    -0.000 C 
BRANCH  22  23
ATOM     23  C   UNL     1      18.560 -30.646  25.240  1.00  0.00    -0.000 C 
BRANCH  23  24
ATOM     24  C   UNL     1      19.218 -30.751  26.621  1.00  0.00    -0.000 C 
BRANCH  24  25
ATOM     25  C   UNL     1      19.760 -29.392  27.076  1.00  0.00    -0.003 C 
ATOM     26  C   UNL     1      18.851 -28.757  28.124  1.00  0.00     0.004 C 
ENDBRANCH  24  25
ENDBRANCH  23  24
ENDBRANCH  22  23
ENDBRANCH  21  22
ENDBRANCH  20  21
ENDBRANCH  19  20
ENDBRANCH  18  19
ENDBRANCH  17  18
ENDBRANCH  16  17
ENDBRANCH  15  16
ENDBRANCH   1  15
TORSDOF 22
ENDMDL
MODEL 9
REMARK VINA RESULT:    -4.789      3.306      5.321
REMARK INTER + INTRA:         -14.496
REMARK INTER:                 -10.601
REMARK INTRA:                  -3.896
REMARK UNBOUND:                -3.548
REMARK SMILES CCCCCCCCCCCCCCCCCCCCCCCC(=O)[O-]
REMARK SMILES IDX 13 1 14 2 15 3 16 4 17 5 18 6 19 7 20 8 21 9 22 10 23 11
REMARK SMILES IDX 24 12 25 13 26 14 12 15 11 16 10 17 9 18 8 19 7 20 6 21 5 22
REMARK SMILES IDX 4 23 3 24 2 25 1 26
REMARK H PARENT
REMARK Flexibility Score: inf
ROOT
ATOM      1  C   UNL     1      17.019 -30.358  22.956  1.00  0.00     0.000 C 
ENDROOT
BRANCH   1   2
ATOM      2  C   UNL     1      16.465 -29.680  21.689  1.00  0.00     0.000 C 
BRANCH   2   3
ATOM      3  C   UNL     1      15.069 -29.046  21.843  1.00  0.00     0.000 C 
BRANCH   3   4
ATOM      4  C   UNL     1      14.491 -29.212  23.258  1.00  0.00     0.000 C 
BRANCH   4   5
ATOM      5  C   UNL     1      13.046 -29.744  23.261  1.00  0.00     0.000 C 
BRANCH   5   6
ATOM      6  C   UNL     1      12.896 -31.258  22.996  1.00  0.00     0.000 C 
BRANCH   6   7
ATOM      7  C   UNL     1      13.912 -32.152  23.729  1.00  0.00     0.000 C 
BRANCH   7   8
ATOM      8  C   UNL     1      14.689 -33.077  22.776  1.00  0.00     0.000 C 
BRANCH   8   9
ATOM      9  C   UNL     1      14.409 -32.781  21.292  1.00  0.00     0.000 C 
BRANCH   9  10
ATOM     10  C   UNL     1      15.053 -33.768  20.299  1.00  0.00     0.006 C 
BRANCH  10  11
ATOM     11  C   UNL     1      16.294 -34.467  20.869  1.00  0.00     0.053 C 
BRANCH  11  12
ATOM     12  C   UNL     1      16.981 -35.264  19.806  1.00  0.00     0.041 C 
ATOM     13  O   UNL     1      17.906 -34.745  19.125  1.00  0.00    -0.550 OA
ATOM     14  O   UNL     1      16.619 -36.588  19.585  1.00  0.00    -0.550 OA
ENDBRANCH  11  12
ENDBRANCH  10  11
ENDBRANCH   9  10
ENDBRANCH   8   9
ENDBRANCH   7   8
ENDBRANCH   6   7
ENDBRANCH   5   6
ENDBRANCH   4   5
ENDBRANCH   3   4
ENDBRANCH   2   3
ENDBRANCH   1   2
BRANCH   1  15
ATOM     15  C   UNL     1      18.383 -31.026  22.732  1.00  0.00     0.000 C 
BRANCH  15  16
ATOM     16  C   UNL     1      18.387 -32.458  23.286  1.00  0.00     0.000 C 
BRANCH  16  17
ATOM     17  C   UNL     1      17.716 -32.566  24.666  1.00  0.00     0.000 C 
BRANCH  17  18
ATOM     18  C   UNL     1      18.025 -33.864  25.440  1.00  0.00    -0.000 C 
BRANCH  18  19
ATOM     19  C   UNL     1      17.249 -35.110  24.967  1.00  0.00    -0.000 C 
BRANCH  19  20
ATOM     20  C   UNL     1      17.118 -36.233  26.012  1.00  0.00    -0.000 C 
BRANCH  20  21
ATOM     21  C   UNL     1      18.074 -37.407  25.747  1.00  0.00    -0.000 C 
BRANCH  21  22
ATOM     22  C   UNL     1      19.548 -36.970  25.711  1.00  0.00    -0.000 C 
BRANCH  22  23
ATOM     23  C   UNL     1      20.241 -37.331  24.387  1.00  0.00    -0.000 C 
BRANCH  23  24
ATOM     24  C   UNL     1      19.244 -37.946  23.397  1.00  0.00    -0.000 C 
BRANCH  24  25
ATOM     25  C   UNL     1      19.215 -37.154  22.084  1.00  0.00    -0.003 C 
ATOM     26  C   UNL     1      19.765 -35.744  22.278  1.00  0.00     0.004 C 
ENDBRANCH  24  25
ENDBRANCH  23  24
ENDBRANCH  22  23
ENDBRANCH  21  22
ENDBRANCH  20  21
ENDBRANCH  19  20
ENDBRANCH  18  19
ENDBRANCH  17  18
ENDBRANCH  16  17
ENDBRANCH  15  16
ENDBRANCH   1  15
TORSDOF 22
ENDMDL
