MODEL 1
REMARK VINA RESULT:    -5.126      0.000      0.000
REMARK INTER + INTRA:          -9.894
REMARK INTER:                  -9.022
REMARK INTRA:                  -0.871
REMARK UNBOUND:                -0.871
REMARK SMILES CCCCCCCCCCCCCCC(=O)[O-]
REMARK SMILES IDX 9 1 10 2 11 3 12 4 13 5 14 6 15 7 16 8 17 9 8 10 7 11 6 12
REMARK SMILES IDX 5 13 4 14 3 15 2 16 1 17
REMARK H PARENT
REMARK Flexibility Score: inf
ROOT
ATOM      1  C   UNL     1      46.223  25.027   1.887  1.00  0.00     0.000 C 
ENDROOT
BRANCH   1   2
ATOM      2  C   UNL     1      45.690  26.340   2.473  1.00  0.00     0.000 C 
BRANCH   2   3
ATOM      3  C   UNL     1      44.284  26.150   3.062  1.00  0.00     0.000 C 
BRANCH   3   4
ATOM      4  C   UNL     1      44.061  26.968   4.345  1.00  0.00     0.000 C 
BRANCH   4   5
ATOM      5  C   UNL     1      45.298  26.988   5.256  1.00  0.00     0.006 C 
BRANCH   5   6
ATOM      6  C   UNL     1      44.958  27.578   6.627  1.00  0.00     0.053 C 
BRANCH   6   7
ATOM      7  C   UNL     1      44.010  26.683   7.361  1.00  0.00     0.041 C 
ATOM      8  O   UNL     1      42.807  27.025   7.517  1.00  0.00    -0.550 OA
ATOM      9  O   UNL     1      44.466  25.496   7.920  1.00  0.00    -0.550 OA
ENDBRANCH   6   7
ENDBRANCH   5   6
ENDBRANCH   4   5
ENDBRANCH   3   4
ENDBRANCH   2   3
ENDBRANCH   1   2
BRANCH   1  10
ATOM     10  C   UNL     1      47.608  24.691   2.462  1.00  0.00     0.000 C 
BRANCH  10  11
ATOM     11  C   UNL     1      47.563  24.368   3.963  1.00  0.00    -0.000 C 
BRANCH  11  12
ATOM     12  C   UNL     1      48.796  23.577   4.437  1.00  0.00    -0.000 C 
BRANCH  12  13
ATOM     13  C   UNL     1      49.119  22.387   3.509  1.00  0.00    -0.000 C 
BRANCH  13  14
ATOM     14  C   UNL     1      48.208  21.164   3.729  1.00  0.00    -0.000 C 
BRANCH  14  15
ATOM     15  C   UNL     1      48.920  19.923   4.293  1.00  0.00    -0.000 C 
BRANCH  15  16
ATOM     16  C   UNL     1      47.970  18.733   4.489  1.00  0.00    -0.003 C 
ATOM     17  C   UNL     1      48.330  17.582   3.554  1.00  0.00     0.004 C 
ENDBRANCH  15  16
ENDBRANCH  14  15
ENDBRANCH  13  14
ENDBRANCH  12  13
ENDBRANCH  11  12
ENDBRANCH  10  11
ENDBRANCH   1  10
TORSDOF 13
ENDMDL
MODEL 2
REMARK VINA RESULT:    -4.926     14.976     16.481
REMARK INTER + INTRA:          -9.541
REMARK INTER:                  -8.139
REMARK INTRA:                  -1.402
REMARK UNBOUND:                -0.871
REMARK SMILES CCCCCCCCCCCCCCC(=O)[O-]
REMARK SMILES IDX 9 1 10 2 11 3 12 4 13 5 14 6 15 7 16 8 17 9 8 10 7 11 6 12
REMARK SMILES IDX 5 13 4 14 3 15 2 16 1 17
REMARK H PARENT
REMARK Flexibility Score: inf
ROOT
ATOM      1  C   UNL     1      44.592  21.295  21.335  1.00  0.00     0.000 C 
ENDROOT
BRANCH   1   2
ATOM      2  C   UNL     1      43.479  22.296  21.668  1.00  0.00     0.000 C 
BRANCH   2   3
ATOM      3  C   UNL     1      42.636  22.616  20.424  1.00  0.00     0.000 C 
BRANCH   3   4
ATOM      4  C   UNL     1      41.525  23.641  20.708  1.00  0.00     0.000 C 
BRANCH   4   5
ATOM      5  C   UNL     1      40.906  24.214  19.424  1.00  0.00     0.006 C 
BRANCH   5   6
ATOM      6  C   UNL     1      40.815  23.142  18.335  1.00  0.00     0.053 C 
BRANCH   6   7
ATOM      7  C   UNL     1      39.455  23.146  17.710  1.00  0.00     0.041 C 
ATOM      8  O   UNL     1      38.662  24.101  17.923  1.00  0.00    -0.550 OA
ATOM      9  O   UNL     1      39.043  22.069  16.935  1.00  0.00    -0.550 OA
ENDBRANCH   6   7
ENDBRANCH   5   6
ENDBRANCH   4   5
ENDBRANCH   3   4
ENDBRANCH   2   3
ENDBRANCH   1   2
BRANCH   1  10
ATOM     10  C   UNL     1      45.974  21.880  21.664  1.00  0.00     0.000 C 
BRANCH  10  11
ATOM     11  C   UNL     1      46.840  22.093  20.413  1.00  0.00    -0.000 C 
BRANCH  11  12
ATOM     12  C   UNL     1      46.972  23.577  20.027  1.00  0.00    -0.000 C 
BRANCH  12  13
ATOM     13  C   UNL     1      45.845  24.036  19.077  1.00  0.00    -0.000 C 
BRANCH  13  14
ATOM     14  C   UNL     1      44.964  25.158  19.658  1.00  0.00    -0.000 C 
BRANCH  14  15
ATOM     15  C   UNL     1      45.492  26.582  19.420  1.00  0.00    -0.000 C 
BRANCH  15  16
ATOM     16  C   UNL     1      44.419  27.657  19.642  1.00  0.00    -0.003 C 
ATOM     17  C   UNL     1      43.082  27.028  20.022  1.00  0.00     0.004 C 
ENDBRANCH  15  16
ENDBRANCH  14  15
ENDBRANCH  13  14
ENDBRANCH  12  13
ENDBRANCH  11  12
ENDBRANCH  10  11
ENDBRANCH   1  10
TORSDOF 13
ENDMDL
MODEL 3
REMARK VINA RESULT:    -4.894     15.185     16.174
REMARK INTER + INTRA:          -9.484
REMARK INTER:                  -8.200
REMARK INTRA:                  -1.285
REMARK UNBOUND:                -0.871
REMARK SMILES CCCCCCCCCCCCCCC(=O)[O-]
REMARK SMILES IDX 9 1 10 2 11 3 12 4 13 5 14 6 15 7 16 8 17 9 8 10 7 11 6 12
REMARK SMILES IDX 5 13 4 14 3 15 2 16 1 17
REMARK H PARENT
REMARK Flexibility Score: inf
ROOT
ATOM      1  C   UNL     1      43.348  26.332  20.078  1.00  0.00     0.000 C 
ENDROOT
BRANCH   1   2
ATOM      2  C   UNL     1      41.930  25.787  19.870  1.00  0.00     0.000 C 
BRANCH   2   3
ATOM      3  C   UNL     1      41.711  24.497  20.676  1.00  0.00     0.000 C 
BRANCH   3   4
ATOM      4  C   UNL     1      40.550  23.648  20.134  1.00  0.00     0.000 C 
BRANCH   4   5
ATOM      5  C   UNL     1      40.606  23.474  18.608  1.00  0.00     0.006 C 
BRANCH   5   6
ATOM      6  C   UNL     1      39.307  23.954  17.955  1.00  0.00     0.053 C 
BRANCH   6   7
ATOM      7  C   UNL     1      38.674  22.846  17.173  1.00  0.00     0.041 C 
ATOM      8  O   UNL     1      37.476  22.942  16.795  1.00  0.00    -0.550 OA
ATOM      9  O   UNL     1      39.389  21.685  16.908  1.00  0.00    -0.550 OA
ENDBRANCH   6   7
ENDBRANCH   5   6
ENDBRANCH   4   5
ENDBRANCH   3   4
ENDBRANCH   2   3
ENDBRANCH   1   2
BRANCH   1  10
ATOM     10  C   UNL     1      44.302  25.219  20.538  1.00  0.00     0.000 C 
BRANCH  10  11
ATOM     11  C   UNL     1      44.790  24.339  19.377  1.00  0.00    -0.000 C 
BRANCH  11  12
ATOM     12  C   UNL     1      46.165  23.704  19.650  1.00  0.00    -0.000 C 
BRANCH  12  13
ATOM     13  C   UNL     1      46.558  23.780  21.140  1.00  0.00    -0.000 C 
BRANCH  13  14
ATOM     14  C   UNL     1      46.198  22.515  21.942  1.00  0.00    -0.000 C 
BRANCH  14  15
ATOM     15  C   UNL     1      45.955  21.259  21.090  1.00  0.00    -0.000 C 
BRANCH  15  16
ATOM     16  C   UNL     1      44.697  20.488  21.516  1.00  0.00    -0.003 C 
ATOM     17  C   UNL     1      43.431  21.218  21.076  1.00  0.00     0.004 C 
ENDBRANCH  15  16
ENDBRANCH  14  15
ENDBRANCH  13  14
ENDBRANCH  12  13
ENDBRANCH  11  12
ENDBRANCH  10  11
ENDBRANCH   1  10
TORSDOF 13
ENDMDL
MODEL 4
REMARK VINA RESULT:    -4.883      3.741      7.507
REMARK INTER + INTRA:          -9.466
REMARK INTER:                  -8.422
REMARK INTRA:                  -1.044
REMARK UNBOUND:                -0.871
REMARK SMILES CCCCCCCCCCCCCCC(=O)[O-]
REMARK SMILES IDX 9 1 10 2 11 3 12 4 13 5 14 6 15 7 16 8 17 9 8 10 7 11 6 12
REMARK SMILES IDX 5 13 4 14 3 15 2 16 1 17
REMARK H PARENT
REMARK Flexibility Score: inf
ROOT
ATOM      1  C   UNL     1      47.650  24.310   4.112  1.00  0.00     0.000 C 
ENDROOT
BRANCH   1   2
ATOM      2  C   UNL     1      48.755  23.248   4.175  1.00  0.00     0.000 C 
BRANCH   2   3
ATOM      3  C   UNL     1      49.020  22.645   2.787  1.00  0.00     0.000 C 
BRANCH   3   4
ATOM      4  C   UNL     1      48.606  21.168   2.692  1.00  0.00     0.000 C 
BRANCH   4   5
ATOM      5  C   UNL     1      48.756  20.424   4.028  1.00  0.00     0.006 C 
BRANCH   5   6
ATOM      6  C   UNL     1      47.695  19.328   4.166  1.00  0.00     0.053 C 
BRANCH   6   7
ATOM      7  C   UNL     1      48.344  17.994   4.366  1.00  0.00     0.041 C 
ATOM      8  O   UNL     1      47.691  16.936   4.167  1.00  0.00    -0.550 OA
ATOM      9  O   UNL     1      49.653  17.920   4.825  1.00  0.00    -0.550 OA
ENDBRANCH   6   7
ENDBRANCH   5   6
ENDBRANCH   4   5
ENDBRANCH   3   4
ENDBRANCH   2   3
ENDBRANCH   1   2
BRANCH   1  10
ATOM     10  C   UNL     1      47.459  24.818   2.675  1.00  0.00     0.000 C 
BRANCH  10  11
ATOM     11  C   UNL     1      46.002  25.195   2.368  1.00  0.00    -0.000 C 
BRANCH  11  12
ATOM     12  C   UNL     1      45.633  26.602   2.870  1.00  0.00    -0.000 C 
BRANCH  12  13
ATOM     13  C   UNL     1      44.204  26.659   3.450  1.00  0.00    -0.000 C 
BRANCH  13  14
ATOM     14  C   UNL     1      44.155  27.054   4.938  1.00  0.00    -0.000 C 
BRANCH  14  15
ATOM     15  C   UNL     1      45.468  26.838   5.707  1.00  0.00    -0.000 C 
BRANCH  15  16
ATOM     16  C   UNL     1      45.241  26.329   7.138  1.00  0.00    -0.003 C 
ATOM     17  C   UNL     1      43.756  26.101   7.410  1.00  0.00     0.004 C 
ENDBRANCH  15  16
ENDBRANCH  14  15
ENDBRANCH  13  14
ENDBRANCH  12  13
ENDBRANCH  11  12
ENDBRANCH  10  11
ENDBRANCH   1  10
TORSDOF 13
ENDMDL
MODEL 5
REMARK VINA RESULT:    -4.871     11.063     13.867
REMARK INTER + INTRA:          -9.444
REMARK INTER:                  -7.775
REMARK INTRA:                  -1.669
REMARK UNBOUND:                -0.871
REMARK SMILES CCCCCCCCCCCCCCC(=O)[O-]
REMARK SMILES IDX 9 1 10 2 11 3 12 4 13 5 14 6 15 7 16 8 17 9 8 10 7 11 6 12
REMARK SMILES IDX 5 13 4 14 3 15 2 16 1 17
REMARK H PARENT
REMARK Flexibility Score: inf
ROOT
ATOM      1  C   UNL     1      46.520  34.760  15.946  1.00  0.00     0.000 C 
ENDROOT
BRANCH   1   2
ATOM      2  C   UNL     1      46.875  35.051  14.483  1.00  0.00     0.000 C 
BRANCH   2   3
ATOM      3  C   UNL     1      45.959  34.271  13.527  1.00  0.00     0.000 C 
BRANCH   3   4
ATOM      4  C   UNL     1      46.020  34.797  12.084  1.00  0.00     0.000 C 
BRANCH   4   5
ATOM      5  C   UNL     1      47.343  34.455  11.384  1.00  0.00     0.006 C 
BRANCH   5   6
ATOM      6  C   UNL     1      47.174  33.251  10.453  1.00  0.00     0.053 C 
BRANCH   6   7
ATOM      7  C   UNL     1      48.088  32.139  10.863  1.00  0.00     0.041 C 
ATOM      8  O   UNL     1      48.924  31.672  10.045  1.00  0.00    -0.550 OA
ATOM      9  O   UNL     1      47.980  31.582  12.131  1.00  0.00    -0.550 OA
ENDBRANCH   6   7
ENDBRANCH   5   6
ENDBRANCH   4   5
ENDBRANCH   3   4
ENDBRANCH   2   3
ENDBRANCH   1   2
BRANCH   1  10
ATOM     10  C   UNL     1      45.748  33.437  16.071  1.00  0.00     0.000 C 
BRANCH  10  11
ATOM     11  C   UNL     1      44.722  33.456  17.214  1.00  0.00    -0.000 C 
BRANCH  11  12
ATOM     12  C   UNL     1      43.483  32.594  16.914  1.00  0.00    -0.000 C 
BRANCH  12  13
ATOM     13  C   UNL     1      42.856  32.929  15.544  1.00  0.00    -0.000 C 
BRANCH  13  14
ATOM     14  C   UNL     1      42.839  31.741  14.563  1.00  0.00    -0.000 C 
BRANCH  14  15
ATOM     15  C   UNL     1      43.704  30.542  14.987  1.00  0.00    -0.000 C 
BRANCH  15  16
ATOM     16  C   UNL     1      44.741  30.154  13.923  1.00  0.00    -0.003 C 
ATOM     17  C   UNL     1      44.586  31.009  12.668  1.00  0.00     0.004 C 
ENDBRANCH  15  16
ENDBRANCH  14  15
ENDBRANCH  13  14
ENDBRANCH  12  13
ENDBRANCH  11  12
ENDBRANCH  10  11
ENDBRANCH   1  10
TORSDOF 13
ENDMDL
MODEL 6
REMARK VINA RESULT:    -4.848     10.616     13.768
REMARK INTER + INTRA:          -9.403
REMARK INTER:                  -7.017
REMARK INTRA:                  -2.386
REMARK UNBOUND:                -0.871
REMARK SMILES CCCCCCCCCCCCCCC(=O)[O-]
REMARK SMILES IDX 9 1 10 2 11 3 12 4 13 5 14 6 15 7 16 8 17 9 8 10 7 11 6 12
REMARK SMILES IDX 5 13 4 14 3 15 2 16 1 17
REMARK H PARENT
REMARK Flexibility Score: inf
ROOT
ATOM      1  C   UNL     1      44.974  33.413  16.798  1.00  0.00     0.000 C 
ENDROOT
BRANCH   1   2
ATOM      2  C   UNL     1      46.149  33.950  15.972  1.00  0.00     0.000 C 
BRANCH   2   3
ATOM      3  C   UNL     1      45.740  34.163  14.506  1.00  0.00     0.000 C 
BRANCH   3   4
ATOM      4  C   UNL     1      46.438  33.185  13.547  1.00  0.00     0.000 C 
BRANCH   4   5
ATOM      5  C   UNL     1      45.557  32.802  12.348  1.00  0.00     0.006 C 
BRANCH   5   6
ATOM      6  C   UNL     1      46.014  31.476  11.734  1.00  0.00     0.053 C 
BRANCH   6   7
ATOM      7  C   UNL     1      47.149  31.702  10.785  1.00  0.00     0.041 C 
ATOM      8  O   UNL     1      48.003  30.797  10.591  1.00  0.00    -0.550 OA
ATOM      9  O   UNL     1      47.294  32.932  10.155  1.00  0.00    -0.550 OA
ENDBRANCH   6   7
ENDBRANCH   5   6
ENDBRANCH   4   5
ENDBRANCH   3   4
ENDBRANCH   2   3
ENDBRANCH   1   2
BRANCH   1  10
ATOM     10  C   UNL     1      43.680  33.402  15.969  1.00  0.00     0.000 C 
BRANCH  10  11
ATOM     11  C   UNL     1      43.016  32.017  15.925  1.00  0.00    -0.000 C 
BRANCH  11  12
ATOM     12  C   UNL     1      43.366  31.231  14.649  1.00  0.00    -0.000 C 
BRANCH  12  13
ATOM     13  C   UNL     1      44.108  29.914  14.960  1.00  0.00    -0.000 C 
BRANCH  13  14
ATOM     14  C   UNL     1      45.627  30.088  15.151  1.00  0.00    -0.000 C 
BRANCH  14  15
ATOM     15  C   UNL     1      46.112  29.967  16.605  1.00  0.00    -0.000 C 
BRANCH  15  16
ATOM     16  C   UNL     1      45.081  29.289  17.519  1.00  0.00    -0.003 C 
ATOM     17  C   UNL     1      44.687  30.204  18.676  1.00  0.00     0.004 C 
ENDBRANCH  15  16
ENDBRANCH  14  15
ENDBRANCH  13  14
ENDBRANCH  12  13
ENDBRANCH  11  12
ENDBRANCH  10  11
ENDBRANCH   1  10
TORSDOF 13
ENDMDL
MODEL 7
REMARK VINA RESULT:    -4.838     14.832     16.228
REMARK INTER + INTRA:          -9.387
REMARK INTER:                  -7.880
REMARK INTRA:                  -1.507
REMARK UNBOUND:                -0.871
REMARK SMILES CCCCCCCCCCCCCCC(=O)[O-]
REMARK SMILES IDX 9 1 10 2 11 3 12 4 13 5 14 6 15 7 16 8 17 9 8 10 7 11 6 12
REMARK SMILES IDX 5 13 4 14 3 15 2 16 1 17
REMARK H PARENT
REMARK Flexibility Score: inf
ROOT
ATOM      1  C   UNL     1      41.625  24.975  20.940  1.00  0.00     0.000 C 
ENDROOT
BRANCH   1   2
ATOM      2  C   UNL     1      41.233  24.573  19.512  1.00  0.00     0.000 C 
BRANCH   2   3
ATOM      3  C   UNL     1      41.422  23.064  19.293  1.00  0.00     0.000 C 
BRANCH   3   4
ATOM      4  C   UNL     1      41.491  22.684  17.805  1.00  0.00     0.000 C 
BRANCH   4   5
ATOM      5  C   UNL     1      40.170  22.102  17.280  1.00  0.00     0.006 C 
BRANCH   5   6
ATOM      6  C   UNL     1      39.176  23.217  16.945  1.00  0.00     0.053 C 
BRANCH   6   7
ATOM      7  C   UNL     1      37.919  23.054  17.740  1.00  0.00     0.041 C 
ATOM      8  O   UNL     1      37.928  22.394  18.812  1.00  0.00    -0.550 OA
ATOM      9  O   UNL     1      36.725  23.586  17.270  1.00  0.00    -0.550 OA
ENDBRANCH   6   7
ENDBRANCH   5   6
ENDBRANCH   4   5
ENDBRANCH   3   4
ENDBRANCH   2   3
ENDBRANCH   1   2
BRANCH   1  10
ATOM     10  C   UNL     1      42.067  26.445  20.994  1.00  0.00     0.000 C 
BRANCH  10  11
ATOM     11  C   UNL     1      43.295  26.728  20.116  1.00  0.00    -0.000 C 
BRANCH  11  12
ATOM     12  C   UNL     1      44.557  25.994  20.605  1.00  0.00    -0.000 C 
BRANCH  12  13
ATOM     13  C   UNL     1      45.260  25.221  19.470  1.00  0.00    -0.000 C 
BRANCH  13  14
ATOM     14  C   UNL     1      45.061  23.696  19.543  1.00  0.00    -0.000 C 
BRANCH  14  15
ATOM     15  C   UNL     1      44.772  23.149  20.951  1.00  0.00    -0.000 C 
BRANCH  15  16
ATOM     16  C   UNL     1      45.970  22.401  21.553  1.00  0.00    -0.003 C 
ATOM     17  C   UNL     1      45.629  20.936  21.812  1.00  0.00     0.004 C 
ENDBRANCH  15  16
ENDBRANCH  14  15
ENDBRANCH  13  14
ENDBRANCH  12  13
ENDBRANCH  11  12
ENDBRANCH  10  11
ENDBRANCH   1  10
TORSDOF 13
ENDMDL
MODEL 8
REMARK VINA RESULT:    -4.831     11.006     13.994
REMARK INTER + INTRA:          -9.374
REMARK INTER:                  -7.414
REMARK INTRA:                  -1.960
REMARK UNBOUND:                -0.871
REMARK SMILES CCCCCCCCCCCCCCC(=O)[O-]
REMARK SMILES IDX 9 1 10 2 11 3 12 4 13 5 14 6 15 7 16 8 17 9 8 10 7 11 6 12
REMARK SMILES IDX 5 13 4 14 3 15 2 16 1 17
REMARK H PARENT
REMARK Flexibility Score: inf
ROOT
ATOM      1  C   UNL     1      43.689  30.530  14.973  1.00  0.00     0.000 C 
ENDROOT
BRANCH   1   2
ATOM      2  C   UNL     1      44.698  30.146  13.884  1.00  0.00     0.000 C 
BRANCH   2   3
ATOM      3  C   UNL     1      44.529  31.030  12.639  1.00  0.00     0.000 C 
BRANCH   3   4
ATOM      4  C   UNL     1      45.854  31.270  11.897  1.00  0.00     0.000 C 
BRANCH   4   5
ATOM      5  C   UNL     1      46.060  32.744  11.515  1.00  0.00     0.006 C 
BRANCH   5   6
ATOM      6  C   UNL     1      47.078  32.878  10.380  1.00  0.00     0.053 C 
BRANCH   6   7
ATOM      7  C   UNL     1      48.409  32.341  10.804  1.00  0.00     0.041 C 
ATOM      8  O   UNL     1      49.028  32.870  11.765  1.00  0.00    -0.550 OA
ATOM      9  O   UNL     1      48.990  31.291  10.105  1.00  0.00    -0.550 OA
ENDBRANCH   6   7
ENDBRANCH   5   6
ENDBRANCH   4   5
ENDBRANCH   3   4
ENDBRANCH   2   3
ENDBRANCH   1   2
BRANCH   1  10
ATOM     10  C   UNL     1      42.837  31.731  14.533  1.00  0.00     0.000 C 
BRANCH  10  11
ATOM     11  C   UNL     1      42.614  32.745  15.664  1.00  0.00    -0.000 C 
BRANCH  11  12
ATOM     12  C   UNL     1      43.395  32.392  16.942  1.00  0.00    -0.000 C 
BRANCH  12  13
ATOM     13  C   UNL     1      44.522  33.403  17.237  1.00  0.00    -0.000 C 
BRANCH  13  14
ATOM     14  C   UNL     1      45.937  32.839  17.005  1.00  0.00    -0.000 C 
BRANCH  14  15
ATOM     15  C   UNL     1      46.438  32.930  15.554  1.00  0.00    -0.000 C 
BRANCH  15  16
ATOM     16  C   UNL     1      46.002  34.227  14.857  1.00  0.00    -0.003 C 
ATOM     17  C   UNL     1      47.187  35.167  14.655  1.00  0.00     0.004 C 
ENDBRANCH  15  16
ENDBRANCH  14  15
ENDBRANCH  13  14
ENDBRANCH  12  13
ENDBRANCH  11  12
ENDBRANCH  10  11
ENDBRANCH   1  10
TORSDOF 13
ENDMDL
MODEL 9
REMARK VINA RESULT:    -4.815     11.854     14.138
REMARK INTER + INTRA:          -9.345
REMARK INTER:                  -7.675
REMARK INTRA:                  -1.671
REMARK UNBOUND:                -0.871
REMARK SMILES CCCCCCCCCCCCCCC(=O)[O-]
REMARK SMILES IDX 9 1 10 2 11 3 12 4 13 5 14 6 15 7 16 8 17 9 8 10 7 11 6 12
REMARK SMILES IDX 5 13 4 14 3 15 2 16 1 17
REMARK H PARENT
REMARK Flexibility Score: inf
ROOT
ATOM      1  C   UNL     1      46.165  33.114  17.139  1.00  0.00     0.000 C 
ENDROOT
BRANCH   1   2
ATOM      2  C   UNL     1      44.839  33.740  17.590  1.00  0.00     0.000 C 
BRANCH   2   3
ATOM      3  C   UNL     1      43.658  32.806  17.285  1.00  0.00     0.000 C 
BRANCH   3   4
ATOM      4  C   UNL     1      42.854  33.247  16.051  1.00  0.00     0.000 C 
BRANCH   4   5
ATOM      5  C   UNL     1      42.814  32.173  14.955  1.00  0.00     0.006 C 
BRANCH   5   6
ATOM      6  C   UNL     1      43.661  30.959  15.347  1.00  0.00     0.053 C 
BRANCH   6   7
ATOM      7  C   UNL     1      43.620  29.922  14.269  1.00  0.00     0.041 C 
ATOM      8  O   UNL     1      44.669  29.616  13.643  1.00  0.00    -0.550 OA
ATOM      9  O   UNL     1      42.413  29.331  13.919  1.00  0.00    -0.550 OA
ENDBRANCH   6   7
ENDBRANCH   5   6
ENDBRANCH   4   5
ENDBRANCH   3   4
ENDBRANCH   2   3
ENDBRANCH   1   2
BRANCH   1  10
ATOM     10  C   UNL     1      46.588  33.656  15.765  1.00  0.00     0.000 C 
BRANCH  10  11
ATOM     11  C   UNL     1      47.648  32.777  15.083  1.00  0.00    -0.000 C 
BRANCH  11  12
ATOM     12  C   UNL     1      47.222  32.314  13.678  1.00  0.00    -0.000 C 
BRANCH  12  13
ATOM     13  C   UNL     1      45.969  33.059  13.173  1.00  0.00    -0.000 C 
BRANCH  13  14
ATOM     14  C   UNL     1      45.804  33.025  11.641  1.00  0.00    -0.000 C 
BRANCH  14  15
ATOM     15  C   UNL     1      46.840  33.852  10.862  1.00  0.00    -0.000 C 
BRANCH  15  16
ATOM     16  C   UNL     1      46.980  35.284  11.398  1.00  0.00    -0.003 C 
ATOM     17  C   UNL     1      45.759  36.127  11.039  1.00  0.00     0.004 C 
ENDBRANCH  15  16
ENDBRANCH  14  15
ENDBRANCH  13  14
ENDBRANCH  12  13
ENDBRANCH  11  12
ENDBRANCH  10  11
ENDBRANCH   1  10
TORSDOF 13
ENDMDL
