MODEL 1
REMARK VINA RESULT:     7.380      0.000      0.000
REMARK INTER + INTRA:           7.812
REMARK INTER:                   7.812
REMARK INTRA:                   0.000
REMARK UNBOUND:                 0.000
REMARK SMILES Cc1cc(O)c(C)c(C)c1O
REMARK SMILES IDX 1 1 2 2 3 3 4 4 6 5 8 6 10 7 9 8 7 9 11 10 5 12
REMARK H PARENT 11 11 5 13
REMARK Flexibility Score: inf
ROOT
ATOM      1  C   UNL     1      15.319  51.382  59.371  1.00  0.00     0.048 C 
ATOM      2  C   UNL     1      15.609  52.366  60.471  1.00  0.00    -0.005 A 
ATOM      3  C   UNL     1      14.640  53.303  60.842  1.00  0.00     0.053 A 
ATOM      4  C   UNL     1      14.872  54.202  61.882  1.00  0.00     0.119 A 
ATOM      5  C   UNL     1      16.096  54.165  62.591  1.00  0.00    -0.003 A 
ATOM      6  C   UNL     1      17.134  53.302  62.139  1.00  0.00    -0.002 A 
ATOM      7  C   UNL     1      16.853  52.354  61.121  1.00  0.00     0.121 A 
ATOM      8  C   UNL     1      18.522  53.372  62.735  1.00  0.00     0.049 C 
ATOM      9  C   UNL     1      16.288  55.052  63.801  1.00  0.00     0.049 C 
ENDROOT
BRANCH   7  10
ATOM     10  O   UNL     1      17.786  51.381  60.743  1.00  0.00    -0.507 OA
ATOM     11  H   UNL     1      17.746  50.873  59.869  1.00  0.00     0.293 HD
ENDBRANCH   7  10
BRANCH   4  12
ATOM     12  O   UNL     1      13.864  55.125  62.175  1.00  0.00    -0.508 OA
ATOM     13  H   UNL     1      12.878  54.907  62.139  1.00  0.00     0.293 HD
ENDBRANCH   4  12
TORSDOF 2
ENDMDL
MODEL 2
REMARK VINA RESULT:     7.718      1.593      3.355
REMARK INTER + INTRA:           8.169
REMARK INTER:                   8.169
REMARK INTRA:                   0.000
REMARK UNBOUND:                 0.000
REMARK SMILES Cc1cc(O)c(C)c(C)c1O
REMARK SMILES IDX 1 1 2 2 3 3 4 4 6 5 8 6 10 7 9 8 7 9 11 10 5 12
REMARK H PARENT 11 11 5 13
REMARK Flexibility Score: inf
ROOT
ATOM      1  C   UNL     1      14.246  55.125  62.737  1.00  0.00     0.048 C 
ATOM      2  C   UNL     1      15.135  54.046  62.181  1.00  0.00    -0.005 A 
ATOM      3  C   UNL     1      14.587  53.020  61.406  1.00  0.00     0.053 A 
ATOM      4  C   UNL     1      15.396  52.030  60.851  1.00  0.00     0.119 A 
ATOM      5  C   UNL     1      16.796  52.061  61.055  1.00  0.00    -0.003 A 
ATOM      6  C   UNL     1      17.346  53.028  61.943  1.00  0.00    -0.002 A 
ATOM      7  C   UNL     1      16.514  54.061  62.445  1.00  0.00     0.121 A 
ATOM      8  C   UNL     1      18.802  52.975  62.349  1.00  0.00     0.049 C 
ATOM      9  C   UNL     1      17.679  51.062  60.341  1.00  0.00     0.049 C 
ENDROOT
BRANCH   7  10
ATOM     10  O   UNL     1      17.030  55.122  63.199  1.00  0.00    -0.507 OA
ATOM     11  H   UNL     1      17.938  55.105  63.645  1.00  0.00     0.293 HD
ENDBRANCH   7  10
BRANCH   4  12
ATOM     12  O   UNL     1      14.768  51.023  60.112  1.00  0.00    -0.508 OA
ATOM     13  H   UNL     1      14.813  50.958  59.104  1.00  0.00     0.293 HD
ENDBRANCH   4  12
TORSDOF 2
ENDMDL
MODEL 3
REMARK VINA RESULT:     9.141      1.957      2.231
REMARK INTER + INTRA:           9.676
REMARK INTER:                   9.676
REMARK INTRA:                   0.000
REMARK UNBOUND:                 0.000
REMARK SMILES Cc1cc(O)c(C)c(C)c1O
REMARK SMILES IDX 1 1 2 2 3 3 4 4 6 5 8 6 10 7 9 8 7 9 11 10 5 12
REMARK H PARENT 11 11 5 13
REMARK Flexibility Score: inf
ROOT
ATOM      1  C   UNL     1      15.862  49.987  60.205  1.00  0.00     0.048 C 
ATOM      2  C   UNL     1      15.434  51.234  60.930  1.00  0.00    -0.005 A 
ATOM      3  C   UNL     1      14.504  51.153  61.969  1.00  0.00     0.053 A 
ATOM      4  C   UNL     1      14.119  52.290  62.678  1.00  0.00     0.119 A 
ATOM      5  C   UNL     1      14.684  53.548  62.361  1.00  0.00    -0.003 A 
ATOM      6  C   UNL     1      15.535  53.660  61.225  1.00  0.00    -0.002 A 
ATOM      7  C   UNL     1      15.961  52.482  60.559  1.00  0.00     0.121 A 
ATOM      8  C   UNL     1      15.999  55.011  60.729  1.00  0.00     0.049 C 
ATOM      9  C   UNL     1      14.363  54.751  63.220  1.00  0.00     0.049 C 
ENDROOT
BRANCH   7  10
ATOM     10  O   UNL     1      16.914  52.519  59.535  1.00  0.00    -0.507 OA
ATOM     11  H   UNL     1      17.075  51.757  58.888  1.00  0.00     0.293 HD
ENDBRANCH   7  10
BRANCH   4  12
ATOM     12  O   UNL     1      13.163  52.130  63.685  1.00  0.00    -0.508 OA
ATOM     13  H   UNL     1      12.784  52.896  64.223  1.00  0.00     0.293 HD
ENDBRANCH   4  12
TORSDOF 2
ENDMDL
MODEL 4
REMARK VINA RESULT:     9.705      2.464      3.844
REMARK INTER + INTRA:          10.272
REMARK INTER:                  10.272
REMARK INTRA:                   0.000
REMARK UNBOUND:                 0.000
REMARK SMILES Cc1cc(O)c(C)c(C)c1O
REMARK SMILES IDX 1 1 2 2 3 3 4 4 6 5 8 6 10 7 9 8 7 9 11 10 5 12
REMARK H PARENT 11 11 5 13
REMARK Flexibility Score: inf
ROOT
ATOM      1  C   UNL     1      14.401  55.055  64.137  1.00  0.00     0.048 C 
ATOM      2  C   UNL     1      14.637  54.310  62.852  1.00  0.00    -0.005 A 
ATOM      3  C   UNL     1      14.886  55.016  61.672  1.00  0.00     0.053 A 
ATOM      4  C   UNL     1      15.143  54.347  60.476  1.00  0.00     0.119 A 
ATOM      5  C   UNL     1      15.170  52.933  60.447  1.00  0.00    -0.003 A 
ATOM      6  C   UNL     1      14.795  52.207  61.612  1.00  0.00    -0.002 A 
ATOM      7  C   UNL     1      14.600  52.907  62.831  1.00  0.00     0.121 A 
ATOM      8  C   UNL     1      14.614  50.707  61.573  1.00  0.00     0.049 C 
ATOM      9  C   UNL     1      15.580  52.218  59.178  1.00  0.00     0.049 C 
ENDROOT
BRANCH   7  10
ATOM     10  O   UNL     1      14.379  52.234  64.039  1.00  0.00    -0.507 OA
ATOM     11  H   UNL     1      15.083  52.121  64.757  1.00  0.00     0.293 HD
ENDBRANCH   7  10
BRANCH   4  12
ATOM     12  O   UNL     1      15.355  55.125  59.334  1.00  0.00    -0.508 OA
ATOM     13  H   UNL     1      14.627  55.359  58.673  1.00  0.00     0.293 HD
ENDBRANCH   4  12
TORSDOF 2
ENDMDL
MODEL 5
REMARK VINA RESULT:     9.806      1.864      4.236
REMARK INTER + INTRA:          10.380
REMARK INTER:                  10.380
REMARK INTRA:                   0.000
REMARK UNBOUND:                 0.000
REMARK SMILES Cc1cc(O)c(C)c(C)c1O
REMARK SMILES IDX 1 1 2 2 3 3 4 4 6 5 8 6 10 7 9 8 7 9 11 10 5 12
REMARK H PARENT 11 11 5 13
REMARK Flexibility Score: inf
ROOT
ATOM      1  C   UNL     1      15.170  55.125  62.554  1.00  0.00     0.048 C 
ATOM      2  C   UNL     1      15.316  53.734  61.998  1.00  0.00    -0.005 A 
ATOM      3  C   UNL     1      16.228  53.486  60.969  1.00  0.00     0.053 A 
ATOM      4  C   UNL     1      16.406  52.199  60.463  1.00  0.00     0.119 A 
ATOM      5  C   UNL     1      15.669  51.118  61.001  1.00  0.00    -0.003 A 
ATOM      6  C   UNL     1      14.650  51.381  61.960  1.00  0.00    -0.002 A 
ATOM      7  C   UNL     1      14.531  52.685  62.504  1.00  0.00     0.121 A 
ATOM      8  C   UNL     1      13.705  50.291  62.413  1.00  0.00     0.049 C 
ATOM      9  C   UNL     1      15.964  49.707  60.539  1.00  0.00     0.049 C 
ENDROOT
BRANCH   7  10
ATOM     10  O   UNL     1      13.651  52.967  63.556  1.00  0.00    -0.507 OA
ATOM     11  H   UNL     1      12.777  52.479  63.704  1.00  0.00     0.293 HD
ENDBRANCH   7  10
BRANCH   4  12
ATOM     12  O   UNL     1      17.317  52.038  59.415  1.00  0.00    -0.508 OA
ATOM     13  H   UNL     1      17.862  52.795  59.026  1.00  0.00     0.293 HD
ENDBRANCH   4  12
TORSDOF 2
ENDMDL
MODEL 6
REMARK VINA RESULT:    10.061      1.421      4.090
REMARK INTER + INTRA:          10.649
REMARK INTER:                  10.649
REMARK INTRA:                   0.000
REMARK UNBOUND:                 0.000
REMARK SMILES Cc1cc(O)c(C)c(C)c1O
REMARK SMILES IDX 1 1 2 2 3 3 4 4 6 5 8 6 10 7 9 8 7 9 11 10 5 12
REMARK H PARENT 11 11 5 13
REMARK Flexibility Score: inf
ROOT
ATOM      1  C   UNL     1      14.752  55.125  64.080  1.00  0.00     0.048 C 
ATOM      2  C   UNL     1      15.521  54.197  63.180  1.00  0.00    -0.005 A 
ATOM      3  C   UNL     1      16.918  54.229  63.174  1.00  0.00     0.053 A 
ATOM      4  C   UNL     1      17.653  53.355  62.375  1.00  0.00     0.119 A 
ATOM      5  C   UNL     1      16.986  52.405  61.565  1.00  0.00    -0.003 A 
ATOM      6  C   UNL     1      15.566  52.449  61.469  1.00  0.00    -0.002 A 
ATOM      7  C   UNL     1      14.839  53.304  62.338  1.00  0.00     0.121 A 
ATOM      8  C   UNL     1      14.825  51.593  60.468  1.00  0.00     0.049 C 
ATOM      9  C   UNL     1      17.789  51.374  60.804  1.00  0.00     0.049 C 
ENDROOT
BRANCH   7  10
ATOM     10  O   UNL     1      13.441  53.279  62.394  1.00  0.00    -0.507 OA
ATOM     11  H   UNL     1      12.892  52.429  62.369  1.00  0.00     0.293 HD
ENDBRANCH   7  10
BRANCH   4  12
ATOM     12  O   UNL     1      19.046  53.468  62.405  1.00  0.00    -0.508 OA
ATOM     13  H   UNL     1      19.543  54.089  63.028  1.00  0.00     0.293 HD
ENDBRANCH   4  12
TORSDOF 2
ENDMDL
MODEL 7
REMARK VINA RESULT:    10.123      2.379      2.586
REMARK INTER + INTRA:          10.715
REMARK INTER:                  10.715
REMARK INTRA:                   0.000
REMARK UNBOUND:                 0.000
REMARK SMILES Cc1cc(O)c(C)c(C)c1O
REMARK SMILES IDX 1 1 2 2 3 3 4 4 6 5 8 6 10 7 9 8 7 9 11 10 5 12
REMARK H PARENT 11 11 5 13
REMARK Flexibility Score: inf
ROOT
ATOM      1  C   UNL     1      15.905  50.247  59.380  1.00  0.00     0.048 C 
ATOM      2  C   UNL     1      15.500  51.502  60.105  1.00  0.00    -0.005 A 
ATOM      3  C   UNL     1      15.653  52.745  59.486  1.00  0.00     0.053 A 
ATOM      4  C   UNL     1      15.253  53.918  60.125  1.00  0.00     0.119 A 
ATOM      5  C   UNL     1      14.667  53.861  61.411  1.00  0.00    -0.003 A 
ATOM      6  C   UNL     1      14.622  52.615  62.098  1.00  0.00    -0.002 A 
ATOM      7  C   UNL     1      14.977  51.428  61.406  1.00  0.00     0.121 A 
ATOM      8  C   UNL     1      14.193  52.537  63.546  1.00  0.00     0.049 C 
ATOM      9  C   UNL     1      14.114  55.121  62.040  1.00  0.00     0.049 C 
ENDROOT
BRANCH   7  10
ATOM     10  O   UNL     1      14.809  50.163  61.980  1.00  0.00    -0.507 OA
ATOM     11  H   UNL     1      14.427  49.367  61.486  1.00  0.00     0.293 HD
ENDBRANCH   7  10
BRANCH   4  12
ATOM     12  O   UNL     1      15.465  55.125  59.451  1.00  0.00    -0.508 OA
ATOM     13  H   UNL     1      16.160  55.247  58.728  1.00  0.00     0.293 HD
ENDBRANCH   4  12
TORSDOF 2
ENDMDL
