MODEL 1
REMARK VINA RESULT:    -4.514      0.000      0.000
REMARK INTER + INTRA:         -17.706
REMARK INTER:                 -11.902
REMARK INTRA:                  -5.804
REMARK UNBOUND:                -5.804
REMARK SMILES CCCCCCCCCCCCCCCCCCCCCCCCCCCCCC(=O)[O-]
REMARK SMILES IDX 16 1 17 2 18 3 19 4 20 5 21 6 22 7 23 8 24 9 25 10 26 11
REMARK SMILES IDX 27 12 28 13 29 14 30 15 31 16 32 17 15 18 14 19 13 20 12 21
REMARK SMILES IDX 11 22 10 23 9 24 8 25 7 26 6 27 5 28 4 29 3 30 2 31 1 32
REMARK H PARENT
REMARK Flexibility Score: inf
ROOT
ATOM      1  C   UNL     1       5.077  36.921  -2.672  1.00  0.00     0.000 C 
ENDROOT
BRANCH   1   2
ATOM      2  C   UNL     1       3.928  35.963  -2.314  1.00  0.00     0.000 C 
BRANCH   2   3
ATOM      3  C   UNL     1       4.397  34.522  -2.056  1.00  0.00     0.000 C 
BRANCH   3   4
ATOM      4  C   UNL     1       5.907  34.387  -1.778  1.00  0.00     0.000 C 
BRANCH   4   5
ATOM      5  C   UNL     1       6.632  33.553  -2.849  1.00  0.00     0.000 C 
BRANCH   5   6
ATOM      6  C   UNL     1       8.072  33.178  -2.450  1.00  0.00     0.000 C 
BRANCH   6   7
ATOM      7  C   UNL     1       8.430  33.434  -0.971  1.00  0.00     0.000 C 
BRANCH   7   8
ATOM      8  C   UNL     1       9.935  33.283  -0.683  1.00  0.00     0.000 C 
BRANCH   8   9
ATOM      9  C   UNL     1      10.725  34.599  -0.854  1.00  0.00     0.000 C 
BRANCH   9  10
ATOM     10  C   UNL     1      10.090  35.814  -0.136  1.00  0.00     0.000 C 
BRANCH  10  11
ATOM     11  C   UNL     1      10.350  35.854   1.378  1.00  0.00     0.000 C 
BRANCH  11  12
ATOM     12  C   UNL     1       9.919  37.188   2.011  1.00  0.00     0.000 C 
BRANCH  12  13
ATOM     13  C   UNL     1      10.822  38.356   1.581  1.00  0.00     0.006 C 
BRANCH  13  14
ATOM     14  C   UNL     1      10.020  39.549   1.042  1.00  0.00     0.053 C 
BRANCH  14  15
ATOM     15  C   UNL     1      10.543  39.971  -0.295  1.00  0.00     0.041 C 
ATOM     16  O   UNL     1      10.691  41.193  -0.562  1.00  0.00    -0.550 OA
ATOM     17  O   UNL     1      10.817  39.017  -1.266  1.00  0.00    -0.550 OA
ENDBRANCH  14  15
ENDBRANCH  13  14
ENDBRANCH  12  13
ENDBRANCH  11  12
ENDBRANCH  10  11
ENDBRANCH   9  10
ENDBRANCH   8   9
ENDBRANCH   7   8
ENDBRANCH   6   7
ENDBRANCH   5   6
ENDBRANCH   4   5
ENDBRANCH   3   4
ENDBRANCH   2   3
ENDBRANCH   1   2
BRANCH   1  18
ATOM     18  C   UNL     1       4.910  38.273  -1.959  1.00  0.00     0.000 C 
BRANCH  18  19
ATOM     19  C   UNL     1       6.242  38.812  -1.411  1.00  0.00     0.000 C 
BRANCH  19  20
ATOM     20  C   UNL     1       7.071  37.717  -0.715  1.00  0.00     0.000 C 
BRANCH  20  21
ATOM     21  C   UNL     1       6.686  37.541   0.771  1.00  0.00     0.000 C 
BRANCH  21  22
ATOM     22  C   UNL     1       6.471  36.074   1.198  1.00  0.00     0.000 C 
BRANCH  22  23
ATOM     23  C   UNL     1       5.024  35.701   1.566  1.00  0.00     0.000 C 
BRANCH  23  24
ATOM     24  C   UNL     1       4.036  36.861   1.359  1.00  0.00    -0.000 C 
BRANCH  24  25
ATOM     25  C   UNL     1       3.627  37.488   2.703  1.00  0.00    -0.000 C 
BRANCH  25  26
ATOM     26  C   UNL     1       3.937  36.579   3.908  1.00  0.00    -0.000 C 
BRANCH  26  27
ATOM     27  C   UNL     1       4.638  37.281   5.083  1.00  0.00    -0.000 C 
BRANCH  27  28
ATOM     28  C   UNL     1       5.086  38.712   4.742  1.00  0.00    -0.000 C 
BRANCH  28  29
ATOM     29  C   UNL     1       6.611  38.898   4.846  1.00  0.00    -0.000 C 
BRANCH  29  30
ATOM     30  C   UNL     1       7.276  39.508   3.596  1.00  0.00    -0.000 C 
BRANCH  30  31
ATOM     31  C   UNL     1       6.638  40.838   3.168  1.00  0.00    -0.003 C 
ATOM     32  C   UNL     1       6.775  41.061   1.664  1.00  0.00     0.004 C 
ENDBRANCH  30  31
ENDBRANCH  29  30
ENDBRANCH  28  29
ENDBRANCH  27  28
ENDBRANCH  26  27
ENDBRANCH  25  26
ENDBRANCH  24  25
ENDBRANCH  23  24
ENDBRANCH  22  23
ENDBRANCH  21  22
ENDBRANCH  20  21
ENDBRANCH  19  20
ENDBRANCH  18  19
ENDBRANCH   1  18
TORSDOF 28
ENDMDL
MODEL 2
REMARK VINA RESULT:    -4.219      2.410      4.899
REMARK INTER + INTRA:         -16.930
REMARK INTER:                 -11.955
REMARK INTRA:                  -4.975
REMARK UNBOUND:                -5.804
REMARK SMILES CCCCCCCCCCCCCCCCCCCCCCCCCCCCCC(=O)[O-]
REMARK SMILES IDX 16 1 17 2 18 3 19 4 20 5 21 6 22 7 23 8 24 9 25 10 26 11
REMARK SMILES IDX 27 12 28 13 29 14 30 15 31 16 32 17 15 18 14 19 13 20 12 21
REMARK SMILES IDX 11 22 10 23 9 24 8 25 7 26 6 27 5 28 4 29 3 30 2 31 1 32
REMARK H PARENT
REMARK Flexibility Score: inf
ROOT
ATOM      1  C   UNL     1       7.180  37.823  -0.546  1.00  0.00     0.000 C 
ENDROOT
BRANCH   1   2
ATOM      2  C   UNL     1       6.998  38.016   0.969  1.00  0.00     0.000 C 
BRANCH   2   3
ATOM      3  C   UNL     1       8.270  37.716   1.777  1.00  0.00     0.000 C 
BRANCH   3   4
ATOM      4  C   UNL     1       8.694  38.847   2.735  1.00  0.00     0.000 C 
BRANCH   4   5
ATOM      5  C   UNL     1       9.887  39.657   2.200  1.00  0.00     0.000 C 
BRANCH   5   6
ATOM      6  C   UNL     1       9.462  40.847   1.317  1.00  0.00     0.000 C 
BRANCH   6   7
ATOM      7  C   UNL     1       9.567  40.604  -0.203  1.00  0.00     0.000 C 
BRANCH   7   8
ATOM      8  C   UNL     1      10.890  39.932  -0.613  1.00  0.00     0.000 C 
BRANCH   8   9
ATOM      9  C   UNL     1      10.729  38.443  -0.992  1.00  0.00     0.000 C 
BRANCH   9  10
ATOM     10  C   UNL     1      11.684  37.492  -0.233  1.00  0.00     0.000 C 
BRANCH  10  11
ATOM     11  C   UNL     1      11.049  36.149   0.160  1.00  0.00     0.000 C 
BRANCH  11  12
ATOM     12  C   UNL     1      10.049  35.644  -0.895  1.00  0.00     0.000 C 
BRANCH  12  13
ATOM     13  C   UNL     1       9.086  34.588  -0.327  1.00  0.00     0.006 C 
BRANCH  13  14
ATOM     14  C   UNL     1       8.591  33.609  -1.402  1.00  0.00     0.053 C 
BRANCH  14  15
ATOM     15  C   UNL     1       9.609  32.538  -1.642  1.00  0.00     0.041 C 
ATOM     16  O   UNL     1       9.918  32.208  -2.818  1.00  0.00    -0.550 OA
ATOM     17  O   UNL     1      10.177  31.866  -0.568  1.00  0.00    -0.550 OA
ENDBRANCH  14  15
ENDBRANCH  13  14
ENDBRANCH  12  13
ENDBRANCH  11  12
ENDBRANCH  10  11
ENDBRANCH   9  10
ENDBRANCH   8   9
ENDBRANCH   7   8
ENDBRANCH   6   7
ENDBRANCH   5   6
ENDBRANCH   4   5
ENDBRANCH   3   4
ENDBRANCH   2   3
ENDBRANCH   1   2
BRANCH   1  18
ATOM     18  C   UNL     1       6.085  38.565  -1.332  1.00  0.00     0.000 C 
BRANCH  18  19
ATOM     19  C   UNL     1       5.369  37.651  -2.340  1.00  0.00     0.000 C 
BRANCH  19  20
ATOM     20  C   UNL     1       6.081  36.296  -2.505  1.00  0.00     0.000 C 
BRANCH  20  21
ATOM     21  C   UNL     1       5.132  35.099  -2.273  1.00  0.00     0.000 C 
BRANCH  21  22
ATOM     22  C   UNL     1       3.649  35.490  -2.108  1.00  0.00     0.000 C 
BRANCH  22  23
ATOM     23  C   UNL     1       3.016  35.118  -0.756  1.00  0.00     0.000 C 
BRANCH  23  24
ATOM     24  C   UNL     1       3.119  36.246   0.283  1.00  0.00    -0.000 C 
BRANCH  24  25
ATOM     25  C   UNL     1       4.006  35.829   1.470  1.00  0.00    -0.000 C 
BRANCH  25  26
ATOM     26  C   UNL     1       4.028  36.878   2.599  1.00  0.00    -0.000 C 
BRANCH  26  27
ATOM     27  C   UNL     1       4.133  36.296   4.018  1.00  0.00    -0.000 C 
BRANCH  27  28
ATOM     28  C   UNL     1       4.525  37.349   5.067  1.00  0.00    -0.000 C 
BRANCH  28  29
ATOM     29  C   UNL     1       5.379  38.486   4.477  1.00  0.00    -0.000 C 
BRANCH  29  30
ATOM     30  C   UNL     1       5.515  39.729   5.379  1.00  0.00    -0.000 C 
BRANCH  30  31
ATOM     31  C   UNL     1       6.954  40.262   5.450  1.00  0.00    -0.003 C 
ATOM     32  C   UNL     1       7.018  41.584   6.212  1.00  0.00     0.004 C 
ENDBRANCH  30  31
ENDBRANCH  29  30
ENDBRANCH  28  29
ENDBRANCH  27  28
ENDBRANCH  26  27
ENDBRANCH  25  26
ENDBRANCH  24  25
ENDBRANCH  23  24
ENDBRANCH  22  23
ENDBRANCH  21  22
ENDBRANCH  20  21
ENDBRANCH  19  20
ENDBRANCH  18  19
ENDBRANCH   1  18
TORSDOF 28
ENDMDL
MODEL 3
REMARK VINA RESULT:    -4.170      2.274      4.748
REMARK INTER + INTRA:         -16.801
REMARK INTER:                 -11.435
REMARK INTRA:                  -5.366
REMARK UNBOUND:                -5.804
REMARK SMILES CCCCCCCCCCCCCCCCCCCCCCCCCCCCCC(=O)[O-]
REMARK SMILES IDX 16 1 17 2 18 3 19 4 20 5 21 6 22 7 23 8 24 9 25 10 26 11
REMARK SMILES IDX 27 12 28 13 29 14 30 15 31 16 32 17 15 18 14 19 13 20 12 21
REMARK SMILES IDX 11 22 10 23 9 24 8 25 7 26 6 27 5 28 4 29 3 30 2 31 1 32
REMARK H PARENT
REMARK Flexibility Score: inf
ROOT
ATOM      1  C   UNL     1       5.980  36.134  -2.509  1.00  0.00     0.000 C 
ENDROOT
BRANCH   1   2
ATOM      2  C   UNL     1       5.033  37.314  -2.786  1.00  0.00     0.000 C 
BRANCH   2   3
ATOM      3  C   UNL     1       5.087  38.403  -1.703  1.00  0.00     0.000 C 
BRANCH   3   4
ATOM      4  C   UNL     1       6.514  38.825  -1.300  1.00  0.00     0.000 C 
BRANCH   4   5
ATOM      5  C   UNL     1       6.524  40.024  -0.335  1.00  0.00     0.000 C 
BRANCH   5   6
ATOM      6  C   UNL     1       7.794  40.888  -0.459  1.00  0.00     0.000 C 
BRANCH   6   7
ATOM      7  C   UNL     1       9.065  40.277   0.168  1.00  0.00     0.000 C 
BRANCH   7   8
ATOM      8  C   UNL     1      10.325  40.508  -0.686  1.00  0.00     0.000 C 
BRANCH   8   9
ATOM      9  C   UNL     1      11.104  39.210  -0.990  1.00  0.00     0.000 C 
BRANCH   9  10
ATOM     10  C   UNL     1      11.036  38.154   0.139  1.00  0.00     0.000 C 
BRANCH  10  11
ATOM     11  C   UNL     1      11.412  36.732  -0.308  1.00  0.00     0.000 C 
BRANCH  11  12
ATOM     12  C   UNL     1      10.427  35.674   0.218  1.00  0.00     0.000 C 
BRANCH  12  13
ATOM     13  C   UNL     1       9.257  35.434  -0.749  1.00  0.00     0.006 C 
BRANCH  13  14
ATOM     14  C   UNL     1       8.457  34.170  -0.399  1.00  0.00     0.053 C 
BRANCH  14  15
ATOM     15  C   UNL     1       8.773  33.067  -1.361  1.00  0.00     0.041 C 
ATOM     16  O   UNL     1       8.251  33.057  -2.507  1.00  0.00    -0.550 OA
ATOM     17  O   UNL     1       9.601  32.023  -0.972  1.00  0.00    -0.550 OA
ENDBRANCH  14  15
ENDBRANCH  13  14
ENDBRANCH  12  13
ENDBRANCH  11  12
ENDBRANCH  10  11
ENDBRANCH   9  10
ENDBRANCH   8   9
ENDBRANCH   7   8
ENDBRANCH   6   7
ENDBRANCH   5   6
ENDBRANCH   4   5
ENDBRANCH   3   4
ENDBRANCH   2   3
ENDBRANCH   1   2
BRANCH   1  18
ATOM     18  C   UNL     1       5.205  34.919  -1.975  1.00  0.00     0.000 C 
BRANCH  18  19
ATOM     19  C   UNL     1       3.682  35.112  -2.064  1.00  0.00     0.000 C 
BRANCH  19  20
ATOM     20  C   UNL     1       2.991  34.924  -0.700  1.00  0.00     0.000 C 
BRANCH  20  21
ATOM     21  C   UNL     1       3.304  36.075   0.283  1.00  0.00     0.000 C 
BRANCH  21  22
ATOM     22  C   UNL     1       4.044  35.631   1.561  1.00  0.00     0.000 C 
BRANCH  22  23
ATOM     23  C   UNL     1       5.576  35.771   1.518  1.00  0.00     0.000 C 
BRANCH  23  24
ATOM     24  C   UNL     1       6.066  37.137   2.027  1.00  0.00    -0.000 C 
BRANCH  24  25
ATOM     25  C   UNL     1       7.559  37.342   1.717  1.00  0.00    -0.000 C 
BRANCH  25  26
ATOM     26  C   UNL     1       8.280  38.194   2.779  1.00  0.00    -0.000 C 
BRANCH  26  27
ATOM     27  C   UNL     1       7.362  38.798   3.855  1.00  0.00    -0.000 C 
BRANCH  27  28
ATOM     28  C   UNL     1       6.822  40.185   3.468  1.00  0.00    -0.000 C 
BRANCH  28  29
ATOM     29  C   UNL     1       5.383  40.421   3.963  1.00  0.00    -0.000 C 
BRANCH  29  30
ATOM     30  C   UNL     1       4.950  39.530   5.145  1.00  0.00    -0.000 C 
BRANCH  30  31
ATOM     31  C   UNL     1       3.877  38.501   4.756  1.00  0.00    -0.003 C 
ATOM     32  C   UNL     1       4.245  37.104   5.248  1.00  0.00     0.004 C 
ENDBRANCH  30  31
ENDBRANCH  29  30
ENDBRANCH  28  29
ENDBRANCH  27  28
ENDBRANCH  26  27
ENDBRANCH  25  26
ENDBRANCH  24  25
ENDBRANCH  23  24
ENDBRANCH  22  23
ENDBRANCH  21  22
ENDBRANCH  20  21
ENDBRANCH  19  20
ENDBRANCH  18  19
ENDBRANCH   1  18
TORSDOF 28
ENDMDL
MODEL 4
REMARK VINA RESULT:    -4.148      2.528      5.690
REMARK INTER + INTRA:         -16.742
REMARK INTER:                 -10.819
REMARK INTRA:                  -5.923
REMARK UNBOUND:                -5.804
REMARK SMILES CCCCCCCCCCCCCCCCCCCCCCCCCCCCCC(=O)[O-]
REMARK SMILES IDX 16 1 17 2 18 3 19 4 20 5 21 6 22 7 23 8 24 9 25 10 26 11
REMARK SMILES IDX 27 12 28 13 29 14 30 15 31 16 32 17 15 18 14 19 13 20 12 21
REMARK SMILES IDX 11 22 10 23 9 24 8 25 7 26 6 27 5 28 4 29 3 30 2 31 1 32
REMARK H PARENT
REMARK Flexibility Score: inf
ROOT
ATOM      1  C   UNL     1      10.212  36.116   1.357  1.00  0.00     0.000 C 
ENDROOT
BRANCH   1   2
ATOM      2  C   UNL     1       8.938  35.262   1.243  1.00  0.00     0.000 C 
BRANCH   2   3
ATOM      3  C   UNL     1       7.644  36.078   1.389  1.00  0.00     0.000 C 
BRANCH   3   4
ATOM      4  C   UNL     1       6.353  35.254   1.217  1.00  0.00     0.000 C 
BRANCH   4   5
ATOM      5  C   UNL     1       5.178  35.823   2.031  1.00  0.00     0.000 C 
BRANCH   5   6
ATOM      6  C   UNL     1       3.920  36.079   1.178  1.00  0.00     0.000 C 
BRANCH   6   7
ATOM      7  C   UNL     1       4.118  35.925  -0.344  1.00  0.00     0.000 C 
BRANCH   7   8
ATOM      8  C   UNL     1       4.035  37.264  -1.099  1.00  0.00     0.000 C 
BRANCH   8   9
ATOM      9  C   UNL     1       5.072  37.390  -2.236  1.00  0.00     0.000 C 
BRANCH   9  10
ATOM     10  C   UNL     1       6.532  37.138  -1.789  1.00  0.00     0.000 C 
BRANCH  10  11
ATOM     11  C   UNL     1       7.234  36.003  -2.552  1.00  0.00     0.000 C 
BRANCH  11  12
ATOM     12  C   UNL     1       6.416  34.700  -2.544  1.00  0.00     0.000 C 
BRANCH  12  13
ATOM     13  C   UNL     1       7.286  33.467  -2.249  1.00  0.00     0.006 C 
BRANCH  13  14
ATOM     14  C   UNL     1       8.685  33.846  -1.739  1.00  0.00     0.053 C 
BRANCH  14  15
ATOM     15  C   UNL     1       9.518  32.619  -1.538  1.00  0.00     0.041 C 
ATOM     16  O   UNL     1      10.140  32.109  -2.507  1.00  0.00    -0.550 OA
ATOM     17  O   UNL     1       9.564  32.007  -0.293  1.00  0.00    -0.550 OA
ENDBRANCH  14  15
ENDBRANCH  13  14
ENDBRANCH  12  13
ENDBRANCH  11  12
ENDBRANCH  10  11
ENDBRANCH   9  10
ENDBRANCH   8   9
ENDBRANCH   7   8
ENDBRANCH   6   7
ENDBRANCH   5   6
ENDBRANCH   4   5
ENDBRANCH   3   4
ENDBRANCH   2   3
ENDBRANCH   1   2
BRANCH   1  18
ATOM     18  C   UNL     1      10.948  36.191   0.009  1.00  0.00     0.000 C 
BRANCH  18  19
ATOM     19  C   UNL     1      10.404  37.313  -0.892  1.00  0.00     0.000 C 
BRANCH  19  20
ATOM     20  C   UNL     1      11.318  38.552  -0.893  1.00  0.00     0.000 C 
BRANCH  20  21
ATOM     21  C   UNL     1      10.544  39.856  -0.596  1.00  0.00     0.000 C 
BRANCH  21  22
ATOM     22  C   UNL     1       9.457  39.713   0.489  1.00  0.00     0.000 C 
BRANCH  22  23
ATOM     23  C   UNL     1       9.974  39.667   1.938  1.00  0.00     0.000 C 
BRANCH  23  24
ATOM     24  C   UNL     1       9.643  40.941   2.732  1.00  0.00    -0.000 C 
BRANCH  24  25
ATOM     25  C   UNL     1       8.205  40.898   3.277  1.00  0.00    -0.000 C 
BRANCH  25  26
ATOM     26  C   UNL     1       7.642  39.467   3.372  1.00  0.00    -0.000 C 
BRANCH  26  27
ATOM     27  C   UNL     1       6.227  39.291   2.798  1.00  0.00    -0.000 C 
BRANCH  27  28
ATOM     28  C   UNL     1       6.205  39.269   1.261  1.00  0.00    -0.000 C 
BRANCH  28  29
ATOM     29  C   UNL     1       5.450  40.469   0.660  1.00  0.00    -0.000 C 
BRANCH  29  30
ATOM     30  C   UNL     1       6.207  41.219  -0.454  1.00  0.00    -0.000 C 
BRANCH  30  31
ATOM     31  C   UNL     1       6.409  42.709  -0.141  1.00  0.00    -0.003 C 
ATOM     32  C   UNL     1       7.873  43.018   0.164  1.00  0.00     0.004 C 
ENDBRANCH  30  31
ENDBRANCH  29  30
ENDBRANCH  28  29
ENDBRANCH  27  28
ENDBRANCH  26  27
ENDBRANCH  25  26
ENDBRANCH  24  25
ENDBRANCH  23  24
ENDBRANCH  22  23
ENDBRANCH  21  22
ENDBRANCH  20  21
ENDBRANCH  19  20
ENDBRANCH  18  19
ENDBRANCH   1  18
TORSDOF 28
ENDMDL
MODEL 5
REMARK VINA RESULT:    -4.148      2.449      7.428
REMARK INTER + INTRA:         -16.742
REMARK INTER:                 -11.050
REMARK INTRA:                  -5.692
REMARK UNBOUND:                -5.804
REMARK SMILES CCCCCCCCCCCCCCCCCCCCCCCCCCCCCC(=O)[O-]
REMARK SMILES IDX 16 1 17 2 18 3 19 4 20 5 21 6 22 7 23 8 24 9 25 10 26 11
REMARK SMILES IDX 27 12 28 13 29 14 30 15 31 16 32 17 15 18 14 19 13 20 12 21
REMARK SMILES IDX 11 22 10 23 9 24 8 25 7 26 6 27 5 28 4 29 3 30 2 31 1 32
REMARK H PARENT
REMARK Flexibility Score: inf
ROOT
ATOM      1  C   UNL     1       7.171  41.791   5.450  1.00  0.00     0.000 C 
ENDROOT
BRANCH   1   2
ATOM      2  C   UNL     1       6.267  40.609   5.060  1.00  0.00     0.000 C 
BRANCH   2   3
ATOM      3  C   UNL     1       7.024  39.277   4.948  1.00  0.00     0.000 C 
BRANCH   3   4
ATOM      4  C   UNL     1       6.682  38.458   3.688  1.00  0.00     0.000 C 
BRANCH   4   5
ATOM      5  C   UNL     1       6.258  39.346   2.505  1.00  0.00     0.000 C 
BRANCH   5   6
ATOM      6  C   UNL     1       6.667  38.765   1.137  1.00  0.00     0.000 C 
BRANCH   6   7
ATOM      7  C   UNL     1       6.574  39.752  -0.046  1.00  0.00     0.000 C 
BRANCH   7   8
ATOM      8  C   UNL     1       6.241  39.058  -1.380  1.00  0.00     0.000 C 
BRANCH   8   9
ATOM      9  C   UNL     1       6.671  37.576  -1.423  1.00  0.00     0.000 C 
BRANCH   9  10
ATOM     10  C   UNL     1       5.907  36.727  -2.467  1.00  0.00     0.000 C 
BRANCH  10  11
ATOM     11  C   UNL     1       4.386  36.948  -2.462  1.00  0.00     0.000 C 
BRANCH  11  12
ATOM     12  C   UNL     1       3.608  35.651  -2.181  1.00  0.00     0.000 C 
BRANCH  12  13
ATOM     13  C   UNL     1       3.740  35.196  -0.718  1.00  0.00     0.006 C 
BRANCH  13  14
ATOM     14  C   UNL     1       3.501  36.343   0.275  1.00  0.00     0.053 C 
BRANCH  14  15
ATOM     15  C   UNL     1       4.226  36.084   1.558  1.00  0.00     0.041 C 
ATOM     16  O   UNL     1       5.233  35.328   1.575  1.00  0.00    -0.550 OA
ATOM     17  O   UNL     1       3.759  36.633   2.744  1.00  0.00    -0.550 OA
ENDBRANCH  14  15
ENDBRANCH  13  14
ENDBRANCH  12  13
ENDBRANCH  11  12
ENDBRANCH  10  11
ENDBRANCH   9  10
ENDBRANCH   8   9
ENDBRANCH   7   8
ENDBRANCH   6   7
ENDBRANCH   5   6
ENDBRANCH   4   5
ENDBRANCH   3   4
ENDBRANCH   2   3
ENDBRANCH   1   2
BRANCH   1  18
ATOM     18  C   UNL     1       8.567  41.648   4.823  1.00  0.00     0.000 C 
BRANCH  18  19
ATOM     19  C   UNL     1       8.741  42.532   3.577  1.00  0.00     0.000 C 
BRANCH  19  20
ATOM     20  C   UNL     1       9.197  41.724   2.349  1.00  0.00     0.000 C 
BRANCH  20  21
ATOM     21  C   UNL     1       9.865  40.386   2.738  1.00  0.00     0.000 C 
BRANCH  21  22
ATOM     22  C   UNL     1      10.195  39.472   1.540  1.00  0.00     0.000 C 
BRANCH  22  23
ATOM     23  C   UNL     1      10.288  40.180   0.177  1.00  0.00     0.000 C 
BRANCH  23  24
ATOM     24  C   UNL     1      10.801  39.259  -0.942  1.00  0.00    -0.000 C 
BRANCH  24  25
ATOM     25  C   UNL     1      10.169  37.859  -0.843  1.00  0.00    -0.000 C 
BRANCH  25  26
ATOM     26  C   UNL     1      11.185  36.769  -0.450  1.00  0.00    -0.000 C 
BRANCH  26  27
ATOM     27  C   UNL     1      10.682  35.766   0.601  1.00  0.00    -0.000 C 
BRANCH  27  28
ATOM     28  C   UNL     1       9.160  35.831   0.806  1.00  0.00    -0.000 C 
BRANCH  28  29
ATOM     29  C   UNL     1       8.487  34.449   0.698  1.00  0.00    -0.000 C 
BRANCH  29  30
ATOM     30  C   UNL     1       7.796  34.169  -0.652  1.00  0.00    -0.000 C 
BRANCH  30  31
ATOM     31  C   UNL     1       8.651  33.307  -1.593  1.00  0.00    -0.003 C 
ATOM     32  C   UNL     1       9.601  32.405  -0.809  1.00  0.00     0.004 C 
ENDBRANCH  30  31
ENDBRANCH  29  30
ENDBRANCH  28  29
ENDBRANCH  27  28
ENDBRANCH  26  27
ENDBRANCH  25  26
ENDBRANCH  24  25
ENDBRANCH  23  24
ENDBRANCH  22  23
ENDBRANCH  21  22
ENDBRANCH  20  21
ENDBRANCH  19  20
ENDBRANCH  18  19
ENDBRANCH   1  18
TORSDOF 28
ENDMDL
MODEL 6
REMARK VINA RESULT:    -4.123      2.122      3.756
REMARK INTER + INTRA:         -16.677
REMARK INTER:                 -10.429
REMARK INTRA:                  -6.248
REMARK UNBOUND:                -5.804
REMARK SMILES CCCCCCCCCCCCCCCCCCCCCCCCCCCCCC(=O)[O-]
REMARK SMILES IDX 16 1 17 2 18 3 19 4 20 5 21 6 22 7 23 8 24 9 25 10 26 11
REMARK SMILES IDX 27 12 28 13 29 14 30 15 31 16 32 17 15 18 14 19 13 20 12 21
REMARK SMILES IDX 11 22 10 23 9 24 8 25 7 26 6 27 5 28 4 29 3 30 2 31 1 32
REMARK H PARENT
REMARK Flexibility Score: inf
ROOT
ATOM      1  C   UNL     1       3.815  34.817  -2.163  1.00  0.00     0.000 C 
ENDROOT
BRANCH   1   2
ATOM      2  C   UNL     1       2.920  34.628  -0.926  1.00  0.00     0.000 C 
BRANCH   2   3
ATOM      3  C   UNL     1       2.905  35.850   0.005  1.00  0.00     0.000 C 
BRANCH   3   4
ATOM      4  C   UNL     1       3.786  35.701   1.261  1.00  0.00     0.000 C 
BRANCH   4   5
ATOM      5  C   UNL     1       5.285  35.631   0.925  1.00  0.00     0.000 C 
BRANCH   5   6
ATOM      6  C   UNL     1       6.171  36.357   1.956  1.00  0.00     0.000 C 
BRANCH   6   7
ATOM      7  C   UNL     1       7.047  37.491   1.382  1.00  0.00     0.000 C 
BRANCH   7   8
ATOM      8  C   UNL     1       8.021  38.079   2.420  1.00  0.00     0.000 C 
BRANCH   8   9
ATOM      9  C   UNL     1       9.243  38.778   1.784  1.00  0.00     0.000 C 
BRANCH   9  10
ATOM     10  C   UNL     1      10.502  37.883   1.688  1.00  0.00     0.000 C 
BRANCH  10  11
ATOM     11  C   UNL     1      11.055  37.729   0.262  1.00  0.00     0.000 C 
BRANCH  11  12
ATOM     12  C   UNL     1       9.944  37.473  -0.772  1.00  0.00     0.000 C 
BRANCH  12  13
ATOM     13  C   UNL     1       9.967  36.033  -1.308  1.00  0.00     0.006 C 
BRANCH  13  14
ATOM     14  C   UNL     1       8.700  35.249  -0.934  1.00  0.00     0.053 C 
BRANCH  14  15
ATOM     15  C   UNL     1       9.003  34.246   0.136  1.00  0.00     0.041 C 
ATOM     16  O   UNL     1       9.132  34.616   1.333  1.00  0.00    -0.550 OA
ATOM     17  O   UNL     1       9.196  32.912  -0.197  1.00  0.00    -0.550 OA
ENDBRANCH  14  15
ENDBRANCH  13  14
ENDBRANCH  12  13
ENDBRANCH  11  12
ENDBRANCH  10  11
ENDBRANCH   9  10
ENDBRANCH   8   9
ENDBRANCH   7   8
ENDBRANCH   6   7
ENDBRANCH   5   6
ENDBRANCH   4   5
ENDBRANCH   3   4
ENDBRANCH   2   3
ENDBRANCH   1   2
BRANCH   1  18
ATOM     18  C   UNL     1       3.966  36.307  -2.511  1.00  0.00     0.000 C 
BRANCH  18  19
ATOM     19  C   UNL     1       5.439  36.729  -2.640  1.00  0.00     0.000 C 
BRANCH  19  20
ATOM     20  C   UNL     1       5.732  38.050  -1.904  1.00  0.00     0.000 C 
BRANCH  20  21
ATOM     21  C   UNL     1       4.443  38.800  -1.502  1.00  0.00     0.000 C 
BRANCH  21  22
ATOM     22  C   UNL     1       4.586  39.668  -0.234  1.00  0.00     0.000 C 
BRANCH  22  23
ATOM     23  C   UNL     1       3.563  39.381   0.879  1.00  0.00     0.000 C 
BRANCH  23  24
ATOM     24  C   UNL     1       4.185  39.412   2.285  1.00  0.00    -0.000 C 
BRANCH  24  25
ATOM     25  C   UNL     1       3.263  38.735   3.315  1.00  0.00    -0.000 C 
BRANCH  25  26
ATOM     26  C   UNL     1       4.042  38.028   4.441  1.00  0.00    -0.000 C 
BRANCH  26  27
ATOM     27  C   UNL     1       5.323  38.749   4.892  1.00  0.00    -0.000 C 
BRANCH  27  28
ATOM     28  C   UNL     1       5.037  40.073   5.619  1.00  0.00    -0.000 C 
BRANCH  28  29
ATOM     29  C   UNL     1       6.315  40.889   5.891  1.00  0.00    -0.000 C 
BRANCH  29  30
ATOM     30  C   UNL     1       7.502  40.562   4.962  1.00  0.00    -0.000 C 
BRANCH  30  31
ATOM     31  C   UNL     1       7.853  41.717   4.011  1.00  0.00    -0.003 C 
ATOM     32  C   UNL     1       6.957  41.709   2.775  1.00  0.00     0.004 C 
ENDBRANCH  30  31
ENDBRANCH  29  30
ENDBRANCH  28  29
ENDBRANCH  27  28
ENDBRANCH  26  27
ENDBRANCH  25  26
ENDBRANCH  24  25
ENDBRANCH  23  24
ENDBRANCH  22  23
ENDBRANCH  21  22
ENDBRANCH  20  21
ENDBRANCH  19  20
ENDBRANCH  18  19
ENDBRANCH   1  18
TORSDOF 28
ENDMDL
MODEL 7
REMARK VINA RESULT:    -4.113      2.715      5.610
REMARK INTER + INTRA:         -16.650
REMARK INTER:                 -10.378
REMARK INTRA:                  -6.272
REMARK UNBOUND:                -5.804
REMARK SMILES CCCCCCCCCCCCCCCCCCCCCCCCCCCCCC(=O)[O-]
REMARK SMILES IDX 16 1 17 2 18 3 19 4 20 5 21 6 22 7 23 8 24 9 25 10 26 11
REMARK SMILES IDX 27 12 28 13 29 14 30 15 31 16 32 17 15 18 14 19 13 20 12 21
REMARK SMILES IDX 11 22 10 23 9 24 8 25 7 26 6 27 5 28 4 29 3 30 2 31 1 32
REMARK H PARENT
REMARK Flexibility Score: inf
ROOT
ATOM      1  C   UNL     1      10.175  40.221   0.779  1.00  0.00     0.000 C 
ENDROOT
BRANCH   1   2
ATOM      2  C   UNL     1       9.468  39.306  -0.236  1.00  0.00     0.000 C 
BRANCH   2   3
ATOM      3  C   UNL     1      10.408  38.279  -0.886  1.00  0.00     0.000 C 
BRANCH   3   4
ATOM      4  C   UNL     1       9.928  36.819  -0.771  1.00  0.00     0.000 C 
BRANCH   4   5
ATOM      5  C   UNL     1      10.225  36.208   0.610  1.00  0.00     0.000 C 
BRANCH   5   6
ATOM      6  C   UNL     1       8.975  35.614   1.289  1.00  0.00     0.000 C 
BRANCH   6   7
ATOM      7  C   UNL     1       7.656  36.358   0.997  1.00  0.00     0.000 C 
BRANCH   7   8
ATOM      8  C   UNL     1       6.408  35.516   1.321  1.00  0.00     0.000 C 
BRANCH   8   9
ATOM      9  C   UNL     1       5.302  35.624   0.248  1.00  0.00     0.000 C 
BRANCH   9  10
ATOM     10  C   UNL     1       5.834  35.647  -1.205  1.00  0.00     0.000 C 
BRANCH  10  11
ATOM     11  C   UNL     1       6.168  34.258  -1.772  1.00  0.00     0.000 C 
BRANCH  11  12
ATOM     12  C   UNL     1       7.646  34.134  -2.183  1.00  0.00     0.000 C 
BRANCH  12  13
ATOM     13  C   UNL     1       8.443  33.230  -1.229  1.00  0.00     0.006 C 
BRANCH  13  14
ATOM     14  C   UNL     1       9.908  33.070  -1.661  1.00  0.00     0.053 C 
BRANCH  14  15
ATOM     15  C   UNL     1      10.382  31.674  -1.400  1.00  0.00     0.041 C 
ATOM     16  O   UNL     1      11.114  31.086  -2.240  1.00  0.00    -0.550 OA
ATOM     17  O   UNL     1       9.971  31.004  -0.256  1.00  0.00    -0.550 OA
ENDBRANCH  14  15
ENDBRANCH  13  14
ENDBRANCH  12  13
ENDBRANCH  11  12
ENDBRANCH  10  11
ENDBRANCH   9  10
ENDBRANCH   8   9
ENDBRANCH   7   8
ENDBRANCH   6   7
ENDBRANCH   5   6
ENDBRANCH   4   5
ENDBRANCH   3   4
ENDBRANCH   2   3
ENDBRANCH   1   2
BRANCH   1  18
ATOM     18  C   UNL     1      10.218  39.570   2.171  1.00  0.00     0.000 C 
BRANCH  18  19
ATOM     19  C   UNL     1       8.813  39.312   2.739  1.00  0.00     0.000 C 
BRANCH  19  20
ATOM     20  C   UNL     1       8.241  40.547   3.461  1.00  0.00     0.000 C 
BRANCH  20  21
ATOM     21  C   UNL     1       7.040  40.197   4.367  1.00  0.00     0.000 C 
BRANCH  21  22
ATOM     22  C   UNL     1       6.769  38.684   4.502  1.00  0.00     0.000 C 
BRANCH  22  23
ATOM     23  C   UNL     1       5.315  38.250   4.245  1.00  0.00     0.000 C 
BRANCH  23  24
ATOM     24  C   UNL     1       4.551  39.228   3.339  1.00  0.00    -0.000 C 
BRANCH  24  25
ATOM     25  C   UNL     1       3.910  38.496   2.146  1.00  0.00    -0.000 C 
BRANCH  25  26
ATOM     26  C   UNL     1       4.320  39.092   0.786  1.00  0.00    -0.000 C 
BRANCH  26  27
ATOM     27  C   UNL     1       5.771  39.595   0.713  1.00  0.00    -0.000 C 
BRANCH  27  28
ATOM     28  C   UNL     1       6.070  40.370  -0.581  1.00  0.00    -0.000 C 
BRANCH  28  29
ATOM     29  C   UNL     1       6.810  41.696  -0.321  1.00  0.00    -0.000 C 
BRANCH  29  30
ATOM     30  C   UNL     1       6.360  42.451   0.945  1.00  0.00    -0.000 C 
BRANCH  30  31
ATOM     31  C   UNL     1       7.414  43.448   1.452  1.00  0.00    -0.003 C 
ATOM     32  C   UNL     1       8.593  43.547   0.488  1.00  0.00     0.004 C 
ENDBRANCH  30  31
ENDBRANCH  29  30
ENDBRANCH  28  29
ENDBRANCH  27  28
ENDBRANCH  26  27
ENDBRANCH  25  26
ENDBRANCH  24  25
ENDBRANCH  23  24
ENDBRANCH  22  23
ENDBRANCH  21  22
ENDBRANCH  20  21
ENDBRANCH  19  20
ENDBRANCH  18  19
ENDBRANCH   1  18
TORSDOF 28
ENDMDL
MODEL 8
REMARK VINA RESULT:    -4.108      2.399      4.942
REMARK INTER + INTRA:         -16.637
REMARK INTER:                 -10.437
REMARK INTRA:                  -6.200
REMARK UNBOUND:                -5.804
REMARK SMILES CCCCCCCCCCCCCCCCCCCCCCCCCCCCCC(=O)[O-]
REMARK SMILES IDX 16 1 17 2 18 3 19 4 20 5 21 6 22 7 23 8 24 9 25 10 26 11
REMARK SMILES IDX 27 12 28 13 29 14 30 15 31 16 32 17 15 18 14 19 13 20 12 21
REMARK SMILES IDX 11 22 10 23 9 24 8 25 7 26 6 27 5 28 4 29 3 30 2 31 1 32
REMARK H PARENT
REMARK Flexibility Score: inf
ROOT
ATOM      1  C   UNL     1       5.967  39.133  -0.784  1.00  0.00     0.000 C 
ENDROOT
BRANCH   1   2
ATOM      2  C   UNL     1       4.880  38.733  -1.797  1.00  0.00     0.000 C 
BRANCH   2   3
ATOM      3  C   UNL     1       5.234  37.472  -2.601  1.00  0.00     0.000 C 
BRANCH   3   4
ATOM      4  C   UNL     1       4.129  36.397  -2.613  1.00  0.00     0.000 C 
BRANCH   4   5
ATOM      5  C   UNL     1       3.242  36.450  -1.357  1.00  0.00     0.000 C 
BRANCH   5   6
ATOM      6  C   UNL     1       3.634  35.404  -0.295  1.00  0.00     0.000 C 
BRANCH   6   7
ATOM      7  C   UNL     1       3.989  35.980   1.092  1.00  0.00     0.000 C 
BRANCH   7   8
ATOM      8  C   UNL     1       5.499  35.939   1.390  1.00  0.00     0.000 C 
BRANCH   8   9
ATOM      9  C   UNL     1       6.330  35.307   0.252  1.00  0.00     0.000 C 
BRANCH   9  10
ATOM     10  C   UNL     1       7.832  35.677   0.288  1.00  0.00     0.000 C 
BRANCH  10  11
ATOM     11  C   UNL     1       8.338  36.368  -0.988  1.00  0.00     0.000 C 
BRANCH  11  12
ATOM     12  C   UNL     1       9.845  36.154  -1.212  1.00  0.00     0.000 C 
BRANCH  12  13
ATOM     13  C   UNL     1      10.401  34.995  -0.368  1.00  0.00     0.006 C 
BRANCH  13  14
ATOM     14  C   UNL     1      10.764  33.771  -1.223  1.00  0.00     0.053 C 
BRANCH  14  15
ATOM     15  C   UNL     1       9.649  32.773  -1.208  1.00  0.00     0.041 C 
ATOM     16  O   UNL     1       9.741  31.730  -0.507  1.00  0.00    -0.550 OA
ATOM     17  O   UNL     1       8.533  32.966  -2.010  1.00  0.00    -0.550 OA
ENDBRANCH  14  15
ENDBRANCH  13  14
ENDBRANCH  12  13
ENDBRANCH  11  12
ENDBRANCH  10  11
ENDBRANCH   9  10
ENDBRANCH   8   9
ENDBRANCH   7   8
ENDBRANCH   6   7
ENDBRANCH   5   6
ENDBRANCH   4   5
ENDBRANCH   3   4
ENDBRANCH   2   3
ENDBRANCH   1   2
BRANCH   1  18
ATOM     18  C   UNL     1       5.341  39.637   0.526  1.00  0.00     0.000 C 
BRANCH  18  19
ATOM     19  C   UNL     1       5.875  41.020   0.935  1.00  0.00     0.000 C 
BRANCH  19  20
ATOM     20  C   UNL     1       6.440  41.803  -0.264  1.00  0.00     0.000 C 
BRANCH  20  21
ATOM     21  C   UNL     1       7.631  42.706   0.129  1.00  0.00     0.000 C 
BRANCH  21  22
ATOM     22  C   UNL     1       8.741  41.980   0.917  1.00  0.00     0.000 C 
BRANCH  22  23
ATOM     23  C   UNL     1       9.619  41.025   0.090  1.00  0.00     0.000 C 
BRANCH  23  24
ATOM     24  C   UNL     1       9.599  39.583   0.621  1.00  0.00    -0.000 C 
BRANCH  24  25
ATOM     25  C   UNL     1       9.242  39.547   2.118  1.00  0.00    -0.000 C 
BRANCH  25  26
ATOM     26  C   UNL     1       8.157  38.505   2.450  1.00  0.00    -0.000 C 
BRANCH  26  27
ATOM     27  C   UNL     1       7.620  38.568   3.890  1.00  0.00    -0.000 C 
BRANCH  27  28
ATOM     28  C   UNL     1       6.919  39.898   4.207  1.00  0.00    -0.000 C 
BRANCH  28  29
ATOM     29  C   UNL     1       5.397  39.740   4.382  1.00  0.00    -0.000 C 
BRANCH  29  30
ATOM     30  C   UNL     1       4.848  38.341   4.038  1.00  0.00    -0.000 C 
BRANCH  30  31
ATOM     31  C   UNL     1       4.284  37.603   5.262  1.00  0.00    -0.003 C 
ATOM     32  C   UNL     1       3.644  36.275   4.863  1.00  0.00     0.004 C 
ENDBRANCH  30  31
ENDBRANCH  29  30
ENDBRANCH  28  29
ENDBRANCH  27  28
ENDBRANCH  26  27
ENDBRANCH  25  26
ENDBRANCH  24  25
ENDBRANCH  23  24
ENDBRANCH  22  23
ENDBRANCH  21  22
ENDBRANCH  20  21
ENDBRANCH  19  20
ENDBRANCH  18  19
ENDBRANCH   1  18
TORSDOF 28
ENDMDL
MODEL 9
REMARK VINA RESULT:    -4.071      1.607      6.020
REMARK INTER + INTRA:         -16.539
REMARK INTER:                  -9.937
REMARK INTRA:                  -6.601
REMARK UNBOUND:                -5.804
REMARK SMILES CCCCCCCCCCCCCCCCCCCCCCCCCCCCCC(=O)[O-]
REMARK SMILES IDX 16 1 17 2 18 3 19 4 20 5 21 6 22 7 23 8 24 9 25 10 26 11
REMARK SMILES IDX 27 12 28 13 29 14 30 15 31 16 32 17 15 18 14 19 13 20 12 21
REMARK SMILES IDX 11 22 10 23 9 24 8 25 7 26 6 27 5 28 4 29 3 30 2 31 1 32
REMARK H PARENT
REMARK Flexibility Score: inf
ROOT
ATOM      1  C   UNL     1       6.246  39.512   0.004  1.00  0.00     0.000 C 
ENDROOT
BRANCH   1   2
ATOM      2  C   UNL     1       5.226  39.191   1.111  1.00  0.00     0.000 C 
BRANCH   2   3
ATOM      3  C   UNL     1       3.884  38.674   0.569  1.00  0.00     0.000 C 
BRANCH   3   4
ATOM      4  C   UNL     1       3.305  37.477   1.348  1.00  0.00     0.000 C 
BRANCH   4   5
ATOM      5  C   UNL     1       4.280  36.288   1.411  1.00  0.00     0.000 C 
BRANCH   5   6
ATOM      6  C   UNL     1       4.785  35.996   2.838  1.00  0.00     0.000 C 
BRANCH   6   7
ATOM      7  C   UNL     1       3.802  36.366   3.969  1.00  0.00     0.000 C 
BRANCH   7   8
ATOM      8  C   UNL     1       4.467  37.167   5.103  1.00  0.00     0.000 C 
BRANCH   8   9
ATOM      9  C   UNL     1       4.799  38.623   4.711  1.00  0.00     0.000 C 
BRANCH   9  10
ATOM     10  C   UNL     1       6.293  38.993   4.867  1.00  0.00     0.000 C 
BRANCH  10  11
ATOM     11  C   UNL     1       6.587  40.494   4.709  1.00  0.00     0.000 C 
BRANCH  11  12
ATOM     12  C   UNL     1       8.076  40.823   4.911  1.00  0.00     0.000 C 
BRANCH  12  13
ATOM     13  C   UNL     1       8.626  41.739   3.806  1.00  0.00     0.006 C 
BRANCH  13  14
ATOM     14  C   UNL     1       7.689  41.820   2.592  1.00  0.00     0.053 C 
BRANCH  14  15
ATOM     15  C   UNL     1       8.407  42.403   1.415  1.00  0.00     0.041 C 
ATOM     16  O   UNL     1       9.656  42.564   1.450  1.00  0.00    -0.550 OA
ATOM     17  O   UNL     1       7.691  42.820   0.301  1.00  0.00    -0.550 OA
ENDBRANCH  14  15
ENDBRANCH  13  14
ENDBRANCH  12  13
ENDBRANCH  11  12
ENDBRANCH  10  11
ENDBRANCH   9  10
ENDBRANCH   8   9
ENDBRANCH   7   8
ENDBRANCH   6   7
ENDBRANCH   5   6
ENDBRANCH   4   5
ENDBRANCH   3   4
ENDBRANCH   2   3
ENDBRANCH   1   2
BRANCH   1  18
ATOM     18  C   UNL     1       7.618  38.898   0.324  1.00  0.00     0.000 C 
BRANCH  18  19
ATOM     19  C   UNL     1       7.600  38.068   1.619  1.00  0.00     0.000 C 
BRANCH  19  20
ATOM     20  C   UNL     1       8.947  38.123   2.363  1.00  0.00     0.000 C 
BRANCH  20  21
ATOM     21  C   UNL     1       9.992  38.993   1.631  1.00  0.00     0.000 C 
BRANCH  21  22
ATOM     22  C   UNL     1      11.115  38.190   0.944  1.00  0.00     0.000 C 
BRANCH  22  23
ATOM     23  C   UNL     1      10.986  38.051  -0.583  1.00  0.00     0.000 C 
BRANCH  23  24
ATOM     24  C   UNL     1      10.362  36.713  -1.012  1.00  0.00    -0.000 C 
BRANCH  24  25
ATOM     25  C   UNL     1      10.511  35.651   0.093  1.00  0.00    -0.000 C 
BRANCH  25  26
ATOM     26  C   UNL     1       9.715  34.365  -0.200  1.00  0.00    -0.000 C 
BRANCH  26  27
ATOM     27  C   UNL     1       8.235  34.413   0.217  1.00  0.00    -0.000 C 
BRANCH  27  28
ATOM     28  C   UNL     1       7.278  34.469  -0.984  1.00  0.00    -0.000 C 
BRANCH  28  29
ATOM     29  C   UNL     1       6.495  35.793  -1.058  1.00  0.00    -0.000 C 
BRANCH  29  30
ATOM     30  C   UNL     1       6.332  36.370  -2.479  1.00  0.00    -0.000 C 
BRANCH  30  31
ATOM     31  C   UNL     1       5.011  37.132  -2.667  1.00  0.00    -0.003 C 
ATOM     32  C   UNL     1       3.808  36.207  -2.492  1.00  0.00     0.004 C 
ENDBRANCH  30  31
ENDBRANCH  29  30
ENDBRANCH  28  29
ENDBRANCH  27  28
ENDBRANCH  26  27
ENDBRANCH  25  26
ENDBRANCH  24  25
ENDBRANCH  23  24
ENDBRANCH  22  23
ENDBRANCH  21  22
ENDBRANCH  20  21
ENDBRANCH  19  20
ENDBRANCH  18  19
ENDBRANCH   1  18
TORSDOF 28
ENDMDL
