MODEL 1
REMARK VINA RESULT:    -8.072      0.000      0.000
REMARK INTER + INTRA:          -8.457
REMARK INTER:                  -8.780
REMARK INTRA:                   0.323
REMARK UNBOUND:                 0.323
REMARK SMILES CC1(C)CC[C@@]2(C(=O)[O-])CC[C@]3(C)C(=CC[C@@H]4[C@]5(C)CC[C@H](O)C(C)(C)[C@@H]5CC[C@]43C)[C@H]2C1
REMARK SMILES IDX 6 1 5 2 10 3 32 4 4 5 11 6 14 7 33 8 2 9 12 10 15 11 1 12
REMARK SMILES IDX 3 13 13 14 30 15 16 16 17 17 29 18 31 19 18 20 28 21 27 22
REMARK SMILES IDX 20 23 19 24 24 25 21 26 22 27 25 28 26 29 7 30 8 31 9 32
REMARK SMILES IDX 23 33
REMARK H PARENT 23 34
REMARK Flexibility Score: inf
ROOT
ATOM      1  C   UNL     1       7.695   7.189 -15.751  1.00  0.00     0.017 C 
ATOM      2  C   UNL     1       6.249   7.483 -15.245  1.00  0.00     0.014 C 
ATOM      3  C   UNL     1       7.751   7.290 -17.292  1.00  0.00     0.014 C 
ATOM      4  C   UNL     1       8.693   8.195 -15.077  1.00  0.00     0.028 C 
ATOM      5  C   UNL     1       6.121   7.356 -13.718  1.00  0.00     0.007 C 
ATOM      6  C   UNL     1       7.555   8.715 -17.817  1.00  0.00     0.013 C 
ATOM      7  C   UNL     1       8.640   9.619 -15.695  1.00  0.00    -0.064 C 
ATOM      8  C   UNL     1       8.552   8.096 -13.519  1.00  0.00     0.015 C 
ATOM      9  C   UNL     1       7.109   8.270 -12.953  1.00  0.00    -0.035 C 
ATOM     10  C   UNL     1       8.569   9.759 -17.238  1.00  0.00    -0.006 C 
ATOM     11  C   UNL     1       9.009  10.701 -14.953  1.00  0.00    -0.027 C 
ATOM     12  C   UNL     1       6.638   9.740 -13.008  1.00  0.00     0.011 C 
ATOM     13  C   UNL     1       7.117   7.845 -11.467  1.00  0.00     0.011 C 
ATOM     14  C   UNL     1       9.980   9.359 -17.795  1.00  0.00     0.017 C 
ATOM     15  C   UNL     1       8.141  11.264 -17.658  1.00  0.00    -0.020 C 
ATOM     16  C   UNL     1       8.900  12.132 -15.407  1.00  0.00     0.032 C 
ATOM     17  C   UNL     1       9.089  12.290 -16.929  1.00  0.00     0.006 C 
ATOM     18  C   UNL     1       8.282  11.491 -19.179  1.00  0.00     0.008 C 
ATOM     19  C   UNL     1       6.639  11.487 -17.270  1.00  0.00     0.012 C 
ATOM     20  C   UNL     1       9.184  13.816 -17.436  1.00  0.00    -0.025 C 
ATOM     21  C   UNL     1       7.970  12.931 -19.577  1.00  0.00     0.005 C 
ATOM     22  C   UNL     1       9.017  13.932 -19.020  1.00  0.00     0.003 C 
ATOM     23  C   UNL     1       8.159  14.736 -16.690  1.00  0.00     0.010 C 
ATOM     24  C   UNL     1      10.625  14.309 -17.043  1.00  0.00     0.012 C 
ATOM     25  C   UNL     1       8.795  15.414 -19.578  1.00  0.00    -0.006 C 
ATOM     26  C   UNL     1       8.062  16.166 -17.232  1.00  0.00     0.033 C 
ATOM     27  C   UNL     1       7.743  16.192 -18.731  1.00  0.00     0.120 C 
ATOM     28  C   UNL     1       8.316  15.416 -21.061  1.00  0.00     0.014 C 
ATOM     29  C   UNL     1      10.137  16.201 -19.611  1.00  0.00     0.014 C 
ENDROOT
BRANCH   1  30
ATOM     30  C   UNL     1       8.076   5.744 -15.425  1.00  0.00     0.048 C 
ATOM     31  O   UNL     1       8.915   5.493 -14.520  1.00  0.00    -0.550 OA
ATOM     32  O   UNL     1       7.416   4.683 -16.035  1.00  0.00    -0.550 OA
ENDBRANCH   1  30
BRANCH  27  33
ATOM     33  O   UNL     1       6.453  15.668 -18.939  1.00  0.00    -0.393 OA
ATOM     34  H   UNL     1       5.933  16.358 -19.426  1.00  0.00     0.210 HD
ENDBRANCH  27  33
TORSDOF 2
ENDMDL
MODEL 2
REMARK VINA RESULT:    -7.826      1.896      3.756
REMARK INTER + INTRA:          -8.189
REMARK INTER:                  -8.892
REMARK INTRA:                   0.703
REMARK UNBOUND:                 0.323
REMARK SMILES CC1(C)CC[C@@]2(C(=O)[O-])CC[C@]3(C)C(=CC[C@@H]4[C@]5(C)CC[C@H](O)C(C)(C)[C@@H]5CC[C@]43C)[C@H]2C1
REMARK SMILES IDX 6 1 5 2 10 3 32 4 4 5 11 6 14 7 33 8 2 9 12 10 15 11 1 12
REMARK SMILES IDX 3 13 13 14 30 15 16 16 17 17 29 18 31 19 18 20 28 21 27 22
REMARK SMILES IDX 20 23 19 24 24 25 21 26 22 27 25 28 26 29 7 30 8 31 9 32
REMARK SMILES IDX 23 33
REMARK H PARENT 23 34
REMARK Flexibility Score: inf
ROOT
ATOM      1  C   UNL     1       7.762   9.588 -13.624  1.00  0.00     0.017 C 
ATOM      2  C   UNL     1       9.079   8.904 -14.103  1.00  0.00     0.014 C 
ATOM      3  C   UNL     1       8.072  10.971 -13.008  1.00  0.00     0.014 C 
ATOM      4  C   UNL     1       6.774   9.714 -14.838  1.00  0.00     0.028 C 
ATOM      5  C   UNL     1       8.838   7.503 -14.688  1.00  0.00     0.007 C 
ATOM      6  C   UNL     1       8.565  11.997 -14.032  1.00  0.00     0.013 C 
ATOM      7  C   UNL     1       7.150  10.858 -15.819  1.00  0.00    -0.064 C 
ATOM      8  C   UNL     1       6.542   8.295 -15.462  1.00  0.00     0.015 C 
ATOM      9  C   UNL     1       7.827   7.508 -15.861  1.00  0.00    -0.035 C 
ATOM     10  C   UNL     1       7.589  12.225 -15.236  1.00  0.00    -0.006 C 
ATOM     11  C   UNL     1       6.764  10.793 -17.125  1.00  0.00    -0.027 C 
ATOM     12  C   UNL     1       8.483   8.078 -17.138  1.00  0.00     0.011 C 
ATOM     13  C   UNL     1       7.425   6.046 -16.165  1.00  0.00     0.011 C 
ATOM     14  C   UNL     1       6.303  12.898 -14.640  1.00  0.00     0.017 C 
ATOM     15  C   UNL     1       8.292  13.136 -16.376  1.00  0.00    -0.020 C 
ATOM     16  C   UNL     1       7.157  11.784 -18.187  1.00  0.00     0.032 C 
ATOM     17  C   UNL     1       7.343  13.210 -17.632  1.00  0.00     0.006 C 
ATOM     18  C   UNL     1       8.533  14.579 -15.883  1.00  0.00     0.008 C 
ATOM     19  C   UNL     1       9.682  12.507 -16.737  1.00  0.00     0.012 C 
ATOM     20  C   UNL     1       7.564  14.341 -18.757  1.00  0.00    -0.025 C 
ATOM     21  C   UNL     1       9.110  15.474 -16.977  1.00  0.00     0.005 C 
ATOM     22  C   UNL     1       8.102  15.710 -18.132  1.00  0.00     0.003 C 
ATOM     23  C   UNL     1       8.501  13.838 -19.906  1.00  0.00     0.010 C 
ATOM     24  C   UNL     1       6.147  14.599 -19.390  1.00  0.00     0.012 C 
ATOM     25  C   UNL     1       8.635  16.783 -19.191  1.00  0.00    -0.006 C 
ATOM     26  C   UNL     1       8.903  14.907 -20.928  1.00  0.00     0.033 C 
ATOM     27  C   UNL     1       9.557  16.122 -20.260  1.00  0.00     0.120 C 
ATOM     28  C   UNL     1       9.436  17.932 -18.508  1.00  0.00     0.014 C 
ATOM     29  C   UNL     1       7.448  17.509 -19.889  1.00  0.00     0.014 C 
ENDROOT
BRANCH   1  30
ATOM     30  C   UNL     1       7.133   8.773 -12.493  1.00  0.00     0.048 C 
ATOM     31  O   UNL     1       6.983   9.277 -11.349  1.00  0.00    -0.550 OA
ATOM     32  O   UNL     1       6.605   7.511 -12.740  1.00  0.00    -0.550 OA
ENDBRANCH   1  30
BRANCH  27  33
ATOM     33  O   UNL     1      10.781  15.732 -19.686  1.00  0.00    -0.393 OA
ATOM     34  H   UNL     1      11.318  16.556 -19.555  1.00  0.00     0.210 HD
ENDBRANCH  27  33
TORSDOF 2
ENDMDL
MODEL 3
REMARK VINA RESULT:    -7.483      1.694      3.662
REMARK INTER + INTRA:          -7.817
REMARK INTER:                  -7.859
REMARK INTRA:                   0.042
REMARK UNBOUND:                 0.323
REMARK SMILES CC1(C)CC[C@@]2(C(=O)[O-])CC[C@]3(C)C(=CC[C@@H]4[C@]5(C)CC[C@H](O)C(C)(C)[C@@H]5CC[C@]43C)[C@H]2C1
REMARK SMILES IDX 6 1 5 2 10 3 32 4 4 5 11 6 14 7 33 8 2 9 12 10 15 11 1 12
REMARK SMILES IDX 3 13 13 14 30 15 16 16 17 17 29 18 31 19 18 20 28 21 27 22
REMARK SMILES IDX 20 23 19 24 24 25 21 26 22 27 25 28 26 29 7 30 8 31 9 32
REMARK SMILES IDX 23 33
REMARK H PARENT 23 34
REMARK Flexibility Score: inf
ROOT
ATOM      1  C   UNL     1       8.034   9.074 -14.772  1.00  0.00     0.017 C 
ATOM      2  C   UNL     1       8.890   8.291 -15.814  1.00  0.00     0.014 C 
ATOM      3  C   UNL     1       8.878  10.193 -14.121  1.00  0.00     0.014 C 
ATOM      4  C   UNL     1       6.763   9.660 -15.483  1.00  0.00     0.028 C 
ATOM      5  C   UNL     1       8.114   7.135 -16.466  1.00  0.00     0.007 C 
ATOM      6  C   UNL     1       9.243  11.322 -15.088  1.00  0.00     0.013 C 
ATOM      7  C   UNL     1       7.067  10.913 -16.349  1.00  0.00    -0.064 C 
ATOM      8  C   UNL     1       5.977   8.495 -16.177  1.00  0.00     0.015 C 
ATOM      9  C   UNL     1       6.804   7.600 -17.150  1.00  0.00    -0.035 C 
ATOM     10  C   UNL     1       8.013  12.001 -15.779  1.00  0.00    -0.006 C 
ATOM     11  C   UNL     1       6.261  11.228 -17.402  1.00  0.00    -0.027 C 
ATOM     12  C   UNL     1       7.115   8.323 -18.480  1.00  0.00     0.011 C 
ATOM     13  C   UNL     1       5.962   6.350 -17.493  1.00  0.00     0.011 C 
ATOM     14  C   UNL     1       7.222  12.740 -14.644  1.00  0.00     0.017 C 
ATOM     15  C   UNL     1       8.500  13.009 -16.951  1.00  0.00    -0.020 C 
ATOM     16  C   UNL     1       6.514  12.351 -18.373  1.00  0.00     0.032 C 
ATOM     17  C   UNL     1       7.237  13.548 -17.722  1.00  0.00     0.006 C 
ATOM     18  C   UNL     1       9.256  14.226 -16.376  1.00  0.00     0.008 C 
ATOM     19  C   UNL     1       9.475  12.237 -17.905  1.00  0.00     0.012 C 
ATOM     20  C   UNL     1       7.349  14.851 -18.663  1.00  0.00    -0.025 C 
ATOM     21  C   UNL     1       9.640  15.230 -17.459  1.00  0.00     0.005 C 
ATOM     22  C   UNL     1       8.399  15.912 -18.092  1.00  0.00     0.003 C 
ATOM     23  C   UNL     1       7.681  14.467 -20.144  1.00  0.00     0.010 C 
ATOM     24  C   UNL     1       5.918  15.506 -18.661  1.00  0.00     0.012 C 
ATOM     25  C   UNL     1       8.800  17.086 -19.100  1.00  0.00    -0.006 C 
ATOM     26  C   UNL     1       7.976  15.653 -21.068  1.00  0.00     0.033 C 
ATOM     27  C   UNL     1       9.106  16.536 -20.527  1.00  0.00     0.120 C 
ATOM     28  C   UNL     1      10.052  17.875 -18.610  1.00  0.00     0.014 C 
ATOM     29  C   UNL     1       7.678  18.161 -19.174  1.00  0.00     0.014 C 
ENDROOT
BRANCH   1  30
ATOM     30  C   UNL     1       7.635   8.147 -13.623  1.00  0.00     0.048 C 
ATOM     31  O   UNL     1       8.293   7.098 -13.390  1.00  0.00    -0.550 OA
ATOM     32  O   UNL     1       6.619   8.506 -12.744  1.00  0.00    -0.550 OA
ENDBRANCH   1  30
BRANCH  27  33
ATOM     33  O   UNL     1      10.307  15.804 -20.529  1.00  0.00    -0.393 OA
ATOM     34  H   UNL     1      11.040  16.446 -20.718  1.00  0.00     0.210 HD
ENDBRANCH  27  33
TORSDOF 2
ENDMDL
MODEL 4
REMARK VINA RESULT:    -7.447      1.683      8.523
REMARK INTER + INTRA:          -7.777
REMARK INTER:                  -7.937
REMARK INTRA:                   0.160
REMARK UNBOUND:                 0.323
REMARK SMILES CC1(C)CC[C@@]2(C(=O)[O-])CC[C@]3(C)C(=CC[C@@H]4[C@]5(C)CC[C@H](O)C(C)(C)[C@@H]5CC[C@]43C)[C@H]2C1
REMARK SMILES IDX 6 1 5 2 10 3 32 4 4 5 11 6 14 7 33 8 2 9 12 10 15 11 1 12
REMARK SMILES IDX 3 13 13 14 30 15 16 16 17 17 29 18 31 19 18 20 28 21 27 22
REMARK SMILES IDX 20 23 19 24 24 25 21 26 22 27 25 28 26 29 7 30 8 31 9 32
REMARK SMILES IDX 23 33
REMARK H PARENT 23 34
REMARK Flexibility Score: inf
ROOT
ATOM      1  C   UNL     1       8.285  16.740 -18.397  1.00  0.00     0.017 C 
ATOM      2  C   UNL     1       7.206  16.414 -19.476  1.00  0.00     0.014 C 
ATOM      3  C   UNL     1       7.672  16.635 -16.982  1.00  0.00     0.014 C 
ATOM      4  C   UNL     1       9.498  15.758 -18.567  1.00  0.00     0.028 C 
ATOM      5  C   UNL     1       7.747  16.543 -20.909  1.00  0.00     0.007 C 
ATOM      6  C   UNL     1       7.301  15.205 -16.583  1.00  0.00     0.013 C 
ATOM      7  C   UNL     1       9.215  14.331 -18.022  1.00  0.00    -0.064 C 
ATOM      8  C   UNL     1      10.041  15.858 -20.034  1.00  0.00     0.015 C 
ATOM      9  C   UNL     1       8.988  15.654 -21.166  1.00  0.00    -0.035 C 
ATOM     10  C   UNL     1       8.488  14.186 -16.660  1.00  0.00    -0.006 C 
ATOM     11  C   UNL     1       9.891  13.260 -18.525  1.00  0.00    -0.027 C 
ATOM     12  C   UNL     1       8.572  14.173 -21.310  1.00  0.00     0.011 C 
ATOM     13  C   UNL     1       9.628  16.083 -22.506  1.00  0.00     0.011 C 
ATOM     14  C   UNL     1       9.510  14.615 -15.552  1.00  0.00     0.017 C 
ATOM     15  C   UNL     1       7.953  12.670 -16.455  1.00  0.00    -0.020 C 
ATOM     16  C   UNL     1       9.628  11.826 -18.152  1.00  0.00     0.032 C 
ATOM     17  C   UNL     1       9.144  11.668 -16.696  1.00  0.00     0.006 C 
ATOM     18  C   UNL     1       7.428  12.441 -15.021  1.00  0.00     0.008 C 
ATOM     19  C   UNL     1       6.770  12.414 -17.453  1.00  0.00     0.012 C 
ATOM     20  C   UNL     1       9.044  10.143 -16.188  1.00  0.00    -0.025 C 
ATOM     21  C   UNL     1       7.006  10.993 -14.786  1.00  0.00     0.005 C 
ATOM     22  C   UNL     1       8.212  10.018 -14.829  1.00  0.00     0.003 C 
ATOM     23  C   UNL     1       8.463   9.202 -17.296  1.00  0.00     0.010 C 
ATOM     24  C   UNL     1      10.525   9.683 -15.917  1.00  0.00     0.012 C 
ATOM     25  C   UNL     1       7.804   8.530 -14.412  1.00  0.00    -0.006 C 
ATOM     26  C   UNL     1       8.172   7.768 -16.838  1.00  0.00     0.033 C 
ATOM     27  C   UNL     1       7.238   7.730 -15.625  1.00  0.00     0.120 C 
ATOM     28  C   UNL     1       6.732   8.513 -13.281  1.00  0.00     0.014 C 
ATOM     29  C   UNL     1       9.017   7.774 -13.797  1.00  0.00     0.014 C 
ENDROOT
BRANCH   1  30
ATOM     30  C   UNL     1       8.738  18.193 -18.536  1.00  0.00     0.048 C 
ATOM     31  O   UNL     1       9.957  18.471 -18.693  1.00  0.00    -0.550 OA
ATOM     32  O   UNL     1       7.805  19.221 -18.615  1.00  0.00    -0.550 OA
ENDBRANCH   1  30
BRANCH  27  33
ATOM     33  O   UNL     1       5.974   8.225 -15.997  1.00  0.00    -0.393 OA
ATOM     34  H   UNL     1       5.302   7.549 -15.719  1.00  0.00     0.210 HD
ENDBRANCH  27  33
TORSDOF 2
ENDMDL
MODEL 5
REMARK VINA RESULT:    -6.102      1.767      8.085
REMARK INTER + INTRA:          -6.315
REMARK INTER:                  -7.034
REMARK INTRA:                   0.719
REMARK UNBOUND:                 0.323
REMARK SMILES CC1(C)CC[C@@]2(C(=O)[O-])CC[C@]3(C)C(=CC[C@@H]4[C@]5(C)CC[C@H](O)C(C)(C)[C@@H]5CC[C@]43C)[C@H]2C1
REMARK SMILES IDX 6 1 5 2 10 3 32 4 4 5 11 6 14 7 33 8 2 9 12 10 15 11 1 12
REMARK SMILES IDX 3 13 13 14 30 15 16 16 17 17 29 18 31 19 18 20 28 21 27 22
REMARK SMILES IDX 20 23 19 24 24 25 21 26 22 27 25 28 26 29 7 30 8 31 9 32
REMARK SMILES IDX 23 33
REMARK H PARENT 23 34
REMARK Flexibility Score: inf
ROOT
ATOM      1  C   UNL     1       8.775  14.612 -20.689  1.00  0.00     0.017 C 
ATOM      2  C   UNL     1      10.083  15.169 -20.046  1.00  0.00     0.014 C 
ATOM      3  C   UNL     1       9.016  13.187 -21.236  1.00  0.00     0.014 C 
ATOM      4  C   UNL     1       7.627  14.627 -19.619  1.00  0.00     0.028 C 
ATOM      5  C   UNL     1       9.917  16.604 -19.520  1.00  0.00     0.007 C 
ATOM      6  C   UNL     1       9.253  12.146 -20.139  1.00  0.00     0.013 C 
ATOM      7  C   UNL     1       7.742  13.479 -18.579  1.00  0.00    -0.064 C 
ATOM      8  C   UNL     1       7.466  16.079 -19.054  1.00  0.00     0.015 C 
ATOM      9  C   UNL     1       8.763  16.740 -18.496  1.00  0.00    -0.035 C 
ATOM     10  C   UNL     1       8.106  12.057 -19.076  1.00  0.00    -0.006 C 
ATOM     11  C   UNL     1       7.194  13.623 -17.339  1.00  0.00    -0.027 C 
ATOM     12  C   UNL     1       9.178  16.143 -17.132  1.00  0.00     0.011 C 
ATOM     13  C   UNL     1       8.484  18.244 -18.272  1.00  0.00     0.011 C 
ATOM     14  C   UNL     1       6.848  11.504 -19.831  1.00  0.00     0.017 C 
ATOM     15  C   UNL     1       8.549  11.111 -17.837  1.00  0.00    -0.020 C 
ATOM     16  C   UNL     1       7.333  12.628 -16.218  1.00  0.00     0.032 C 
ATOM     17  C   UNL     1       7.438  11.174 -16.721  1.00  0.00     0.006 C 
ATOM     18  C   UNL     1       8.697   9.637 -18.271  1.00  0.00     0.008 C 
ATOM     19  C   UNL     1       9.937  11.603 -17.299  1.00  0.00     0.012 C 
ATOM     20  C   UNL     1       7.384  10.060 -15.559  1.00  0.00    -0.025 C 
ATOM     21  C   UNL     1       9.024   8.720 -17.095  1.00  0.00     0.005 C 
ATOM     22  C   UNL     1       7.850   8.625 -16.084  1.00  0.00     0.003 C 
ATOM     23  C   UNL     1       8.207  10.497 -14.301  1.00  0.00     0.010 C 
ATOM     24  C   UNL     1       5.875   9.970 -15.121  1.00  0.00     0.012 C 
ATOM     25  C   UNL     1       8.118   7.534 -14.946  1.00  0.00    -0.006 C 
ATOM     26  C   UNL     1       8.351   9.422 -13.218  1.00  0.00     0.033 C 
ATOM     27  C   UNL     1       8.954   8.127 -13.771  1.00  0.00     0.120 C 
ATOM     28  C   UNL     1       8.876   6.288 -15.496  1.00  0.00     0.014 C 
ATOM     29  C   UNL     1       6.778   6.956 -14.405  1.00  0.00     0.014 C 
ENDROOT
BRANCH   1  30
ATOM     30  C   UNL     1       8.394  15.455 -21.907  1.00  0.00     0.048 C 
ATOM     31  O   UNL     1       8.118  14.903 -23.005  1.00  0.00    -0.550 OA
ATOM     32  O   UNL     1       8.227  16.830 -21.792  1.00  0.00    -0.550 OA
ENDBRANCH   1  30
BRANCH  27  33
ATOM     33  O   UNL     1      10.279   8.370 -14.180  1.00  0.00    -0.393 OA
ATOM     34  H   UNL     1      10.283   8.373 -15.172  1.00  0.00     0.210 HD
ENDBRANCH  27  33
TORSDOF 2
ENDMDL
