MODEL 1
REMARK VINA RESULT:    -6.418      0.000      0.000
REMARK INTER + INTRA:          -7.875
REMARK INTER:                  -7.731
REMARK INTRA:                  -0.144
REMARK UNBOUND:                -0.144
REMARK SMILES O=c1c(O)c(-c2ccc(O)c(O)c2)oc2cc(O)cc(O)c12
REMARK SMILES IDX 5 1 3 2 2 3 1 4 22 5 20 6 19 7 17 8 16 9 15 10 14 11 6 12
REMARK SMILES IDX 7 13 8 14 9 15 13 16 11 17 10 18 12 20 4 22 21 24 18 26
REMARK H PARENT 10 19 12 21 4 23 21 25 18 27
REMARK Flexibility Score: inf
ROOT
ATOM      1  C   UNL     1      11.673  30.174  -5.077  1.00  0.00     0.180 A 
ATOM      2  C   UNL     1      10.865  31.319  -4.960  1.00  0.00     0.208 A 
ATOM      3  C   UNL     1      10.061  31.471  -3.818  1.00  0.00     0.238 A 
ATOM      4  O   UNL     1       9.299  32.469  -3.744  1.00  0.00    -0.285 OA
ATOM      5  C   UNL     1      10.088  30.485  -2.802  1.00  0.00     0.111 A 
ATOM      6  C   UNL     1       9.346  30.556  -1.585  1.00  0.00     0.134 A 
ATOM      7  C   UNL     1       9.348  29.462  -0.710  1.00  0.00     0.093 A 
ATOM      8  C   UNL     1      10.118  28.328  -0.977  1.00  0.00     0.123 A 
ATOM      9  C   UNL     1      10.892  28.274  -2.133  1.00  0.00     0.094 A 
ATOM     10  C   UNL     1      10.882  29.334  -3.043  1.00  0.00     0.146 A 
ATOM     11  O   UNL     1      11.627  29.237  -4.138  1.00  0.00    -0.452 OA
ENDROOT
BRANCH   1  12
ATOM     12  C   UNL     1      12.567  29.957  -6.238  1.00  0.00     0.025 A 
ATOM     13  C   UNL     1      12.008  29.771  -7.512  1.00  0.00     0.016 A 
ATOM     14  C   UNL     1      12.831  29.544  -8.619  1.00  0.00     0.051 A 
ATOM     15  C   UNL     1      14.219  29.485  -8.468  1.00  0.00     0.157 A 
ATOM     16  C   UNL     1      13.962  29.877  -6.084  1.00  0.00     0.062 A 
ATOM     17  C   UNL     1      14.789  29.647  -7.195  1.00  0.00     0.158 A 
BRANCH  15  18
ATOM     18  O   UNL     1      15.014  29.260  -9.591  1.00  0.00    -0.504 OA
ATOM     19  H   UNL     1      15.400  28.347  -9.804  1.00  0.00     0.293 HD
ENDBRANCH  15  18
BRANCH  17  20
ATOM     20  O   UNL     1      16.172  29.576  -7.034  1.00  0.00    -0.504 OA
ATOM     21  H   UNL     1      16.591  29.117  -6.234  1.00  0.00     0.293 HD
ENDBRANCH  17  20
ENDBRANCH   1  12
BRANCH   2  22
ATOM     22  O   UNL     1      10.837  32.268  -5.984  1.00  0.00    -0.502 OA
ATOM     23  H   UNL     1      10.335  32.119  -6.852  1.00  0.00     0.293 HD
ENDBRANCH   2  22
BRANCH   6  24
ATOM     24  O   UNL     1       8.617  31.678  -1.179  1.00  0.00    -0.507 OA
ATOM     25  H   UNL     1       8.855  32.631  -1.410  1.00  0.00     0.293 HD
ENDBRANCH   6  24
BRANCH   8  26
ATOM     26  O   UNL     1      10.126  27.251  -0.094  1.00  0.00    -0.508 OA
ATOM     27  H   UNL     1       9.268  26.880   0.299  1.00  0.00     0.293 HD
ENDBRANCH   8  26
TORSDOF 6
ENDMDL
MODEL 2
REMARK VINA RESULT:    -6.323      1.930      7.284
REMARK INTER + INTRA:          -7.762
REMARK INTER:                  -7.689
REMARK INTRA:                  -0.073
REMARK UNBOUND:                -0.144
REMARK SMILES O=c1c(O)c(-c2ccc(O)c(O)c2)oc2cc(O)cc(O)c12
REMARK SMILES IDX 5 1 3 2 2 3 1 4 22 5 20 6 19 7 17 8 16 9 15 10 14 11 6 12
REMARK SMILES IDX 7 13 8 14 9 15 13 16 11 17 10 18 12 20 4 22 21 24 18 26
REMARK H PARENT 10 19 12 21 4 23 21 25 18 27
REMARK Flexibility Score: inf
ROOT
ATOM      1  C   UNL     1       9.938  30.388  -1.622  1.00  0.00     0.180 A 
ATOM      2  C   UNL     1       9.313  31.392  -2.382  1.00  0.00     0.208 A 
ATOM      3  C   UNL     1       9.785  31.658  -3.678  1.00  0.00     0.238 A 
ATOM      4  O   UNL     1       9.257  32.594  -4.333  1.00  0.00    -0.285 OA
ATOM      5  C   UNL     1      10.864  30.906  -4.203  1.00  0.00     0.111 A 
ATOM      6  C   UNL     1      11.396  31.063  -5.517  1.00  0.00     0.134 A 
ATOM      7  C   UNL     1      12.549  30.357  -5.884  1.00  0.00     0.093 A 
ATOM      8  C   UNL     1      13.148  29.450  -5.007  1.00  0.00     0.123 A 
ATOM      9  C   UNL     1      12.600  29.247  -3.743  1.00  0.00     0.094 A 
ATOM     10  C   UNL     1      11.473  29.963  -3.335  1.00  0.00     0.146 A 
ATOM     11  O   UNL     1      10.989  29.745  -2.118  1.00  0.00    -0.452 OA
ENDROOT
BRANCH   1  12
ATOM     12  C   UNL     1       9.481  30.033  -0.259  1.00  0.00     0.025 A 
ATOM     13  C   UNL     1       9.483  31.013   0.746  1.00  0.00     0.016 A 
ATOM     14  C   UNL     1       9.075  30.695   2.044  1.00  0.00     0.051 A 
ATOM     15  C   UNL     1       8.674  29.394   2.362  1.00  0.00     0.157 A 
ATOM     16  C   UNL     1       9.096  28.720   0.066  1.00  0.00     0.062 A 
ATOM     17  C   UNL     1       8.688  28.399   1.370  1.00  0.00     0.158 A 
BRANCH  15  18
ATOM     18  O   UNL     1       8.270  29.108   3.665  1.00  0.00    -0.504 OA
ATOM     19  H   UNL     1       8.373  29.776   4.420  1.00  0.00     0.293 HD
ENDBRANCH  15  18
BRANCH  17  20
ATOM     20  O   UNL     1       8.303  27.097   1.682  1.00  0.00    -0.504 OA
ATOM     21  H   UNL     1       8.659  26.299   1.168  1.00  0.00     0.293 HD
ENDBRANCH  17  20
ENDBRANCH   1  12
BRANCH   2  22
ATOM     22  O   UNL     1       8.264  32.136  -1.837  1.00  0.00    -0.502 OA
ATOM     23  H   UNL     1       7.479  32.457  -2.391  1.00  0.00     0.293 HD
ENDBRANCH   2  22
BRANCH   6  24
ATOM     24  O   UNL     1      10.821  31.873  -6.501  1.00  0.00    -0.507 OA
ATOM     25  H   UNL     1      10.293  32.713  -6.317  1.00  0.00     0.293 HD
ENDBRANCH   6  24
BRANCH   8  26
ATOM     26  O   UNL     1      14.285  28.740  -5.386  1.00  0.00    -0.508 OA
ATOM     27  H   UNL     1      14.631  28.762  -6.339  1.00  0.00     0.293 HD
ENDBRANCH   8  26
TORSDOF 6
ENDMDL
MODEL 3
REMARK VINA RESULT:    -6.309      5.984     11.132
REMARK INTER + INTRA:          -7.745
REMARK INTER:                  -7.430
REMARK INTRA:                  -0.315
REMARK UNBOUND:                -0.144
REMARK SMILES O=c1c(O)c(-c2ccc(O)c(O)c2)oc2cc(O)cc(O)c12
REMARK SMILES IDX 5 1 3 2 2 3 1 4 22 5 20 6 19 7 17 8 16 9 15 10 14 11 6 12
REMARK SMILES IDX 7 13 8 14 9 15 13 16 11 17 10 18 12 20 4 22 21 24 18 26
REMARK H PARENT 10 19 12 21 4 23 21 25 18 27
REMARK Flexibility Score: inf
ROOT
ATOM      1  C   UNL     1       9.351  30.351   4.527  1.00  0.00     0.180 A 
ATOM      2  C   UNL     1       9.148  28.961   4.471  1.00  0.00     0.208 A 
ATOM      3  C   UNL     1       9.023  28.340   3.218  1.00  0.00     0.238 A 
ATOM      4  O   UNL     1       8.788  27.105   3.176  1.00  0.00    -0.285 OA
ATOM      5  C   UNL     1       9.120  29.115   2.036  1.00  0.00     0.111 A 
ATOM      6  C   UNL     1       9.048  28.585   0.713  1.00  0.00     0.134 A 
ATOM      7  C   UNL     1       9.024  29.459  -0.380  1.00  0.00     0.093 A 
ATOM      8  C   UNL     1       9.135  30.840  -0.201  1.00  0.00     0.123 A 
ATOM      9  C   UNL     1       9.265  31.362   1.083  1.00  0.00     0.094 A 
ATOM     10  C   UNL     1       9.256  30.518   2.196  1.00  0.00     0.146 A 
ATOM     11  O   UNL     1       9.372  31.059   3.403  1.00  0.00    -0.452 OA
ENDROOT
BRANCH   1  12
ATOM     12  C   UNL     1       9.518  31.072   5.810  1.00  0.00     0.025 A 
ATOM     13  C   UNL     1       8.438  31.795   6.340  1.00  0.00     0.016 A 
ATOM     14  C   UNL     1       8.579  32.500   7.538  1.00  0.00     0.051 A 
ATOM     15  C   UNL     1       9.802  32.506   8.216  1.00  0.00     0.157 A 
ATOM     16  C   UNL     1      10.753  31.095   6.482  1.00  0.00     0.062 A 
ATOM     17  C   UNL     1      10.896  31.804   7.685  1.00  0.00     0.158 A 
BRANCH  15  18
ATOM     18  O   UNL     1       9.911  33.215   9.411  1.00  0.00    -0.504 OA
ATOM     19  H   UNL     1       9.182  33.201  10.115  1.00  0.00     0.293 HD
ENDBRANCH  15  18
BRANCH  17  20
ATOM     20  O   UNL     1      12.122  31.816   8.348  1.00  0.00    -0.504 OA
ATOM     21  H   UNL     1      12.941  31.364   7.959  1.00  0.00     0.293 HD
ENDBRANCH  17  20
ENDBRANCH   1  12
BRANCH   2  22
ATOM     22  O   UNL     1       9.035  28.220   5.650  1.00  0.00    -0.502 OA
ATOM     23  H   UNL     1       8.539  27.338   5.694  1.00  0.00     0.293 HD
ENDBRANCH   2  22
BRANCH   6  24
ATOM     24  O   UNL     1       9.026  27.218   0.420  1.00  0.00    -0.507 OA
ATOM     25  H   UNL     1       9.840  26.621   0.403  1.00  0.00     0.293 HD
ENDBRANCH   6  24
BRANCH   8  26
ATOM     26  O   UNL     1       9.126  31.702  -1.296  1.00  0.00    -0.508 OA
ATOM     27  H   UNL     1       8.283  32.187  -1.581  1.00  0.00     0.293 HD
ENDBRANCH   8  26
TORSDOF 6
ENDMDL
MODEL 4
REMARK VINA RESULT:    -6.247      2.355      7.539
REMARK INTER + INTRA:          -7.670
REMARK INTER:                  -7.503
REMARK INTRA:                  -0.167
REMARK UNBOUND:                -0.144
REMARK SMILES O=c1c(O)c(-c2ccc(O)c(O)c2)oc2cc(O)cc(O)c12
REMARK SMILES IDX 5 1 3 2 2 3 1 4 22 5 20 6 19 7 17 8 16 9 15 10 14 11 6 12
REMARK SMILES IDX 7 13 8 14 9 15 13 16 11 17 10 18 12 20 4 22 21 24 18 26
REMARK H PARENT 10 19 12 21 4 23 21 25 18 27
REMARK Flexibility Score: inf
ROOT
ATOM      1  C   UNL     1      10.300  30.231  -1.939  1.00  0.00     0.180 A 
ATOM      2  C   UNL     1      11.501  29.647  -2.381  1.00  0.00     0.208 A 
ATOM      3  C   UNL     1      12.009  30.005  -3.640  1.00  0.00     0.238 A 
ATOM      4  O   UNL     1      13.054  29.440  -4.053  1.00  0.00    -0.285 OA
ATOM      5  C   UNL     1      11.318  30.953  -4.434  1.00  0.00     0.111 A 
ATOM      6  C   UNL     1      11.763  31.419  -5.708  1.00  0.00     0.134 A 
ATOM      7  C   UNL     1      10.934  32.258  -6.463  1.00  0.00     0.093 A 
ATOM      8  C   UNL     1       9.708  32.701  -5.962  1.00  0.00     0.123 A 
ATOM      9  C   UNL     1       9.293  32.299  -4.695  1.00  0.00     0.094 A 
ATOM     10  C   UNL     1      10.081  31.433  -3.933  1.00  0.00     0.146 A 
ATOM     11  O   UNL     1       9.643  31.067  -2.734  1.00  0.00    -0.452 OA
ENDROOT
BRANCH   1  12
ATOM     12  C   UNL     1       9.716  29.923  -0.613  1.00  0.00     0.025 A 
ATOM     13  C   UNL     1       9.678  30.922   0.372  1.00  0.00     0.016 A 
ATOM     14  C   UNL     1       9.151  30.649   1.637  1.00  0.00     0.051 A 
ATOM     15  C   UNL     1       8.670  29.373   1.942  1.00  0.00     0.157 A 
ATOM     16  C   UNL     1       9.251  28.634  -0.298  1.00  0.00     0.062 A 
ATOM     17  C   UNL     1       8.723  28.358   0.972  1.00  0.00     0.158 A 
BRANCH  15  18
ATOM     18  O   UNL     1       8.147  29.130   3.212  1.00  0.00    -0.504 OA
ATOM     19  H   UNL     1       8.546  28.438   3.835  1.00  0.00     0.293 HD
ENDBRANCH  15  18
BRANCH  17  20
ATOM     20  O   UNL     1       8.258  27.079   1.274  1.00  0.00    -0.504 OA
ATOM     21  H   UNL     1       7.531  26.634   0.724  1.00  0.00     0.293 HD
ENDBRANCH  17  20
ENDBRANCH   1  12
BRANCH   2  22
ATOM     22  O   UNL     1      12.154  28.699  -1.590  1.00  0.00    -0.502 OA
ATOM     23  H   UNL     1      12.077  28.686  -0.580  1.00  0.00     0.293 HD
ENDBRANCH   2  22
BRANCH   6  24
ATOM     24  O   UNL     1      13.009  31.111  -6.260  1.00  0.00    -0.507 OA
ATOM     25  H   UNL     1      13.863  31.013  -5.732  1.00  0.00     0.293 HD
ENDBRANCH   6  24
BRANCH   8  26
ATOM     26  O   UNL     1       8.897  33.549  -6.714  1.00  0.00    -0.508 OA
ATOM     27  H   UNL     1       9.053  33.690  -7.706  1.00  0.00     0.293 HD
ENDBRANCH   8  26
TORSDOF 6
ENDMDL
MODEL 5
REMARK VINA RESULT:    -6.149      1.498      6.834
REMARK INTER + INTRA:          -7.551
REMARK INTER:                  -7.248
REMARK INTRA:                  -0.303
REMARK UNBOUND:                -0.144
REMARK SMILES O=c1c(O)c(-c2ccc(O)c(O)c2)oc2cc(O)cc(O)c12
REMARK SMILES IDX 5 1 3 2 2 3 1 4 22 5 20 6 19 7 17 8 16 9 15 10 14 11 6 12
REMARK SMILES IDX 7 13 8 14 9 15 13 16 11 17 10 18 12 20 4 22 21 24 18 26
REMARK H PARENT 10 19 12 21 4 23 21 25 18 27
REMARK Flexibility Score: inf
ROOT
ATOM      1  C   UNL     1      10.908  29.579  -3.934  1.00  0.00     0.180 A 
ATOM      2  C   UNL     1      10.034  29.814  -5.010  1.00  0.00     0.208 A 
ATOM      3  C   UNL     1      10.562  29.912  -6.308  1.00  0.00     0.238 A 
ATOM      4  O   UNL     1       9.782  30.175  -7.259  1.00  0.00    -0.285 OA
ATOM      5  C   UNL     1      11.955  29.758  -6.514  1.00  0.00     0.111 A 
ATOM      6  C   UNL     1      12.593  29.798  -7.790  1.00  0.00     0.134 A 
ATOM      7  C   UNL     1      13.991  29.766  -7.864  1.00  0.00     0.093 A 
ATOM      8  C   UNL     1      14.770  29.628  -6.713  1.00  0.00     0.123 A 
ATOM      9  C   UNL     1      14.153  29.529  -5.468  1.00  0.00     0.094 A 
ATOM     10  C   UNL     1      12.762  29.594  -5.360  1.00  0.00     0.146 A 
ATOM     11  O   UNL     1      12.216  29.505  -4.152  1.00  0.00    -0.452 OA
ENDROOT
BRANCH   1  12
ATOM     12  C   UNL     1      10.423  29.438  -2.542  1.00  0.00     0.025 A 
ATOM     13  C   UNL     1      10.183  28.156  -2.022  1.00  0.00     0.016 A 
ATOM     14  C   UNL     1       9.705  28.000  -0.719  1.00  0.00     0.051 A 
ATOM     15  C   UNL     1       9.446  29.118   0.079  1.00  0.00     0.157 A 
ATOM     16  C   UNL     1      10.144  30.563  -1.745  1.00  0.00     0.062 A 
ATOM     17  C   UNL     1       9.662  30.406  -0.436  1.00  0.00     0.158 A 
BRANCH  15  18
ATOM     18  O   UNL     1       8.973  28.930   1.377  1.00  0.00    -0.504 OA
ATOM     19  H   UNL     1       8.719  29.707   1.976  1.00  0.00     0.293 HD
ENDBRANCH  15  18
BRANCH  17  20
ATOM     20  O   UNL     1       9.393  31.527   0.348  1.00  0.00    -0.504 OA
ATOM     21  H   UNL     1       8.446  31.784   0.601  1.00  0.00     0.293 HD
ENDBRANCH  17  20
ENDBRANCH   1  12
BRANCH   2  22
ATOM     22  O   UNL     1       8.666  29.983  -4.780  1.00  0.00    -0.502 OA
ATOM     23  H   UNL     1       8.199  29.598  -3.968  1.00  0.00     0.293 HD
ENDBRANCH   2  22
BRANCH   6  24
ATOM     24  O   UNL     1      11.905  29.843  -9.006  1.00  0.00    -0.507 OA
ATOM     25  H   UNL     1      10.909  29.717  -9.107  1.00  0.00     0.293 HD
ENDBRANCH   6  24
BRANCH   8  26
ATOM     26  O   UNL     1      16.160  29.581  -6.797  1.00  0.00    -0.508 OA
ATOM     27  H   UNL     1      16.746  29.729  -5.983  1.00  0.00     0.293 HD
ENDBRANCH   8  26
TORSDOF 6
ENDMDL
MODEL 6
REMARK VINA RESULT:    -6.148      2.577      4.413
REMARK INTER + INTRA:          -7.550
REMARK INTER:                  -7.446
REMARK INTRA:                  -0.104
REMARK UNBOUND:                -0.144
REMARK SMILES O=c1c(O)c(-c2ccc(O)c(O)c2)oc2cc(O)cc(O)c12
REMARK SMILES IDX 5 1 3 2 2 3 1 4 22 5 20 6 19 7 17 8 16 9 15 10 14 11 6 12
REMARK SMILES IDX 7 13 8 14 9 15 13 16 11 17 10 18 12 20 4 22 21 24 18 26
REMARK H PARENT 10 19 12 21 4 23 21 25 18 27
REMARK Flexibility Score: inf
ROOT
ATOM      1  C   UNL     1      11.003  31.615  -5.319  1.00  0.00     0.180 A 
ATOM      2  C   UNL     1      12.196  30.872  -5.371  1.00  0.00     0.208 A 
ATOM      3  C   UNL     1      12.449  29.917  -4.373  1.00  0.00     0.238 A 
ATOM      4  O   UNL     1      13.541  29.294  -4.395  1.00  0.00    -0.285 OA
ATOM      5  C   UNL     1      11.497  29.705  -3.346  1.00  0.00     0.111 A 
ATOM      6  C   UNL     1      11.631  28.735  -2.307  1.00  0.00     0.134 A 
ATOM      7  C   UNL     1      10.692  28.702  -1.269  1.00  0.00     0.093 A 
ATOM      8  C   UNL     1       9.589  29.559  -1.267  1.00  0.00     0.123 A 
ATOM      9  C   UNL     1       9.419  30.469  -2.308  1.00  0.00     0.094 A 
ATOM     10  C   UNL     1      10.358  30.550  -3.339  1.00  0.00     0.146 A 
ATOM     11  O   UNL     1      10.162  31.438  -4.306  1.00  0.00    -0.452 OA
ENDROOT
BRANCH   1  12
ATOM     12  C   UNL     1      10.656  32.620  -6.349  1.00  0.00     0.025 A 
ATOM     13  C   UNL     1      10.547  32.223  -7.691  1.00  0.00     0.016 A 
ATOM     14  C   UNL     1      10.241  33.158  -8.683  1.00  0.00     0.051 A 
ATOM     15  C   UNL     1      10.054  34.503  -8.353  1.00  0.00     0.157 A 
ATOM     16  C   UNL     1      10.487  33.977  -6.021  1.00  0.00     0.062 A 
ATOM     17  C   UNL     1      10.181  34.918  -7.017  1.00  0.00     0.158 A 
BRANCH  15  18
ATOM     18  O   UNL     1       9.746  35.413  -9.364  1.00  0.00    -0.504 OA
ATOM     19  H   UNL     1       8.984  36.076  -9.279  1.00  0.00     0.293 HD
ENDBRANCH  15  18
BRANCH  17  20
ATOM     20  O   UNL     1      10.009  36.260  -6.682  1.00  0.00    -0.504 OA
ATOM     21  H   UNL     1      10.245  37.003  -7.329  1.00  0.00     0.293 HD
ENDBRANCH  17  20
ENDBRANCH   1  12
BRANCH   2  22
ATOM     22  O   UNL     1      13.130  31.112  -6.383  1.00  0.00    -0.502 OA
ATOM     23  H   UNL     1      13.955  31.682  -6.237  1.00  0.00     0.293 HD
ENDBRANCH   2  22
BRANCH   6  24
ATOM     24  O   UNL     1      12.644  27.773  -2.263  1.00  0.00    -0.507 OA
ATOM     25  H   UNL     1      12.795  27.066  -2.967  1.00  0.00     0.293 HD
ENDBRANCH   6  24
BRANCH   8  26
ATOM     26  O   UNL     1       8.651  29.509  -0.238  1.00  0.00    -0.508 OA
ATOM     27  H   UNL     1       8.932  29.510   0.736  1.00  0.00     0.293 HD
ENDBRANCH   8  26
TORSDOF 6
ENDMDL
MODEL 7
REMARK VINA RESULT:    -6.094      2.134      3.877
REMARK INTER + INTRA:          -7.485
REMARK INTER:                  -7.360
REMARK INTRA:                  -0.125
REMARK UNBOUND:                -0.144
REMARK SMILES O=c1c(O)c(-c2ccc(O)c(O)c2)oc2cc(O)cc(O)c12
REMARK SMILES IDX 5 1 3 2 2 3 1 4 22 5 20 6 19 7 17 8 16 9 15 10 14 11 6 12
REMARK SMILES IDX 7 13 8 14 9 15 13 16 11 17 10 18 12 20 4 22 21 24 18 26
REMARK H PARENT 10 19 12 21 4 23 21 25 18 27
REMARK Flexibility Score: inf
ROOT
ATOM      1  C   UNL     1      12.527  30.352  -6.424  1.00  0.00     0.180 A 
ATOM      2  C   UNL     1      12.383  29.879  -5.108  1.00  0.00     0.208 A 
ATOM      3  C   UNL     1      11.443  30.490  -4.263  1.00  0.00     0.238 A 
ATOM      4  O   UNL     1      11.357  30.098  -3.071  1.00  0.00    -0.285 OA
ATOM      5  C   UNL     1      10.647  31.555  -4.750  1.00  0.00     0.111 A 
ATOM      6  C   UNL     1       9.636  32.221  -3.994  1.00  0.00     0.134 A 
ATOM      7  C   UNL     1       9.001  33.348  -4.532  1.00  0.00     0.093 A 
ATOM      8  C   UNL     1       9.295  33.792  -5.824  1.00  0.00     0.123 A 
ATOM      9  C   UNL     1      10.238  33.113  -6.590  1.00  0.00     0.094 A 
ATOM     10  C   UNL     1      10.914  32.007  -6.068  1.00  0.00     0.146 A 
ATOM     11  O   UNL     1      11.813  31.395  -6.830  1.00  0.00    -0.452 OA
ENDROOT
BRANCH   1  12
ATOM     12  C   UNL     1      13.479  29.742  -7.381  1.00  0.00     0.025 A 
ATOM     13  C   UNL     1      12.987  29.108  -8.532  1.00  0.00     0.016 A 
ATOM     14  C   UNL     1      13.865  28.507  -9.438  1.00  0.00     0.051 A 
ATOM     15  C   UNL     1      15.242  28.517  -9.201  1.00  0.00     0.157 A 
ATOM     16  C   UNL     1      14.863  29.734  -7.133  1.00  0.00     0.062 A 
ATOM     17  C   UNL     1      15.745  29.128  -8.042  1.00  0.00     0.158 A 
BRANCH  15  18
ATOM     18  O   UNL     1      16.094  27.911 -10.125  1.00  0.00    -0.504 OA
ATOM     19  H   UNL     1      16.088  26.911 -10.287  1.00  0.00     0.293 HD
ENDBRANCH  15  18
BRANCH  17  20
ATOM     20  O   UNL     1      17.117  29.131  -7.792  1.00  0.00    -0.504 OA
ATOM     21  H   UNL     1      17.665  28.279  -7.828  1.00  0.00     0.293 HD
ENDBRANCH  17  20
ENDBRANCH   1  12
BRANCH   2  22
ATOM     22  O   UNL     1      13.194  28.840  -4.642  1.00  0.00    -0.502 OA
ATOM     23  H   UNL     1      13.046  28.395  -3.744  1.00  0.00     0.293 HD
ENDBRANCH   2  22
BRANCH   6  24
ATOM     24  O   UNL     1       9.202  31.804  -2.732  1.00  0.00    -0.507 OA
ATOM     25  H   UNL     1       8.841  32.418  -2.018  1.00  0.00     0.293 HD
ENDBRANCH   6  24
BRANCH   8  26
ATOM     26  O   UNL     1       8.648  34.904  -6.357  1.00  0.00    -0.508 OA
ATOM     27  H   UNL     1       7.789  34.814  -6.888  1.00  0.00     0.293 HD
ENDBRANCH   8  26
TORSDOF 6
ENDMDL
MODEL 8
REMARK VINA RESULT:    -6.089      2.943      4.957
REMARK INTER + INTRA:          -7.479
REMARK INTER:                  -7.144
REMARK INTRA:                  -0.334
REMARK UNBOUND:                -0.144
REMARK SMILES O=c1c(O)c(-c2ccc(O)c(O)c2)oc2cc(O)cc(O)c12
REMARK SMILES IDX 5 1 3 2 2 3 1 4 22 5 20 6 19 7 17 8 16 9 15 10 14 11 6 12
REMARK SMILES IDX 7 13 8 14 9 15 13 16 11 17 10 18 12 20 4 22 21 24 18 26
REMARK H PARENT 10 19 12 21 4 23 21 25 18 27
REMARK Flexibility Score: inf
ROOT
ATOM      1  C   UNL     1       9.795  32.471  -4.906  1.00  0.00     0.180 A 
ATOM      2  C   UNL     1       9.005  32.382  -3.746  1.00  0.00     0.208 A 
ATOM      3  C   UNL     1       9.346  31.441  -2.761  1.00  0.00     0.238 A 
ATOM      4  O   UNL     1       8.606  31.329  -1.750  1.00  0.00    -0.285 OA
ATOM      5  C   UNL     1      10.481  30.614  -2.941  1.00  0.00     0.111 A 
ATOM      6  C   UNL     1      10.942  29.654  -1.990  1.00  0.00     0.134 A 
ATOM      7  C   UNL     1      11.998  28.799  -2.329  1.00  0.00     0.093 A 
ATOM      8  C   UNL     1      12.651  28.913  -3.558  1.00  0.00     0.123 A 
ATOM      9  C   UNL     1      12.246  29.886  -4.469  1.00  0.00     0.094 A 
ATOM     10  C   UNL     1      11.173  30.729  -4.174  1.00  0.00     0.146 A 
ATOM     11  O   UNL     1      10.813  31.637  -5.075  1.00  0.00    -0.452 OA
ENDROOT
BRANCH   1  12
ATOM     12  C   UNL     1       9.513  33.456  -5.976  1.00  0.00     0.025 A 
ATOM     13  C   UNL     1       8.731  33.073  -7.077  1.00  0.00     0.016 A 
ATOM     14  C   UNL     1       8.470  33.979  -8.108  1.00  0.00     0.051 A 
ATOM     15  C   UNL     1       8.996  35.273  -8.064  1.00  0.00     0.157 A 
ATOM     16  C   UNL     1      10.058  34.751  -5.942  1.00  0.00     0.062 A 
ATOM     17  C   UNL     1       9.798  35.661  -6.978  1.00  0.00     0.158 A 
BRANCH  15  18
ATOM     18  O   UNL     1       8.716  36.155  -9.106  1.00  0.00    -0.504 OA
ATOM     19  H   UNL     1       7.776  36.485  -9.295  1.00  0.00     0.293 HD
ENDBRANCH  15  18
BRANCH  17  20
ATOM     20  O   UNL     1      10.338  36.946  -6.933  1.00  0.00    -0.504 OA
ATOM     21  H   UNL     1       9.798  37.738  -6.603  1.00  0.00     0.293 HD
ENDBRANCH  17  20
ENDBRANCH   1  12
BRANCH   2  22
ATOM     22  O   UNL     1       7.878  33.194  -3.599  1.00  0.00    -0.502 OA
ATOM     23  H   UNL     1       7.411  33.627  -4.387  1.00  0.00     0.293 HD
ENDBRANCH   2  22
BRANCH   6  24
ATOM     24  O   UNL     1      10.420  29.520  -0.700  1.00  0.00    -0.507 OA
ATOM     25  H   UNL     1      10.307  30.279  -0.045  1.00  0.00     0.293 HD
ENDBRANCH   6  24
BRANCH   8  26
ATOM     26  O   UNL     1      13.711  28.068  -3.881  1.00  0.00    -0.508 OA
ATOM     27  H   UNL     1      13.701  27.503  -4.723  1.00  0.00     0.293 HD
ENDBRANCH   8  26
TORSDOF 6
ENDMDL
MODEL 9
REMARK VINA RESULT:    -5.781      2.849      5.357
REMARK INTER + INTRA:          -7.108
REMARK INTER:                  -6.815
REMARK INTRA:                  -0.293
REMARK UNBOUND:                -0.144
REMARK SMILES O=c1c(O)c(-c2ccc(O)c(O)c2)oc2cc(O)cc(O)c12
REMARK SMILES IDX 5 1 3 2 2 3 1 4 22 5 20 6 19 7 17 8 16 9 15 10 14 11 6 12
REMARK SMILES IDX 7 13 8 14 9 15 13 16 11 17 10 18 12 20 4 22 21 24 18 26
REMARK H PARENT 10 19 12 21 4 23 21 25 18 27
REMARK Flexibility Score: inf
ROOT
ATOM      1  C   UNL     1       9.827  29.952  -0.952  1.00  0.00     0.180 A 
ATOM      2  C   UNL     1       9.639  28.574  -0.746  1.00  0.00     0.208 A 
ATOM      3  C   UNL     1       9.260  28.122   0.529  1.00  0.00     0.238 A 
ATOM      4  O   UNL     1       9.145  26.885   0.721  1.00  0.00    -0.285 OA
ATOM      5  C   UNL     1       9.059  29.055   1.575  1.00  0.00     0.111 A 
ATOM      6  C   UNL     1       8.637  28.712   2.894  1.00  0.00     0.134 A 
ATOM      7  C   UNL     1       8.598  29.701   3.886  1.00  0.00     0.093 A 
ATOM      8  C   UNL     1       8.902  31.031   3.588  1.00  0.00     0.123 A 
ATOM      9  C   UNL     1       9.259  31.385   2.289  1.00  0.00     0.094 A 
ATOM     10  C   UNL     1       9.342  30.415   1.288  1.00  0.00     0.146 A 
ATOM     11  O   UNL     1       9.695  30.795   0.065  1.00  0.00    -0.452 OA
ENDROOT
BRANCH   1  12
ATOM     12  C   UNL     1      10.201  30.506  -2.274  1.00  0.00     0.025 A 
ATOM     13  C   UNL     1       9.202  31.034  -3.107  1.00  0.00     0.016 A 
ATOM     14  C   UNL     1       9.528  31.543  -4.367  1.00  0.00     0.051 A 
ATOM     15  C   UNL     1      10.851  31.519  -4.819  1.00  0.00     0.157 A 
ATOM     16  C   UNL     1      11.528  30.464  -2.738  1.00  0.00     0.062 A 
ATOM     17  C   UNL     1      11.856  30.973  -4.004  1.00  0.00     0.158 A 
BRANCH  15  18
ATOM     18  O   UNL     1      11.146  32.037  -6.080  1.00  0.00    -0.504 OA
ATOM     19  H   UNL     1      11.026  31.494  -6.927  1.00  0.00     0.293 HD
ENDBRANCH  15  18
BRANCH  17  20
ATOM     20  O   UNL     1      13.175  30.933  -4.454  1.00  0.00    -0.504 OA
ATOM     21  H   UNL     1      13.851  30.288  -4.062  1.00  0.00     0.293 HD
ENDBRANCH  17  20
ENDBRANCH   1  12
BRANCH   2  22
ATOM     22  O   UNL     1       9.862  27.670  -1.787  1.00  0.00    -0.502 OA
ATOM     23  H   UNL     1       9.648  26.683  -1.707  1.00  0.00     0.293 HD
ENDBRANCH   2  22
BRANCH   6  24
ATOM     24  O   UNL     1       8.222  27.432   3.274  1.00  0.00    -0.507 OA
ATOM     25  H   UNL     1       7.636  26.830   2.716  1.00  0.00     0.293 HD
ENDBRANCH   6  24
BRANCH   8  26
ATOM     26  O   UNL     1       8.845  32.012   4.576  1.00  0.00    -0.508 OA
ATOM     27  H   UNL     1       9.132  32.967   4.393  1.00  0.00     0.293 HD
ENDBRANCH   8  26
TORSDOF 6
ENDMDL
