MODEL 1
REMARK VINA RESULT:     0.000      0.000      0.000
REMARK INTER + INTRA:          -7.100
REMARK INTER:                   0.000
REMARK INTRA:                  -7.100
REMARK UNBOUND:                -7.100
REMARK SMILES CCCCCCCCCCCCCCCCCCCCCCCCCCCC(=O)[O-]
REMARK SMILES IDX 15 1 16 2 17 3 18 4 19 5 20 6 21 7 22 8 23 9 24 10 25 11
REMARK SMILES IDX 26 12 27 13 28 14 29 15 30 16 14 17 13 18 12 19 11 20 10 21
REMARK SMILES IDX 9 22 8 23 7 24 6 25 5 26 4 27 3 28 2 29 1 30
REMARK H PARENT
REMARK Flexibility Score: inf
ROOT
ATOM      1  C   UNL     1     186.303 175.892 178.166  1.00  0.00     0.000 C 
ENDROOT
BRANCH   1   2
ATOM      2  C   UNL     1     187.449 175.591 179.146  1.00  0.00     0.000 C 
BRANCH   2   3
ATOM      3  C   UNL     1     188.224 176.853 179.566  1.00  0.00     0.000 C 
BRANCH   3   4
ATOM      4  C   UNL     1     189.663 176.867 179.003  1.00  0.00     0.000 C 
BRANCH   4   5
ATOM      5  C   UNL     1     189.939 178.052 178.058  1.00  0.00     0.000 C 
BRANCH   5   6
ATOM      6  C   UNL     1     189.899 177.653 176.576  1.00  0.00     0.000 C 
BRANCH   6   7
ATOM      7  C   UNL     1     189.910 176.128 176.364  1.00  0.00     0.000 C 
BRANCH   7   8
ATOM      8  C   UNL     1     188.825 175.604 175.403  1.00  0.00     0.000 C 
BRANCH   8   9
ATOM      9  C   UNL     1     188.297 176.636 174.387  1.00  0.00     0.000 C 
BRANCH   9  10
ATOM     10  C   UNL     1     186.818 176.422 174.000  1.00  0.00     0.000 C 
BRANCH  10  11
ATOM     11  C   UNL     1     186.255 175.106 174.562  1.00  0.00     0.000 C 
BRANCH  11  12
ATOM     12  C   UNL     1     184.747 175.173 174.840  1.00  0.00     0.006 C 
BRANCH  12  13
ATOM     13  C   UNL     1     183.990 176.042 173.823  1.00  0.00     0.053 C 
BRANCH  13  14
ATOM     14  C   UNL     1     183.036 176.953 174.529  1.00  0.00     0.041 C 
ATOM     15  O   UNL     1     183.044 178.190 174.286  1.00  0.00    -0.550 OA
ATOM     16  O   UNL     1     182.092 176.430 175.403  1.00  0.00    -0.550 OA
ENDBRANCH  13  14
ENDBRANCH  12  13
ENDBRANCH  11  12
ENDBRANCH  10  11
ENDBRANCH   9  10
ENDBRANCH   8   9
ENDBRANCH   7   8
ENDBRANCH   6   7
ENDBRANCH   5   6
ENDBRANCH   4   5
ENDBRANCH   3   4
ENDBRANCH   2   3
ENDBRANCH   1   2
BRANCH   1  17
ATOM     17  C   UNL     1     186.336 177.332 177.633  1.00  0.00     0.000 C 
BRANCH  17  18
ATOM     18  C   UNL     1     184.913 177.888 177.465  1.00  0.00     0.000 C 
BRANCH  18  19
ATOM     19  C   UNL     1     183.901 177.221 178.409  1.00  0.00     0.000 C 
BRANCH  19  20
ATOM     20  C   UNL     1     183.657 178.033 179.693  1.00  0.00     0.000 C 
BRANCH  20  21
ATOM     21  C   UNL     1     184.289 177.361 180.923  1.00  0.00     0.000 C 
BRANCH  21  22
ATOM     22  C   UNL     1     185.413 178.212 181.540  1.00  0.00    -0.000 C 
BRANCH  22  23
ATOM     23  C   UNL     1     185.520 179.599 180.886  1.00  0.00    -0.000 C 
BRANCH  23  24
ATOM     24  C   UNL     1     186.984 180.052 180.732  1.00  0.00    -0.000 C 
BRANCH  24  25
ATOM     25  C   UNL     1     187.321 180.500 179.301  1.00  0.00    -0.000 C 
BRANCH  25  26
ATOM     26  C   UNL     1     186.147 181.220 178.614  1.00  0.00    -0.000 C 
BRANCH  26  27
ATOM     27  C   UNL     1     186.340 181.336 177.092  1.00  0.00    -0.000 C 
BRANCH  27  28
ATOM     28  C   UNL     1     187.659 180.706 176.615  1.00  0.00    -0.000 C 
BRANCH  28  29
ATOM     29  C   UNL     1     187.572 180.175 175.175  1.00  0.00    -0.003 C 
ATOM     30  C   UNL     1     186.133 180.011 174.687  1.00  0.00     0.004 C 
ENDBRANCH  28  29
ENDBRANCH  27  28
ENDBRANCH  26  27
ENDBRANCH  25  26
ENDBRANCH  24  25
ENDBRANCH  23  24
ENDBRANCH  22  23
ENDBRANCH  21  22
ENDBRANCH  20  21
ENDBRANCH  19  20
ENDBRANCH  18  19
ENDBRANCH  17  18
ENDBRANCH   1  17
TORSDOF 26
ENDMDL
MODEL 2
REMARK VINA RESULT:     0.044      6.243      9.939
REMARK INTER + INTRA:          -6.989
REMARK INTER:                   0.000
REMARK INTRA:                  -6.989
REMARK UNBOUND:                -7.100
REMARK SMILES CCCCCCCCCCCCCCCCCCCCCCCCCCCC(=O)[O-]
REMARK SMILES IDX 15 1 16 2 17 3 18 4 19 5 20 6 21 7 22 8 23 9 24 10 25 11
REMARK SMILES IDX 26 12 27 13 28 14 29 15 30 16 14 17 13 18 12 19 11 20 10 21
REMARK SMILES IDX 9 22 8 23 7 24 6 25 5 26 4 27 3 28 2 29 1 30
REMARK H PARENT
REMARK Flexibility Score: inf
ROOT
ATOM      1  C   UNL     1     180.924 177.200 178.617  1.00  0.00     0.000 C 
ENDROOT
BRANCH   1   2
ATOM      2  C   UNL     1     181.068 176.970 180.130  1.00  0.00     0.000 C 
BRANCH   2   3
ATOM      3  C   UNL     1     179.754 176.524 180.796  1.00  0.00     0.000 C 
BRANCH   3   4
ATOM      4  C   UNL     1     179.519 177.225 182.152  1.00  0.00     0.000 C 
BRANCH   4   5
ATOM      5  C   UNL     1     178.033 177.485 182.457  1.00  0.00     0.000 C 
BRANCH   5   6
ATOM      6  C   UNL     1     177.812 178.737 183.320  1.00  0.00     0.000 C 
BRANCH   6   7
ATOM      7  C   UNL     1     179.128 179.374 183.800  1.00  0.00     0.000 C 
BRANCH   7   8
ATOM      8  C   UNL     1     179.092 180.910 183.928  1.00  0.00     0.000 C 
BRANCH   8   9
ATOM      9  C   UNL     1     180.467 181.603 183.860  1.00  0.00     0.000 C 
BRANCH   9  10
ATOM     10  C   UNL     1     180.388 183.097 183.474  1.00  0.00     0.000 C 
BRANCH  10  11
ATOM     11  C   UNL     1     178.942 183.554 183.218  1.00  0.00     0.000 C 
BRANCH  11  12
ATOM     12  C   UNL     1     178.788 184.334 181.905  1.00  0.00     0.006 C 
BRANCH  12  13
ATOM     13  C   UNL     1     177.559 183.898 181.092  1.00  0.00     0.053 C 
BRANCH  13  14
ATOM     14  C   UNL     1     177.662 184.400 179.687  1.00  0.00     0.041 C 
ATOM     15  O   UNL     1     176.622 184.551 178.990  1.00  0.00    -0.550 OA
ATOM     16  O   UNL     1     178.897 184.767 179.168  1.00  0.00    -0.550 OA
ENDBRANCH  13  14
ENDBRANCH  12  13
ENDBRANCH  11  12
ENDBRANCH  10  11
ENDBRANCH   9  10
ENDBRANCH   8   9
ENDBRANCH   7   8
ENDBRANCH   6   7
ENDBRANCH   5   6
ENDBRANCH   4   5
ENDBRANCH   3   4
ENDBRANCH   2   3
ENDBRANCH   1   2
BRANCH   1  17
ATOM     17  C   UNL     1     181.911 178.245 178.074  1.00  0.00     0.000 C 
BRANCH  17  18
ATOM     18  C   UNL     1     181.242 179.130 177.010  1.00  0.00     0.000 C 
BRANCH  18  19
ATOM     19  C   UNL     1     181.963 180.472 176.818  1.00  0.00     0.000 C 
BRANCH  19  20
ATOM     20  C   UNL     1     181.008 181.612 176.421  1.00  0.00     0.000 C 
BRANCH  20  21
ATOM     21  C   UNL     1     179.578 181.102 176.184  1.00  0.00     0.000 C 
BRANCH  21  22
ATOM     22  C   UNL     1     178.514 182.078 176.718  1.00  0.00    -0.000 C 
BRANCH  22  23
ATOM     23  C   UNL     1     177.465 181.374 177.593  1.00  0.00    -0.000 C 
BRANCH  23  24
ATOM     24  C   UNL     1     177.694 179.851 177.653  1.00  0.00    -0.000 C 
BRANCH  24  25
ATOM     25  C   UNL     1     177.892 179.336 179.088  1.00  0.00    -0.000 C 
BRANCH  25  26
ATOM     26  C   UNL     1     178.342 180.442 180.058  1.00  0.00    -0.000 C 
BRANCH  26  27
ATOM     27  C   UNL     1     179.856 180.404 180.330  1.00  0.00    -0.000 C 
BRANCH  27  28
ATOM     28  C   UNL     1     180.543 181.747 180.027  1.00  0.00    -0.000 C 
BRANCH  28  29
ATOM     29  C   UNL     1     182.046 181.725 180.347  1.00  0.00    -0.003 C 
ATOM     30  C   UNL     1     182.499 180.415 180.992  1.00  0.00     0.004 C 
ENDBRANCH  28  29
ENDBRANCH  27  28
ENDBRANCH  26  27
ENDBRANCH  25  26
ENDBRANCH  24  25
ENDBRANCH  23  24
ENDBRANCH  22  23
ENDBRANCH  21  22
ENDBRANCH  20  21
ENDBRANCH  19  20
ENDBRANCH  18  19
ENDBRANCH  17  18
ENDBRANCH   1  17
TORSDOF 26
ENDMDL
MODEL 3
REMARK VINA RESULT:     0.057      6.617      9.972
REMARK INTER + INTRA:          -6.956
REMARK INTER:                   0.000
REMARK INTRA:                  -6.956
REMARK UNBOUND:                -7.100
REMARK SMILES CCCCCCCCCCCCCCCCCCCCCCCCCCCC(=O)[O-]
REMARK SMILES IDX 15 1 16 2 17 3 18 4 19 5 20 6 21 7 22 8 23 9 24 10 25 11
REMARK SMILES IDX 26 12 27 13 28 14 29 15 30 16 14 17 13 18 12 19 11 20 10 21
REMARK SMILES IDX 9 22 8 23 7 24 6 25 5 26 4 27 3 28 2 29 1 30
REMARK H PARENT
REMARK Flexibility Score: inf
ROOT
ATOM      1  C   UNL     1     183.654 182.613 179.376  1.00  0.00     0.000 C 
ENDROOT
BRANCH   1   2
ATOM      2  C   UNL     1     182.571 183.703 179.436  1.00  0.00     0.000 C 
BRANCH   2   3
ATOM      3  C   UNL     1     182.373 184.424 178.090  1.00  0.00     0.000 C 
BRANCH   3   4
ATOM      4  C   UNL     1     180.894 184.434 177.645  1.00  0.00     0.000 C 
BRANCH   4   5
ATOM      5  C   UNL     1     179.905 184.213 178.804  1.00  0.00     0.000 C 
BRANCH   5   6
ATOM      6  C   UNL     1     179.253 185.517 179.288  1.00  0.00     0.000 C 
BRANCH   6   7
ATOM      7  C   UNL     1     179.172 185.613 180.822  1.00  0.00     0.000 C 
BRANCH   7   8
ATOM      8  C   UNL     1     179.648 184.355 181.574  1.00  0.00     0.000 C 
BRANCH   8   9
ATOM      9  C   UNL     1     178.671 183.823 182.641  1.00  0.00     0.000 C 
BRANCH   9  10
ATOM     10  C   UNL     1     178.335 182.324 182.479  1.00  0.00     0.000 C 
BRANCH  10  11
ATOM     11  C   UNL     1     178.110 181.935 181.008  1.00  0.00     0.000 C 
BRANCH  11  12
ATOM     12  C   UNL     1     176.637 182.020 180.586  1.00  0.00     0.006 C 
BRANCH  12  13
ATOM     13  C   UNL     1     176.370 183.143 179.572  1.00  0.00     0.053 C 
BRANCH  13  14
ATOM     14  C   UNL     1     175.747 184.320 180.254  1.00  0.00     0.041 C 
ATOM     15  O   UNL     1     175.345 184.223 181.444  1.00  0.00    -0.550 OA
ATOM     16  O   UNL     1     175.673 185.543 179.601  1.00  0.00    -0.550 OA
ENDBRANCH  13  14
ENDBRANCH  12  13
ENDBRANCH  11  12
ENDBRANCH  10  11
ENDBRANCH   9  10
ENDBRANCH   8   9
ENDBRANCH   7   8
ENDBRANCH   6   7
ENDBRANCH   5   6
ENDBRANCH   4   5
ENDBRANCH   3   4
ENDBRANCH   2   3
ENDBRANCH   1   2
BRANCH   1  17
ATOM     17  C   UNL     1     183.447 181.508 180.422  1.00  0.00     0.000 C 
BRANCH  17  18
ATOM     18  C   UNL     1     182.158 181.747 181.225  1.00  0.00     0.000 C 
BRANCH  18  19
ATOM     19  C   UNL     1     181.440 180.441 181.596  1.00  0.00     0.000 C 
BRANCH  19  20
ATOM     20  C   UNL     1     182.159 179.191 181.059  1.00  0.00     0.000 C 
BRANCH  20  21
ATOM     21  C   UNL     1     181.168 178.074 180.696  1.00  0.00     0.000 C 
BRANCH  21  22
ATOM     22  C   UNL     1     179.711 178.569 180.676  1.00  0.00    -0.000 C 
BRANCH  22  23
ATOM     23  C   UNL     1     178.876 177.876 179.589  1.00  0.00    -0.000 C 
BRANCH  23  24
ATOM     24  C   UNL     1     177.729 178.773 179.084  1.00  0.00    -0.000 C 
BRANCH  24  25
ATOM     25  C   UNL     1     177.906 179.194 177.616  1.00  0.00    -0.000 C 
BRANCH  25  26
ATOM     26  C   UNL     1     178.215 180.694 177.463  1.00  0.00    -0.000 C 
BRANCH  26  27
ATOM     27  C   UNL     1     179.617 180.949 176.882  1.00  0.00    -0.000 C 
BRANCH  27  28
ATOM     28  C   UNL     1     180.732 180.744 177.922  1.00  0.00    -0.000 C 
BRANCH  28  29
ATOM     29  C   UNL     1     181.922 179.950 177.361  1.00  0.00    -0.003 C 
ATOM     30  C   UNL     1     181.566 178.503 177.020  1.00  0.00     0.004 C 
ENDBRANCH  28  29
ENDBRANCH  27  28
ENDBRANCH  26  27
ENDBRANCH  25  26
ENDBRANCH  24  25
ENDBRANCH  23  24
ENDBRANCH  22  23
ENDBRANCH  21  22
ENDBRANCH  20  21
ENDBRANCH  19  20
ENDBRANCH  18  19
ENDBRANCH  17  18
ENDBRANCH   1  17
TORSDOF 26
ENDMDL
MODEL 4
REMARK VINA RESULT:     0.076      7.047     10.216
REMARK INTER + INTRA:          -6.909
REMARK INTER:                   0.000
REMARK INTRA:                  -6.909
REMARK UNBOUND:                -7.100
REMARK SMILES CCCCCCCCCCCCCCCCCCCCCCCCCCCC(=O)[O-]
REMARK SMILES IDX 15 1 16 2 17 3 18 4 19 5 20 6 21 7 22 8 23 9 24 10 25 11
REMARK SMILES IDX 26 12 27 13 28 14 29 15 30 16 14 17 13 18 12 19 11 20 10 21
REMARK SMILES IDX 9 22 8 23 7 24 6 25 5 26 4 27 3 28 2 29 1 30
REMARK H PARENT
REMARK Flexibility Score: inf
ROOT
ATOM      1  C   UNL     1     174.387 178.012 180.990  1.00  0.00     0.000 C 
ENDROOT
BRANCH   1   2
ATOM      2  C   UNL     1     175.463 178.534 180.023  1.00  0.00     0.000 C 
BRANCH   2   3
ATOM      3  C   UNL     1     175.583 177.682 178.746  1.00  0.00     0.000 C 
BRANCH   3   4
ATOM      4  C   UNL     1     177.043 177.573 178.253  1.00  0.00     0.000 C 
BRANCH   4   5
ATOM      5  C   UNL     1     177.457 176.138 177.879  1.00  0.00     0.000 C 
BRANCH   5   6
ATOM      6  C   UNL     1     178.967 175.997 177.638  1.00  0.00     0.000 C 
BRANCH   6   7
ATOM      7  C   UNL     1     179.736 177.312 177.864  1.00  0.00     0.000 C 
BRANCH   7   8
ATOM      8  C   UNL     1     180.967 177.189 178.783  1.00  0.00     0.000 C 
BRANCH   8   9
ATOM      9  C   UNL     1     181.024 175.901 179.629  1.00  0.00     0.000 C 
BRANCH   9  10
ATOM     10  C   UNL     1     180.520 176.089 181.077  1.00  0.00     0.000 C 
BRANCH  10  11
ATOM     11  C   UNL     1     179.225 175.305 181.347  1.00  0.00     0.000 C 
BRANCH  11  12
ATOM     12  C   UNL     1     178.010 176.217 181.569  1.00  0.00     0.006 C 
BRANCH  12  13
ATOM     13  C   UNL     1     176.912 175.554 182.413  1.00  0.00     0.053 C 
BRANCH  13  14
ATOM     14  C   UNL     1     176.280 174.432 181.653  1.00  0.00     0.041 C 
ATOM     15  O   UNL     1     175.619 174.669 180.606  1.00  0.00    -0.550 OA
ATOM     16  O   UNL     1     176.476 173.119 182.060  1.00  0.00    -0.550 OA
ENDBRANCH  13  14
ENDBRANCH  12  13
ENDBRANCH  11  12
ENDBRANCH  10  11
ENDBRANCH   9  10
ENDBRANCH   8   9
ENDBRANCH   7   8
ENDBRANCH   6   7
ENDBRANCH   5   6
ENDBRANCH   4   5
ENDBRANCH   3   4
ENDBRANCH   2   3
ENDBRANCH   1   2
BRANCH   1  17
ATOM     17  C   UNL     1     174.577 178.522 182.426  1.00  0.00     0.000 C 
BRANCH  17  18
ATOM     18  C   UNL     1     175.984 179.111 182.617  1.00  0.00     0.000 C 
BRANCH  18  19
ATOM     19  C   UNL     1     176.298 179.431 184.086  1.00  0.00     0.000 C 
BRANCH  19  20
ATOM     20  C   UNL     1     177.781 179.769 184.320  1.00  0.00     0.000 C 
BRANCH  20  21
ATOM     21  C   UNL     1     178.636 178.503 184.485  1.00  0.00     0.000 C 
BRANCH  21  22
ATOM     22  C   UNL     1     179.985 178.610 183.753  1.00  0.00    -0.000 C 
BRANCH  22  23
ATOM     23  C   UNL     1     180.138 179.943 183.005  1.00  0.00    -0.000 C 
BRANCH  23  24
ATOM     24  C   UNL     1     180.324 179.736 181.490  1.00  0.00    -0.000 C 
BRANCH  24  25
ATOM     25  C   UNL     1     178.991 179.573 180.743  1.00  0.00    -0.000 C 
BRANCH  25  26
ATOM     26  C   UNL     1     178.819 180.594 179.605  1.00  0.00    -0.000 C 
BRANCH  26  27
ATOM     27  C   UNL     1     177.595 181.503 179.812  1.00  0.00    -0.000 C 
BRANCH  27  28
ATOM     28  C   UNL     1     177.657 182.283 181.137  1.00  0.00    -0.000 C 
BRANCH  28  29
ATOM     29  C   UNL     1     176.265 182.540 181.735  1.00  0.00    -0.003 C 
ATOM     30  C   UNL     1     175.131 182.227 180.759  1.00  0.00     0.004 C 
ENDBRANCH  28  29
ENDBRANCH  27  28
ENDBRANCH  26  27
ENDBRANCH  25  26
ENDBRANCH  24  25
ENDBRANCH  23  24
ENDBRANCH  22  23
ENDBRANCH  21  22
ENDBRANCH  20  21
ENDBRANCH  19  20
ENDBRANCH  18  19
ENDBRANCH  17  18
ENDBRANCH   1  17
TORSDOF 26
ENDMDL
MODEL 5
REMARK VINA RESULT:     0.084      2.846      5.207
REMARK INTER + INTRA:          -6.889
REMARK INTER:                   0.000
REMARK INTRA:                  -6.889
REMARK UNBOUND:                -7.100
REMARK SMILES CCCCCCCCCCCCCCCCCCCCCCCCCCCC(=O)[O-]
REMARK SMILES IDX 15 1 16 2 17 3 18 4 19 5 20 6 21 7 22 8 23 9 24 10 25 11
REMARK SMILES IDX 26 12 27 13 28 14 29 15 30 16 14 17 13 18 12 19 11 20 10 21
REMARK SMILES IDX 9 22 8 23 7 24 6 25 5 26 4 27 3 28 2 29 1 30
REMARK H PARENT
REMARK Flexibility Score: inf
ROOT
ATOM      1  C   UNL     1     184.871 174.259 178.517  1.00  0.00     0.000 C 
ENDROOT
BRANCH   1   2
ATOM      2  C   UNL     1     184.605 175.158 177.298  1.00  0.00     0.000 C 
BRANCH   2   3
ATOM      3  C   UNL     1     183.184 175.752 177.293  1.00  0.00     0.000 C 
BRANCH   3   4
ATOM      4  C   UNL     1     182.470 175.568 178.650  1.00  0.00     0.000 C 
BRANCH   4   5
ATOM      5  C   UNL     1     182.348 176.872 179.460  1.00  0.00     0.000 C 
BRANCH   5   6
ATOM      6  C   UNL     1     183.272 176.901 180.686  1.00  0.00     0.000 C 
BRANCH   6   7
ATOM      7  C   UNL     1     184.411 177.929 180.554  1.00  0.00     0.000 C 
BRANCH   7   8
ATOM      8  C   UNL     1     184.380 178.764 179.259  1.00  0.00     0.000 C 
BRANCH   8   9
ATOM      9  C   UNL     1     185.629 178.630 178.365  1.00  0.00     0.000 C 
BRANCH   9  10
ATOM     10  C   UNL     1     185.329 178.787 176.858  1.00  0.00     0.000 C 
BRANCH  10  11
ATOM     11  C   UNL     1     186.438 178.184 175.979  1.00  0.00     0.000 C 
BRANCH  11  12
ATOM     12  C   UNL     1     187.847 178.555 176.459  1.00  0.00     0.006 C 
BRANCH  12  13
ATOM     13  C   UNL     1     188.927 177.593 175.942  1.00  0.00     0.053 C 
BRANCH  13  14
ATOM     14  C   UNL     1     190.235 177.873 176.612  1.00  0.00     0.041 C 
ATOM     15  O   UNL     1     190.620 179.062 176.778  1.00  0.00    -0.550 OA
ATOM     16  O   UNL     1     190.998 176.827 177.115  1.00  0.00    -0.550 OA
ENDBRANCH  13  14
ENDBRANCH  12  13
ENDBRANCH  11  12
ENDBRANCH  10  11
ENDBRANCH   9  10
ENDBRANCH   8   9
ENDBRANCH   7   8
ENDBRANCH   6   7
ENDBRANCH   5   6
ENDBRANCH   4   5
ENDBRANCH   3   4
ENDBRANCH   2   3
ENDBRANCH   1   2
BRANCH   1  17
ATOM     17  C   UNL     1     186.064 174.735 179.360  1.00  0.00     0.000 C 
BRANCH  17  18
ATOM     18  C   UNL     1     187.162 175.335 178.467  1.00  0.00     0.000 C 
BRANCH  18  19
ATOM     19  C   UNL     1     188.233 176.087 179.271  1.00  0.00     0.000 C 
BRANCH  19  20
ATOM     20  C   UNL     1     187.784 176.412 180.707  1.00  0.00     0.000 C 
BRANCH  20  21
ATOM     21  C   UNL     1     188.178 177.840 181.119  1.00  0.00     0.000 C 
BRANCH  21  22
ATOM     22  C   UNL     1     189.033 178.541 180.049  1.00  0.00    -0.000 C 
BRANCH  22  23
ATOM     23  C   UNL     1     188.608 180.001 179.829  1.00  0.00    -0.000 C 
BRANCH  23  24
ATOM     24  C   UNL     1     189.007 180.902 181.014  1.00  0.00    -0.000 C 
BRANCH  24  25
ATOM     25  C   UNL     1     187.804 181.623 181.644  1.00  0.00    -0.000 C 
BRANCH  25  26
ATOM     26  C   UNL     1     186.456 181.072 181.148  1.00  0.00    -0.000 C 
BRANCH  26  27
ATOM     27  C   UNL     1     185.538 182.176 180.594  1.00  0.00    -0.000 C 
BRANCH  27  28
ATOM     28  C   UNL     1     186.183 182.951 179.432  1.00  0.00    -0.000 C 
BRANCH  28  29
ATOM     29  C   UNL     1     185.930 182.287 178.069  1.00  0.00    -0.003 C 
ATOM     30  C   UNL     1     187.199 182.151 177.228  1.00  0.00     0.004 C 
ENDBRANCH  28  29
ENDBRANCH  27  28
ENDBRANCH  26  27
ENDBRANCH  25  26
ENDBRANCH  24  25
ENDBRANCH  23  24
ENDBRANCH  22  23
ENDBRANCH  21  22
ENDBRANCH  20  21
ENDBRANCH  19  20
ENDBRANCH  18  19
ENDBRANCH  17  18
ENDBRANCH   1  17
TORSDOF 26
ENDMDL
MODEL 6
REMARK VINA RESULT:     0.084      9.339     12.769
REMARK INTER + INTRA:          -6.889
REMARK INTER:                   0.000
REMARK INTRA:                  -6.889
REMARK UNBOUND:                -7.100
REMARK SMILES CCCCCCCCCCCCCCCCCCCCCCCCCCCC(=O)[O-]
REMARK SMILES IDX 15 1 16 2 17 3 18 4 19 5 20 6 21 7 22 8 23 9 24 10 25 11
REMARK SMILES IDX 26 12 27 13 28 14 29 15 30 16 14 17 13 18 12 19 11 20 10 21
REMARK SMILES IDX 9 22 8 23 7 24 6 25 5 26 4 27 3 28 2 29 1 30
REMARK H PARENT
REMARK Flexibility Score: inf
ROOT
ATOM      1  C   UNL     1     182.791 181.720 190.308  1.00  0.00     0.000 C 
ENDROOT
BRANCH   1   2
ATOM      2  C   UNL     1     181.596 180.824 190.673  1.00  0.00     0.000 C 
BRANCH   2   3
ATOM      3  C   UNL     1     181.794 179.359 190.241  1.00  0.00     0.000 C 
BRANCH   3   4
ATOM      4  C   UNL     1     183.126 179.147 189.489  1.00  0.00     0.000 C 
BRANCH   4   5
ATOM      5  C   UNL     1     182.987 178.270 188.232  1.00  0.00     0.000 C 
BRANCH   5   6
ATOM      6  C   UNL     1     182.412 179.035 187.031  1.00  0.00     0.000 C 
BRANCH   6   7
ATOM      7  C   UNL     1     180.984 178.591 186.665  1.00  0.00     0.000 C 
BRANCH   7   8
ATOM      8  C   UNL     1     179.882 179.611 187.013  1.00  0.00     0.000 C 
BRANCH   8   9
ATOM      9  C   UNL     1     180.357 181.074 187.120  1.00  0.00     0.000 C 
BRANCH   9  10
ATOM     10  C   UNL     1     179.364 181.993 187.866  1.00  0.00     0.000 C 
BRANCH  10  11
ATOM     11  C   UNL     1     179.080 183.291 187.091  1.00  0.00     0.000 C 
BRANCH  11  12
ATOM     12  C   UNL     1     180.202 183.658 186.111  1.00  0.00     0.006 C 
BRANCH  12  13
ATOM     13  C   UNL     1     179.684 184.356 184.844  1.00  0.00     0.053 C 
BRANCH  13  14
ATOM     14  C   UNL     1     180.162 185.773 184.800  1.00  0.00     0.041 C 
ATOM     15  O   UNL     1     180.082 186.500 185.826  1.00  0.00    -0.550 OA
ATOM     16  O   UNL     1     180.758 186.271 183.649  1.00  0.00    -0.550 OA
ENDBRANCH  13  14
ENDBRANCH  12  13
ENDBRANCH  11  12
ENDBRANCH  10  11
ENDBRANCH   9  10
ENDBRANCH   8   9
ENDBRANCH   7   8
ENDBRANCH   6   7
ENDBRANCH   5   6
ENDBRANCH   4   5
ENDBRANCH   3   4
ENDBRANCH   2   3
ENDBRANCH   1   2
BRANCH   1  17
ATOM     17  C   UNL     1     182.370 183.024 189.613  1.00  0.00     0.000 C 
BRANCH  17  18
ATOM     18  C   UNL     1     183.197 183.257 188.338  1.00  0.00     0.000 C 
BRANCH  18  19
ATOM     19  C   UNL     1     184.430 182.345 188.257  1.00  0.00     0.000 C 
BRANCH  19  20
ATOM     20  C   UNL     1     184.707 181.842 186.828  1.00  0.00     0.000 C 
BRANCH  20  21
ATOM     21  C   UNL     1     183.666 182.366 185.827  1.00  0.00     0.000 C 
BRANCH  21  22
ATOM     22  C   UNL     1     183.565 181.480 184.572  1.00  0.00    -0.000 C 
BRANCH  22  23
ATOM     23  C   UNL     1     182.356 181.846 183.697  1.00  0.00    -0.000 C 
BRANCH  23  24
ATOM     24  C   UNL     1     181.377 180.666 183.544  1.00  0.00    -0.000 C 
BRANCH  24  25
ATOM     25  C   UNL     1     180.001 181.100 183.015  1.00  0.00    -0.000 C 
BRANCH  25  26
ATOM     26  C   UNL     1     178.844 180.311 183.653  1.00  0.00    -0.000 C 
BRANCH  26  27
ATOM     27  C   UNL     1     177.768 181.231 184.256  1.00  0.00    -0.000 C 
BRANCH  27  28
ATOM     28  C   UNL     1     176.622 180.444 184.916  1.00  0.00    -0.000 C 
BRANCH  28  29
ATOM     29  C   UNL     1     176.150 181.083 186.231  1.00  0.00    -0.003 C 
ATOM     30  C   UNL     1     176.182 180.112 187.410  1.00  0.00     0.004 C 
ENDBRANCH  28  29
ENDBRANCH  27  28
ENDBRANCH  26  27
ENDBRANCH  25  26
ENDBRANCH  24  25
ENDBRANCH  23  24
ENDBRANCH  22  23
ENDBRANCH  21  22
ENDBRANCH  20  21
ENDBRANCH  19  20
ENDBRANCH  18  19
ENDBRANCH  17  18
ENDBRANCH   1  17
TORSDOF 26
ENDMDL
MODEL 7
REMARK VINA RESULT:     0.087      5.345      8.933
REMARK INTER + INTRA:          -6.880
REMARK INTER:                   0.000
REMARK INTRA:                  -6.880
REMARK UNBOUND:                -7.100
REMARK SMILES CCCCCCCCCCCCCCCCCCCCCCCCCCCC(=O)[O-]
REMARK SMILES IDX 15 1 16 2 17 3 18 4 19 5 20 6 21 7 22 8 23 9 24 10 25 11
REMARK SMILES IDX 26 12 27 13 28 14 29 15 30 16 14 17 13 18 12 19 11 20 10 21
REMARK SMILES IDX 9 22 8 23 7 24 6 25 5 26 4 27 3 28 2 29 1 30
REMARK H PARENT
REMARK Flexibility Score: inf
ROOT
ATOM      1  C   UNL     1     183.984 180.090 179.252  1.00  0.00     0.000 C 
ENDROOT
BRANCH   1   2
ATOM      2  C   UNL     1     183.029 181.215 179.683  1.00  0.00     0.000 C 
BRANCH   2   3
ATOM      3  C   UNL     1     182.833 181.282 181.208  1.00  0.00     0.000 C 
BRANCH   3   4
ATOM      4  C   UNL     1     182.045 182.538 181.640  1.00  0.00     0.000 C 
BRANCH   4   5
ATOM      5  C   UNL     1     182.591 183.844 181.033  1.00  0.00     0.000 C 
BRANCH   5   6
ATOM      6  C   UNL     1     181.481 184.786 180.547  1.00  0.00     0.000 C 
BRANCH   6   7
ATOM      7  C   UNL     1     182.000 186.189 180.186  1.00  0.00     0.000 C 
BRANCH   7   8
ATOM      8  C   UNL     1     181.306 186.843 178.975  1.00  0.00     0.000 C 
BRANCH   8   9
ATOM      9  C   UNL     1     180.659 185.856 177.983  1.00  0.00     0.000 C 
BRANCH   9  10
ATOM     10  C   UNL     1     181.269 185.916 176.565  1.00  0.00     0.000 C 
BRANCH  10  11
ATOM     11  C   UNL     1     181.827 184.556 176.115  1.00  0.00     0.000 C 
BRANCH  11  12
ATOM     12  C   UNL     1     182.575 183.818 177.234  1.00  0.00     0.006 C 
BRANCH  12  13
ATOM     13  C   UNL     1     184.097 183.805 177.026  1.00  0.00     0.053 C 
BRANCH  13  14
ATOM     14  C   UNL     1     184.759 184.749 177.981  1.00  0.00     0.041 C 
ATOM     15  O   UNL     1     184.625 185.994 177.836  1.00  0.00    -0.550 OA
ATOM     16  O   UNL     1     185.464 184.255 179.070  1.00  0.00    -0.550 OA
ENDBRANCH  13  14
ENDBRANCH  12  13
ENDBRANCH  11  12
ENDBRANCH  10  11
ENDBRANCH   9  10
ENDBRANCH   8   9
ENDBRANCH   7   8
ENDBRANCH   6   7
ENDBRANCH   5   6
ENDBRANCH   4   5
ENDBRANCH   3   4
ENDBRANCH   2   3
ENDBRANCH   1   2
BRANCH   1  17
ATOM     17  C   UNL     1     183.621 179.490 177.885  1.00  0.00     0.000 C 
BRANCH  17  18
ATOM     18  C   UNL     1     182.364 180.161 177.308  1.00  0.00     0.000 C 
BRANCH  18  19
ATOM     19  C   UNL     1     182.469 180.414 175.796  1.00  0.00     0.000 C 
BRANCH  19  20
ATOM     20  C   UNL     1     181.177 180.998 175.197  1.00  0.00     0.000 C 
BRANCH  20  21
ATOM     21  C   UNL     1     179.999 180.902 176.179  1.00  0.00     0.000 C 
BRANCH  21  22
ATOM     22  C   UNL     1     179.043 182.103 176.062  1.00  0.00    -0.000 C 
BRANCH  22  23
ATOM     23  C   UNL     1     178.742 182.742 177.427  1.00  0.00    -0.000 C 
BRANCH  23  24
ATOM     24  C   UNL     1     179.627 182.158 178.544  1.00  0.00    -0.000 C 
BRANCH  24  25
ATOM     25  C   UNL     1     178.885 182.026 179.883  1.00  0.00    -0.000 C 
BRANCH  25  26
ATOM     26  C   UNL     1     179.025 180.625 180.504  1.00  0.00    -0.000 C 
BRANCH  26  27
ATOM     27  C   UNL     1     179.380 179.552 179.460  1.00  0.00    -0.000 C 
BRANCH  27  28
ATOM     28  C   UNL     1     180.420 178.544 179.980  1.00  0.00    -0.000 C 
BRANCH  28  29
ATOM     29  C   UNL     1     180.494 178.515 181.515  1.00  0.00    -0.003 C 
ATOM     30  C   UNL     1     181.759 177.833 182.036  1.00  0.00     0.004 C 
ENDBRANCH  28  29
ENDBRANCH  27  28
ENDBRANCH  26  27
ENDBRANCH  25  26
ENDBRANCH  24  25
ENDBRANCH  23  24
ENDBRANCH  22  23
ENDBRANCH  21  22
ENDBRANCH  20  21
ENDBRANCH  19  20
ENDBRANCH  18  19
ENDBRANCH  17  18
ENDBRANCH   1  17
TORSDOF 26
ENDMDL
MODEL 8
REMARK VINA RESULT:     0.090      5.339      9.122
REMARK INTER + INTRA:          -6.873
REMARK INTER:                   0.000
REMARK INTRA:                  -6.873
REMARK UNBOUND:                -7.100
REMARK SMILES CCCCCCCCCCCCCCCCCCCCCCCCCCCC(=O)[O-]
REMARK SMILES IDX 15 1 16 2 17 3 18 4 19 5 20 6 21 7 22 8 23 9 24 10 25 11
REMARK SMILES IDX 26 12 27 13 28 14 29 15 30 16 14 17 13 18 12 19 11 20 10 21
REMARK SMILES IDX 9 22 8 23 7 24 6 25 5 26 4 27 3 28 2 29 1 30
REMARK H PARENT
REMARK Flexibility Score: inf
ROOT
ATOM      1  C   UNL     1     183.178 174.990 185.115  1.00  0.00     0.000 C 
ENDROOT
BRANCH   1   2
ATOM      2  C   UNL     1     183.018 175.053 183.587  1.00  0.00     0.000 C 
BRANCH   2   3
ATOM      3  C   UNL     1     183.235 173.689 182.906  1.00  0.00     0.000 C 
BRANCH   3   4
ATOM      4  C   UNL     1     183.583 173.834 181.408  1.00  0.00     0.000 C 
BRANCH   4   5
ATOM      5  C   UNL     1     184.417 175.089 181.091  1.00  0.00     0.000 C 
BRANCH   5   6
ATOM      6  C   UNL     1     183.892 175.863 179.873  1.00  0.00     0.000 C 
BRANCH   6   7
ATOM      7  C   UNL     1     184.639 177.188 179.636  1.00  0.00     0.000 C 
BRANCH   7   8
ATOM      8  C   UNL     1     183.836 178.454 179.994  1.00  0.00     0.000 C 
BRANCH   8   9
ATOM      9  C   UNL     1     184.283 179.167 181.286  1.00  0.00     0.000 C 
BRANCH   9  10
ATOM     10  C   UNL     1     183.615 178.609 182.562  1.00  0.00     0.000 C 
BRANCH  10  11
ATOM     11  C   UNL     1     184.638 178.321 183.674  1.00  0.00     0.000 C 
BRANCH  11  12
ATOM     12  C   UNL     1     185.959 177.755 183.137  1.00  0.00     0.006 C 
BRANCH  12  13
ATOM     13  C   UNL     1     186.431 176.511 183.905  1.00  0.00     0.053 C 
BRANCH  13  14
ATOM     14  C   UNL     1     187.621 176.844 184.749  1.00  0.00     0.041 C 
ATOM     15  O   UNL     1     188.744 176.334 184.490  1.00  0.00    -0.550 OA
ATOM     16  O   UNL     1     187.505 177.767 185.780  1.00  0.00    -0.550 OA
ENDBRANCH  13  14
ENDBRANCH  12  13
ENDBRANCH  11  12
ENDBRANCH  10  11
ENDBRANCH   9  10
ENDBRANCH   8   9
ENDBRANCH   7   8
ENDBRANCH   6   7
ENDBRANCH   5   6
ENDBRANCH   4   5
ENDBRANCH   3   4
ENDBRANCH   2   3
ENDBRANCH   1   2
BRANCH   1  17
ATOM     17  C   UNL     1     182.310 176.022 185.849  1.00  0.00     0.000 C 
BRANCH  17  18
ATOM     18  C   UNL     1     181.410 176.784 184.862  1.00  0.00     0.000 C 
BRANCH  18  19
ATOM     19  C   UNL     1     180.023 177.094 185.443  1.00  0.00     0.000 C 
BRANCH  19  20
ATOM     20  C   UNL     1     179.330 178.274 184.738  1.00  0.00     0.000 C 
BRANCH  20  21
ATOM     21  C   UNL     1     180.344 179.311 184.232  1.00  0.00     0.000 C 
BRANCH  21  22
ATOM     22  C   UNL     1     180.055 179.754 182.786  1.00  0.00    -0.000 C 
BRANCH  22  23
ATOM     23  C   UNL     1     179.362 178.653 181.968  1.00  0.00    -0.000 C 
BRANCH  23  24
ATOM     24  C   UNL     1     180.320 178.003 180.951  1.00  0.00    -0.000 C 
BRANCH  24  25
ATOM     25  C   UNL     1     180.559 176.510 181.230  1.00  0.00    -0.000 C 
BRANCH  25  26
ATOM     26  C   UNL     1     179.342 175.825 181.877  1.00  0.00    -0.000 C 
BRANCH  26  27
ATOM     27  C   UNL     1     179.640 174.376 182.299  1.00  0.00    -0.000 C 
BRANCH  27  28
ATOM     28  C   UNL     1     179.009 174.016 183.656  1.00  0.00    -0.000 C 
BRANCH  28  29
ATOM     29  C   UNL     1     179.934 173.146 184.522  1.00  0.00    -0.003 C 
ATOM     30  C   UNL     1     179.728 173.368 186.021  1.00  0.00     0.004 C 
ENDBRANCH  28  29
ENDBRANCH  27  28
ENDBRANCH  26  27
ENDBRANCH  25  26
ENDBRANCH  24  25
ENDBRANCH  23  24
ENDBRANCH  22  23
ENDBRANCH  21  22
ENDBRANCH  20  21
ENDBRANCH  19  20
ENDBRANCH  18  19
ENDBRANCH  17  18
ENDBRANCH   1  17
TORSDOF 26
ENDMDL
MODEL 9
REMARK VINA RESULT:     0.098     10.771     14.425
REMARK INTER + INTRA:          -6.852
REMARK INTER:                   0.000
REMARK INTRA:                  -6.852
REMARK UNBOUND:                -7.100
REMARK SMILES CCCCCCCCCCCCCCCCCCCCCCCCCCCC(=O)[O-]
REMARK SMILES IDX 15 1 16 2 17 3 18 4 19 5 20 6 21 7 22 8 23 9 24 10 25 11
REMARK SMILES IDX 26 12 27 13 28 14 29 15 30 16 14 17 13 18 12 19 11 20 10 21
REMARK SMILES IDX 9 22 8 23 7 24 6 25 5 26 4 27 3 28 2 29 1 30
REMARK H PARENT
REMARK Flexibility Score: inf
ROOT
ATOM      1  C   UNL     1     179.562 180.841 188.802  1.00  0.00     0.000 C 
ENDROOT
BRANCH   1   2
ATOM      2  C   UNL     1     178.939 179.578 189.420  1.00  0.00     0.000 C 
BRANCH   2   3
ATOM      3  C   UNL     1     178.562 178.520 188.367  1.00  0.00     0.000 C 
BRANCH   3   4
ATOM      4  C   UNL     1     177.114 178.010 188.545  1.00  0.00     0.000 C 
BRANCH   4   5
ATOM      5  C   UNL     1     176.535 177.358 187.277  1.00  0.00     0.000 C 
BRANCH   5   6
ATOM      6  C   UNL     1     175.141 177.892 186.915  1.00  0.00     0.000 C 
BRANCH   6   7
ATOM      7  C   UNL     1     175.122 178.664 185.583  1.00  0.00     0.000 C 
BRANCH   7   8
ATOM      8  C   UNL     1     176.507 179.111 185.077  1.00  0.00     0.000 C 
BRANCH   8   9
ATOM      9  C   UNL     1     176.900 180.557 185.440  1.00  0.00     0.000 C 
BRANCH   9  10
ATOM     10  C   UNL     1     178.425 180.804 185.431  1.00  0.00     0.000 C 
BRANCH  10  11
ATOM     11  C   UNL     1     178.774 182.277 185.161  1.00  0.00     0.000 C 
BRANCH  11  12
ATOM     12  C   UNL     1     177.578 183.219 185.360  1.00  0.00     0.006 C 
BRANCH  12  13
ATOM     13  C   UNL     1     177.897 184.400 186.290  1.00  0.00     0.053 C 
BRANCH  13  14
ATOM     14  C   UNL     1     177.866 185.685 185.524  1.00  0.00     0.041 C 
ATOM     15  O   UNL     1     178.432 185.767 184.401  1.00  0.00    -0.550 OA
ATOM     16  O   UNL     1     177.155 186.771 186.017  1.00  0.00    -0.550 OA
ENDBRANCH  13  14
ENDBRANCH  12  13
ENDBRANCH  11  12
ENDBRANCH  10  11
ENDBRANCH   9  10
ENDBRANCH   8   9
ENDBRANCH   7   8
ENDBRANCH   6   7
ENDBRANCH   5   6
ENDBRANCH   4   5
ENDBRANCH   3   4
ENDBRANCH   2   3
ENDBRANCH   1   2
BRANCH   1  17
ATOM     17  C   UNL     1     178.800 182.123 189.168  1.00  0.00     0.000 C 
BRANCH  17  18
ATOM     18  C   UNL     1     177.391 181.794 189.687  1.00  0.00     0.000 C 
BRANCH  18  19
ATOM     19  C   UNL     1     176.287 182.198 188.699  1.00  0.00     0.000 C 
BRANCH  19  20
ATOM     20  C   UNL     1     175.146 181.167 188.623  1.00  0.00     0.000 C 
BRANCH  20  21
ATOM     21  C   UNL     1     174.046 181.604 187.643  1.00  0.00     0.000 C 
BRANCH  21  22
ATOM     22  C   UNL     1     174.257 183.039 187.130  1.00  0.00    -0.000 C 
BRANCH  22  23
ATOM     23  C   UNL     1     173.901 183.183 185.642  1.00  0.00    -0.000 C 
BRANCH  23  24
ATOM     24  C   UNL     1     173.402 181.857 185.038  1.00  0.00    -0.000 C 
BRANCH  24  25
ATOM     25  C   UNL     1     173.288 181.907 183.506  1.00  0.00    -0.000 C 
BRANCH  25  26
ATOM     26  C   UNL     1     174.542 181.363 182.799  1.00  0.00    -0.000 C 
BRANCH  26  27
ATOM     27  C   UNL     1     175.482 182.485 182.326  1.00  0.00    -0.000 C 
BRANCH  27  28
ATOM     28  C   UNL     1     176.887 181.967 181.973  1.00  0.00    -0.000 C 
BRANCH  28  29
ATOM     29  C   UNL     1     176.896 180.464 181.651  1.00  0.00    -0.003 C 
ATOM     30  C   UNL     1     178.274 179.826 181.824  1.00  0.00     0.004 C 
ENDBRANCH  28  29
ENDBRANCH  27  28
ENDBRANCH  26  27
ENDBRANCH  25  26
ENDBRANCH  24  25
ENDBRANCH  23  24
ENDBRANCH  22  23
ENDBRANCH  21  22
ENDBRANCH  20  21
ENDBRANCH  19  20
ENDBRANCH  18  19
ENDBRANCH  17  18
ENDBRANCH   1  17
TORSDOF 26
ENDMDL
