MODEL 1
REMARK VINA RESULT:    -8.193      0.000      0.000
REMARK INTER + INTRA:          -9.107
REMARK INTER:                  -8.912
REMARK INTRA:                  -0.195
REMARK UNBOUND:                -0.195
REMARK SMILES CC(=O)[C@@H]1CC[C@@H]2[C@H]3CC=C4C[C@H](O)CC[C@@]4(C)[C@@H]3CC[C@]21C
REMARK SMILES IDX 4 1 5 2 6 3 7 4 22 5 21 6 20 7 19 8 8 9 9 10 10 11 11 12
REMARK SMILES IDX 17 13 16 14 15 15 13 16 12 17 18 18 23 19 2 20 1 21 3 22
REMARK SMILES IDX 14 23
REMARK H PARENT 14 24
REMARK Flexibility Score: inf
ROOT
ATOM      1  C   UNL     1     121.670 177.795 127.065  1.00  0.00     0.062 C 
ATOM      2  C   UNL     1     122.570 177.408 125.867  1.00  0.00     0.012 C 
ATOM      3  C   UNL     1     122.684 175.871 125.894  1.00  0.00     0.005 C 
ATOM      4  C   UNL     1     122.017 175.470 127.204  1.00  0.00    -0.001 C 
ATOM      5  C   UNL     1     120.893 176.498 127.394  1.00  0.00    -0.020 C 
ATOM      6  C   UNL     1     120.403 176.394 128.853  1.00  0.00     0.008 C 
ATOM      7  C   UNL     1     119.908 174.963 129.174  1.00  0.00     0.005 C 
ATOM      8  C   UNL     1     120.955 173.853 128.827  1.00  0.00     0.003 C 
ATOM      9  C   UNL     1     121.544 174.012 127.386  1.00  0.00     0.000 C 
ATOM     10  C   UNL     1     122.711 173.028 127.170  1.00  0.00     0.031 C 
ATOM     11  C   UNL     1     122.531 171.682 127.825  1.00  0.00    -0.027 C 
ATOM     12  C   UNL     1     121.602 171.414 128.771  1.00  0.00    -0.065 C 
ATOM     13  C   UNL     1     120.450 172.381 129.064  1.00  0.00    -0.008 C 
ATOM     14  C   UNL     1     120.027 172.194 130.551  1.00  0.00     0.014 C 
ATOM     15  C   UNL     1     119.648 170.744 130.916  1.00  0.00     0.033 C 
ATOM     16  C   UNL     1     120.570 169.659 130.308  1.00  0.00     0.118 C 
ATOM     17  C   UNL     1     121.855 170.230 129.688  1.00  0.00     0.063 C 
ATOM     18  C   UNL     1     119.248 172.028 128.144  1.00  0.00     0.016 C 
ATOM     19  C   UNL     1     119.694 176.303 126.408  1.00  0.00     0.012 C 
ENDROOT
BRANCH   1  20
ATOM     20  C   UNL     1     120.823 179.035 126.820  1.00  0.00     0.133 C 
ATOM     21  C   UNL     1     120.771 179.680 125.469  1.00  0.00     0.088 C 
ATOM     22  O   UNL     1     120.156 179.515 127.724  1.00  0.00    -0.300 OA
ENDBRANCH   1  20
BRANCH  16  23
ATOM     23  O   UNL     1     119.866 168.920 129.343  1.00  0.00    -0.393 OA
ATOM     24  H   UNL     1     119.298 168.272 129.833  1.00  0.00     0.210 HD
ENDBRANCH  16  23
TORSDOF 2
ENDMDL
MODEL 2
REMARK VINA RESULT:    -7.772      1.070      7.153
REMARK INTER + INTRA:          -8.648
REMARK INTER:                  -8.494
REMARK INTRA:                  -0.154
REMARK UNBOUND:                -0.195
REMARK SMILES CC(=O)[C@@H]1CC[C@@H]2[C@H]3CC=C4C[C@H](O)CC[C@@]4(C)[C@@H]3CC[C@]21C
REMARK SMILES IDX 4 1 5 2 6 3 7 4 22 5 21 6 20 7 19 8 8 9 9 10 10 11 11 12
REMARK SMILES IDX 17 13 16 14 15 15 13 16 12 17 18 18 23 19 2 20 1 21 3 22
REMARK SMILES IDX 14 23
REMARK H PARENT 14 24
REMARK Flexibility Score: inf
ROOT
ATOM      1  C   UNL     1     121.130 171.184 130.027  1.00  0.00     0.062 C 
ATOM      2  C   UNL     1     119.770 171.359 130.744  1.00  0.00     0.012 C 
ATOM      3  C   UNL     1     119.271 172.772 130.384  1.00  0.00     0.005 C 
ATOM      4  C   UNL     1     120.446 173.406 129.649  1.00  0.00    -0.001 C 
ATOM      5  C   UNL     1     121.103 172.241 128.896  1.00  0.00    -0.020 C 
ATOM      6  C   UNL     1     122.494 172.711 128.423  1.00  0.00     0.008 C 
ATOM      7  C   UNL     1     122.381 173.963 127.520  1.00  0.00     0.005 C 
ATOM      8  C   UNL     1     121.559 175.125 128.171  1.00  0.00     0.003 C 
ATOM      9  C   UNL     1     120.191 174.639 128.755  1.00  0.00     0.000 C 
ATOM     10  C   UNL     1     119.519 175.767 129.562  1.00  0.00     0.031 C 
ATOM     11  C   UNL     1     119.708 177.151 128.990  1.00  0.00    -0.027 C 
ATOM     12  C   UNL     1     120.619 177.463 128.040  1.00  0.00    -0.065 C 
ATOM     13  C   UNL     1     121.355 176.382 127.244  1.00  0.00    -0.008 C 
ATOM     14  C   UNL     1     122.736 176.955 126.810  1.00  0.00     0.014 C 
ATOM     15  C   UNL     1     122.643 178.273 126.013  1.00  0.00     0.033 C 
ATOM     16  C   UNL     1     121.602 179.284 126.548  1.00  0.00     0.118 C 
ATOM     17  C   UNL     1     121.052 178.916 127.935  1.00  0.00     0.063 C 
ATOM     18  C   UNL     1     120.525 176.035 125.977  1.00  0.00     0.016 C 
ATOM     19  C   UNL     1     120.264 171.731 127.678  1.00  0.00     0.012 C 
ENDROOT
BRANCH   1  20
ATOM     20  C   UNL     1     121.417 169.754 129.595  1.00  0.00     0.133 C 
ATOM     21  C   UNL     1     122.818 169.295 129.329  1.00  0.00     0.088 C 
ATOM     22  O   UNL     1     120.505 168.951 129.473  1.00  0.00    -0.300 OA
ENDBRANCH   1  20
BRANCH  16  23
ATOM     23  O   UNL     1     120.541 179.405 125.636  1.00  0.00    -0.393 OA
ATOM     24  H   UNL     1     119.721 179.576 126.166  1.00  0.00     0.210 HD
ENDBRANCH  16  23
TORSDOF 2
ENDMDL
MODEL 3
REMARK VINA RESULT:    -7.540      4.808      7.480
REMARK INTER + INTRA:          -8.396
REMARK INTER:                  -8.830
REMARK INTRA:                   0.434
REMARK UNBOUND:                -0.195
REMARK SMILES CC(=O)[C@@H]1CC[C@@H]2[C@H]3CC=C4C[C@H](O)CC[C@@]4(C)[C@@H]3CC[C@]21C
REMARK SMILES IDX 4 1 5 2 6 3 7 4 22 5 21 6 20 7 19 8 8 9 9 10 10 11 11 12
REMARK SMILES IDX 17 13 16 14 15 15 13 16 12 17 18 18 23 19 2 20 1 21 3 22
REMARK SMILES IDX 14 23
REMARK H PARENT 14 24
REMARK Flexibility Score: inf
ROOT
ATOM      1  C   UNL     1     125.791 175.647 122.792  1.00  0.00     0.062 C 
ATOM      2  C   UNL     1     125.862 176.642 121.609  1.00  0.00     0.012 C 
ATOM      3  C   UNL     1     124.686 177.620 121.798  1.00  0.00     0.005 C 
ATOM      4  C   UNL     1     123.890 177.027 122.955  1.00  0.00    -0.001 C 
ATOM      5  C   UNL     1     124.949 176.384 123.861  1.00  0.00    -0.020 C 
ATOM      6  C   UNL     1     124.217 175.459 124.855  1.00  0.00     0.008 C 
ATOM      7  C   UNL     1     123.177 176.247 125.687  1.00  0.00     0.005 C 
ATOM      8  C   UNL     1     122.177 177.072 124.810  1.00  0.00     0.003 C 
ATOM      9  C   UNL     1     122.902 177.932 123.722  1.00  0.00     0.000 C 
ATOM     10  C   UNL     1     121.875 178.559 122.759  1.00  0.00     0.031 C 
ATOM     11  C   UNL     1     120.585 178.996 123.409  1.00  0.00    -0.027 C 
ATOM     12  C   UNL     1     120.194 178.624 124.649  1.00  0.00    -0.065 C 
ATOM     13  C   UNL     1     121.159 177.949 125.629  1.00  0.00    -0.008 C 
ATOM     14  C   UNL     1     120.326 177.049 126.587  1.00  0.00     0.014 C 
ATOM     15  C   UNL     1     119.203 177.798 127.332  1.00  0.00     0.033 C 
ATOM     16  C   UNL     1     118.419 178.817 126.471  1.00  0.00     0.118 C 
ATOM     17  C   UNL     1     118.710 178.694 124.967  1.00  0.00     0.063 C 
ATOM     18  C   UNL     1     121.882 179.046 126.461  1.00  0.00     0.016 C 
ATOM     19  C   UNL     1     125.822 177.424 124.637  1.00  0.00     0.012 C 
ENDROOT
BRANCH   1  20
ATOM     20  C   UNL     1     127.150 175.139 123.250  1.00  0.00     0.133 C 
ATOM     21  C   UNL     1     128.156 174.629 122.263  1.00  0.00     0.088 C 
ATOM     22  O   UNL     1     127.448 175.155 124.434  1.00  0.00    -0.300 OA
ENDBRANCH   1  20
BRANCH  16  23
ATOM     23  O   UNL     1     118.701 180.124 126.902  1.00  0.00    -0.393 OA
ATOM     24  H   UNL     1     118.160 180.737 126.341  1.00  0.00     0.210 HD
ENDBRANCH  16  23
TORSDOF 2
ENDMDL
MODEL 4
REMARK VINA RESULT:    -7.445      8.798     11.555
REMARK INTER + INTRA:          -8.292
REMARK INTER:                  -8.184
REMARK INTRA:                  -0.109
REMARK UNBOUND:                -0.195
REMARK SMILES CC(=O)[C@@H]1CC[C@@H]2[C@H]3CC=C4C[C@H](O)CC[C@@]4(C)[C@@H]3CC[C@]21C
REMARK SMILES IDX 4 1 5 2 6 3 7 4 22 5 21 6 20 7 19 8 8 9 9 10 10 11 11 12
REMARK SMILES IDX 17 13 16 14 15 15 13 16 12 17 18 18 23 19 2 20 1 21 3 22
REMARK SMILES IDX 14 23
REMARK H PARENT 14 24
REMARK Flexibility Score: inf
ROOT
ATOM      1  C   UNL     1     124.924 165.268 127.758  1.00  0.00     0.062 C 
ATOM      2  C   UNL     1     124.674 164.171 126.696  1.00  0.00     0.012 C 
ATOM      3  C   UNL     1     125.296 164.690 125.385  1.00  0.00     0.005 C 
ATOM      4  C   UNL     1     125.694 166.126 125.704  1.00  0.00    -0.001 C 
ATOM      5  C   UNL     1     126.101 166.092 127.183  1.00  0.00    -0.020 C 
ATOM      6  C   UNL     1     126.171 167.550 127.684  1.00  0.00     0.008 C 
ATOM      7  C   UNL     1     127.176 168.379 126.849  1.00  0.00     0.005 C 
ATOM      8  C   UNL     1     126.916 168.300 125.308  1.00  0.00     0.003 C 
ATOM      9  C   UNL     1     126.732 166.831 124.804  1.00  0.00     0.000 C 
ATOM     10  C   UNL     1     126.275 166.819 123.332  1.00  0.00     0.031 C 
ATOM     11  C   UNL     1     126.887 167.898 122.473  1.00  0.00    -0.027 C 
ATOM     12  C   UNL     1     127.540 168.978 122.959  1.00  0.00    -0.065 C 
ATOM     13  C   UNL     1     127.971 169.066 124.426  1.00  0.00    -0.008 C 
ATOM     14  C   UNL     1     128.016 170.569 124.829  1.00  0.00     0.014 C 
ATOM     15  C   UNL     1     128.921 171.432 123.926  1.00  0.00     0.033 C 
ATOM     16  C   UNL     1     128.823 171.115 122.415  1.00  0.00     0.118 C 
ATOM     17  C   UNL     1     127.641 170.199 122.060  1.00  0.00     0.063 C 
ATOM     18  C   UNL     1     129.394 168.456 124.571  1.00  0.00     0.016 C 
ATOM     19  C   UNL     1     127.464 165.370 127.441  1.00  0.00     0.012 C 
ENDROOT
BRANCH   1  20
ATOM     20  C   UNL     1     125.115 164.727 129.166  1.00  0.00     0.133 C 
ATOM     21  C   UNL     1     124.719 165.536 130.364  1.00  0.00     0.088 C 
ATOM     22  O   UNL     1     125.583 163.613 129.342  1.00  0.00    -0.300 OA
ENDBRANCH   1  20
BRANCH  16  23
ATOM     23  O   UNL     1     130.022 170.534 121.970  1.00  0.00    -0.393 OA
ATOM     24  H   UNL     1     130.145 169.695 122.484  1.00  0.00     0.210 HD
ENDBRANCH  16  23
TORSDOF 2
ENDMDL
MODEL 5
REMARK VINA RESULT:    -7.434      7.428     10.975
REMARK INTER + INTRA:          -8.281
REMARK INTER:                  -8.129
REMARK INTRA:                  -0.152
REMARK UNBOUND:                -0.195
REMARK SMILES CC(=O)[C@@H]1CC[C@@H]2[C@H]3CC=C4C[C@H](O)CC[C@@]4(C)[C@@H]3CC[C@]21C
REMARK SMILES IDX 4 1 5 2 6 3 7 4 22 5 21 6 20 7 19 8 8 9 9 10 10 11 11 12
REMARK SMILES IDX 17 13 16 14 15 15 13 16 12 17 18 18 23 19 2 20 1 21 3 22
REMARK SMILES IDX 14 23
REMARK H PARENT 14 24
REMARK Flexibility Score: inf
ROOT
ATOM      1  C   UNL     1     124.939 164.955 128.141  1.00  0.00     0.062 C 
ATOM      2  C   UNL     1     125.036 163.888 127.024  1.00  0.00     0.012 C 
ATOM      3  C   UNL     1     125.467 164.637 125.748  1.00  0.00     0.005 C 
ATOM      4  C   UNL     1     125.404 166.108 126.141  1.00  0.00    -0.001 C 
ATOM      5  C   UNL     1     125.805 166.129 127.622  1.00  0.00    -0.020 C 
ATOM      6  C   UNL     1     125.423 167.510 128.193  1.00  0.00     0.008 C 
ATOM      7  C   UNL     1     126.124 168.648 127.412  1.00  0.00     0.005 C 
ATOM      8  C   UNL     1     125.897 168.570 125.865  1.00  0.00     0.003 C 
ATOM      9  C   UNL     1     126.173 167.142 125.289  1.00  0.00     0.000 C 
ATOM     10  C   UNL     1     125.740 167.063 123.813  1.00  0.00     0.031 C 
ATOM     11  C   UNL     1     125.988 168.319 123.014  1.00  0.00    -0.027 C 
ATOM     12  C   UNL     1     126.278 169.523 123.560  1.00  0.00    -0.065 C 
ATOM     13  C   UNL     1     126.664 169.665 125.035  1.00  0.00    -0.008 C 
ATOM     14  C   UNL     1     126.245 171.088 125.510  1.00  0.00     0.014 C 
ATOM     15  C   UNL     1     126.839 172.231 124.662  1.00  0.00     0.033 C 
ATOM     16  C   UNL     1     126.841 171.974 123.136  1.00  0.00     0.118 C 
ATOM     17  C   UNL     1     125.997 170.758 122.722  1.00  0.00     0.063 C 
ATOM     18  C   UNL     1     128.206 169.516 125.170  1.00  0.00     0.016 C 
ATOM     19  C   UNL     1     127.324 165.848 127.863  1.00  0.00     0.012 C 
ENDROOT
BRANCH   1  20
ATOM     20  C   UNL     1     125.290 164.430 129.524  1.00  0.00     0.133 C 
ATOM     21  C   UNL     1     124.814 165.133 130.760  1.00  0.00     0.088 C 
ATOM     22  O   UNL     1     125.955 163.414 129.649  1.00  0.00    -0.300 OA
ENDBRANCH   1  20
BRANCH  16  23
ATOM     23  O   UNL     1     128.160 171.812 122.680  1.00  0.00    -0.393 OA
ATOM     24  H   UNL     1     128.281 170.848 122.484  1.00  0.00     0.210 HD
ENDBRANCH  16  23
TORSDOF 2
ENDMDL
MODEL 6
REMARK VINA RESULT:    -7.336      6.605      8.484
REMARK INTER + INTRA:          -8.174
REMARK INTER:                  -7.985
REMARK INTRA:                  -0.189
REMARK UNBOUND:                -0.195
REMARK SMILES CC(=O)[C@@H]1CC[C@@H]2[C@H]3CC=C4C[C@H](O)CC[C@@]4(C)[C@@H]3CC[C@]21C
REMARK SMILES IDX 4 1 5 2 6 3 7 4 22 5 21 6 20 7 19 8 8 9 9 10 10 11 11 12
REMARK SMILES IDX 17 13 16 14 15 15 13 16 12 17 18 18 23 19 2 20 1 21 3 22
REMARK SMILES IDX 14 23
REMARK H PARENT 14 24
REMARK Flexibility Score: inf
ROOT
ATOM      1  C   UNL     1     126.031 171.048 123.782  1.00  0.00     0.062 C 
ATOM      2  C   UNL     1     125.751 172.185 124.794  1.00  0.00     0.012 C 
ATOM      3  C   UNL     1     125.528 171.503 126.158  1.00  0.00     0.005 C 
ATOM      4  C   UNL     1     125.496 170.016 125.830  1.00  0.00    -0.001 C 
ATOM      5  C   UNL     1     126.480 169.857 124.663  1.00  0.00    -0.020 C 
ATOM      6  C   UNL     1     126.243 168.468 124.035  1.00  0.00     0.008 C 
ATOM      7  C   UNL     1     126.436 167.344 125.081  1.00  0.00     0.005 C 
ATOM      8  C   UNL     1     125.587 167.552 126.379  1.00  0.00     0.003 C 
ATOM      9  C   UNL     1     125.731 168.996 126.966  1.00  0.00     0.000 C 
ATOM     10  C   UNL     1     124.725 169.214 128.112  1.00  0.00     0.031 C 
ATOM     11  C   UNL     1     124.491 168.007 128.986  1.00  0.00    -0.027 C 
ATOM     12  C   UNL     1     124.866 166.748 128.660  1.00  0.00    -0.065 C 
ATOM     13  C   UNL     1     125.823 166.469 127.497  1.00  0.00    -0.008 C 
ATOM     14  C   UNL     1     125.509 165.049 126.941  1.00  0.00     0.014 C 
ATOM     15  C   UNL     1     125.577 163.933 128.003  1.00  0.00     0.033 C 
ATOM     16  C   UNL     1     124.959 164.301 129.373  1.00  0.00     0.118 C 
ATOM     17  C   UNL     1     124.141 165.601 129.343  1.00  0.00     0.063 C 
ATOM     18  C   UNL     1     127.284 166.498 128.027  1.00  0.00     0.016 C 
ATOM     19  C   UNL     1     127.979 170.010 125.083  1.00  0.00     0.012 C 
ENDROOT
BRANCH   1  20
ATOM     20  C   UNL     1     126.981 171.442 122.662  1.00  0.00     0.133 C 
ATOM     21  C   UNL     1     127.662 172.777 122.662  1.00  0.00     0.088 C 
ATOM     22  O   UNL     1     127.216 170.666 121.750  1.00  0.00    -0.300 OA
ENDBRANCH   1  20
BRANCH  16  23
ATOM     23  O   UNL     1     125.971 164.401 130.342  1.00  0.00    -0.393 OA
ATOM     24  H   UNL     1     126.088 165.366 130.539  1.00  0.00     0.210 HD
ENDBRANCH  16  23
TORSDOF 2
ENDMDL
MODEL 7
REMARK VINA RESULT:    -7.321      1.905      6.720
REMARK INTER + INTRA:          -8.157
REMARK INTER:                  -8.008
REMARK INTRA:                  -0.149
REMARK UNBOUND:                -0.195
REMARK SMILES CC(=O)[C@@H]1CC[C@@H]2[C@H]3CC=C4C[C@H](O)CC[C@@]4(C)[C@@H]3CC[C@]21C
REMARK SMILES IDX 4 1 5 2 6 3 7 4 22 5 21 6 20 7 19 8 8 9 9 10 10 11 11 12
REMARK SMILES IDX 17 13 16 14 15 15 13 16 12 17 18 18 23 19 2 20 1 21 3 22
REMARK SMILES IDX 14 23
REMARK H PARENT 14 24
REMARK Flexibility Score: inf
ROOT
ATOM      1  C   UNL     1     118.739 171.510 128.577  1.00  0.00     0.062 C 
ATOM      2  C   UNL     1     119.160 171.196 127.121  1.00  0.00     0.012 C 
ATOM      3  C   UNL     1     120.084 172.349 126.682  1.00  0.00     0.005 C 
ATOM      4  C   UNL     1     119.991 173.357 127.821  1.00  0.00    -0.001 C 
ATOM      5  C   UNL     1     119.819 172.498 129.081  1.00  0.00    -0.020 C 
ATOM      6  C   UNL     1     119.358 173.427 130.223  1.00  0.00     0.008 C 
ATOM      7  C   UNL     1     120.378 174.566 130.461  1.00  0.00     0.005 C 
ATOM      8  C   UNL     1     120.730 175.364 129.162  1.00  0.00     0.003 C 
ATOM      9  C   UNL     1     121.093 174.429 127.962  1.00  0.00     0.000 C 
ATOM     10  C   UNL     1     121.228 175.247 126.662  1.00  0.00     0.031 C 
ATOM     11  C   UNL     1     121.844 176.612 126.838  1.00  0.00    -0.027 C 
ATOM     12  C   UNL     1     122.001 177.228 128.032  1.00  0.00    -0.065 C 
ATOM     13  C   UNL     1     121.828 176.476 129.355  1.00  0.00    -0.008 C 
ATOM     14  C   UNL     1     121.371 177.498 130.436  1.00  0.00     0.014 C 
ATOM     15  C   UNL     1     122.317 178.705 130.598  1.00  0.00     0.033 C 
ATOM     16  C   UNL     1     122.860 179.286 129.271  1.00  0.00     0.118 C 
ATOM     17  C   UNL     1     122.140 178.741 128.027  1.00  0.00     0.063 C 
ATOM     18  C   UNL     1     123.197 175.869 129.773  1.00  0.00     0.016 C 
ATOM     19  C   UNL     1     121.118 171.734 129.500  1.00  0.00     0.012 C 
ENDROOT
BRANCH   1  20
ATOM     20  C   UNL     1     118.517 170.273 129.433  1.00  0.00     0.133 C 
ATOM     21  C   UNL     1     117.657 170.327 130.659  1.00  0.00     0.088 C 
ATOM     22  O   UNL     1     119.027 169.208 129.123  1.00  0.00    -0.300 OA
ENDBRANCH   1  20
BRANCH  16  23
ATOM     23  O   UNL     1     124.239 179.035 129.167  1.00  0.00    -0.393 OA
ATOM     24  H   UNL     1     124.341 178.078 128.927  1.00  0.00     0.210 HD
ENDBRANCH  16  23
TORSDOF 2
ENDMDL
MODEL 8
REMARK VINA RESULT:    -7.126      7.278     11.263
REMARK INTER + INTRA:          -7.946
REMARK INTER:                  -7.751
REMARK INTRA:                  -0.195
REMARK UNBOUND:                -0.195
REMARK SMILES CC(=O)[C@@H]1CC[C@@H]2[C@H]3CC=C4C[C@H](O)CC[C@@]4(C)[C@@H]3CC[C@]21C
REMARK SMILES IDX 4 1 5 2 6 3 7 4 22 5 21 6 20 7 19 8 8 9 9 10 10 11 11 12
REMARK SMILES IDX 17 13 16 14 15 15 13 16 12 17 18 18 23 19 2 20 1 21 3 22
REMARK SMILES IDX 14 23
REMARK H PARENT 14 24
REMARK Flexibility Score: inf
ROOT
ATOM      1  C   UNL     1     128.685 168.023 125.704  1.00  0.00     0.062 C 
ATOM      2  C   UNL     1     127.456 168.111 126.640  1.00  0.00     0.012 C 
ATOM      3  C   UNL     1     126.701 169.394 126.239  1.00  0.00     0.005 C 
ATOM      4  C   UNL     1     127.628 170.076 125.240  1.00  0.00    -0.001 C 
ATOM      5  C   UNL     1     128.312 168.919 124.499  1.00  0.00    -0.020 C 
ATOM      6  C   UNL     1     129.518 169.500 123.731  1.00  0.00     0.008 C 
ATOM      7  C   UNL     1     129.070 170.606 122.745  1.00  0.00     0.005 C 
ATOM      8  C   UNL     1     128.209 171.726 123.418  1.00  0.00     0.003 C 
ATOM      9  C   UNL     1     127.047 171.146 124.291  1.00  0.00     0.000 C 
ATOM     10  C   UNL     1     126.362 172.271 125.092  1.00  0.00     0.031 C 
ATOM     11  C   UNL     1     126.246 173.585 124.361  1.00  0.00    -0.027 C 
ATOM     12  C   UNL     1     126.926 173.891 123.233  1.00  0.00    -0.065 C 
ATOM     13  C   UNL     1     127.669 172.821 122.426  1.00  0.00    -0.008 C 
ATOM     14  C   UNL     1     128.856 173.507 121.688  1.00  0.00     0.014 C 
ATOM     15  C   UNL     1     128.437 174.693 120.795  1.00  0.00     0.033 C 
ATOM     16  C   UNL     1     127.363 175.622 121.411  1.00  0.00     0.118 C 
ATOM     17  C   UNL     1     127.118 175.362 122.905  1.00  0.00     0.063 C 
ATOM     18  C   UNL     1     126.696 172.217 121.374  1.00  0.00     0.016 C 
ATOM     19  C   UNL     1     127.363 168.160 123.514  1.00  0.00     0.012 C 
ENDROOT
BRANCH   1  20
ATOM     20  C   UNL     1     129.102 166.599 125.370  1.00  0.00     0.133 C 
ATOM     21  C   UNL     1     128.263 165.431 125.790  1.00  0.00     0.088 C 
ATOM     22  O   UNL     1     130.125 166.387 124.738  1.00  0.00    -0.300 OA
ENDBRANCH   1  20
BRANCH  16  23
ATOM     23  O   UNL     1     126.157 175.493 120.703  1.00  0.00    -0.393 OA
ATOM     24  H   UNL     1     125.640 176.325 120.860  1.00  0.00     0.210 HD
ENDBRANCH  16  23
TORSDOF 2
ENDMDL
MODEL 9
REMARK VINA RESULT:    -6.988      6.809      8.233
REMARK INTER + INTRA:          -7.795
REMARK INTER:                  -7.597
REMARK INTRA:                  -0.197
REMARK UNBOUND:                -0.195
REMARK SMILES CC(=O)[C@@H]1CC[C@@H]2[C@H]3CC=C4C[C@H](O)CC[C@@]4(C)[C@@H]3CC[C@]21C
REMARK SMILES IDX 4 1 5 2 6 3 7 4 22 5 21 6 20 7 19 8 8 9 9 10 10 11 11 12
REMARK SMILES IDX 17 13 16 14 15 15 13 16 12 17 18 18 23 19 2 20 1 21 3 22
REMARK SMILES IDX 14 23
REMARK H PARENT 14 24
REMARK Flexibility Score: inf
ROOT
ATOM      1  C   UNL     1     127.569 171.746 124.793  1.00  0.00     0.062 C 
ATOM      2  C   UNL     1     128.768 171.128 124.034  1.00  0.00     0.012 C 
ATOM      3  C   UNL     1     128.856 169.659 124.491  1.00  0.00     0.005 C 
ATOM      4  C   UNL     1     127.841 169.559 125.623  1.00  0.00    -0.001 C 
ATOM      5  C   UNL     1     126.719 170.526 125.220  1.00  0.00    -0.020 C 
ATOM      6  C   UNL     1     125.833 170.761 126.461  1.00  0.00     0.008 C 
ATOM      7  C   UNL     1     125.254 169.428 126.993  1.00  0.00     0.005 C 
ATOM      8  C   UNL     1     126.346 168.337 127.251  1.00  0.00     0.003 C 
ATOM      9  C   UNL     1     127.322 168.166 126.040  1.00  0.00     0.000 C 
ATOM     10  C   UNL     1     128.493 167.238 126.418  1.00  0.00     0.031 C 
ATOM     11  C   UNL     1     128.122 166.091 127.325  1.00  0.00    -0.027 C 
ATOM     12  C   UNL     1     126.960 166.011 128.013  1.00  0.00    -0.065 C 
ATOM     13  C   UNL     1     125.781 166.943 127.714  1.00  0.00    -0.008 C 
ATOM     14  C   UNL     1     124.952 167.109 129.021  1.00  0.00     0.014 C 
ATOM     15  C   UNL     1     124.472 165.776 129.631  1.00  0.00     0.033 C 
ATOM     16  C   UNL     1     125.518 164.636 129.606  1.00  0.00     0.118 C 
ATOM     17  C   UNL     1     126.931 165.115 129.239  1.00  0.00     0.063 C 
ATOM     18  C   UNL     1     124.887 166.291 126.622  1.00  0.00     0.016 C 
ATOM     19  C   UNL     1     125.848 170.010 124.027  1.00  0.00     0.012 C 
ENDROOT
BRANCH   1  20
ATOM     20  C   UNL     1     126.838 172.826 124.010  1.00  0.00     0.133 C 
ATOM     21  C   UNL     1     127.106 173.037 122.551  1.00  0.00     0.088 C 
ATOM     22  O   UNL     1     126.005 173.529 124.559  1.00  0.00    -0.300 OA
ENDBRANCH   1  20
BRANCH  16  23
ATOM     23  O   UNL     1     125.110 163.633 128.711  1.00  0.00    -0.393 OA
ATOM     24  H   UNL     1     124.967 164.071 127.833  1.00  0.00     0.210 HD
ENDBRANCH  16  23
TORSDOF 2
ENDMDL
