MODEL 1
REMARK VINA RESULT:    -4.230      0.000      0.000
REMARK INTER + INTRA:         -13.322
REMARK INTER:                  -9.670
REMARK INTRA:                  -3.652
REMARK UNBOUND:                -3.652
REMARK SMILES CCCCCCCCCCCCCCCCCCCCCCCC(=O)[O-]
REMARK SMILES IDX 13 1 14 2 15 3 16 4 17 5 18 6 19 7 20 8 21 9 22 10 23 11
REMARK SMILES IDX 24 12 25 13 26 14 12 15 11 16 10 17 9 18 8 19 7 20 6 21 5 22
REMARK SMILES IDX 4 23 3 24 2 25 1 26
REMARK H PARENT
REMARK Flexibility Score: inf
ROOT
ATOM      1  C   UNL     1      -9.440 -35.857 -10.916  1.00  0.00     0.000 C 
ENDROOT
BRANCH   1   2
ATOM      2  C   UNL     1      -8.506 -35.237  -9.854  1.00  0.00     0.000 C 
BRANCH   2   3
ATOM      3  C   UNL     1      -7.161 -34.716 -10.393  1.00  0.00     0.000 C 
BRANCH   3   4
ATOM      4  C   UNL     1      -6.112 -34.501  -9.287  1.00  0.00     0.000 C 
BRANCH   4   5
ATOM      5  C   UNL     1      -5.782 -35.797  -8.529  1.00  0.00     0.000 C 
BRANCH   5   6
ATOM      6  C   UNL     1      -4.924 -36.770  -9.357  1.00  0.00     0.000 C 
BRANCH   6   7
ATOM      7  C   UNL     1      -5.625 -38.118  -9.601  1.00  0.00     0.000 C 
BRANCH   7   8
ATOM      8  C   UNL     1      -6.975 -38.284  -8.876  1.00  0.00     0.000 C 
BRANCH   8   9
ATOM      9  C   UNL     1      -7.332 -39.752  -8.553  1.00  0.00     0.000 C 
BRANCH   9  10
ATOM     10  C   UNL     1      -6.458 -40.747  -9.337  1.00  0.00     0.006 C 
BRANCH  10  11
ATOM     11  C   UNL     1      -6.608 -42.184  -8.824  1.00  0.00     0.053 C 
BRANCH  11  12
ATOM     12  C   UNL     1      -7.218 -43.078  -9.861  1.00  0.00     0.041 C 
ATOM     13  O   UNL     1      -6.689 -44.190 -10.127  1.00  0.00    -0.550 OA
ATOM     14  O   UNL     1      -8.351 -42.671 -10.553  1.00  0.00    -0.550 OA
ENDBRANCH  11  12
ENDBRANCH  10  11
ENDBRANCH   9  10
ENDBRANCH   8   9
ENDBRANCH   7   8
ENDBRANCH   6   7
ENDBRANCH   5   6
ENDBRANCH   4   5
ENDBRANCH   3   4
ENDBRANCH   2   3
ENDBRANCH   1   2
BRANCH   1  15
ATOM     15  C   UNL     1      -9.754 -37.355 -10.722  1.00  0.00     0.000 C 
BRANCH  15  16
ATOM     16  C   UNL     1      -9.785 -38.189 -12.018  1.00  0.00     0.000 C 
BRANCH  16  17
ATOM     17  C   UNL     1      -8.894 -39.444 -11.997  1.00  0.00     0.000 C 
BRANCH  17  18
ATOM     18  C   UNL     1      -7.493 -39.186 -12.575  1.00  0.00    -0.000 C 
BRANCH  18  19
ATOM     19  C   UNL     1      -6.755 -40.485 -12.935  1.00  0.00    -0.000 C 
BRANCH  19  20
ATOM     20  C   UNL     1      -7.614 -41.434 -13.791  1.00  0.00    -0.000 C 
BRANCH  20  21
ATOM     21  C   UNL     1      -6.868 -41.906 -15.058  1.00  0.00    -0.000 C 
BRANCH  21  22
ATOM     22  C   UNL     1      -6.367 -40.752 -15.944  1.00  0.00    -0.000 C 
BRANCH  22  23
ATOM     23  C   UNL     1      -7.276 -40.490 -17.154  1.00  0.00    -0.000 C 
BRANCH  23  24
ATOM     24  C   UNL     1      -7.614 -39.000 -17.326  1.00  0.00    -0.000 C 
BRANCH  24  25
ATOM     25  C   UNL     1      -8.064 -38.342 -16.013  1.00  0.00    -0.003 C 
ATOM     26  C   UNL     1      -9.584 -38.219 -15.953  1.00  0.00     0.004 C 
ENDBRANCH  24  25
ENDBRANCH  23  24
ENDBRANCH  22  23
ENDBRANCH  21  22
ENDBRANCH  20  21
ENDBRANCH  19  20
ENDBRANCH  18  19
ENDBRANCH  17  18
ENDBRANCH  16  17
ENDBRANCH  15  16
ENDBRANCH   1  15
TORSDOF 22
ENDMDL
MODEL 2
REMARK VINA RESULT:    -4.108      2.744      7.872
REMARK INTER + INTRA:         -13.043
REMARK INTER:                 -10.013
REMARK INTRA:                  -3.031
REMARK UNBOUND:                -3.652
REMARK SMILES CCCCCCCCCCCCCCCCCCCCCCCC(=O)[O-]
REMARK SMILES IDX 13 1 14 2 15 3 16 4 17 5 18 6 19 7 20 8 21 9 22 10 23 11
REMARK SMILES IDX 24 12 25 13 26 14 12 15 11 16 10 17 9 18 8 19 7 20 6 21 5 22
REMARK SMILES IDX 4 23 3 24 2 25 1 26
REMARK H PARENT
REMARK Flexibility Score: inf
ROOT
ATOM      1  C   UNL     1      -7.409 -41.597 -11.654  1.00  0.00     0.000 C 
ENDROOT
BRANCH   1   2
ATOM      2  C   UNL     1      -7.000 -42.514 -10.481  1.00  0.00     0.000 C 
BRANCH   2   3
ATOM      3  C   UNL     1      -7.551 -43.950 -10.554  1.00  0.00     0.000 C 
BRANCH   3   4
ATOM      4  C   UNL     1      -6.683 -44.886 -11.413  1.00  0.00     0.000 C 
BRANCH   4   5
ATOM      5  C   UNL     1      -7.404 -45.351 -12.689  1.00  0.00     0.000 C 
BRANCH   5   6
ATOM      6  C   UNL     1      -6.680 -44.914 -13.976  1.00  0.00     0.000 C 
BRANCH   6   7
ATOM      7  C   UNL     1      -5.409 -44.095 -13.692  1.00  0.00     0.000 C 
BRANCH   7   8
ATOM      8  C   UNL     1      -5.178 -42.908 -14.648  1.00  0.00     0.000 C 
BRANCH   8   9
ATOM      9  C   UNL     1      -6.482 -42.283 -15.190  1.00  0.00     0.000 C 
BRANCH   9  10
ATOM     10  C   UNL     1      -6.228 -40.948 -15.913  1.00  0.00     0.006 C 
BRANCH  10  11
ATOM     11  C   UNL     1      -7.278 -39.887 -15.564  1.00  0.00     0.053 C 
BRANCH  11  12
ATOM     12  C   UNL     1      -7.601 -39.022 -16.744  1.00  0.00     0.041 C 
ATOM     13  O   UNL     1      -7.283 -39.392 -17.906  1.00  0.00    -0.550 OA
ATOM     14  O   UNL     1      -8.223 -37.794 -16.559  1.00  0.00    -0.550 OA
ENDBRANCH  11  12
ENDBRANCH  10  11
ENDBRANCH   9  10
ENDBRANCH   8   9
ENDBRANCH   7   8
ENDBRANCH   6   7
ENDBRANCH   5   6
ENDBRANCH   4   5
ENDBRANCH   3   4
ENDBRANCH   2   3
ENDBRANCH   1   2
BRANCH   1  15
ATOM     15  C   UNL     1      -6.400 -40.483 -12.001  1.00  0.00     0.000 C 
BRANCH  15  16
ATOM     16  C   UNL     1      -5.947 -39.617 -10.810  1.00  0.00     0.000 C 
BRANCH  16  17
ATOM     17  C   UNL     1      -6.845 -38.401 -10.520  1.00  0.00     0.000 C 
BRANCH  17  18
ATOM     18  C   UNL     1      -7.571 -38.510  -9.170  1.00  0.00    -0.000 C 
BRANCH  18  19
ATOM     19  C   UNL     1      -8.539 -37.341  -8.926  1.00  0.00    -0.000 C 
BRANCH  19  20
ATOM     20  C   UNL     1      -8.764 -36.487 -10.187  1.00  0.00    -0.000 C 
BRANCH  20  21
ATOM     21  C   UNL     1      -8.342 -35.017  -9.974  1.00  0.00    -0.000 C 
BRANCH  21  22
ATOM     22  C   UNL     1      -6.889 -34.726 -10.388  1.00  0.00    -0.000 C 
BRANCH  22  23
ATOM     23  C   UNL     1      -6.061 -34.094  -9.259  1.00  0.00    -0.000 C 
BRANCH  23  24
ATOM     24  C   UNL     1      -5.581 -35.129  -8.228  1.00  0.00    -0.000 C 
BRANCH  24  25
ATOM     25  C   UNL     1      -4.495 -36.060  -8.788  1.00  0.00    -0.003 C 
ATOM     26  C   UNL     1      -3.102 -35.573  -8.401  1.00  0.00     0.004 C 
ENDBRANCH  24  25
ENDBRANCH  23  24
ENDBRANCH  22  23
ENDBRANCH  21  22
ENDBRANCH  20  21
ENDBRANCH  19  20
ENDBRANCH  18  19
ENDBRANCH  17  18
ENDBRANCH  16  17
ENDBRANCH  15  16
ENDBRANCH   1  15
TORSDOF 22
ENDMDL
MODEL 3
REMARK VINA RESULT:    -4.070      3.885      8.870
REMARK INTER + INTRA:         -12.956
REMARK INTER:                 -10.476
REMARK INTRA:                  -2.481
REMARK UNBOUND:                -3.652
REMARK SMILES CCCCCCCCCCCCCCCCCCCCCCCC(=O)[O-]
REMARK SMILES IDX 13 1 14 2 15 3 16 4 17 5 18 6 19 7 20 8 21 9 22 10 23 11
REMARK SMILES IDX 24 12 25 13 26 14 12 15 11 16 10 17 9 18 8 19 7 20 6 21 5 22
REMARK SMILES IDX 4 23 3 24 2 25 1 26
REMARK H PARENT
REMARK Flexibility Score: inf
ROOT
ATOM      1  C   UNL     1      -6.573 -40.857 -14.341  1.00  0.00     0.000 C 
ENDROOT
BRANCH   1   2
ATOM      2  C   UNL     1      -7.228 -40.393 -15.659  1.00  0.00     0.000 C 
BRANCH   2   3
ATOM      3  C   UNL     1      -7.631 -38.908 -15.700  1.00  0.00     0.000 C 
BRANCH   3   4
ATOM      4  C   UNL     1      -9.117 -38.695 -16.036  1.00  0.00     0.000 C 
BRANCH   4   5
ATOM      5  C   UNL     1      -9.357 -37.424 -16.868  1.00  0.00     0.000 C 
BRANCH   5   6
ATOM      6  C   UNL     1      -8.353 -37.270 -18.024  1.00  0.00     0.000 C 
BRANCH   6   7
ATOM      7  C   UNL     1      -8.716 -38.137 -19.242  1.00  0.00     0.000 C 
BRANCH   7   8
ATOM      8  C   UNL     1      -7.769 -39.327 -19.493  1.00  0.00     0.000 C 
BRANCH   8   9
ATOM      9  C   UNL     1      -6.288 -39.023 -19.172  1.00  0.00     0.000 C 
BRANCH   9  10
ATOM     10  C   UNL     1      -5.325 -39.837 -20.054  1.00  0.00     0.006 C 
BRANCH  10  11
ATOM     11  C   UNL     1      -5.701 -39.775 -21.539  1.00  0.00     0.053 C 
BRANCH  11  12
ATOM     12  C   UNL     1      -5.976 -41.139 -22.095  1.00  0.00     0.041 C 
ATOM     13  O   UNL     1      -7.164 -41.521 -22.275  1.00  0.00    -0.550 OA
ATOM     14  O   UNL     1      -4.925 -41.999 -22.384  1.00  0.00    -0.550 OA
ENDBRANCH  11  12
ENDBRANCH  10  11
ENDBRANCH   9  10
ENDBRANCH   8   9
ENDBRANCH   7   8
ENDBRANCH   6   7
ENDBRANCH   5   6
ENDBRANCH   4   5
ENDBRANCH   3   4
ENDBRANCH   2   3
ENDBRANCH   1   2
BRANCH   1  15
ATOM     15  C   UNL     1      -7.062 -40.131 -13.071  1.00  0.00     0.000 C 
BRANCH  15  16
ATOM     16  C   UNL     1      -6.361 -40.554 -11.765  1.00  0.00     0.000 C 
BRANCH  16  17
ATOM     17  C   UNL     1      -5.895 -39.385 -10.878  1.00  0.00     0.000 C 
BRANCH  17  18
ATOM     18  C   UNL     1      -6.429 -39.484  -9.439  1.00  0.00    -0.000 C 
BRANCH  18  19
ATOM     19  C   UNL     1      -7.346 -38.308  -9.068  1.00  0.00    -0.000 C 
BRANCH  19  20
ATOM     20  C   UNL     1      -7.686 -37.420 -10.279  1.00  0.00    -0.000 C 
BRANCH  20  21
ATOM     21  C   UNL     1      -8.499 -36.172  -9.872  1.00  0.00    -0.000 C 
BRANCH  21  22
ATOM     22  C   UNL     1      -7.924 -34.855 -10.421  1.00  0.00    -0.000 C 
BRANCH  22  23
ATOM     23  C   UNL     1      -6.388 -34.820 -10.405  1.00  0.00    -0.000 C 
BRANCH  23  24
ATOM     24  C   UNL     1      -5.826 -34.168  -9.131  1.00  0.00    -0.000 C 
BRANCH  24  25
ATOM     25  C   UNL     1      -5.150 -35.183  -8.197  1.00  0.00    -0.003 C 
ATOM     26  C   UNL     1      -4.315 -36.185  -8.989  1.00  0.00     0.004 C 
ENDBRANCH  24  25
ENDBRANCH  23  24
ENDBRANCH  22  23
ENDBRANCH  21  22
ENDBRANCH  20  21
ENDBRANCH  19  20
ENDBRANCH  18  19
ENDBRANCH  17  18
ENDBRANCH  16  17
ENDBRANCH  15  16
ENDBRANCH   1  15
TORSDOF 22
ENDMDL
MODEL 4
REMARK VINA RESULT:    -3.971      1.747      6.761
REMARK INTER + INTRA:         -12.731
REMARK INTER:                  -9.048
REMARK INTRA:                  -3.684
REMARK UNBOUND:                -3.652
REMARK SMILES CCCCCCCCCCCCCCCCCCCCCCCC(=O)[O-]
REMARK SMILES IDX 13 1 14 2 15 3 16 4 17 5 18 6 19 7 20 8 21 9 22 10 23 11
REMARK SMILES IDX 24 12 25 13 26 14 12 15 11 16 10 17 9 18 8 19 7 20 6 21 5 22
REMARK SMILES IDX 4 23 3 24 2 25 1 26
REMARK H PARENT
REMARK Flexibility Score: inf
ROOT
ATOM      1  C   UNL     1      -5.530 -39.098 -10.496  1.00  0.00     0.000 C 
ENDROOT
BRANCH   1   2
ATOM      2  C   UNL     1      -6.369 -39.741 -11.622  1.00  0.00     0.000 C 
BRANCH   2   3
ATOM      3  C   UNL     1      -7.649 -38.973 -12.001  1.00  0.00     0.000 C 
BRANCH   3   4
ATOM      4  C   UNL     1      -8.901 -39.868 -12.033  1.00  0.00     0.000 C 
BRANCH   4   5
ATOM      5  C   UNL     1      -8.775 -41.020 -13.044  1.00  0.00     0.000 C 
BRANCH   5   6
ATOM      6  C   UNL     1      -9.560 -40.761 -14.343  1.00  0.00     0.000 C 
BRANCH   6   7
ATOM      7  C   UNL     1      -8.675 -40.859 -15.598  1.00  0.00     0.000 C 
BRANCH   7   8
ATOM      8  C   UNL     1      -7.274 -40.233 -15.452  1.00  0.00     0.000 C 
BRANCH   8   9
ATOM      9  C   UNL     1      -6.120 -41.204 -15.786  1.00  0.00     0.000 C 
BRANCH   9  10
ATOM     10  C   UNL     1      -5.611 -41.950 -14.540  1.00  0.00     0.006 C 
BRANCH  10  11
ATOM     11  C   UNL     1      -5.809 -43.467 -14.647  1.00  0.00     0.053 C 
BRANCH  11  12
ATOM     12  C   UNL     1      -5.711 -44.131 -13.307  1.00  0.00     0.041 C 
ATOM     13  O   UNL     1      -6.420 -43.726 -12.347  1.00  0.00    -0.550 OA
ATOM     14  O   UNL     1      -4.817 -45.175 -13.110  1.00  0.00    -0.550 OA
ENDBRANCH  11  12
ENDBRANCH  10  11
ENDBRANCH   9  10
ENDBRANCH   8   9
ENDBRANCH   7   8
ENDBRANCH   6   7
ENDBRANCH   5   6
ENDBRANCH   4   5
ENDBRANCH   3   4
ENDBRANCH   2   3
ENDBRANCH   1   2
BRANCH   1  15
ATOM     15  C   UNL     1      -6.340 -38.544  -9.306  1.00  0.00     0.000 C 
BRANCH  15  16
ATOM     16  C   UNL     1      -7.170 -39.590  -8.536  1.00  0.00     0.000 C 
BRANCH  16  17
ATOM     17  C   UNL     1      -8.634 -39.190  -8.282  1.00  0.00     0.000 C 
BRANCH  17  18
ATOM     18  C   UNL     1      -8.814 -37.671  -8.126  1.00  0.00    -0.000 C 
BRANCH  18  19
ATOM     19  C   UNL     1      -9.812 -37.089  -9.140  1.00  0.00    -0.000 C 
BRANCH  19  20
ATOM     20  C   UNL     1      -9.464 -35.646  -9.549  1.00  0.00    -0.000 C 
BRANCH  20  21
ATOM     21  C   UNL     1      -8.264 -35.592 -10.520  1.00  0.00    -0.000 C 
BRANCH  21  22
ATOM     22  C   UNL     1      -7.207 -34.543 -10.137  1.00  0.00    -0.000 C 
BRANCH  22  23
ATOM     23  C   UNL     1      -7.086 -34.342  -8.619  1.00  0.00    -0.000 C 
BRANCH  23  24
ATOM     24  C   UNL     1      -5.912 -35.127  -8.011  1.00  0.00    -0.000 C 
BRANCH  24  25
ATOM     25  C   UNL     1      -4.654 -35.083  -8.891  1.00  0.00    -0.003 C 
ATOM     26  C   UNL     1      -3.643 -36.140  -8.456  1.00  0.00     0.004 C 
ENDBRANCH  24  25
ENDBRANCH  23  24
ENDBRANCH  22  23
ENDBRANCH  21  22
ENDBRANCH  20  21
ENDBRANCH  19  20
ENDBRANCH  18  19
ENDBRANCH  17  18
ENDBRANCH  16  17
ENDBRANCH  15  16
ENDBRANCH   1  15
TORSDOF 22
ENDMDL
MODEL 5
REMARK VINA RESULT:    -3.922      2.401      7.613
REMARK INTER + INTRA:         -12.619
REMARK INTER:                 -10.048
REMARK INTRA:                  -2.572
REMARK UNBOUND:                -3.652
REMARK SMILES CCCCCCCCCCCCCCCCCCCCCCCC(=O)[O-]
REMARK SMILES IDX 13 1 14 2 15 3 16 4 17 5 18 6 19 7 20 8 21 9 22 10 23 11
REMARK SMILES IDX 24 12 25 13 26 14 12 15 11 16 10 17 9 18 8 19 7 20 6 21 5 22
REMARK SMILES IDX 4 23 3 24 2 25 1 26
REMARK H PARENT
REMARK Flexibility Score: inf
ROOT
ATOM      1  C   UNL     1      -7.563 -39.712 -13.229  1.00  0.00     0.000 C 
ENDROOT
BRANCH   1   2
ATOM      2  C   UNL     1      -8.346 -39.819 -14.556  1.00  0.00     0.000 C 
BRANCH   2   3
ATOM      3  C   UNL     1      -7.934 -38.805 -15.639  1.00  0.00     0.000 C 
BRANCH   3   4
ATOM      4  C   UNL     1      -9.138 -38.163 -16.352  1.00  0.00     0.000 C 
BRANCH   4   5
ATOM      5  C   UNL     1      -8.716 -37.082 -17.360  1.00  0.00     0.000 C 
BRANCH   5   6
ATOM      6  C   UNL     1      -7.567 -37.537 -18.278  1.00  0.00     0.000 C 
BRANCH   6   7
ATOM      7  C   UNL     1      -8.064 -38.326 -19.501  1.00  0.00     0.000 C 
BRANCH   7   8
ATOM      8  C   UNL     1      -7.481 -39.747 -19.634  1.00  0.00     0.000 C 
BRANCH   8   9
ATOM      9  C   UNL     1      -6.262 -40.007 -18.722  1.00  0.00     0.000 C 
BRANCH   9  10
ATOM     10  C   UNL     1      -6.222 -41.457 -18.207  1.00  0.00     0.006 C 
BRANCH  10  11
ATOM     11  C   UNL     1      -5.831 -41.539 -16.726  1.00  0.00     0.053 C 
BRANCH  11  12
ATOM     12  C   UNL     1      -4.580 -42.340 -16.530  1.00  0.00     0.041 C 
ATOM     13  O   UNL     1      -3.953 -42.788 -17.527  1.00  0.00    -0.550 OA
ATOM     14  O   UNL     1      -4.125 -42.618 -15.248  1.00  0.00    -0.550 OA
ENDBRANCH  11  12
ENDBRANCH  10  11
ENDBRANCH   9  10
ENDBRANCH   8   9
ENDBRANCH   7   8
ENDBRANCH   6   7
ENDBRANCH   5   6
ENDBRANCH   4   5
ENDBRANCH   3   4
ENDBRANCH   2   3
ENDBRANCH   1   2
BRANCH   1  15
ATOM     15  C   UNL     1      -6.403 -40.716 -13.067  1.00  0.00     0.000 C 
BRANCH  15  16
ATOM     16  C   UNL     1      -6.828 -42.192 -12.943  1.00  0.00     0.000 C 
BRANCH  16  17
ATOM     17  C   UNL     1      -7.793 -42.488 -11.780  1.00  0.00     0.000 C 
BRANCH  17  18
ATOM     18  C   UNL     1      -7.091 -42.479 -10.412  1.00  0.00    -0.000 C 
BRANCH  18  19
ATOM     19  C   UNL     1      -7.609 -41.362  -9.492  1.00  0.00    -0.000 C 
BRANCH  19  20
ATOM     20  C   UNL     1      -6.637 -40.171  -9.405  1.00  0.00    -0.000 C 
BRANCH  20  21
ATOM     21  C   UNL     1      -7.359 -38.819  -9.599  1.00  0.00    -0.000 C 
BRANCH  21  22
ATOM     22  C   UNL     1      -6.619 -37.629  -8.965  1.00  0.00    -0.000 C 
BRANCH  22  23
ATOM     23  C   UNL     1      -5.209 -37.426  -9.541  1.00  0.00    -0.000 C 
BRANCH  23  24
ATOM     24  C   UNL     1      -4.536 -36.147  -9.018  1.00  0.00    -0.000 C 
BRANCH  24  25
ATOM     25  C   UNL     1      -5.525 -35.206  -8.312  1.00  0.00    -0.003 C 
ATOM     26  C   UNL     1      -5.996 -34.101  -9.253  1.00  0.00     0.004 C 
ENDBRANCH  24  25
ENDBRANCH  23  24
ENDBRANCH  22  23
ENDBRANCH  21  22
ENDBRANCH  20  21
ENDBRANCH  19  20
ENDBRANCH  18  19
ENDBRANCH  17  18
ENDBRANCH  16  17
ENDBRANCH  15  16
ENDBRANCH   1  15
TORSDOF 22
ENDMDL
MODEL 6
REMARK VINA RESULT:    -3.922      3.203      6.151
REMARK INTER + INTRA:         -12.619
REMARK INTER:                 -10.308
REMARK INTRA:                  -2.311
REMARK UNBOUND:                -3.652
REMARK SMILES CCCCCCCCCCCCCCCCCCCCCCCC(=O)[O-]
REMARK SMILES IDX 13 1 14 2 15 3 16 4 17 5 18 6 19 7 20 8 21 9 22 10 23 11
REMARK SMILES IDX 24 12 25 13 26 14 12 15 11 16 10 17 9 18 8 19 7 20 6 21 5 22
REMARK SMILES IDX 4 23 3 24 2 25 1 26
REMARK H PARENT
REMARK Flexibility Score: inf
ROOT
ATOM      1  C   UNL     1      -6.478 -40.628 -15.879  1.00  0.00     0.000 C 
ENDROOT
BRANCH   1   2
ATOM      2  C   UNL     1      -5.849 -41.530 -14.796  1.00  0.00     0.000 C 
BRANCH   2   3
ATOM      3  C   UNL     1      -6.625 -41.593 -13.468  1.00  0.00     0.000 C 
BRANCH   3   4
ATOM      4  C   UNL     1      -6.380 -40.368 -12.569  1.00  0.00     0.000 C 
BRANCH   4   5
ATOM      5  C   UNL     1      -7.245 -40.388 -11.298  1.00  0.00     0.000 C 
BRANCH   5   6
ATOM      6  C   UNL     1      -6.408 -40.370 -10.007  1.00  0.00     0.000 C 
BRANCH   6   7
ATOM      7  C   UNL     1      -7.007 -39.454  -8.925  1.00  0.00     0.000 C 
BRANCH   7   8
ATOM      8  C   UNL     1      -6.682 -37.957  -9.094  1.00  0.00     0.000 C 
BRANCH   8   9
ATOM      9  C   UNL     1      -5.310 -37.688  -9.752  1.00  0.00     0.000 C 
BRANCH   9  10
ATOM     10  C   UNL     1      -4.675 -36.378  -9.254  1.00  0.00     0.006 C 
BRANCH  10  11
ATOM     11  C   UNL     1      -5.668 -35.509  -8.473  1.00  0.00     0.053 C 
BRANCH  11  12
ATOM     12  C   UNL     1      -6.229 -34.411  -9.326  1.00  0.00     0.041 C 
ATOM     13  O   UNL     1      -6.764 -33.405  -8.790  1.00  0.00    -0.550 OA
ATOM     14  O   UNL     1      -6.187 -34.514 -10.710  1.00  0.00    -0.550 OA
ENDBRANCH  11  12
ENDBRANCH  10  11
ENDBRANCH   9  10
ENDBRANCH   8   9
ENDBRANCH   7   8
ENDBRANCH   6   7
ENDBRANCH   5   6
ENDBRANCH   4   5
ENDBRANCH   3   4
ENDBRANCH   2   3
ENDBRANCH   1   2
BRANCH   1  15
ATOM     15  C   UNL     1      -8.015 -40.701 -15.986  1.00  0.00     0.000 C 
BRANCH  15  16
ATOM     16  C   UNL     1      -8.765 -39.446 -15.497  1.00  0.00     0.000 C 
BRANCH  16  17
ATOM     17  C   UNL     1      -9.321 -38.551 -16.619  1.00  0.00     0.000 C 
BRANCH  17  18
ATOM     18  C   UNL     1      -8.359 -37.415 -17.002  1.00  0.00    -0.000 C 
BRANCH  18  19
ATOM     19  C   UNL     1      -7.675 -37.655 -18.357  1.00  0.00    -0.000 C 
BRANCH  19  20
ATOM     20  C   UNL     1      -8.348 -38.777 -19.168  1.00  0.00    -0.000 C 
BRANCH  20  21
ATOM     21  C   UNL     1      -7.318 -39.642 -19.926  1.00  0.00    -0.000 C 
BRANCH  21  22
ATOM     22  C   UNL     1      -5.865 -39.399 -19.484  1.00  0.00    -0.000 C 
BRANCH  22  23
ATOM     23  C   UNL     1      -4.839 -40.082 -20.402  1.00  0.00    -0.000 C 
BRANCH  23  24
ATOM     24  C   UNL     1      -5.005 -41.610 -20.440  1.00  0.00    -0.000 C 
BRANCH  24  25
ATOM     25  C   UNL     1      -3.893 -42.344 -19.676  1.00  0.00    -0.003 C 
ATOM     26  C   UNL     1      -4.309 -42.622 -18.234  1.00  0.00     0.004 C 
ENDBRANCH  24  25
ENDBRANCH  23  24
ENDBRANCH  22  23
ENDBRANCH  21  22
ENDBRANCH  20  21
ENDBRANCH  19  20
ENDBRANCH  18  19
ENDBRANCH  17  18
ENDBRANCH  16  17
ENDBRANCH  15  16
ENDBRANCH   1  15
TORSDOF 22
ENDMDL
MODEL 7
REMARK VINA RESULT:    -3.916      3.803      8.495
REMARK INTER + INTRA:         -12.605
REMARK INTER:                 -10.104
REMARK INTRA:                  -2.501
REMARK UNBOUND:                -3.652
REMARK SMILES CCCCCCCCCCCCCCCCCCCCCCCC(=O)[O-]
REMARK SMILES IDX 13 1 14 2 15 3 16 4 17 5 18 6 19 7 20 8 21 9 22 10 23 11
REMARK SMILES IDX 24 12 25 13 26 14 12 15 11 16 10 17 9 18 8 19 7 20 6 21 5 22
REMARK SMILES IDX 4 23 3 24 2 25 1 26
REMARK H PARENT
REMARK Flexibility Score: inf
ROOT
ATOM      1  C   UNL     1      -7.623 -40.316 -16.239  1.00  0.00     0.000 C 
ENDROOT
BRANCH   1   2
ATOM      2  C   UNL     1      -7.842 -39.170 -15.227  1.00  0.00     0.000 C 
BRANCH   2   3
ATOM      3  C   UNL     1      -9.262 -38.575 -15.215  1.00  0.00     0.000 C 
BRANCH   3   4
ATOM      4  C   UNL     1      -9.821 -38.322 -16.626  1.00  0.00     0.000 C 
BRANCH   4   5
ATOM      5  C   UNL     1      -9.338 -36.989 -17.220  1.00  0.00     0.000 C 
BRANCH   5   6
ATOM      6  C   UNL     1      -8.360 -37.178 -18.393  1.00  0.00     0.000 C 
BRANCH   6   7
ATOM      7  C   UNL     1      -8.649 -38.452 -19.206  1.00  0.00     0.000 C 
BRANCH   7   8
ATOM      8  C   UNL     1      -7.467 -38.959 -20.055  1.00  0.00     0.000 C 
BRANCH   8   9
ATOM      9  C   UNL     1      -6.147 -39.099 -19.265  1.00  0.00     0.000 C 
BRANCH   9  10
ATOM     10  C   UNL     1      -5.442 -40.438 -19.546  1.00  0.00     0.006 C 
BRANCH  10  11
ATOM     11  C   UNL     1      -4.666 -40.421 -20.869  1.00  0.00     0.053 C 
BRANCH  11  12
ATOM     12  C   UNL     1      -3.734 -41.589 -20.976  1.00  0.00     0.041 C 
ATOM     13  O   UNL     1      -3.348 -42.187 -19.936  1.00  0.00    -0.550 OA
ATOM     14  O   UNL     1      -3.267 -41.997 -22.218  1.00  0.00    -0.550 OA
ENDBRANCH  11  12
ENDBRANCH  10  11
ENDBRANCH   9  10
ENDBRANCH   8   9
ENDBRANCH   7   8
ENDBRANCH   6   7
ENDBRANCH   5   6
ENDBRANCH   4   5
ENDBRANCH   3   4
ENDBRANCH   2   3
ENDBRANCH   1   2
BRANCH   1  15
ATOM     15  C   UNL     1      -6.451 -41.265 -15.914  1.00  0.00     0.000 C 
BRANCH  15  16
ATOM     16  C   UNL     1      -5.998 -41.266 -14.441  1.00  0.00     0.000 C 
BRANCH  16  17
ATOM     17  C   UNL     1      -6.807 -42.196 -13.520  1.00  0.00     0.000 C 
BRANCH  17  18
ATOM     18  C   UNL     1      -6.998 -41.614 -12.110  1.00  0.00    -0.000 C 
BRANCH  18  19
ATOM     19  C   UNL     1      -6.386 -40.211 -11.964  1.00  0.00    -0.000 C 
BRANCH  19  20
ATOM     20  C   UNL     1      -7.441 -39.139 -11.632  1.00  0.00    -0.000 C 
BRANCH  20  21
ATOM     21  C   UNL     1      -7.632 -38.967 -10.109  1.00  0.00    -0.000 C 
BRANCH  21  22
ATOM     22  C   UNL     1      -6.310 -38.870  -9.329  1.00  0.00    -0.000 C 
BRANCH  22  23
ATOM     23  C   UNL     1      -5.680 -37.470  -9.392  1.00  0.00    -0.000 C 
BRANCH  23  24
ATOM     24  C   UNL     1      -6.728 -36.347  -9.305  1.00  0.00    -0.000 C 
BRANCH  24  25
ATOM     25  C   UNL     1      -6.390 -35.154 -10.211  1.00  0.00    -0.003 C 
ATOM     26  C   UNL     1      -6.252 -33.870  -9.398  1.00  0.00     0.004 C 
ENDBRANCH  24  25
ENDBRANCH  23  24
ENDBRANCH  22  23
ENDBRANCH  21  22
ENDBRANCH  20  21
ENDBRANCH  19  20
ENDBRANCH  18  19
ENDBRANCH  17  18
ENDBRANCH  16  17
ENDBRANCH  15  16
ENDBRANCH   1  15
TORSDOF 22
ENDMDL
MODEL 8
REMARK VINA RESULT:    -3.846      2.157      6.983
REMARK INTER + INTRA:         -12.445
REMARK INTER:                  -9.922
REMARK INTRA:                  -2.523
REMARK UNBOUND:                -3.652
REMARK SMILES CCCCCCCCCCCCCCCCCCCCCCCC(=O)[O-]
REMARK SMILES IDX 13 1 14 2 15 3 16 4 17 5 18 6 19 7 20 8 21 9 22 10 23 11
REMARK SMILES IDX 24 12 25 13 26 14 12 15 11 16 10 17 9 18 8 19 7 20 6 21 5 22
REMARK SMILES IDX 4 23 3 24 2 25 1 26
REMARK H PARENT
REMARK Flexibility Score: inf
ROOT
ATOM      1  C   UNL     1      -8.491 -38.391 -18.293  1.00  0.00     0.000 C 
ENDROOT
BRANCH   1   2
ATOM      2  C   UNL     1      -7.003 -38.494 -18.691  1.00  0.00     0.000 C 
BRANCH   2   3
ATOM      3  C   UNL     1      -6.418 -39.918 -18.661  1.00  0.00     0.000 C 
BRANCH   3   4
ATOM      4  C   UNL     1      -7.416 -40.968 -18.141  1.00  0.00     0.000 C 
BRANCH   4   5
ATOM      5  C   UNL     1      -6.728 -42.281 -17.731  1.00  0.00     0.000 C 
BRANCH   5   6
ATOM      6  C   UNL     1      -5.392 -42.052 -17.001  1.00  0.00     0.000 C 
BRANCH   6   7
ATOM      7  C   UNL     1      -5.584 -41.609 -15.540  1.00  0.00     0.000 C 
BRANCH   7   8
ATOM      8  C   UNL     1      -5.421 -42.733 -14.498  1.00  0.00     0.000 C 
BRANCH   8   9
ATOM      9  C   UNL     1      -6.700 -43.573 -14.284  1.00  0.00     0.000 C 
BRANCH   9  10
ATOM     10  C   UNL     1      -6.908 -43.946 -12.805  1.00  0.00     0.006 C 
BRANCH  10  11
ATOM     11  C   UNL     1      -6.748 -45.451 -12.557  1.00  0.00     0.053 C 
BRANCH  11  12
ATOM     12  C   UNL     1      -5.319 -45.817 -12.292  1.00  0.00     0.041 C 
ATOM     13  O   UNL     1      -4.884 -45.849 -11.110  1.00  0.00    -0.550 OA
ATOM     14  O   UNL     1      -4.462 -46.092 -13.349  1.00  0.00    -0.550 OA
ENDBRANCH  11  12
ENDBRANCH  10  11
ENDBRANCH   9  10
ENDBRANCH   8   9
ENDBRANCH   7   8
ENDBRANCH   6   7
ENDBRANCH   5   6
ENDBRANCH   4   5
ENDBRANCH   3   4
ENDBRANCH   2   3
ENDBRANCH   1   2
BRANCH   1  15
ATOM     15  C   UNL     1      -8.777 -37.571 -17.018  1.00  0.00     0.000 C 
BRANCH  15  16
ATOM     16  C   UNL     1      -9.077 -38.406 -15.757  1.00  0.00     0.000 C 
BRANCH  16  17
ATOM     17  C   UNL     1      -7.833 -38.978 -15.054  1.00  0.00     0.000 C 
BRANCH  17  18
ATOM     18  C   UNL     1      -8.180 -39.745 -13.768  1.00  0.00    -0.000 C 
BRANCH  18  19
ATOM     19  C   UNL     1      -7.337 -39.292 -12.565  1.00  0.00    -0.000 C 
BRANCH  19  20
ATOM     20  C   UNL     1      -6.650 -40.468 -11.849  1.00  0.00    -0.000 C 
BRANCH  20  21
ATOM     21  C   UNL     1      -6.272 -40.119 -10.393  1.00  0.00    -0.000 C 
BRANCH  21  22
ATOM     22  C   UNL     1      -5.338 -38.903 -10.273  1.00  0.00    -0.000 C 
BRANCH  22  23
ATOM     23  C   UNL     1      -5.904 -37.802  -9.363  1.00  0.00    -0.000 C 
BRANCH  23  24
ATOM     24  C   UNL     1      -5.845 -36.410 -10.013  1.00  0.00    -0.000 C 
BRANCH  24  25
ATOM     25  C   UNL     1      -5.154 -35.369  -9.119  1.00  0.00    -0.003 C 
ATOM     26  C   UNL     1      -3.805 -35.883  -8.622  1.00  0.00     0.004 C 
ENDBRANCH  24  25
ENDBRANCH  23  24
ENDBRANCH  22  23
ENDBRANCH  21  22
ENDBRANCH  20  21
ENDBRANCH  19  20
ENDBRANCH  18  19
ENDBRANCH  17  18
ENDBRANCH  16  17
ENDBRANCH  15  16
ENDBRANCH   1  15
TORSDOF 22
ENDMDL
MODEL 9
REMARK VINA RESULT:    -3.824      2.001      7.464
REMARK INTER + INTRA:         -12.394
REMARK INTER:                  -9.884
REMARK INTRA:                  -2.510
REMARK UNBOUND:                -3.652
REMARK SMILES CCCCCCCCCCCCCCCCCCCCCCCC(=O)[O-]
REMARK SMILES IDX 13 1 14 2 15 3 16 4 17 5 18 6 19 7 20 8 21 9 22 10 23 11
REMARK SMILES IDX 24 12 25 13 26 14 12 15 11 16 10 17 9 18 8 19 7 20 6 21 5 22
REMARK SMILES IDX 4 23 3 24 2 25 1 26
REMARK H PARENT
REMARK Flexibility Score: inf
ROOT
ATOM      1  C   UNL     1      -7.382 -40.733 -13.657  1.00  0.00     0.000 C 
ENDROOT
BRANCH   1   2
ATOM      2  C   UNL     1      -7.931 -39.362 -14.107  1.00  0.00     0.000 C 
BRANCH   2   3
ATOM      3  C   UNL     1      -9.014 -39.421 -15.199  1.00  0.00     0.000 C 
BRANCH   3   4
ATOM      4  C   UNL     1      -9.105 -38.126 -16.026  1.00  0.00     0.000 C 
BRANCH   4   5
ATOM      5  C   UNL     1      -7.862 -37.900 -16.903  1.00  0.00     0.000 C 
BRANCH   5   6
ATOM      6  C   UNL     1      -8.164 -38.020 -18.408  1.00  0.00     0.000 C 
BRANCH   6   7
ATOM      7  C   UNL     1      -7.352 -39.136 -19.087  1.00  0.00     0.000 C 
BRANCH   7   8
ATOM      8  C   UNL     1      -7.345 -40.481 -18.333  1.00  0.00     0.000 C 
BRANCH   8   9
ATOM      9  C   UNL     1      -5.928 -41.021 -18.036  1.00  0.00     0.000 C 
BRANCH   9  10
ATOM     10  C   UNL     1      -5.807 -41.574 -16.605  1.00  0.00     0.006 C 
BRANCH  10  11
ATOM     11  C   UNL     1      -4.535 -42.407 -16.408  1.00  0.00     0.053 C 
BRANCH  11  12
ATOM     12  C   UNL     1      -4.789 -43.606 -15.546  1.00  0.00     0.041 C 
ATOM     13  O   UNL     1      -4.680 -44.766 -16.027  1.00  0.00    -0.550 OA
ATOM     14  O   UNL     1      -5.177 -43.444 -14.223  1.00  0.00    -0.550 OA
ENDBRANCH  11  12
ENDBRANCH  10  11
ENDBRANCH   9  10
ENDBRANCH   8   9
ENDBRANCH   7   8
ENDBRANCH   6   7
ENDBRANCH   5   6
ENDBRANCH   4   5
ENDBRANCH   3   4
ENDBRANCH   2   3
ENDBRANCH   1   2
BRANCH   1  15
ATOM     15  C   UNL     1      -6.733 -40.755 -12.258  1.00  0.00     0.000 C 
BRANCH  15  16
ATOM     16  C   UNL     1      -6.574 -39.376 -11.588  1.00  0.00     0.000 C 
BRANCH  16  17
ATOM     17  C   UNL     1      -6.105 -39.422 -10.123  1.00  0.00     0.000 C 
BRANCH  17  18
ATOM     18  C   UNL     1      -7.276 -39.488  -9.128  1.00  0.00    -0.000 C 
BRANCH  18  19
ATOM     19  C   UNL     1      -7.634 -38.110  -8.548  1.00  0.00    -0.000 C 
BRANCH  19  20
ATOM     20  C   UNL     1      -8.632 -37.339  -9.431  1.00  0.00    -0.000 C 
BRANCH  20  21
ATOM     21  C   UNL     1      -8.522 -35.812  -9.230  1.00  0.00    -0.000 C 
BRANCH  21  22
ATOM     22  C   UNL     1      -7.912 -35.074 -10.434  1.00  0.00    -0.000 C 
BRANCH  22  23
ATOM     23  C   UNL     1      -6.390 -34.897 -10.317  1.00  0.00    -0.000 C 
BRANCH  23  24
ATOM     24  C   UNL     1      -5.964 -34.333  -8.952  1.00  0.00    -0.000 C 
BRANCH  24  25
ATOM     25  C   UNL     1      -4.806 -35.122  -8.322  1.00  0.00    -0.003 C 
ATOM     26  C   UNL     1      -4.467 -36.356  -9.155  1.00  0.00     0.004 C 
ENDBRANCH  24  25
ENDBRANCH  23  24
ENDBRANCH  22  23
ENDBRANCH  21  22
ENDBRANCH  20  21
ENDBRANCH  19  20
ENDBRANCH  18  19
ENDBRANCH  17  18
ENDBRANCH  16  17
ENDBRANCH  15  16
ENDBRANCH   1  15
TORSDOF 22
ENDMDL
