MODEL 1
REMARK VINA RESULT:    -6.047      0.000      0.000
REMARK INTER + INTRA:         -11.457
REMARK INTER:                  -9.229
REMARK INTRA:                  -2.228
REMARK UNBOUND:                -2.228
REMARK SMILES CC(=O)CCC=C(C)CCC=C(C)CCC=C(C)C
REMARK SMILES IDX 10 1 11 2 12 3 13 4 14 5 15 6 16 7 18 8 17 9 19 10 9 11 7 12
REMARK SMILES IDX 6 13 8 14 5 15 4 16 2 17 3 18 1 19
REMARK H PARENT
REMARK Flexibility Score: inf
ROOT
ATOM      1  C   UNL     1     -15.883  39.390  13.471  1.00  0.00     0.032 C 
ENDROOT
BRANCH   1   2
ATOM      2  C   UNL     1     -16.232  39.915  14.845  1.00  0.00    -0.028 C 
ATOM      3  C   UNL     1     -16.694  39.172  15.876  1.00  0.00    -0.077 C 
ATOM      4  C   UNL     1     -16.908  39.853  17.203  1.00  0.00     0.039 C 
BRANCH   3   5
ATOM      5  C   UNL     1     -17.017  37.692  15.756  1.00  0.00     0.034 C 
BRANCH   5   6
ATOM      6  C   UNL     1     -18.508  37.410  15.989  1.00  0.00     0.032 C 
BRANCH   6   7
ATOM      7  C   UNL     1     -19.276  37.360  14.689  1.00  0.00    -0.028 C 
ATOM      8  C   UNL     1     -21.107  36.768  13.163  1.00  0.00     0.039 C 
ATOM      9  C   UNL     1     -20.428  36.678  14.506  1.00  0.00    -0.080 C 
ATOM     10  C   UNL     1     -21.035  35.823  15.593  1.00  0.00     0.039 C 
ENDBRANCH   6   7
ENDBRANCH   5   6
ENDBRANCH   3   5
ENDBRANCH   1   2
BRANCH   1  11
ATOM     11  C   UNL     1     -17.140  39.220  12.609  1.00  0.00     0.034 C 
BRANCH  11  12
ATOM     12  C   UNL     1     -17.088  37.950  11.786  1.00  0.00    -0.077 C 
ATOM     13  C   UNL     1     -18.160  37.613  11.032  1.00  0.00    -0.028 C 
ATOM     14  C   UNL     1     -15.858  37.076  11.861  1.00  0.00     0.039 C 
BRANCH  13  15
ATOM     15  C   UNL     1     -18.240  36.381  10.165  1.00  0.00     0.035 C 
BRANCH  15  16
ATOM     16  C   UNL     1     -19.074  35.290  10.844  1.00  0.00     0.079 C 
BRANCH  16  17
ATOM     17  C   UNL     1     -18.185  34.309  11.559  1.00  0.00     0.130 C 
ATOM     18  O   UNL     1     -17.175  33.895  11.011  1.00  0.00    -0.300 OA
ATOM     19  C   UNL     1     -18.521  33.854  12.947  1.00  0.00     0.087 C 
ENDBRANCH  16  17
ENDBRANCH  15  16
ENDBRANCH  13  15
ENDBRANCH  11  12
ENDBRANCH   1  11
TORSDOF 9
ENDMDL
MODEL 2
REMARK VINA RESULT:    -5.959      1.737      2.816
REMARK INTER + INTRA:         -11.322
REMARK INTER:                  -9.001
REMARK INTRA:                  -2.321
REMARK UNBOUND:                -2.228
REMARK SMILES CC(=O)CCC=C(C)CCC=C(C)CCC=C(C)C
REMARK SMILES IDX 10 1 11 2 12 3 13 4 14 5 15 6 16 7 18 8 17 9 19 10 9 11 7 12
REMARK SMILES IDX 6 13 8 14 5 15 4 16 2 17 3 18 1 19
REMARK H PARENT
REMARK Flexibility Score: inf
ROOT
ATOM      1  C   UNL     1     -16.687  39.733  13.937  1.00  0.00     0.032 C 
ENDROOT
BRANCH   1   2
ATOM      2  C   UNL     1     -16.991  39.208  15.321  1.00  0.00    -0.028 C 
ATOM      3  C   UNL     1     -18.008  38.374  15.640  1.00  0.00    -0.077 C 
ATOM      4  C   UNL     1     -18.107  37.886  17.062  1.00  0.00     0.039 C 
BRANCH   3   5
ATOM      5  C   UNL     1     -19.054  37.919  14.637  1.00  0.00     0.034 C 
BRANCH   5   6
ATOM      6  C   UNL     1     -19.519  36.480  14.907  1.00  0.00     0.032 C 
BRANCH   6   7
ATOM      7  C   UNL     1     -19.505  35.645  13.649  1.00  0.00    -0.028 C 
ATOM      8  C   UNL     1     -18.608  34.086  11.976  1.00  0.00     0.039 C 
ATOM      9  C   UNL     1     -18.452  34.912  13.227  1.00  0.00    -0.080 C 
ATOM     10  C   UNL     1     -17.129  34.915  13.957  1.00  0.00     0.039 C 
ENDBRANCH   6   7
ENDBRANCH   5   6
ENDBRANCH   3   5
ENDBRANCH   1   2
BRANCH   1  11
ATOM     11  C   UNL     1     -15.446  39.051  13.349  1.00  0.00     0.034 C 
BRANCH  11  12
ATOM     12  C   UNL     1     -15.817  37.980  12.344  1.00  0.00    -0.077 C 
ATOM     13  C   UNL     1     -17.027  38.037  11.742  1.00  0.00    -0.028 C 
ATOM     14  C   UNL     1     -14.841  36.860  12.071  1.00  0.00     0.039 C 
BRANCH  13  15
ATOM     15  C   UNL     1     -17.522  37.041  10.723  1.00  0.00     0.035 C 
BRANCH  15  16
ATOM     16  C   UNL     1     -18.959  37.361  10.302  1.00  0.00     0.079 C 
BRANCH  16  17
ATOM     17  C   UNL     1     -19.172  37.040   8.848  1.00  0.00     0.130 C 
ATOM     18  O   UNL     1     -19.676  37.873   8.110  1.00  0.00    -0.300 OA
ATOM     19  C   UNL     1     -18.750  35.713   8.295  1.00  0.00     0.087 C 
ENDBRANCH  16  17
ENDBRANCH  15  16
ENDBRANCH  13  15
ENDBRANCH  11  12
ENDBRANCH   1  11
TORSDOF 9
ENDMDL
MODEL 3
REMARK VINA RESULT:    -5.693      2.204      5.979
REMARK INTER + INTRA:         -10.916
REMARK INTER:                  -8.947
REMARK INTRA:                  -1.969
REMARK UNBOUND:                -2.228
REMARK SMILES CC(=O)CCC=C(C)CCC=C(C)CCC=C(C)C
REMARK SMILES IDX 10 1 11 2 12 3 13 4 14 5 15 6 16 7 18 8 17 9 19 10 9 11 7 12
REMARK SMILES IDX 6 13 8 14 5 15 4 16 2 17 3 18 1 19
REMARK H PARENT
REMARK Flexibility Score: inf
ROOT
ATOM      1  C   UNL     1     -19.468  36.376  12.060  1.00  0.00     0.032 C 
ENDROOT
BRANCH   1   2
ATOM      2  C   UNL     1     -18.858  34.993  12.060  1.00  0.00    -0.028 C 
ATOM      3  C   UNL     1     -17.665  34.661  12.604  1.00  0.00    -0.077 C 
ATOM      4  C   UNL     1     -17.255  33.211  12.585  1.00  0.00     0.039 C 
BRANCH   3   5
ATOM      5  C   UNL     1     -16.720  35.678  13.220  1.00  0.00     0.034 C 
BRANCH   5   6
ATOM      6  C   UNL     1     -15.825  36.341  12.164  1.00  0.00     0.032 C 
BRANCH   6   7
ATOM      7  C   UNL     1     -15.173  37.597  12.694  1.00  0.00    -0.028 C 
ATOM      8  C   UNL     1     -15.028  39.937  13.426  1.00  0.00     0.039 C 
ATOM      9  C   UNL     1     -15.798  38.786  12.830  1.00  0.00    -0.080 C 
ATOM     10  C   UNL     1     -17.226  38.996  12.387  1.00  0.00     0.039 C 
ENDBRANCH   6   7
ENDBRANCH   5   6
ENDBRANCH   3   5
ENDBRANCH   1   2
BRANCH   1  11
ATOM     11  C   UNL     1     -20.667  36.451  13.013  1.00  0.00     0.034 C 
BRANCH  11  12
ATOM     12  C   UNL     1     -20.232  36.660  14.448  1.00  0.00    -0.077 C 
ATOM     13  C   UNL     1     -19.192  37.487  14.704  1.00  0.00    -0.028 C 
ATOM     14  C   UNL     1     -20.945  35.909  15.548  1.00  0.00     0.039 C 
BRANCH  13  15
ATOM     15  C   UNL     1     -18.659  37.786  16.083  1.00  0.00     0.035 C 
BRANCH  15  16
ATOM     16  C   UNL     1     -17.147  38.026  16.042  1.00  0.00     0.079 C 
BRANCH  16  17
ATOM     17  C   UNL     1     -16.777  39.238  16.852  1.00  0.00     0.130 C 
ATOM     18  O   UNL     1     -15.605  39.568  16.951  1.00  0.00    -0.300 OA
ATOM     19  C   UNL     1     -17.841  40.055  17.521  1.00  0.00     0.087 C 
ENDBRANCH  16  17
ENDBRANCH  15  16
ENDBRANCH  13  15
ENDBRANCH  11  12
ENDBRANCH   1  11
TORSDOF 9
ENDMDL
MODEL 4
REMARK VINA RESULT:    -5.635     16.039     18.805
REMARK INTER + INTRA:         -10.827
REMARK INTER:                  -8.629
REMARK INTRA:                  -2.198
REMARK UNBOUND:                -2.228
REMARK SMILES CC(=O)CCC=C(C)CCC=C(C)CCC=C(C)C
REMARK SMILES IDX 10 1 11 2 12 3 13 4 14 5 15 6 16 7 18 8 17 9 19 10 9 11 7 12
REMARK SMILES IDX 6 13 8 14 5 15 4 16 2 17 3 18 1 19
REMARK H PARENT
REMARK Flexibility Score: inf
ROOT
ATOM      1  C   UNL     1     -30.077  19.875  13.960  1.00  0.00     0.032 C 
ENDROOT
BRANCH   1   2
ATOM      2  C   UNL     1     -29.760  20.403  15.340  1.00  0.00    -0.028 C 
ATOM      3  C   UNL     1     -28.689  21.164  15.664  1.00  0.00    -0.077 C 
ATOM      4  C   UNL     1     -28.581  21.672  17.078  1.00  0.00     0.039 C 
BRANCH   3   5
ATOM      5  C   UNL     1     -27.592  21.517  14.675  1.00  0.00     0.034 C 
BRANCH   5   6
ATOM      6  C   UNL     1     -27.034  22.927  14.918  1.00  0.00     0.032 C 
BRANCH   6   7
ATOM      7  C   UNL     1     -27.133  23.787  13.679  1.00  0.00    -0.028 C 
ATOM      8  C   UNL     1     -28.165  25.331  12.072  1.00  0.00     0.039 C 
ATOM      9  C   UNL     1     -28.236  24.472  13.309  1.00  0.00    -0.080 C 
ATOM     10  C   UNL     1     -29.531  24.386  14.082  1.00  0.00     0.039 C 
ENDBRANCH   6   7
ENDBRANCH   5   6
ENDBRANCH   3   5
ENDBRANCH   1   2
BRANCH   1  11
ATOM     11  C   UNL     1     -31.307  20.576  13.370  1.00  0.00     0.034 C 
BRANCH  11  12
ATOM     12  C   UNL     1     -30.927  21.549  12.273  1.00  0.00    -0.077 C 
ATOM     13  C   UNL     1     -29.654  21.554  11.813  1.00  0.00    -0.028 C 
ATOM     14  C   UNL     1     -31.969  22.512  11.752  1.00  0.00     0.039 C 
BRANCH  13  15
ATOM     15  C   UNL     1     -29.144  22.466  10.726  1.00  0.00     0.035 C 
BRANCH  15  16
ATOM     16  C   UNL     1     -27.765  22.010  10.236  1.00  0.00     0.079 C 
BRANCH  16  17
ATOM     17  C   UNL     1     -27.518  22.480   8.829  1.00  0.00     0.130 C 
ATOM     18  O   UNL     1     -27.051  21.709   8.005  1.00  0.00    -0.300 OA
ATOM     19  C   UNL     1     -27.861  23.883   8.428  1.00  0.00     0.087 C 
ENDBRANCH  16  17
ENDBRANCH  15  16
ENDBRANCH  13  15
ENDBRANCH  11  12
ENDBRANCH   1  11
TORSDOF 9
ENDMDL
MODEL 5
REMARK VINA RESULT:    -5.577      1.462      4.162
REMARK INTER + INTRA:         -10.739
REMARK INTER:                  -9.317
REMARK INTRA:                  -1.423
REMARK UNBOUND:                -2.228
REMARK SMILES CC(=O)CCC=C(C)CCC=C(C)CCC=C(C)C
REMARK SMILES IDX 10 1 11 2 12 3 13 4 14 5 15 6 16 7 18 8 17 9 19 10 9 11 7 12
REMARK SMILES IDX 6 13 8 14 5 15 4 16 2 17 3 18 1 19
REMARK H PARENT
REMARK Flexibility Score: inf
ROOT
ATOM      1  C   UNL     1     -18.354  36.811  15.773  1.00  0.00     0.032 C 
ENDROOT
BRANCH   1   2
ATOM      2  C   UNL     1     -18.386  37.980  16.731  1.00  0.00    -0.028 C 
ATOM      3  C   UNL     1     -17.496  38.999  16.758  1.00  0.00    -0.077 C 
ATOM      4  C   UNL     1     -17.736  40.125  17.730  1.00  0.00     0.039 C 
BRANCH   3   5
ATOM      5  C   UNL     1     -16.268  39.053  15.867  1.00  0.00     0.034 C 
BRANCH   5   6
ATOM      6  C   UNL     1     -16.631  39.364  14.408  1.00  0.00     0.032 C 
BRANCH   6   7
ATOM      7  C   UNL     1     -16.217  38.246  13.480  1.00  0.00    -0.028 C 
ATOM      8  C   UNL     1     -14.815  37.061  11.848  1.00  0.00     0.039 C 
ATOM      9  C   UNL     1     -15.129  38.277  12.681  1.00  0.00    -0.080 C 
ATOM     10  C   UNL     1     -14.238  39.494  12.587  1.00  0.00     0.039 C 
ENDBRANCH   6   7
ENDBRANCH   5   6
ENDBRANCH   3   5
ENDBRANCH   1   2
BRANCH   1  11
ATOM     11  C   UNL     1     -19.769  36.427  15.324  1.00  0.00     0.034 C 
BRANCH  11  12
ATOM     12  C   UNL     1     -19.816  36.083  13.850  1.00  0.00    -0.077 C 
ATOM     13  C   UNL     1     -18.906  35.216  13.349  1.00  0.00    -0.028 C 
ATOM     14  C   UNL     1     -20.853  36.746  12.973  1.00  0.00     0.039 C 
BRANCH  13  15
ATOM     15  C   UNL     1     -18.841  34.784  11.906  1.00  0.00     0.035 C 
BRANCH  15  16
ATOM     16  C   UNL     1     -17.739  35.544  11.159  1.00  0.00     0.079 C 
BRANCH  16  17
ATOM     17  C   UNL     1     -18.314  36.711  10.405  1.00  0.00     0.130 C 
ATOM     18  O   UNL     1     -18.142  37.847  10.821  1.00  0.00    -0.300 OA
ATOM     19  C   UNL     1     -19.078  36.490   9.135  1.00  0.00     0.087 C 
ENDBRANCH  16  17
ENDBRANCH  15  16
ENDBRANCH  13  15
ENDBRANCH  11  12
ENDBRANCH   1  11
TORSDOF 9
ENDMDL
MODEL 6
REMARK VINA RESULT:    -5.466      1.921      4.077
REMARK INTER + INTRA:         -10.569
REMARK INTER:                  -8.439
REMARK INTRA:                  -2.130
REMARK UNBOUND:                -2.228
REMARK SMILES CC(=O)CCC=C(C)CCC=C(C)CCC=C(C)C
REMARK SMILES IDX 10 1 11 2 12 3 13 4 14 5 15 6 16 7 18 8 17 9 19 10 9 11 7 12
REMARK SMILES IDX 6 13 8 14 5 15 4 16 2 17 3 18 1 19
REMARK H PARENT
REMARK Flexibility Score: inf
ROOT
ATOM      1  C   UNL     1     -19.762  36.650  14.588  1.00  0.00     0.032 C 
ENDROOT
BRANCH   1   2
ATOM      2  C   UNL     1     -19.013  37.245  15.759  1.00  0.00    -0.028 C 
ATOM      3  C   UNL     1     -18.217  38.338  15.710  1.00  0.00    -0.077 C 
ATOM      4  C   UNL     1     -17.619  38.839  16.998  1.00  0.00     0.039 C 
BRANCH   3   5
ATOM      5  C   UNL     1     -17.892  39.072  14.420  1.00  0.00     0.034 C 
BRANCH   5   6
ATOM      6  C   UNL     1     -16.381  39.279  14.244  1.00  0.00     0.032 C 
BRANCH   6   7
ATOM      7  C   UNL     1     -15.876  38.641  12.971  1.00  0.00    -0.028 C 
ATOM      8  C   UNL     1     -15.227  36.822  11.453  1.00  0.00     0.039 C 
ATOM      9  C   UNL     1     -15.686  37.314  12.802  1.00  0.00    -0.080 C 
ATOM     10  C   UNL     1     -15.901  36.324  13.922  1.00  0.00     0.039 C 
ENDBRANCH   6   7
ENDBRANCH   5   6
ENDBRANCH   3   5
ENDBRANCH   1   2
BRANCH   1  11
ATOM     11  C   UNL     1     -19.300  35.214  14.310  1.00  0.00     0.034 C 
BRANCH  11  12
ATOM     12  C   UNL     1     -18.834  35.042  12.879  1.00  0.00    -0.077 C 
ATOM     13  C   UNL     1     -19.108  36.013  11.978  1.00  0.00    -0.028 C 
ATOM     14  C   UNL     1     -18.112  33.773  12.490  1.00  0.00     0.039 C 
BRANCH  13  15
ATOM     15  C   UNL     1     -18.702  35.971  10.527  1.00  0.00     0.035 C 
BRANCH  15  16
ATOM     16  C   UNL     1     -19.029  37.296   9.831  1.00  0.00     0.079 C 
BRANCH  16  17
ATOM     17  C   UNL     1     -19.258  37.083   8.360  1.00  0.00     0.130 C 
ATOM     18  O   UNL     1     -19.740  37.979   7.684  1.00  0.00    -0.300 OA
ATOM     19  C   UNL     1     -18.879  35.784   7.714  1.00  0.00     0.087 C 
ENDBRANCH  16  17
ENDBRANCH  15  16
ENDBRANCH  13  15
ENDBRANCH  11  12
ENDBRANCH   1  11
TORSDOF 9
ENDMDL
MODEL 7
REMARK VINA RESULT:    -5.462      2.119      4.089
REMARK INTER + INTRA:         -10.564
REMARK INTER:                  -8.790
REMARK INTRA:                  -1.774
REMARK UNBOUND:                -2.228
REMARK SMILES CC(=O)CCC=C(C)CCC=C(C)CCC=C(C)C
REMARK SMILES IDX 10 1 11 2 12 3 13 4 14 5 15 6 16 7 18 8 17 9 19 10 9 11 7 12
REMARK SMILES IDX 6 13 8 14 5 15 4 16 2 17 3 18 1 19
REMARK H PARENT
REMARK Flexibility Score: inf
ROOT
ATOM      1  C   UNL     1     -16.865  35.761  14.155  1.00  0.00     0.032 C 
ENDROOT
BRANCH   1   2
ATOM      2  C   UNL     1     -15.652  36.362  13.483  1.00  0.00    -0.028 C 
ATOM      3  C   UNL     1     -15.626  37.538  12.815  1.00  0.00    -0.077 C 
ATOM      4  C   UNL     1     -14.303  38.023  12.281  1.00  0.00     0.039 C 
BRANCH   3   5
ATOM      5  C   UNL     1     -16.865  38.382  12.568  1.00  0.00     0.034 C 
BRANCH   5   6
ATOM      6  C   UNL     1     -17.116  39.379  13.709  1.00  0.00     0.032 C 
BRANCH   6   7
ATOM      7  C   UNL     1     -17.877  38.743  14.849  1.00  0.00    -0.028 C 
ATOM      8  C   UNL     1     -18.320  38.036  17.159  1.00  0.00     0.039 C 
ATOM      9  C   UNL     1     -17.422  38.652  16.117  1.00  0.00    -0.080 C 
ATOM     10  C   UNL     1     -16.044  39.130  16.511  1.00  0.00     0.039 C 
ENDBRANCH   6   7
ENDBRANCH   5   6
ENDBRANCH   3   5
ENDBRANCH   1   2
BRANCH   1  11
ATOM     11  C   UNL     1     -17.302  34.470  13.452  1.00  0.00     0.034 C 
BRANCH  11  12
ATOM     12  C   UNL     1     -17.930  34.750  12.103  1.00  0.00    -0.077 C 
ATOM     13  C   UNL     1     -18.996  35.580  12.036  1.00  0.00    -0.028 C 
ATOM     14  C   UNL     1     -17.373  34.064  10.877  1.00  0.00     0.039 C 
BRANCH  13  15
ATOM     15  C   UNL     1     -19.714  35.947  10.761  1.00  0.00     0.035 C 
BRANCH  15  16
ATOM     16  C   UNL     1     -18.965  37.056  10.015  1.00  0.00     0.079 C 
BRANCH  16  17
ATOM     17  C   UNL     1     -19.174  36.933   8.530  1.00  0.00     0.130 C 
ATOM     18  O   UNL     1     -19.681  37.856   7.910  1.00  0.00    -0.300 OA
ATOM     19  C   UNL     1     -18.744  35.695   7.804  1.00  0.00     0.087 C 
ENDBRANCH  16  17
ENDBRANCH  15  16
ENDBRANCH  13  15
ENDBRANCH  11  12
ENDBRANCH   1  11
TORSDOF 9
ENDMDL
MODEL 8
REMARK VINA RESULT:    -5.279      1.893      4.577
REMARK INTER + INTRA:         -10.284
REMARK INTER:                  -8.505
REMARK INTRA:                  -1.779
REMARK UNBOUND:                -2.228
REMARK SMILES CC(=O)CCC=C(C)CCC=C(C)CCC=C(C)C
REMARK SMILES IDX 10 1 11 2 12 3 13 4 14 5 15 6 16 7 18 8 17 9 19 10 9 11 7 12
REMARK SMILES IDX 6 13 8 14 5 15 4 16 2 17 3 18 1 19
REMARK H PARENT
REMARK Flexibility Score: inf
ROOT
ATOM      1  C   UNL     1     -16.294  40.047  13.813  1.00  0.00     0.032 C 
ENDROOT
BRANCH   1   2
ATOM      2  C   UNL     1     -14.961  39.984  13.105  1.00  0.00    -0.028 C 
ATOM      3  C   UNL     1     -14.382  38.863  12.616  1.00  0.00    -0.077 C 
ATOM      4  C   UNL     1     -13.086  39.003  11.862  1.00  0.00     0.039 C 
BRANCH   3   5
ATOM      5  C   UNL     1     -14.971  37.475  12.802  1.00  0.00     0.034 C 
BRANCH   5   6
ATOM      6  C   UNL     1     -16.194  37.246  11.903  1.00  0.00     0.032 C 
BRANCH   6   7
ATOM      7  C   UNL     1     -16.859  35.921  12.193  1.00  0.00    -0.028 C 
ATOM      8  C   UNL     1     -18.449  34.072  11.894  1.00  0.00     0.039 C 
ATOM      9  C   UNL     1     -17.929  35.438  11.525  1.00  0.00    -0.080 C 
ATOM     10  C   UNL     1     -18.623  36.231  10.442  1.00  0.00     0.039 C 
ENDBRANCH   6   7
ENDBRANCH   5   6
ENDBRANCH   3   5
ENDBRANCH   1   2
BRANCH   1  11
ATOM     11  C   UNL     1     -16.109  40.119  15.334  1.00  0.00     0.034 C 
BRANCH  11  12
ATOM     12  C   UNL     1     -17.085  39.218  16.061  1.00  0.00    -0.077 C 
ATOM     13  C   UNL     1     -17.583  38.137  15.419  1.00  0.00    -0.028 C 
ATOM     14  C   UNL     1     -17.503  39.574  17.469  1.00  0.00     0.039 C 
BRANCH  13  15
ATOM     15  C   UNL     1     -18.557  37.157  16.025  1.00  0.00     0.035 C 
BRANCH  15  16
ATOM     16  C   UNL     1     -19.017  36.132  14.984  1.00  0.00     0.079 C 
BRANCH  16  17
ATOM     17  C   UNL     1     -20.488  36.281  14.704  1.00  0.00     0.130 C 
ATOM     18  O   UNL     1     -21.301  36.011  15.574  1.00  0.00    -0.300 OA
ATOM     19  C   UNL     1     -20.959  36.780  13.372  1.00  0.00     0.087 C 
ENDBRANCH  16  17
ENDBRANCH  15  16
ENDBRANCH  13  15
ENDBRANCH  11  12
ENDBRANCH   1  11
TORSDOF 9
ENDMDL
MODEL 9
REMARK VINA RESULT:    -3.352     15.651     18.661
REMARK INTER + INTRA:          -7.343
REMARK INTER:                  -4.894
REMARK INTRA:                  -2.449
REMARK UNBOUND:                -2.228
REMARK SMILES CC(=O)CCC=C(C)CCC=C(C)CCC=C(C)C
REMARK SMILES IDX 10 1 11 2 12 3 13 4 14 5 15 6 16 7 18 8 17 9 19 10 9 11 7 12
REMARK SMILES IDX 6 13 8 14 5 15 4 16 2 17 3 18 1 19
REMARK H PARENT
REMARK Flexibility Score: inf
ROOT
ATOM      1  C   UNL     1     -30.854  20.307  13.302  1.00  0.00     0.032 C 
ENDROOT
BRANCH   1   2
ATOM      2  C   UNL     1     -30.448  19.875  14.692  1.00  0.00    -0.028 C 
ATOM      3  C   UNL     1     -29.966  20.690  15.659  1.00  0.00    -0.077 C 
ATOM      4  C   UNL     1     -29.693  20.096  17.017  1.00  0.00     0.039 C 
BRANCH   3   5
ATOM      5  C   UNL     1     -29.680  22.164  15.437  1.00  0.00     0.034 C 
BRANCH   5   6
ATOM      6  C   UNL     1     -28.222  22.520  15.762  1.00  0.00     0.032 C 
BRANCH   6   7
ATOM      7  C   UNL     1     -27.332  22.390  14.548  1.00  0.00    -0.028 C 
ATOM      8  C   UNL     1     -25.302  22.654  13.191  1.00  0.00     0.039 C 
ATOM      9  C   UNL     1     -26.091  22.914  14.449  1.00  0.00    -0.080 C 
ATOM     10  C   UNL     1     -25.487  23.760  15.545  1.00  0.00     0.039 C 
ENDBRANCH   6   7
ENDBRANCH   5   6
ENDBRANCH   3   5
ENDBRANCH   1   2
BRANCH   1  11
ATOM     11  C   UNL     1     -29.638  20.389  12.371  1.00  0.00     0.034 C 
BRANCH  11  12
ATOM     12  C   UNL     1     -29.604  21.696  11.606  1.00  0.00    -0.077 C 
ATOM     13  C   UNL     1     -28.478  22.034  10.938  1.00  0.00    -0.028 C 
ATOM     14  C   UNL     1     -30.813  22.601  11.644  1.00  0.00     0.039 C 
BRANCH  13  15
ATOM     15  C   UNL     1     -28.309  23.300  10.136  1.00  0.00     0.035 C 
BRANCH  15  16
ATOM     16  C   UNL     1     -27.525  24.349  10.931  1.00  0.00     0.079 C 
BRANCH  16  17
ATOM     17  C   UNL     1     -28.461  25.290  11.638  1.00  0.00     0.130 C 
ATOM     18  O   UNL     1     -29.423  25.751  11.043  1.00  0.00    -0.300 OA
ATOM     19  C   UNL     1     -28.232  25.649  13.075  1.00  0.00     0.087 C 
ENDBRANCH  16  17
ENDBRANCH  15  16
ENDBRANCH  13  15
ENDBRANCH  11  12
ENDBRANCH   1  11
TORSDOF 9
ENDMDL
