MODEL 1
REMARK VINA RESULT:    -5.676      0.000      0.000
REMARK INTER + INTRA:          -6.340
REMARK INTER:                  -6.340
REMARK INTRA:                   0.000
REMARK UNBOUND:                 0.000
REMARK SMILES Oc1cc(O)c2c(c1)CCc1cc(O)c(O)cc1-2
REMARK SMILES IDX 10 1 9 2 7 3 6 4 18 5 17 6 15 7 13 8 12 9 11 10 4 11 3 12
REMARK SMILES IDX 2 13 8 14 14 15 5 17 1 19 16 21
REMARK H PARENT 14 16 5 18 1 20 16 22
REMARK Flexibility Score: inf
ROOT
ATOM      1  C   UNL     1    -103.943  22.243  11.875  1.00  0.00     0.041 C 
ATOM      2  C   UNL     1    -102.907  23.199  12.478  1.00  0.00     0.041 C 
ATOM      3  C   UNL     1    -103.358  23.684  13.834  1.00  0.00    -0.032 A 
ATOM      4  C   UNL     1    -104.069  22.815  14.697  1.00  0.00     0.027 A 
ATOM      5  C   UNL     1    -104.321  21.412  14.232  1.00  0.00    -0.007 A 
ATOM      6  C   UNL     1    -104.517  20.341  15.126  1.00  0.00     0.059 A 
ATOM      7  C   UNL     1    -104.756  19.044  14.650  1.00  0.00     0.158 A 
ATOM      8  C   UNL     1    -104.773  18.798  13.269  1.00  0.00     0.157 A 
ATOM      9  C   UNL     1    -104.521  19.842  12.376  1.00  0.00     0.054 A 
ATOM     10  C   UNL     1    -104.263  21.136  12.847  1.00  0.00    -0.036 A 
ATOM     11  C   UNL     1    -104.569  23.329  15.919  1.00  0.00     0.127 A 
ATOM     12  C   UNL     1    -104.245  24.636  16.311  1.00  0.00     0.093 A 
ATOM     13  C   UNL     1    -103.477  25.458  15.488  1.00  0.00     0.119 A 
ATOM     14  C   UNL     1    -103.041  24.985  14.248  1.00  0.00     0.050 A 
ENDROOT
BRANCH   8  15
ATOM     15  O   UNL     1    -105.025  17.523  12.767  1.00  0.00    -0.504 OA
ATOM     16  H   UNL     1    -105.953  17.228  12.486  1.00  0.00     0.293 HD
ENDBRANCH   8  15
BRANCH  11  17
ATOM     17  O   UNL     1    -105.415  22.572  16.726  1.00  0.00    -0.507 OA
ATOM     18  H   UNL     1    -105.204  22.391  17.702  1.00  0.00     0.293 HD
ENDBRANCH  11  17
BRANCH  13  19
ATOM     19  O   UNL     1    -103.163  26.750  15.905  1.00  0.00    -0.508 OA
ATOM     20  H   UNL     1    -102.206  27.032  16.086  1.00  0.00     0.293 HD
ENDBRANCH  13  19
BRANCH   7  21
ATOM     21  O   UNL     1    -104.967  17.998  15.546  1.00  0.00    -0.504 OA
ATOM     22  H   UNL     1    -105.572  18.102  16.354  1.00  0.00     0.293 HD
ENDBRANCH   7  21
TORSDOF 4
ENDMDL
MODEL 2
REMARK VINA RESULT:    -5.384     10.223     11.663
REMARK INTER + INTRA:          -6.013
REMARK INTER:                  -6.013
REMARK INTRA:                   0.000
REMARK UNBOUND:                 0.000
REMARK SMILES Oc1cc(O)c2c(c1)CCc1cc(O)c(O)cc1-2
REMARK SMILES IDX 10 1 9 2 7 3 6 4 18 5 17 6 15 7 13 8 12 9 11 10 4 11 3 12
REMARK SMILES IDX 2 13 8 14 14 15 5 17 1 19 16 21
REMARK H PARENT 14 16 5 18 1 20 16 22
REMARK Flexibility Score: inf
ROOT
ATOM      1  C   UNL     1    -111.836  21.702  24.158  1.00  0.00     0.041 C 
ATOM      2  C   UNL     1    -111.199  22.341  25.398  1.00  0.00     0.041 C 
ATOM      3  C   UNL     1    -109.786  22.780  25.103  1.00  0.00    -0.032 A 
ATOM      4  C   UNL     1    -109.456  23.293  23.824  1.00  0.00     0.027 A 
ATOM      5  C   UNL     1    -110.552  23.410  22.808  1.00  0.00    -0.007 A 
ATOM      6  C   UNL     1    -110.509  24.341  21.751  1.00  0.00     0.059 A 
ATOM      7  C   UNL     1    -111.552  24.415  20.818  1.00  0.00     0.158 A 
ATOM      8  C   UNL     1    -112.668  23.575  20.948  1.00  0.00     0.157 A 
ATOM      9  C   UNL     1    -112.747  22.690  22.026  1.00  0.00     0.054 A 
ATOM     10  C   UNL     1    -111.716  22.626  22.972  1.00  0.00    -0.036 A 
ATOM     11  C   UNL     1    -108.102  23.599  23.544  1.00  0.00     0.127 A 
ATOM     12  C   UNL     1    -107.141  23.517  24.562  1.00  0.00     0.093 A 
ATOM     13  C   UNL     1    -107.493  23.085  25.841  1.00  0.00     0.119 A 
ATOM     14  C   UNL     1    -108.812  22.710  26.108  1.00  0.00     0.050 A 
ENDROOT
BRANCH   8  15
ATOM     15  O   UNL     1    -113.712  23.614  20.026  1.00  0.00    -0.504 OA
ATOM     16  H   UNL     1    -114.464  22.935  20.033  1.00  0.00     0.293 HD
ENDBRANCH   8  15
BRANCH  11  17
ATOM     17  O   UNL     1    -107.692  23.945  22.257  1.00  0.00    -0.507 OA
ATOM     18  H   UNL     1    -107.782  23.304  21.477  1.00  0.00     0.293 HD
ENDBRANCH  11  17
BRANCH  13  19
ATOM     19  O   UNL     1    -106.521  23.019  26.836  1.00  0.00    -0.508 OA
ATOM     20  H   UNL     1    -105.652  22.514  26.698  1.00  0.00     0.293 HD
ENDBRANCH  13  19
BRANCH   7  21
ATOM     21  O   UNL     1    -111.488  25.328  19.767  1.00  0.00    -0.504 OA
ATOM     22  H   UNL     1    -111.061  25.088  18.879  1.00  0.00     0.293 HD
ENDBRANCH   7  21
TORSDOF 4
ENDMDL
MODEL 3
REMARK VINA RESULT:    -4.987      4.511      5.700
REMARK INTER + INTRA:          -5.570
REMARK INTER:                  -5.570
REMARK INTRA:                   0.000
REMARK UNBOUND:                 0.000
REMARK SMILES Oc1cc(O)c2c(c1)CCc1cc(O)c(O)cc1-2
REMARK SMILES IDX 10 1 9 2 7 3 6 4 18 5 17 6 15 7 13 8 12 9 11 10 4 11 3 12
REMARK SMILES IDX 2 13 8 14 14 15 5 17 1 19 16 21
REMARK H PARENT 14 16 5 18 1 20 16 22
REMARK Flexibility Score: inf
ROOT
ATOM      1  C   UNL     1    -105.170  23.865  17.467  1.00  0.00     0.041 C 
ATOM      2  C   UNL     1    -106.279  23.873  16.408  1.00  0.00     0.041 C 
ATOM      3  C   UNL     1    -106.280  25.178  15.651  1.00  0.00    -0.032 A 
ATOM      4  C   UNL     1    -105.057  25.831  15.363  1.00  0.00     0.027 A 
ATOM      5  C   UNL     1    -103.785  25.171  15.804  1.00  0.00    -0.007 A 
ATOM      6  C   UNL     1    -102.551  25.398  15.164  1.00  0.00     0.059 A 
ATOM      7  C   UNL     1    -101.383  24.765  15.611  1.00  0.00     0.158 A 
ATOM      8  C   UNL     1    -101.442  23.871  16.691  1.00  0.00     0.157 A 
ATOM      9  C   UNL     1    -102.670  23.594  17.295  1.00  0.00     0.054 A 
ATOM     10  C   UNL     1    -103.844  24.210  16.839  1.00  0.00    -0.036 A 
ATOM     11  C   UNL     1    -105.095  27.104  14.742  1.00  0.00     0.127 A 
ATOM     12  C   UNL     1    -106.319  27.634  14.309  1.00  0.00     0.093 A 
ATOM     13  C   UNL     1    -107.511  26.944  14.527  1.00  0.00     0.119 A 
ATOM     14  C   UNL     1    -107.492  25.722  15.204  1.00  0.00     0.050 A 
ENDROOT
BRANCH   8  15
ATOM     15  O   UNL     1    -100.294  23.240  17.168  1.00  0.00    -0.504 OA
ATOM     16  H   UNL     1    -100.298  22.683  18.014  1.00  0.00     0.293 HD
ENDBRANCH   8  15
BRANCH  11  17
ATOM     17  O   UNL     1    -103.938  27.866  14.589  1.00  0.00    -0.507 OA
ATOM     18  H   UNL     1    -103.029  27.438  14.452  1.00  0.00     0.293 HD
ENDBRANCH  11  17
BRANCH  13  19
ATOM     19  O   UNL     1    -108.713  27.489  14.079  1.00  0.00    -0.508 OA
ATOM     20  H   UNL     1    -108.921  27.576  13.091  1.00  0.00     0.293 HD
ENDBRANCH  13  19
BRANCH   7  21
ATOM     21  O   UNL     1    -100.166  25.014  14.979  1.00  0.00    -0.504 OA
ATOM     22  H   UNL     1     -99.796  25.953  14.888  1.00  0.00     0.293 HD
ENDBRANCH   7  21
TORSDOF 4
ENDMDL
MODEL 4
REMARK VINA RESULT:    -4.842      1.763      6.055
REMARK INTER + INTRA:          -5.408
REMARK INTER:                  -5.408
REMARK INTRA:                   0.000
REMARK UNBOUND:                 0.000
REMARK SMILES Oc1cc(O)c2c(c1)CCc1cc(O)c(O)cc1-2
REMARK SMILES IDX 10 1 9 2 7 3 6 4 18 5 17 6 15 7 13 8 12 9 11 10 4 11 3 12
REMARK SMILES IDX 2 13 8 14 14 15 5 17 1 19 16 21
REMARK H PARENT 14 16 5 18 1 20 16 22
REMARK Flexibility Score: inf
ROOT
ATOM      1  C   UNL     1    -106.386  23.355  16.567  1.00  0.00     0.041 C 
ATOM      2  C   UNL     1    -106.385  21.838  16.793  1.00  0.00     0.041 C 
ATOM      3  C   UNL     1    -105.956  21.115  15.539  1.00  0.00    -0.032 A 
ATOM      4  C   UNL     1    -104.967  21.681  14.698  1.00  0.00     0.027 A 
ATOM      5  C   UNL     1    -104.353  22.985  15.111  1.00  0.00    -0.007 A 
ATOM      6  C   UNL     1    -103.064  23.379  14.702  1.00  0.00     0.059 A 
ATOM      7  C   UNL     1    -102.527  24.609  15.107  1.00  0.00     0.158 A 
ATOM      8  C   UNL     1    -103.266  25.450  15.953  1.00  0.00     0.157 A 
ATOM      9  C   UNL     1    -104.520  25.043  16.411  1.00  0.00     0.054 A 
ATOM     10  C   UNL     1    -105.053  23.805  16.025  1.00  0.00    -0.036 A 
ATOM     11  C   UNL     1    -104.660  21.032  13.477  1.00  0.00     0.127 A 
ATOM     12  C   UNL     1    -105.236  19.787  13.184  1.00  0.00     0.093 A 
ATOM     13  C   UNL     1    -106.150  19.201  14.058  1.00  0.00     0.119 A 
ATOM     14  C   UNL     1    -106.515  19.868  15.230  1.00  0.00     0.050 A 
ENDROOT
BRANCH   8  15
ATOM     15  O   UNL     1    -102.765  26.687  16.357  1.00  0.00    -0.504 OA
ATOM     16  H   UNL     1    -101.782  26.832  16.550  1.00  0.00     0.293 HD
ENDBRANCH   8  15
BRANCH  11  17
ATOM     17  O   UNL     1    -103.824  21.627  12.534  1.00  0.00    -0.507 OA
ATOM     18  H   UNL     1    -103.626  21.189  11.642  1.00  0.00     0.293 HD
ENDBRANCH  11  17
BRANCH  13  19
ATOM     19  O   UNL     1    -106.701  17.960  13.746  1.00  0.00    -0.508 OA
ATOM     20  H   UNL     1    -106.500  17.135  14.301  1.00  0.00     0.293 HD
ENDBRANCH  13  19
BRANCH   7  21
ATOM     21  O   UNL     1    -101.258  24.994  14.679  1.00  0.00    -0.504 OA
ATOM     22  H   UNL     1    -100.934  24.806  13.736  1.00  0.00     0.293 HD
ENDBRANCH   7  21
TORSDOF 4
ENDMDL
MODEL 5
REMARK VINA RESULT:    -4.815      2.903      4.110
REMARK INTER + INTRA:          -5.377
REMARK INTER:                  -5.377
REMARK INTRA:                   0.000
REMARK UNBOUND:                 0.000
REMARK SMILES Oc1cc(O)c2c(c1)CCc1cc(O)c(O)cc1-2
REMARK SMILES IDX 10 1 9 2 7 3 6 4 18 5 17 6 15 7 13 8 12 9 11 10 4 11 3 12
REMARK SMILES IDX 2 13 8 14 14 15 5 17 1 19 16 21
REMARK H PARENT 14 16 5 18 1 20 16 22
REMARK Flexibility Score: inf
ROOT
ATOM      1  C   UNL     1    -105.841  21.337  14.688  1.00  0.00     0.041 C 
ATOM      2  C   UNL     1    -104.314  21.467  14.707  1.00  0.00     0.041 C 
ATOM      3  C   UNL     1    -103.904  22.840  15.180  1.00  0.00    -0.032 A 
ATOM      4  C   UNL     1    -104.658  23.498  16.183  1.00  0.00     0.027 A 
ATOM      5  C   UNL     1    -105.836  22.777  16.765  1.00  0.00    -0.007 A 
ATOM      6  C   UNL     1    -106.326  23.045  18.059  1.00  0.00     0.059 A 
ATOM      7  C   UNL     1    -107.434  22.352  18.565  1.00  0.00     0.158 A 
ATOM      8  C   UNL     1    -108.050  21.357  17.790  1.00  0.00     0.157 A 
ATOM      9  C   UNL     1    -107.536  21.043  16.531  1.00  0.00     0.054 A 
ATOM     10  C   UNL     1    -106.416  21.720  16.028  1.00  0.00    -0.036 A 
ATOM     11  C   UNL     1    -104.311  24.826  16.533  1.00  0.00     0.127 A 
ATOM     12  C   UNL     1    -103.163  25.416  15.985  1.00  0.00     0.093 A 
ATOM     13  C   UNL     1    -102.382  24.728  15.057  1.00  0.00     0.119 A 
ATOM     14  C   UNL     1    -102.757  23.445  14.650  1.00  0.00     0.050 A 
ENDROOT
BRANCH   8  15
ATOM     15  O   UNL     1    -109.164  20.664  18.261  1.00  0.00    -0.504 OA
ATOM     16  H   UNL     1    -109.282  19.669  18.110  1.00  0.00     0.293 HD
ENDBRANCH   8  15
BRANCH  11  17
ATOM     17  O   UNL     1    -105.116  25.581  17.385  1.00  0.00    -0.507 OA
ATOM     18  H   UNL     1    -105.865  25.161  17.924  1.00  0.00     0.293 HD
ENDBRANCH  11  17
BRANCH  13  19
ATOM     19  O   UNL     1    -101.242  25.334  14.533  1.00  0.00    -0.508 OA
ATOM     20  H   UNL     1    -100.449  25.569  15.119  1.00  0.00     0.293 HD
ENDBRANCH  13  19
BRANCH   7  21
ATOM     21  O   UNL     1    -107.918  22.641  19.839  1.00  0.00    -0.504 OA
ATOM     22  H   UNL     1    -107.853  23.572  20.235  1.00  0.00     0.293 HD
ENDBRANCH   7  21
TORSDOF 4
ENDMDL
MODEL 6
REMARK VINA RESULT:    -4.795      1.701      5.614
REMARK INTER + INTRA:          -5.356
REMARK INTER:                  -5.356
REMARK INTRA:                   0.000
REMARK UNBOUND:                 0.000
REMARK SMILES Oc1cc(O)c2c(c1)CCc1cc(O)c(O)cc1-2
REMARK SMILES IDX 10 1 9 2 7 3 6 4 18 5 17 6 15 7 13 8 12 9 11 10 4 11 3 12
REMARK SMILES IDX 2 13 8 14 14 15 5 17 1 19 16 21
REMARK H PARENT 14 16 5 18 1 20 16 22
REMARK Flexibility Score: inf
ROOT
ATOM      1  C   UNL     1    -104.779  21.631  12.168  1.00  0.00     0.041 C 
ATOM      2  C   UNL     1    -105.939  20.739  12.625  1.00  0.00     0.041 C 
ATOM      3  C   UNL     1    -105.455  19.701  13.606  1.00  0.00    -0.032 A 
ATOM      4  C   UNL     1    -104.435  20.023  14.535  1.00  0.00     0.027 A 
ATOM      5  C   UNL     1    -103.890  21.419  14.525  1.00  0.00    -0.007 A 
ATOM      6  C   UNL     1    -103.306  22.013  15.661  1.00  0.00     0.059 A 
ATOM      7  C   UNL     1    -102.802  23.321  15.608  1.00  0.00     0.158 A 
ATOM      8  C   UNL     1    -102.904  24.062  14.421  1.00  0.00     0.157 A 
ATOM      9  C   UNL     1    -103.534  23.504  13.307  1.00  0.00     0.054 A 
ATOM     10  C   UNL     1    -104.056  22.204  13.361  1.00  0.00    -0.036 A 
ATOM     11  C   UNL     1    -103.930  18.999  15.373  1.00  0.00     0.127 A 
ATOM     12  C   UNL     1    -104.528  17.730  15.364  1.00  0.00     0.093 A 
ATOM     13  C   UNL     1    -105.585  17.447  14.501  1.00  0.00     0.119 A 
ATOM     14  C   UNL     1    -106.043  18.428  13.618  1.00  0.00     0.050 A 
ENDROOT
BRANCH   8  15
ATOM     15  O   UNL     1    -102.397  25.358  14.335  1.00  0.00    -0.504 OA
ATOM     16  H   UNL     1    -102.021  25.733  13.472  1.00  0.00     0.293 HD
ENDBRANCH   8  15
BRANCH  11  17
ATOM     17  O   UNL     1    -102.816  19.214  16.183  1.00  0.00    -0.507 OA
ATOM     18  H   UNL     1    -102.119  19.915  15.958  1.00  0.00     0.293 HD
ENDBRANCH  11  17
BRANCH  13  19
ATOM     19  O   UNL     1    -106.166  16.180  14.518  1.00  0.00    -0.508 OA
ATOM     20  H   UNL     1    -106.910  15.929  13.876  1.00  0.00     0.293 HD
ENDBRANCH  13  19
BRANCH   7  21
ATOM     21  O   UNL     1    -102.210  23.888  16.735  1.00  0.00    -0.504 OA
ATOM     22  H   UNL     1    -101.269  24.265  16.709  1.00  0.00     0.293 HD
ENDBRANCH   7  21
TORSDOF 4
ENDMDL
MODEL 7
REMARK VINA RESULT:    -4.639      2.399      3.299
REMARK INTER + INTRA:          -5.182
REMARK INTER:                  -5.182
REMARK INTRA:                   0.000
REMARK UNBOUND:                 0.000
REMARK SMILES Oc1cc(O)c2c(c1)CCc1cc(O)c(O)cc1-2
REMARK SMILES IDX 10 1 9 2 7 3 6 4 18 5 17 6 15 7 13 8 12 9 11 10 4 11 3 12
REMARK SMILES IDX 2 13 8 14 14 15 5 17 1 19 16 21
REMARK H PARENT 14 16 5 18 1 20 16 22
REMARK Flexibility Score: inf
ROOT
ATOM      1  C   UNL     1    -103.556  22.624  14.676  1.00  0.00     0.041 C 
ATOM      2  C   UNL     1    -103.047  23.451  15.863  1.00  0.00     0.041 C 
ATOM      3  C   UNL     1    -103.793  24.759  15.957  1.00  0.00    -0.032 A 
ATOM      4  C   UNL     1    -105.169  24.816  15.625  1.00  0.00     0.027 A 
ATOM      5  C   UNL     1    -105.848  23.544  15.216  1.00  0.00    -0.007 A 
ATOM      6  C   UNL     1    -107.233  23.339  15.372  1.00  0.00     0.059 A 
ATOM      7  C   UNL     1    -107.831  22.136  14.971  1.00  0.00     0.158 A 
ATOM      8  C   UNL     1    -107.041  21.108  14.434  1.00  0.00     0.157 A 
ATOM      9  C   UNL     1    -105.659  21.278  14.330  1.00  0.00     0.054 A 
ATOM     10  C   UNL     1    -105.054  22.472  14.747  1.00  0.00    -0.036 A 
ATOM     11  C   UNL     1    -105.816  26.076  15.624  1.00  0.00     0.127 A 
ATOM     12  C   UNL     1    -105.130  27.214  16.071  1.00  0.00     0.093 A 
ATOM     13  C   UNL     1    -103.797  27.132  16.472  1.00  0.00     0.119 A 
ATOM     14  C   UNL     1    -103.128  25.907  16.407  1.00  0.00     0.050 A 
ENDROOT
BRANCH   8  15
ATOM     15  O   UNL     1    -107.610  19.908  14.011  1.00  0.00    -0.504 OA
ATOM     16  H   UNL     1    -108.595  19.705  14.137  1.00  0.00     0.293 HD
ENDBRANCH   8  15
BRANCH  11  17
ATOM     17  O   UNL     1    -107.117  26.217  15.145  1.00  0.00    -0.507 OA
ATOM     18  H   UNL     1    -107.332  26.162  14.155  1.00  0.00     0.293 HD
ENDBRANCH  11  17
BRANCH  13  19
ATOM     19  O   UNL     1    -103.141  28.277  16.919  1.00  0.00    -0.508 OA
ATOM     20  H   UNL     1    -102.183  28.476  16.656  1.00  0.00     0.293 HD
ENDBRANCH  13  19
BRANCH   7  21
ATOM     21  O   UNL     1    -109.205  21.956  15.114  1.00  0.00    -0.504 OA
ATOM     22  H   UNL     1    -109.775  22.606  15.643  1.00  0.00     0.293 HD
ENDBRANCH   7  21
TORSDOF 4
ENDMDL
