MODEL 1
REMARK VINA RESULT:    -5.953      0.000      0.000
REMARK INTER + INTRA:         -10.388
REMARK INTER:                  -9.086
REMARK INTRA:                  -1.302
REMARK UNBOUND:                -1.302
REMARK SMILES CC(=O)CCC=C(C)CCC=C(C)CCC=C(C)C
REMARK SMILES IDX 10 1 11 2 12 3 13 4 14 5 15 6 16 7 18 8 17 9 19 10 9 11 7 12
REMARK SMILES IDX 6 13 8 14 5 15 4 16 2 17 3 18 1 19
REMARK H PARENT
REMARK Flexibility Score: inf
ROOT
ATOM      1  C   UNL     1     -23.729  17.778 -31.911  1.00  0.00     0.032 C 
ENDROOT
BRANCH   1   2
ATOM      2  C   UNL     1     -24.879  17.043 -31.271  1.00  0.00    -0.028 C 
ATOM      3  C   UNL     1     -24.896  15.713 -31.022  1.00  0.00    -0.077 C 
ATOM      4  C   UNL     1     -23.708  14.831 -31.328  1.00  0.00     0.039 C 
BRANCH   3   5
ATOM      5  C   UNL     1     -26.135  15.096 -30.412  1.00  0.00     0.034 C 
BRANCH   5   6
ATOM      6  C   UNL     1     -26.323  13.653 -30.895  1.00  0.00     0.032 C 
BRANCH   6   7
ATOM      7  C   UNL     1     -27.780  13.256 -30.885  1.00  0.00    -0.028 C 
ATOM      8  C   UNL     1     -29.806  12.202 -29.927  1.00  0.00     0.039 C 
ATOM      9  C   UNL     1     -28.344  12.562 -29.873  1.00  0.00    -0.080 C 
ATOM     10  C   UNL     1     -27.548  12.133 -28.666  1.00  0.00     0.039 C 
ENDBRANCH   6   7
ENDBRANCH   5   6
ENDBRANCH   3   5
ENDBRANCH   1   2
BRANCH   1  11
ATOM     11  C   UNL     1     -24.083  18.201 -33.341  1.00  0.00     0.034 C 
BRANCH  11  12
ATOM     12  C   UNL     1     -24.129  19.712 -33.454  1.00  0.00    -0.077 C 
ATOM     13  C   UNL     1     -25.195  20.382 -33.946  1.00  0.00    -0.028 C 
ATOM     14  C   UNL     1     -22.963  20.508 -32.927  1.00  0.00     0.039 C 
BRANCH  13  15
ATOM     15  C   UNL     1     -26.429  19.738 -34.532  1.00  0.00     0.035 C 
BRANCH  15  16
ATOM     16  C   UNL     1     -27.710  20.257 -33.864  1.00  0.00     0.079 C 
BRANCH  16  17
ATOM     17  C   UNL     1     -28.392  19.180 -33.060  1.00  0.00     0.130 C 
ATOM     18  O   UNL     1     -29.331  19.472 -32.335  1.00  0.00    -0.300 OA
ATOM     19  C   UNL     1     -27.941  17.751 -33.132  1.00  0.00     0.087 C 
ENDBRANCH  16  17
ENDBRANCH  15  16
ENDBRANCH  13  15
ENDBRANCH  11  12
ENDBRANCH   1  11
TORSDOF 9
ENDMDL
MODEL 2
REMARK VINA RESULT:    -5.894      2.021      3.450
REMARK INTER + INTRA:         -10.298
REMARK INTER:                  -9.118
REMARK INTRA:                  -1.179
REMARK UNBOUND:                -1.302
REMARK SMILES CC(=O)CCC=C(C)CCC=C(C)CCC=C(C)C
REMARK SMILES IDX 10 1 11 2 12 3 13 4 14 5 15 6 16 7 18 8 17 9 19 10 9 11 7 12
REMARK SMILES IDX 6 13 8 14 5 15 4 16 2 17 3 18 1 19
REMARK H PARENT
REMARK Flexibility Score: inf
ROOT
ATOM      1  C   UNL     1     -26.345  16.999 -30.939  1.00  0.00     0.032 C 
ENDROOT
BRANCH   1   2
ATOM      2  C   UNL     1     -25.598  15.712 -30.698  1.00  0.00    -0.028 C 
ATOM      3  C   UNL     1     -26.142  14.478 -30.808  1.00  0.00    -0.077 C 
ATOM      4  C   UNL     1     -27.575  14.275 -31.245  1.00  0.00     0.039 C 
BRANCH   3   5
ATOM      5  C   UNL     1     -25.288  13.269 -30.495  1.00  0.00     0.034 C 
BRANCH   5   6
ATOM      6  C   UNL     1     -25.901  12.446 -29.356  1.00  0.00     0.032 C 
BRANCH   6   7
ATOM      7  C   UNL     1     -26.693  11.276 -29.890  1.00  0.00    -0.028 C 
ATOM      8  C   UNL     1     -28.720   9.875 -30.147  1.00  0.00     0.039 C 
ATOM      9  C   UNL     1     -27.989  11.063 -29.576  1.00  0.00    -0.080 C 
ATOM     10  C   UNL     1     -28.746  11.992 -28.660  1.00  0.00     0.039 C 
ENDBRANCH   6   7
ENDBRANCH   5   6
ENDBRANCH   3   5
ENDBRANCH   1   2
BRANCH   1  11
ATOM     11  C   UNL     1     -25.916  17.636 -32.266  1.00  0.00     0.034 C 
BRANCH  11  12
ATOM     12  C   UNL     1     -27.127  18.089 -33.056  1.00  0.00    -0.077 C 
ATOM     13  C   UNL     1     -27.152  19.233 -33.776  1.00  0.00    -0.028 C 
ATOM     14  C   UNL     1     -28.334  17.188 -33.102  1.00  0.00     0.039 C 
BRANCH  13  15
ATOM     15  C   UNL     1     -26.039  20.253 -33.820  1.00  0.00     0.035 C 
BRANCH  15  16
ATOM     16  C   UNL     1     -25.027  19.939 -34.930  1.00  0.00     0.079 C 
BRANCH  16  17
ATOM     17  C   UNL     1     -23.675  19.588 -34.364  1.00  0.00     0.130 C 
ATOM     18  O   UNL     1     -23.041  18.662 -34.847  1.00  0.00    -0.300 OA
ATOM     19  C   UNL     1     -23.089  20.355 -33.215  1.00  0.00     0.087 C 
ENDBRANCH  16  17
ENDBRANCH  15  16
ENDBRANCH  13  15
ENDBRANCH  11  12
ENDBRANCH   1  11
TORSDOF 9
ENDMDL
MODEL 3
REMARK VINA RESULT:    -5.845      1.623      2.473
REMARK INTER + INTRA:         -10.223
REMARK INTER:                  -9.325
REMARK INTRA:                  -0.898
REMARK UNBOUND:                -1.302
REMARK SMILES CC(=O)CCC=C(C)CCC=C(C)CCC=C(C)C
REMARK SMILES IDX 10 1 11 2 12 3 13 4 14 5 15 6 16 7 18 8 17 9 19 10 9 11 7 12
REMARK SMILES IDX 6 13 8 14 5 15 4 16 2 17 3 18 1 19
REMARK H PARENT
REMARK Flexibility Score: inf
ROOT
ATOM      1  C   UNL     1     -25.407  16.402 -30.427  1.00  0.00     0.032 C 
ENDROOT
BRANCH   1   2
ATOM      2  C   UNL     1     -25.523  14.923 -30.160  1.00  0.00    -0.028 C 
ATOM      3  C   UNL     1     -24.629  13.996 -30.576  1.00  0.00    -0.077 C 
ATOM      4  C   UNL     1     -23.373  14.380 -31.324  1.00  0.00     0.039 C 
BRANCH   3   5
ATOM      5  C   UNL     1     -24.891  12.537 -30.274  1.00  0.00     0.034 C 
BRANCH   5   6
ATOM      6  C   UNL     1     -26.188  12.064 -30.943  1.00  0.00     0.032 C 
BRANCH   6   7
ATOM      7  C   UNL     1     -27.213  11.646 -29.916  1.00  0.00    -0.028 C 
ATOM      8  C   UNL     1     -29.398  11.768 -28.755  1.00  0.00     0.039 C 
ATOM      9  C   UNL     1     -28.421  12.239 -29.801  1.00  0.00    -0.080 C 
ATOM     10  C   UNL     1     -28.835  13.374 -30.704  1.00  0.00     0.039 C 
ENDBRANCH   6   7
ENDBRANCH   5   6
ENDBRANCH   3   5
ENDBRANCH   1   2
BRANCH   1  11
ATOM     11  C   UNL     1     -26.461  16.854 -31.444  1.00  0.00     0.034 C 
BRANCH  11  12
ATOM     12  C   UNL     1     -25.865  17.848 -32.422  1.00  0.00    -0.077 C 
ATOM     13  C   UNL     1     -26.610  18.550 -33.305  1.00  0.00    -0.028 C 
ATOM     14  C   UNL     1     -24.384  18.120 -32.359  1.00  0.00     0.039 C 
BRANCH  13  15
ATOM     15  C   UNL     1     -28.097  18.383 -33.510  1.00  0.00     0.035 C 
BRANCH  15  16
ATOM     16  C   UNL     1     -28.748  19.678 -34.014  1.00  0.00     0.079 C 
BRANCH  16  17
ATOM     17  C   UNL     1     -27.734  20.782 -34.176  1.00  0.00     0.130 C 
ATOM     18  O   UNL     1     -27.020  20.804 -35.167  1.00  0.00    -0.300 OA
ATOM     19  C   UNL     1     -27.581  21.857 -33.141  1.00  0.00     0.087 C 
ENDBRANCH  16  17
ENDBRANCH  15  16
ENDBRANCH  13  15
ENDBRANCH  11  12
ENDBRANCH   1  11
TORSDOF 9
ENDMDL
MODEL 4
REMARK VINA RESULT:    -5.837      1.648      3.358
REMARK INTER + INTRA:         -10.210
REMARK INTER:                  -9.193
REMARK INTRA:                  -1.017
REMARK UNBOUND:                -1.302
REMARK SMILES CC(=O)CCC=C(C)CCC=C(C)CCC=C(C)C
REMARK SMILES IDX 10 1 11 2 12 3 13 4 14 5 15 6 16 7 18 8 17 9 19 10 9 11 7 12
REMARK SMILES IDX 6 13 8 14 5 15 4 16 2 17 3 18 1 19
REMARK H PARENT
REMARK Flexibility Score: inf
ROOT
ATOM      1  C   UNL     1     -26.823  17.641 -32.021  1.00  0.00     0.032 C 
ENDROOT
BRANCH   1   2
ATOM      2  C   UNL     1     -26.725  16.354 -31.241  1.00  0.00    -0.028 C 
ATOM      3  C   UNL     1     -25.565  15.732 -30.930  1.00  0.00    -0.077 C 
ATOM      4  C   UNL     1     -24.222  16.317 -31.305  1.00  0.00     0.039 C 
BRANCH   3   5
ATOM      5  C   UNL     1     -25.614  14.420 -30.178  1.00  0.00     0.034 C 
BRANCH   5   6
ATOM      6  C   UNL     1     -26.437  13.380 -30.945  1.00  0.00     0.032 C 
BRANCH   6   7
ATOM      7  C   UNL     1     -27.287  12.553 -30.009  1.00  0.00    -0.028 C 
ATOM      8  C   UNL     1     -29.413  11.827 -28.968  1.00  0.00     0.039 C 
ATOM      9  C   UNL     1     -28.627  12.688 -29.923  1.00  0.00    -0.080 C 
ATOM     10  C   UNL     1     -29.380  13.685 -30.768  1.00  0.00     0.039 C 
ENDBRANCH   6   7
ENDBRANCH   5   6
ENDBRANCH   3   5
ENDBRANCH   1   2
BRANCH   1  11
ATOM     11  C   UNL     1     -27.839  17.510 -33.160  1.00  0.00     0.034 C 
BRANCH  11  12
ATOM     12  C   UNL     1     -28.566  18.822 -33.380  1.00  0.00    -0.077 C 
ATOM     13  C   UNL     1     -28.040  19.847 -34.087  1.00  0.00    -0.028 C 
ATOM     14  C   UNL     1     -29.969  18.965 -32.848  1.00  0.00     0.039 C 
BRANCH  13  15
ATOM     15  C   UNL     1     -26.645  19.874 -34.667  1.00  0.00     0.035 C 
BRANCH  15  16
ATOM     16  C   UNL     1     -25.622  20.406 -33.655  1.00  0.00     0.079 C 
BRANCH  16  17
ATOM     17  C   UNL     1     -24.226  19.935 -33.978  1.00  0.00     0.130 C 
ATOM     18  O   UNL     1     -24.057  19.119 -34.871  1.00  0.00    -0.300 OA
ATOM     19  C   UNL     1     -23.037  20.448 -33.221  1.00  0.00     0.087 C 
ENDBRANCH  16  17
ENDBRANCH  15  16
ENDBRANCH  13  15
ENDBRANCH  11  12
ENDBRANCH   1  11
TORSDOF 9
ENDMDL
MODEL 5
REMARK VINA RESULT:    -5.823      2.203      7.077
REMARK INTER + INTRA:         -10.189
REMARK INTER:                  -9.215
REMARK INTRA:                  -0.974
REMARK UNBOUND:                -1.302
REMARK SMILES CC(=O)CCC=C(C)CCC=C(C)CCC=C(C)C
REMARK SMILES IDX 10 1 11 2 12 3 13 4 14 5 15 6 16 7 18 8 17 9 19 10 9 11 7 12
REMARK SMILES IDX 6 13 8 14 5 15 4 16 2 17 3 18 1 19
REMARK H PARENT
REMARK Flexibility Score: inf
ROOT
ATOM      1  C   UNL     1     -26.793  16.324 -31.563  1.00  0.00     0.032 C 
ENDROOT
BRANCH   1   2
ATOM      2  C   UNL     1     -26.830  17.691 -32.199  1.00  0.00    -0.028 C 
ATOM      3  C   UNL     1     -27.733  18.078 -33.129  1.00  0.00    -0.077 C 
ATOM      4  C   UNL     1     -28.846  17.165 -33.589  1.00  0.00     0.039 C 
BRANCH   3   5
ATOM      5  C   UNL     1     -27.629  19.468 -33.717  1.00  0.00     0.034 C 
BRANCH   5   6
ATOM      6  C   UNL     1     -26.325  19.633 -34.507  1.00  0.00     0.032 C 
BRANCH   6   7
ATOM      7  C   UNL     1     -25.272  20.336 -33.685  1.00  0.00    -0.028 C 
ATOM      8  C   UNL     1     -22.966  20.748 -32.880  1.00  0.00     0.039 C 
ATOM      9  C   UNL     1     -23.964  20.001 -33.726  1.00  0.00    -0.080 C 
ATOM     10  C   UNL     1     -23.459  18.887 -34.608  1.00  0.00     0.039 C 
ENDBRANCH   6   7
ENDBRANCH   5   6
ENDBRANCH   3   5
ENDBRANCH   1   2
BRANCH   1  11
ATOM     11  C   UNL     1     -25.628  16.218 -30.572  1.00  0.00     0.034 C 
BRANCH  11  12
ATOM     12  C   UNL     1     -24.846  14.940 -30.803  1.00  0.00    -0.077 C 
ATOM     13  C   UNL     1     -25.311  13.718 -30.457  1.00  0.00    -0.028 C 
ATOM     14  C   UNL     1     -23.523  15.027 -31.519  1.00  0.00     0.039 C 
BRANCH  13  15
ATOM     15  C   UNL     1     -26.602  13.460 -29.718  1.00  0.00     0.035 C 
BRANCH  15  16
ATOM     16  C   UNL     1     -27.393  12.305 -30.348  1.00  0.00     0.079 C 
BRANCH  16  17
ATOM     17  C   UNL     1     -28.879  12.485 -30.163  1.00  0.00     0.130 C 
ATOM     18  O   UNL     1     -29.506  11.676 -29.497  1.00  0.00    -0.300 OA
ATOM     19  C   UNL     1     -29.606  13.642 -30.784  1.00  0.00     0.087 C 
ENDBRANCH  16  17
ENDBRANCH  15  16
ENDBRANCH  13  15
ENDBRANCH  11  12
ENDBRANCH   1  11
TORSDOF 9
ENDMDL
MODEL 6
REMARK VINA RESULT:    -5.674      1.809      6.804
REMARK INTER + INTRA:          -9.962
REMARK INTER:                  -8.928
REMARK INTRA:                  -1.034
REMARK UNBOUND:                -1.302
REMARK SMILES CC(=O)CCC=C(C)CCC=C(C)CCC=C(C)C
REMARK SMILES IDX 10 1 11 2 12 3 13 4 14 5 15 6 16 7 18 8 17 9 19 10 9 11 7 12
REMARK SMILES IDX 6 13 8 14 5 15 4 16 2 17 3 18 1 19
REMARK H PARENT
REMARK Flexibility Score: inf
ROOT
ATOM      1  C   UNL     1     -24.500  17.309 -31.054  1.00  0.00     0.032 C 
ENDROOT
BRANCH   1   2
ATOM      2  C   UNL     1     -24.552  17.895 -32.443  1.00  0.00    -0.028 C 
ATOM      3  C   UNL     1     -23.725  18.864 -32.898  1.00  0.00    -0.077 C 
ATOM      4  C   UNL     1     -22.610  19.424 -32.045  1.00  0.00     0.039 C 
BRANCH   3   5
ATOM      5  C   UNL     1     -23.916  19.392 -34.302  1.00  0.00     0.034 C 
BRANCH   5   6
ATOM      6  C   UNL     1     -25.399  19.395 -34.689  1.00  0.00     0.032 C 
BRANCH   6   7
ATOM      7  C   UNL     1     -26.096  20.635 -34.183  1.00  0.00    -0.028 C 
ATOM      8  C   UNL     1     -27.966  21.887 -33.149  1.00  0.00     0.039 C 
ATOM      9  C   UNL     1     -27.332  20.611 -33.637  1.00  0.00    -0.080 C 
ATOM     10  C   UNL     1     -28.109  19.327 -33.493  1.00  0.00     0.039 C 
ENDBRANCH   6   7
ENDBRANCH   5   6
ENDBRANCH   3   5
ENDBRANCH   1   2
BRANCH   1  11
ATOM     11  C   UNL     1     -25.483  16.141 -30.920  1.00  0.00     0.034 C 
BRANCH  11  12
ATOM     12  C   UNL     1     -24.739  14.820 -30.881  1.00  0.00    -0.077 C 
ATOM     13  C   UNL     1     -25.289  13.678 -30.411  1.00  0.00    -0.028 C 
ATOM     14  C   UNL     1     -23.349  14.761 -31.459  1.00  0.00     0.039 C 
BRANCH  13  15
ATOM     15  C   UNL     1     -26.657  13.570 -29.781  1.00  0.00     0.035 C 
BRANCH  15  16
ATOM     16  C   UNL     1     -27.553  12.581 -30.539  1.00  0.00     0.079 C 
BRANCH  16  17
ATOM     17  C   UNL     1     -28.948  12.548 -29.969  1.00  0.00     0.130 C 
ATOM     18  O   UNL     1     -29.843  13.164 -30.529  1.00  0.00    -0.300 OA
ATOM     19  C   UNL     1     -29.263  11.773 -28.723  1.00  0.00     0.087 C 
ENDBRANCH  16  17
ENDBRANCH  15  16
ENDBRANCH  13  15
ENDBRANCH  11  12
ENDBRANCH   1  11
TORSDOF 9
ENDMDL
MODEL 7
REMARK VINA RESULT:    -5.668      2.564      7.490
REMARK INTER + INTRA:          -9.952
REMARK INTER:                  -8.669
REMARK INTRA:                  -1.282
REMARK UNBOUND:                -1.302
REMARK SMILES CC(=O)CCC=C(C)CCC=C(C)CCC=C(C)C
REMARK SMILES IDX 10 1 11 2 12 3 13 4 14 5 15 6 16 7 18 8 17 9 19 10 9 11 7 12
REMARK SMILES IDX 6 13 8 14 5 15 4 16 2 17 3 18 1 19
REMARK H PARENT
REMARK Flexibility Score: inf
ROOT
ATOM      1  C   UNL     1     -24.959  13.210 -30.220  1.00  0.00     0.032 C 
ENDROOT
BRANCH   1   2
ATOM      2  C   UNL     1     -25.586  14.581 -30.236  1.00  0.00    -0.028 C 
ATOM      3  C   UNL     1     -25.032  15.671 -30.815  1.00  0.00    -0.077 C 
ATOM      4  C   UNL     1     -23.720  15.596 -31.563  1.00  0.00     0.039 C 
BRANCH   3   5
ATOM      5  C   UNL     1     -25.750  16.999 -30.719  1.00  0.00     0.034 C 
BRANCH   5   6
ATOM      6  C   UNL     1     -26.728  17.178 -31.886  1.00  0.00     0.032 C 
BRANCH   6   7
ATOM      7  C   UNL     1     -26.211  18.184 -32.886  1.00  0.00    -0.028 C 
ATOM      8  C   UNL     1     -26.425  20.053 -34.496  1.00  0.00     0.039 C 
ATOM      9  C   UNL     1     -27.010  19.075 -33.511  1.00  0.00    -0.080 C 
ATOM     10  C   UNL     1     -28.494  19.129 -33.249  1.00  0.00     0.039 C 
ENDBRANCH   6   7
ENDBRANCH   5   6
ENDBRANCH   3   5
ENDBRANCH   1   2
BRANCH   1  11
ATOM     11  C   UNL     1     -26.000  12.133 -30.545  1.00  0.00     0.034 C 
BRANCH  11  12
ATOM     12  C   UNL     1     -26.051  11.092 -29.444  1.00  0.00    -0.077 C 
ATOM     13  C   UNL     1     -26.908  11.162 -28.401  1.00  0.00    -0.028 C 
ATOM     14  C   UNL     1     -25.156   9.885 -29.555  1.00  0.00     0.039 C 
BRANCH  13  15
ATOM     15  C   UNL     1     -27.852  12.310 -28.132  1.00  0.00     0.035 C 
BRANCH  15  16
ATOM     16  C   UNL     1     -29.312  11.913 -28.388  1.00  0.00     0.079 C 
BRANCH  16  17
ATOM     17  C   UNL     1     -29.643  11.938 -29.859  1.00  0.00     0.130 C 
ATOM     18  O   UNL     1     -29.926  10.896 -30.430  1.00  0.00    -0.300 OA
ATOM     19  C   UNL     1     -29.632  13.220 -30.638  1.00  0.00     0.087 C 
ENDBRANCH  16  17
ENDBRANCH  15  16
ENDBRANCH  13  15
ENDBRANCH  11  12
ENDBRANCH   1  11
TORSDOF 9
ENDMDL
MODEL 8
REMARK VINA RESULT:    -5.638      3.089      8.084
REMARK INTER + INTRA:          -9.906
REMARK INTER:                  -8.669
REMARK INTRA:                  -1.238
REMARK UNBOUND:                -1.302
REMARK SMILES CC(=O)CCC=C(C)CCC=C(C)CCC=C(C)C
REMARK SMILES IDX 10 1 11 2 12 3 13 4 14 5 15 6 16 7 18 8 17 9 19 10 9 11 7 12
REMARK SMILES IDX 6 13 8 14 5 15 4 16 2 17 3 18 1 19
REMARK H PARENT
REMARK Flexibility Score: inf
ROOT
ATOM      1  C   UNL     1     -26.282  13.561 -29.811  1.00  0.00     0.032 C 
ENDROOT
BRANCH   1   2
ATOM      2  C   UNL     1     -26.186  14.999 -30.253  1.00  0.00    -0.028 C 
ATOM      3  C   UNL     1     -25.107  15.544 -30.861  1.00  0.00    -0.077 C 
ATOM      4  C   UNL     1     -23.887  14.721 -31.206  1.00  0.00     0.039 C 
BRANCH   3   5
ATOM      5  C   UNL     1     -25.128  17.015 -31.213  1.00  0.00     0.034 C 
BRANCH   5   6
ATOM      6  C   UNL     1     -26.409  17.378 -31.974  1.00  0.00     0.032 C 
BRANCH   6   7
ATOM      7  C   UNL     1     -26.142  18.425 -33.028  1.00  0.00    -0.028 C 
ATOM      8  C   UNL     1     -26.778  20.219 -34.613  1.00  0.00     0.039 C 
ATOM      9  C   UNL     1     -27.117  19.190 -33.566  1.00  0.00    -0.080 C 
ATOM     10  C   UNL     1     -28.557  19.050 -33.142  1.00  0.00     0.039 C 
ENDBRANCH   6   7
ENDBRANCH   5   6
ENDBRANCH   3   5
ENDBRANCH   1   2
BRANCH   1  11
ATOM     11  C   UNL     1     -27.053  12.727 -30.841  1.00  0.00     0.034 C 
BRANCH  11  12
ATOM     12  C   UNL     1     -28.448  12.416 -30.337  1.00  0.00    -0.077 C 
ATOM     13  C   UNL     1     -28.750  11.292 -29.649  1.00  0.00    -0.028 C 
ATOM     14  C   UNL     1     -29.534  13.439 -30.550  1.00  0.00     0.039 C 
BRANCH  13  15
ATOM     15  C   UNL     1     -27.788  10.162 -29.370  1.00  0.00     0.035 C 
BRANCH  15  16
ATOM     16  C   UNL     1     -27.096  10.330 -28.010  1.00  0.00     0.079 C 
BRANCH  16  17
ATOM     17  C   UNL     1     -25.612  10.080 -28.109  1.00  0.00     0.130 C 
ATOM     18  O   UNL     1     -24.958   9.927 -27.089  1.00  0.00    -0.300 OA
ATOM     19  C   UNL     1     -24.920  10.015 -29.439  1.00  0.00     0.087 C 
ENDBRANCH  16  17
ENDBRANCH  15  16
ENDBRANCH  13  15
ENDBRANCH  11  12
ENDBRANCH   1  11
TORSDOF 9
ENDMDL
MODEL 9
REMARK VINA RESULT:    -5.554      2.412      4.253
REMARK INTER + INTRA:          -9.778
REMARK INTER:                  -8.872
REMARK INTRA:                  -0.907
REMARK UNBOUND:                -1.302
REMARK SMILES CC(=O)CCC=C(C)CCC=C(C)CCC=C(C)C
REMARK SMILES IDX 10 1 11 2 12 3 13 4 14 5 15 6 16 7 18 8 17 9 19 10 9 11 7 12
REMARK SMILES IDX 6 13 8 14 5 15 4 16 2 17 3 18 1 19
REMARK H PARENT
REMARK Flexibility Score: inf
ROOT
ATOM      1  C   UNL     1     -28.640  16.233 -33.343  1.00  0.00     0.032 C 
ENDROOT
BRANCH   1   2
ATOM      2  C   UNL     1     -29.462  15.532 -32.292  1.00  0.00    -0.028 C 
ATOM      3  C   UNL     1     -28.989  14.576 -31.460  1.00  0.00    -0.077 C 
ATOM      4  C   UNL     1     -27.539  14.152 -31.477  1.00  0.00     0.039 C 
BRANCH   3   5
ATOM      5  C   UNL     1     -29.937  13.922 -30.478  1.00  0.00     0.034 C 
BRANCH   5   6
ATOM      6  C   UNL     1     -29.725  12.404 -30.441  1.00  0.00     0.032 C 
BRANCH   6   7
ATOM      7  C   UNL     1     -29.035  11.978 -29.167  1.00  0.00    -0.028 C 
ATOM      8  C   UNL     1     -27.335  10.758 -27.843  1.00  0.00     0.039 C 
ATOM      9  C   UNL     1     -27.977  11.139 -29.152  1.00  0.00    -0.080 C 
ATOM     10  C   UNL     1     -27.402  10.565 -30.422  1.00  0.00     0.039 C 
ENDBRANCH   6   7
ENDBRANCH   5   6
ENDBRANCH   3   5
ENDBRANCH   1   2
BRANCH   1  11
ATOM     11  C   UNL     1     -27.977  17.489 -32.765  1.00  0.00     0.034 C 
BRANCH  11  12
ATOM     12  C   UNL     1     -28.431  18.725 -33.517  1.00  0.00    -0.077 C 
ATOM     13  C   UNL     1     -27.583  19.702 -33.910  1.00  0.00    -0.028 C 
ATOM     14  C   UNL     1     -29.882  18.835 -33.910  1.00  0.00     0.039 C 
BRANCH  13  15
ATOM     15  C   UNL     1     -26.110  19.754 -33.581  1.00  0.00     0.035 C 
BRANCH  15  16
ATOM     16  C   UNL     1     -25.244  19.657 -34.844  1.00  0.00     0.079 C 
BRANCH  16  17
ATOM     17  C   UNL     1     -23.791  19.440 -34.505  1.00  0.00     0.130 C 
ATOM     18  O   UNL     1     -23.152  18.589 -35.106  1.00  0.00    -0.300 OA
ATOM     19  C   UNL     1     -23.111  20.249 -33.441  1.00  0.00     0.087 C 
ENDBRANCH  16  17
ENDBRANCH  15  16
ENDBRANCH  13  15
ENDBRANCH  11  12
ENDBRANCH   1  11
TORSDOF 9
ENDMDL
