MODEL 1
REMARK VINA RESULT:    -2.992      0.000      0.000
REMARK INTER + INTRA:          -4.067
REMARK INTER:                  -3.866
REMARK INTRA:                  -0.201
REMARK UNBOUND:                -0.201
REMARK SMILES CCCCCCC(=O)[O-]
REMARK SMILES IDX 5 1 6 2 7 3 8 4 9 5 4 6 3 7 2 8 1 9
REMARK H PARENT
REMARK Flexibility Score: inf
ROOT
ATOM      1  C   UNL     1     -34.306  -7.408 -31.558  1.00  0.00     0.006 C 
ENDROOT
BRANCH   1   2
ATOM      2  C   UNL     1     -32.940  -7.683 -30.921  1.00  0.00     0.053 C 
BRANCH   2   3
ATOM      3  C   UNL     1     -32.750  -9.150 -30.701  1.00  0.00     0.041 C 
ATOM      4  O   UNL     1     -32.135  -9.563 -29.681  1.00  0.00    -0.550 OA
ATOM      5  O   UNL     1     -33.207 -10.060 -31.645  1.00  0.00    -0.550 OA
ENDBRANCH   2   3
ENDBRANCH   1   2
BRANCH   1   6
ATOM      6  C   UNL     1     -35.019  -6.247 -30.855  1.00  0.00     0.000 C 
BRANCH   6   7
ATOM      7  C   UNL     1     -34.589  -4.898 -31.449  1.00  0.00    -0.000 C 
BRANCH   7   8
ATOM      8  C   UNL     1     -34.509  -4.927 -32.983  1.00  0.00    -0.003 C 
ATOM      9  C   UNL     1     -33.564  -3.867 -33.546  1.00  0.00     0.004 C 
ENDBRANCH   7   8
ENDBRANCH   6   7
ENDBRANCH   1   6
TORSDOF 5
ENDMDL
MODEL 2
REMARK VINA RESULT:    -2.901      2.864      4.867
REMARK INTER + INTRA:          -3.950
REMARK INTER:                  -3.780
REMARK INTRA:                  -0.170
REMARK UNBOUND:                -0.201
REMARK SMILES CCCCCCC(=O)[O-]
REMARK SMILES IDX 5 1 6 2 7 3 8 4 9 5 4 6 3 7 2 8 1 9
REMARK H PARENT
REMARK Flexibility Score: inf
ROOT
ATOM      1  C   UNL     1     -35.172  -6.476 -31.258  1.00  0.00     0.006 C 
ENDROOT
BRANCH   1   2
ATOM      2  C   UNL     1     -34.551  -5.107 -31.554  1.00  0.00     0.053 C 
BRANCH   2   3
ATOM      3  C   UNL     1     -34.233  -4.979 -33.010  1.00  0.00     0.041 C 
ATOM      4  O   UNL     1     -35.122  -5.204 -33.874  1.00  0.00    -0.550 OA
ATOM      5  O   UNL     1     -32.944  -4.660 -33.415  1.00  0.00    -0.550 OA
ENDBRANCH   2   3
ENDBRANCH   1   2
BRANCH   1   6
ATOM      6  C   UNL     1     -34.172  -7.606 -31.531  1.00  0.00     0.000 C 
BRANCH   6   7
ATOM      7  C   UNL     1     -33.163  -7.737 -30.381  1.00  0.00    -0.000 C 
BRANCH   7   8
ATOM      8  C   UNL     1     -32.612  -9.164 -30.240  1.00  0.00    -0.003 C 
ATOM      9  C   UNL     1     -32.107  -9.466 -28.829  1.00  0.00     0.004 C 
ENDBRANCH   7   8
ENDBRANCH   6   7
ENDBRANCH   1   6
TORSDOF 5
ENDMDL
MODEL 3
REMARK VINA RESULT:    -2.869     16.291     17.329
REMARK INTER + INTRA:          -3.908
REMARK INTER:                  -3.698
REMARK INTRA:                  -0.210
REMARK UNBOUND:                -0.201
REMARK SMILES CCCCCCC(=O)[O-]
REMARK SMILES IDX 5 1 6 2 7 3 8 4 9 5 4 6 3 7 2 8 1 9
REMARK H PARENT
REMARK Flexibility Score: inf
ROOT
ATOM      1  C   UNL     1     -24.976   8.034 -29.092  1.00  0.00     0.006 C 
ENDROOT
BRANCH   1   2
ATOM      2  C   UNL     1     -25.488   6.843 -29.907  1.00  0.00     0.053 C 
BRANCH   2   3
ATOM      3  C   UNL     1     -24.383   6.251 -30.722  1.00  0.00     0.041 C 
ATOM      4  O   UNL     1     -23.209   6.215 -30.266  1.00  0.00    -0.550 OA
ATOM      5  O   UNL     1     -24.638   5.783 -32.004  1.00  0.00    -0.550 OA
ENDBRANCH   2   3
ENDBRANCH   1   2
BRANCH   1   6
ATOM      6  C   UNL     1     -25.519   7.996 -27.658  1.00  0.00     0.000 C 
BRANCH   6   7
ATOM      7  C   UNL     1     -24.388   7.761 -26.648  1.00  0.00    -0.000 C 
BRANCH   7   8
ATOM      8  C   UNL     1     -23.772   6.358 -26.766  1.00  0.00    -0.003 C 
ATOM      9  C   UNL     1     -23.074   5.909 -25.483  1.00  0.00     0.004 C 
ENDBRANCH   7   8
ENDBRANCH   6   7
ENDBRANCH   1   6
TORSDOF 5
ENDMDL
MODEL 4
REMARK VINA RESULT:    -2.867     15.203     16.351
REMARK INTER + INTRA:          -3.906
REMARK INTER:                  -3.775
REMARK INTRA:                  -0.131
REMARK UNBOUND:                -0.201
REMARK SMILES CCCCCCC(=O)[O-]
REMARK SMILES IDX 5 1 6 2 7 3 8 4 9 5 4 6 3 7 2 8 1 9
REMARK H PARENT
REMARK Flexibility Score: inf
ROOT
ATOM      1  C   UNL     1     -23.794   5.066 -31.157  1.00  0.00     0.006 C 
ENDROOT
BRANCH   1   2
ATOM      2  C   UNL     1     -24.596   5.506 -32.386  1.00  0.00     0.053 C 
BRANCH   2   3
ATOM      3  C   UNL     1     -24.281   4.633 -33.558  1.00  0.00     0.041 C 
ATOM      4  O   UNL     1     -23.084   4.347 -33.832  1.00  0.00    -0.550 OA
ATOM      5  O   UNL     1     -25.303   4.173 -34.378  1.00  0.00    -0.550 OA
ENDBRANCH   2   3
ENDBRANCH   1   2
BRANCH   1   6
ATOM      6  C   UNL     1     -23.542   6.246 -30.212  1.00  0.00     0.000 C 
BRANCH   6   7
ATOM      7  C   UNL     1     -24.854   6.962 -29.864  1.00  0.00    -0.000 C 
BRANCH   7   8
ATOM      8  C   UNL     1     -24.650   8.123 -28.878  1.00  0.00    -0.003 C 
ATOM      9  C   UNL     1     -24.736   7.680 -27.418  1.00  0.00     0.004 C 
ENDBRANCH   7   8
ENDBRANCH   6   7
ENDBRANCH   1   6
TORSDOF 5
ENDMDL
MODEL 5
REMARK VINA RESULT:    -2.866     15.390     16.442
REMARK INTER + INTRA:          -3.904
REMARK INTER:                  -3.532
REMARK INTRA:                  -0.372
REMARK UNBOUND:                -0.201
REMARK SMILES CCCCCCC(=O)[O-]
REMARK SMILES IDX 5 1 6 2 7 3 8 4 9 5 4 6 3 7 2 8 1 9
REMARK H PARENT
REMARK Flexibility Score: inf
ROOT
ATOM      1  C   UNL     1     -25.058   6.157 -30.661  1.00  0.00     0.006 C 
ENDROOT
BRANCH   1   2
ATOM      2  C   UNL     1     -23.629   5.750 -30.292  1.00  0.00     0.053 C 
BRANCH   2   3
ATOM      3  C   UNL     1     -23.591   4.329 -29.828  1.00  0.00     0.041 C 
ATOM      4  O   UNL     1     -22.958   3.463 -30.490  1.00  0.00    -0.550 OA
ATOM      5  O   UNL     1     -24.294   3.949 -28.692  1.00  0.00    -0.550 OA
ENDBRANCH   2   3
ENDBRANCH   1   2
BRANCH   1   6
ATOM      6  C   UNL     1     -25.656   7.093 -29.604  1.00  0.00     0.000 C 
BRANCH   6   7
ATOM      7  C   UNL     1     -24.568   7.970 -28.968  1.00  0.00    -0.000 C 
BRANCH   7   8
ATOM      8  C   UNL     1     -24.702   8.063 -27.441  1.00  0.00    -0.003 C 
ATOM      9  C   UNL     1     -23.984   6.927 -26.713  1.00  0.00     0.004 C 
ENDBRANCH   7   8
ENDBRANCH   6   7
ENDBRANCH   1   6
TORSDOF 5
ENDMDL
MODEL 6
REMARK VINA RESULT:    -2.863     15.148     16.495
REMARK INTER + INTRA:          -3.901
REMARK INTER:                  -3.591
REMARK INTRA:                  -0.310
REMARK UNBOUND:                -0.201
REMARK SMILES CCCCCCC(=O)[O-]
REMARK SMILES IDX 5 1 6 2 7 3 8 4 9 5 4 6 3 7 2 8 1 9
REMARK H PARENT
REMARK Flexibility Score: inf
ROOT
ATOM      1  C   UNL     1     -25.785   5.603 -29.469  1.00  0.00     0.006 C 
ENDROOT
BRANCH   1   2
ATOM      2  C   UNL     1     -25.791   5.282 -30.967  1.00  0.00     0.053 C 
BRANCH   2   3
ATOM      3  C   UNL     1     -24.450   5.560 -31.569  1.00  0.00     0.041 C 
ATOM      4  O   UNL     1     -24.289   5.491 -32.816  1.00  0.00    -0.550 OA
ATOM      5  O   UNL     1     -23.367   5.848 -30.750  1.00  0.00    -0.550 OA
ENDBRANCH   2   3
ENDBRANCH   1   2
BRANCH   1   6
ATOM      6  C   UNL     1     -26.645   6.835 -29.166  1.00  0.00     0.000 C 
BRANCH   6   7
ATOM      7  C   UNL     1     -25.808   8.120 -29.232  1.00  0.00    -0.000 C 
BRANCH   7   8
ATOM      8  C   UNL     1     -24.563   8.061 -28.334  1.00  0.00    -0.003 C 
ATOM      9  C   UNL     1     -24.904   8.125 -26.846  1.00  0.00     0.004 C 
ENDBRANCH   7   8
ENDBRANCH   6   7
ENDBRANCH   1   6
TORSDOF 5
ENDMDL
MODEL 7
REMARK VINA RESULT:    -2.863     14.980     15.946
REMARK INTER + INTRA:          -3.901
REMARK INTER:                  -3.737
REMARK INTRA:                  -0.163
REMARK UNBOUND:                -0.201
REMARK SMILES CCCCCCC(=O)[O-]
REMARK SMILES IDX 5 1 6 2 7 3 8 4 9 5 4 6 3 7 2 8 1 9
REMARK H PARENT
REMARK Flexibility Score: inf
ROOT
ATOM      1  C   UNL     1     -20.310  -1.917 -32.199  1.00  0.00     0.006 C 
ENDROOT
BRANCH   1   2
ATOM      2  C   UNL     1     -19.853  -0.550 -31.681  1.00  0.00     0.053 C 
BRANCH   2   3
ATOM      3  C   UNL     1     -20.056   0.502 -32.725  1.00  0.00     0.041 C 
ATOM      4  O   UNL     1     -20.177   1.711 -32.391  1.00  0.00    -0.550 OA
ATOM      5  O   UNL     1     -20.161   0.143 -34.062  1.00  0.00    -0.550 OA
ENDBRANCH   2   3
ENDBRANCH   1   2
BRANCH   1   6
ATOM      6  C   UNL     1     -19.120  -2.870 -32.365  1.00  0.00     0.000 C 
BRANCH   6   7
ATOM      7  C   UNL     1     -18.887  -3.205 -33.845  1.00  0.00    -0.000 C 
BRANCH   7   8
ATOM      8  C   UNL     1     -18.815  -4.718 -34.104  1.00  0.00    -0.003 C 
ATOM      9  C   UNL     1     -17.753  -5.091 -35.138  1.00  0.00     0.004 C 
ENDBRANCH   7   8
ENDBRANCH   6   7
ENDBRANCH   1   6
TORSDOF 5
ENDMDL
MODEL 8
REMARK VINA RESULT:    -2.787     14.852     16.181
REMARK INTER + INTRA:          -3.803
REMARK INTER:                  -3.462
REMARK INTRA:                  -0.341
REMARK UNBOUND:                -0.201
REMARK SMILES CCCCCCC(=O)[O-]
REMARK SMILES IDX 5 1 6 2 7 3 8 4 9 5 4 6 3 7 2 8 1 9
REMARK H PARENT
REMARK Flexibility Score: inf
ROOT
ATOM      1  C   UNL     1     -24.480   6.487 -29.358  1.00  0.00     0.006 C 
ENDROOT
BRANCH   1   2
ATOM      2  C   UNL     1     -23.756   6.309 -30.696  1.00  0.00     0.053 C 
BRANCH   2   3
ATOM      3  C   UNL     1     -24.640   5.614 -31.682  1.00  0.00     0.041 C 
ATOM      4  O   UNL     1     -24.385   5.675 -32.914  1.00  0.00    -0.550 OA
ATOM      5  O   UNL     1     -25.772   4.938 -31.246  1.00  0.00    -0.550 OA
ENDBRANCH   2   3
ENDBRANCH   1   2
BRANCH   1   6
ATOM      6  C   UNL     1     -24.875   7.952 -29.135  1.00  0.00     0.000 C 
BRANCH   6   7
ATOM      7  C   UNL     1     -26.401   8.107 -29.078  1.00  0.00    -0.000 C 
BRANCH   7   8
ATOM      8  C   UNL     1     -27.111   6.815 -28.645  1.00  0.00    -0.003 C 
ATOM      9  C   UNL     1     -28.441   6.601 -29.365  1.00  0.00     0.004 C 
ENDBRANCH   7   8
ENDBRANCH   6   7
ENDBRANCH   1   6
TORSDOF 5
ENDMDL
MODEL 9
REMARK VINA RESULT:    -2.778     14.491     14.992
REMARK INTER + INTRA:          -3.791
REMARK INTER:                  -3.660
REMARK INTRA:                  -0.131
REMARK UNBOUND:                -0.201
REMARK SMILES CCCCCCC(=O)[O-]
REMARK SMILES IDX 5 1 6 2 7 3 8 4 9 5 4 6 3 7 2 8 1 9
REMARK H PARENT
REMARK Flexibility Score: inf
ROOT
ATOM      1  C   UNL     1     -26.433   5.506 -35.243  1.00  0.00     0.006 C 
ENDROOT
BRANCH   1   2
ATOM      2  C   UNL     1     -25.561   4.329 -34.795  1.00  0.00     0.053 C 
BRANCH   2   3
ATOM      3  C   UNL     1     -24.613   4.758 -33.721  1.00  0.00     0.041 C 
ATOM      4  O   UNL     1     -25.005   5.518 -32.795  1.00  0.00    -0.550 OA
ATOM      5  O   UNL     1     -23.283   4.360 -33.766  1.00  0.00    -0.550 OA
ENDBRANCH   2   3
ENDBRANCH   1   2
BRANCH   1   6
ATOM      6  C   UNL     1     -26.736   5.427 -36.744  1.00  0.00     0.000 C 
BRANCH   6   7
ATOM      7  C   UNL     1     -27.737   4.302 -37.044  1.00  0.00    -0.000 C 
BRANCH   7   8
ATOM      8  C   UNL     1     -28.397   4.452 -38.424  1.00  0.00    -0.003 C 
ATOM      9  C   UNL     1     -28.963   5.852 -38.660  1.00  0.00     0.004 C 
ENDBRANCH   7   8
ENDBRANCH   6   7
ENDBRANCH   1   6
TORSDOF 5
ENDMDL
