MODEL 1
REMARK VINA RESULT:    -3.161      0.000      0.000
REMARK INTER + INTRA:          -3.558
REMARK INTER:                  -3.531
REMARK INTRA:                  -0.027
REMARK UNBOUND:                -0.027
REMARK SMILES CCCC(=O)[O-]
REMARK SMILES IDX 3 1 4 2 5 3 6 4 2 5 1 6
REMARK H PARENT
REMARK Flexibility Score: inf
ROOT
ATOM      1  C   UNL     1      51.942 -50.846  -9.091  1.00  0.00     0.052 C 
ENDROOT
BRANCH   1   2
ATOM      2  C   UNL     1      53.204 -51.358  -9.716  1.00  0.00     0.041 C 
ATOM      3  O   UNL     1      54.143 -51.781  -8.991  1.00  0.00    -0.550 OA
ATOM      4  O   UNL     1      53.355 -51.339 -11.097  1.00  0.00    -0.550 OA
ENDBRANCH   1   2
BRANCH   1   5
ATOM      5  C   UNL     1      51.098 -51.984  -8.502  1.00  0.00     0.003 C 
ATOM      6  C   UNL     1      50.744 -51.745  -7.034  1.00  0.00     0.004 C 
ENDBRANCH   1   5
TORSDOF 2
ENDMDL
MODEL 2
REMARK VINA RESULT:    -3.137      0.142      1.330
REMARK INTER + INTRA:          -3.531
REMARK INTER:                  -3.498
REMARK INTRA:                  -0.033
REMARK UNBOUND:                -0.027
REMARK SMILES CCCC(=O)[O-]
REMARK SMILES IDX 3 1 4 2 5 3 6 4 2 5 1 6
REMARK H PARENT
REMARK Flexibility Score: inf
ROOT
ATOM      1  C   UNL     1      51.761 -50.860  -9.259  1.00  0.00     0.052 C 
ENDROOT
BRANCH   1   2
ATOM      2  C   UNL     1      53.086 -51.309  -9.795  1.00  0.00     0.041 C 
ATOM      3  O   UNL     1      53.316 -51.267 -11.033  1.00  0.00    -0.550 OA
ATOM      4  O   UNL     1      54.055 -51.804  -8.932  1.00  0.00    -0.550 OA
ENDBRANCH   1   2
BRANCH   1   5
ATOM      5  C   UNL     1      51.020 -52.001  -8.549  1.00  0.00     0.003 C 
ATOM      6  C   UNL     1      50.731 -51.682  -7.082  1.00  0.00     0.004 C 
ENDBRANCH   1   5
TORSDOF 2
ENDMDL
MODEL 3
REMARK VINA RESULT:    -3.128      1.180      1.285
REMARK INTER + INTRA:          -3.521
REMARK INTER:                  -3.494
REMARK INTRA:                  -0.027
REMARK UNBOUND:                -0.027
REMARK SMILES CCCC(=O)[O-]
REMARK SMILES IDX 3 1 4 2 5 3 6 4 2 5 1 6
REMARK H PARENT
REMARK Flexibility Score: inf
ROOT
ATOM      1  C   UNL     1      52.748 -51.758  -8.897  1.00  0.00     0.052 C 
ENDROOT
BRANCH   1   2
ATOM      2  C   UNL     1      52.918 -50.861 -10.085  1.00  0.00     0.041 C 
ATOM      3  O   UNL     1      52.680 -49.629  -9.986  1.00  0.00    -0.550 OA
ATOM      4  O   UNL     1      53.309 -51.391 -11.308  1.00  0.00    -0.550 OA
ENDBRANCH   1   2
BRANCH   1   5
ATOM      5  C   UNL     1      51.271 -52.086  -8.640  1.00  0.00     0.003 C 
ATOM      6  C   UNL     1      50.828 -51.702  -7.228  1.00  0.00     0.004 C 
ENDBRANCH   1   5
TORSDOF 2
ENDMDL
MODEL 4
REMARK VINA RESULT:    -3.012      1.352      2.062
REMARK INTER + INTRA:          -3.390
REMARK INTER:                  -3.349
REMARK INTRA:                  -0.041
REMARK UNBOUND:                -0.027
REMARK SMILES CCCC(=O)[O-]
REMARK SMILES IDX 3 1 4 2 5 3 6 4 2 5 1 6
REMARK H PARENT
REMARK Flexibility Score: inf
ROOT
ATOM      1  C   UNL     1      51.861 -50.753  -8.530  1.00  0.00     0.052 C 
ENDROOT
BRANCH   1   2
ATOM      2  C   UNL     1      53.015 -51.199  -9.374  1.00  0.00     0.041 C 
ATOM      3  O   UNL     1      54.052 -51.666  -8.833  1.00  0.00    -0.550 OA
ATOM      4  O   UNL     1      52.959 -51.070 -10.756  1.00  0.00    -0.550 OA
ENDBRANCH   1   2
BRANCH   1   5
ATOM      5  C   UNL     1      51.992 -49.280  -8.122  1.00  0.00     0.003 C 
ATOM      6  C   UNL     1      51.334 -48.336  -9.128  1.00  0.00     0.004 C 
ENDBRANCH   1   5
TORSDOF 2
ENDMDL
MODEL 5
REMARK VINA RESULT:    -2.988      2.593      3.426
REMARK INTER + INTRA:          -3.364
REMARK INTER:                  -3.355
REMARK INTRA:                  -0.009
REMARK UNBOUND:                -0.027
REMARK SMILES CCCC(=O)[O-]
REMARK SMILES IDX 3 1 4 2 5 3 6 4 2 5 1 6
REMARK H PARENT
REMARK Flexibility Score: inf
ROOT
ATOM      1  C   UNL     1      51.728 -49.725  -8.154  1.00  0.00     0.052 C 
ENDROOT
BRANCH   1   2
ATOM      2  C   UNL     1      51.342 -51.173  -8.152  1.00  0.00     0.041 C 
ATOM      3  O   UNL     1      51.538 -51.881  -9.175  1.00  0.00    -0.550 OA
ATOM      4  O   UNL     1      50.737 -51.731  -7.034  1.00  0.00    -0.550 OA
ENDBRANCH   1   2
BRANCH   1   5
ATOM      5  C   UNL     1      51.435 -49.061  -9.506  1.00  0.00     0.003 C 
ATOM      6  C   UNL     1      50.907 -47.635  -9.351  1.00  0.00     0.004 C 
ENDBRANCH   1   5
TORSDOF 2
ENDMDL
MODEL 6
REMARK VINA RESULT:    -2.964      1.353      2.431
REMARK INTER + INTRA:          -3.338
REMARK INTER:                  -3.295
REMARK INTRA:                  -0.043
REMARK UNBOUND:                -0.027
REMARK SMILES CCCC(=O)[O-]
REMARK SMILES IDX 3 1 4 2 5 3 6 4 2 5 1 6
REMARK H PARENT
REMARK Flexibility Score: inf
ROOT
ATOM      1  C   UNL     1      51.692 -50.818  -8.544  1.00  0.00     0.052 C 
ENDROOT
BRANCH   1   2
ATOM      2  C   UNL     1      52.787 -51.309  -9.440  1.00  0.00     0.041 C 
ATOM      3  O   UNL     1      52.608 -51.368 -10.685  1.00  0.00    -0.550 OA
ATOM      4  O   UNL     1      53.993 -51.732  -8.897  1.00  0.00    -0.550 OA
ENDBRANCH   1   2
BRANCH   1   5
ATOM      5  C   UNL     1      51.913 -49.359  -8.124  1.00  0.00     0.003 C 
ATOM      6  C   UNL     1      51.387 -48.368  -9.162  1.00  0.00     0.004 C 
ENDBRANCH   1   5
TORSDOF 2
ENDMDL
MODEL 7
REMARK VINA RESULT:    -2.823      2.052      2.427
REMARK INTER + INTRA:          -3.180
REMARK INTER:                  -3.109
REMARK INTRA:                  -0.072
REMARK UNBOUND:                -0.027
REMARK SMILES CCCC(=O)[O-]
REMARK SMILES IDX 3 1 4 2 5 3 6 4 2 5 1 6
REMARK H PARENT
REMARK Flexibility Score: inf
ROOT
ATOM      1  C   UNL     1      52.022 -51.080  -9.843  1.00  0.00     0.052 C 
ENDROOT
BRANCH   1   2
ATOM      2  C   UNL     1      52.036 -49.638  -9.438  1.00  0.00     0.041 C 
ATOM      3  O   UNL     1      51.050 -48.898  -9.697  1.00  0.00    -0.550 OA
ATOM      4  O   UNL     1      53.149 -49.103  -8.803  1.00  0.00    -0.550 OA
ENDBRANCH   1   2
BRANCH   1   5
ATOM      5  C   UNL     1      52.178 -52.011  -8.634  1.00  0.00     0.003 C 
ATOM      6  C   UNL     1      51.035 -51.858  -7.631  1.00  0.00     0.004 C 
ENDBRANCH   1   5
TORSDOF 2
ENDMDL
MODEL 8
REMARK VINA RESULT:    -2.820      2.663      3.051
REMARK INTER + INTRA:          -3.176
REMARK INTER:                  -3.142
REMARK INTRA:                  -0.035
REMARK UNBOUND:                -0.027
REMARK SMILES CCCC(=O)[O-]
REMARK SMILES IDX 3 1 4 2 5 3 6 4 2 5 1 6
REMARK H PARENT
REMARK Flexibility Score: inf
ROOT
ATOM      1  C   UNL     1      51.840 -49.333  -8.168  1.00  0.00     0.052 C 
ENDROOT
BRANCH   1   2
ATOM      2  C   UNL     1      51.380 -48.584  -9.381  1.00  0.00     0.041 C 
ATOM      3  O   UNL     1      50.717 -47.521  -9.255  1.00  0.00    -0.550 OA
ATOM      4  O   UNL     1      51.654 -49.077 -10.650  1.00  0.00    -0.550 OA
ENDBRANCH   1   2
BRANCH   1   5
ATOM      5  C   UNL     1      52.121 -50.808  -8.485  1.00  0.00     0.003 C 
ATOM      6  C   UNL     1      51.010 -51.732  -7.986  1.00  0.00     0.004 C 
ENDBRANCH   1   5
TORSDOF 2
ENDMDL
MODEL 9
REMARK VINA RESULT:    -2.792      2.564      3.392
REMARK INTER + INTRA:          -3.145
REMARK INTER:                  -3.084
REMARK INTRA:                  -0.061
REMARK UNBOUND:                -0.027
REMARK SMILES CCCC(=O)[O-]
REMARK SMILES IDX 3 1 4 2 5 3 6 4 2 5 1 6
REMARK H PARENT
REMARK Flexibility Score: inf
ROOT
ATOM      1  C   UNL     1      53.245 -50.222  -8.777  1.00  0.00     0.052 C 
ENDROOT
BRANCH   1   2
ATOM      2  C   UNL     1      51.829 -49.968  -8.358  1.00  0.00     0.041 C 
ATOM      3  O   UNL     1      51.343 -48.809  -8.441  1.00  0.00    -0.550 OA
ATOM      4  O   UNL     1      51.057 -51.003  -7.847  1.00  0.00    -0.550 OA
ENDBRANCH   1   2
BRANCH   1   5
ATOM      5  C   UNL     1      53.354 -51.445  -9.697  1.00  0.00     0.003 C 
ATOM      6  C   UNL     1      52.859 -51.154 -11.113  1.00  0.00     0.004 C 
ENDBRANCH   1   5
TORSDOF 2
ENDMDL
