MODEL 1
REMARK VINA RESULT:     4.152      0.000      0.000
REMARK INTER + INTRA:          11.703
REMARK INTER:                   9.855
REMARK INTRA:                   1.848
REMARK UNBOUND:                 1.848
REMARK SMILES O=C(OC[C@@H]1O[C@@H](OC(=O)c2cc(O)c(O)c(O)c2)[C@@H](OC(=O)c2cc(O)c(O)c(O)c2)[C@H](OC(=O)c2cc(O)c(O)c(O)c2)[C@@H]1OC(=O)c1cc(O)c(O)c(O)c1)c1cc(O)c(O)c(O)c1
REMARK SMILES IDX 5 1 46 2 33 3 20 4 7 5 6 6 4 7 3 8 2 9 1 10 59 11 60 12
REMARK SMILES IDX 61 13 67 14 63 15 65 16 62 17 64 19 66 21 47 23 48 24 49 25
REMARK SMILES IDX 50 26 58 27 51 28 56 29 52 30 54 31 57 32 53 34 55 36 34 38
REMARK SMILES IDX 35 39 36 40 37 41 45 42 38 43 43 44 39 45 41 46 44 47 40 49
REMARK SMILES IDX 42 51 8 53 9 54 10 55 11 56 19 57 12 58 17 59 13 60 15 61
REMARK SMILES IDX 18 62 14 64 16 66 21 68 22 69 23 70 24 71 32 72 25 73 30 74
REMARK SMILES IDX 26 75 28 76 31 77 27 79 29 81
REMARK H PARENT 62 18 64 20 66 22 57 33 53 35 55 37 44 48 40 50 42 52 18 63
REMARK H PARENT 14 65 16 67 31 78 27 80 29 82
REMARK Flexibility Score: inf
ROOT
ATOM      1  C   UNL     1     -21.250  14.659 -30.577  1.00  0.00     0.205 C 
ATOM      2  C   UNL     1     -22.314  13.546 -30.697  1.00  0.00     0.254 C 
ATOM      3  C   UNL     1     -23.590  14.133 -31.333  1.00  0.00     0.267 C 
ATOM      4  C   UNL     1     -24.036  15.388 -30.561  1.00  0.00     0.290 C 
ATOM      5  C   UNL     1     -22.855  16.362 -30.404  1.00  0.00     0.357 C 
ATOM      6  O   UNL     1     -21.743  15.733 -29.789  1.00  0.00    -0.329 OA
ENDROOT
BRANCH   1   7
ATOM      7  C   UNL     1     -19.955  14.121 -29.944  1.00  0.00     0.269 C 
BRANCH   7   8
ATOM      8  O   UNL     1     -18.831  14.893 -30.365  1.00  0.00    -0.459 OA
BRANCH   8   9
ATOM      9  C   UNL     1     -17.533  14.721 -29.872  1.00  0.00     0.338 C 
ATOM     10  O   UNL     1     -17.349  14.383 -28.672  1.00  0.00    -0.246 OA
BRANCH   9  11
ATOM     11  C   UNL     1     -16.377  14.906 -30.777  1.00  0.00     0.067 A 
ATOM     12  C   UNL     1     -15.397  15.863 -30.482  1.00  0.00     0.066 A 
ATOM     13  C   UNL     1     -14.310  16.059 -31.337  1.00  0.00     0.162 A 
ATOM     14  C   UNL     1     -16.250  14.136 -31.943  1.00  0.00     0.066 A 
ATOM     15  C   UNL     1     -14.188  15.295 -32.511  1.00  0.00     0.200 A 
ATOM     16  C   UNL     1     -15.168  14.316 -32.811  1.00  0.00     0.162 A 
BRANCH  13  17
ATOM     17  O   UNL     1     -13.366  17.036 -31.012  1.00  0.00    -0.504 OA
ATOM     18  H   UNL     1     -12.542  16.831 -30.460  1.00  0.00     0.293 HD
ENDBRANCH  13  17
BRANCH  15  19
ATOM     19  O   UNL     1     -13.096  15.537 -33.351  1.00  0.00    -0.502 OA
ATOM     20  H   UNL     1     -12.149  15.262 -33.140  1.00  0.00     0.293 HD
ENDBRANCH  15  19
BRANCH  16  21
ATOM     21  O   UNL     1     -15.101  13.502 -33.945  1.00  0.00    -0.504 OA
ATOM     22  H   UNL     1     -15.001  13.845 -34.886  1.00  0.00     0.293 HD
ENDBRANCH  16  21
ENDBRANCH   9  11
ENDBRANCH   8   9
ENDBRANCH   7   8
ENDBRANCH   1   7
BRANCH   2  23
ATOM     23  O   UNL     1     -22.613  13.032 -29.399  1.00  0.00    -0.452 OA
BRANCH  23  24
ATOM     24  C   UNL     1     -22.170  11.788 -28.928  1.00  0.00     0.338 C 
ATOM     25  O   UNL     1     -23.000  10.879 -28.652  1.00  0.00    -0.246 OA
BRANCH  24  26
ATOM     26  C   UNL     1     -20.723  11.546 -28.760  1.00  0.00     0.067 A 
ATOM     27  C   UNL     1     -19.862  11.540 -29.872  1.00  0.00     0.066 A 
ATOM     28  C   UNL     1     -20.189  11.329 -27.481  1.00  0.00     0.066 A 
ATOM     29  C   UNL     1     -18.492  11.321 -29.711  1.00  0.00     0.162 A 
ATOM     30  C   UNL     1     -18.821  11.102 -27.311  1.00  0.00     0.162 A 
ATOM     31  C   UNL     1     -17.965  11.095 -28.427  1.00  0.00     0.200 A 
BRANCH  29  32
ATOM     32  O   UNL     1     -17.664  11.350 -30.834  1.00  0.00    -0.504 OA
ATOM     33  H   UNL     1     -18.016  11.154 -31.763  1.00  0.00     0.293 HD
ENDBRANCH  29  32
BRANCH  30  34
ATOM     34  O   UNL     1     -18.303  10.876 -26.034  1.00  0.00    -0.504 OA
ATOM     35  H   UNL     1     -17.339  10.587 -25.901  1.00  0.00     0.293 HD
ENDBRANCH  30  34
BRANCH  31  36
ATOM     36  O   UNL     1     -16.596  10.876 -28.273  1.00  0.00    -0.502 OA
ATOM     37  H   UNL     1     -16.227  10.022 -27.865  1.00  0.00     0.293 HD
ENDBRANCH  31  36
ENDBRANCH  24  26
ENDBRANCH  23  24
ENDBRANCH   2  23
BRANCH   3  38
ATOM     38  O   UNL     1     -24.650  13.177 -31.318  1.00  0.00    -0.450 OA
BRANCH  38  39
ATOM     39  C   UNL     1     -25.995  13.481 -31.555  1.00  0.00     0.338 C 
ATOM     40  O   UNL     1     -26.320  14.171 -32.559  1.00  0.00    -0.246 OA
BRANCH  39  41
ATOM     41  C   UNL     1     -27.031  12.994 -30.614  1.00  0.00     0.067 A 
ATOM     42  C   UNL     1     -28.126  12.238 -31.064  1.00  0.00     0.066 A 
ATOM     43  C   UNL     1     -26.930  13.295 -29.246  1.00  0.00     0.066 A 
ATOM     44  C   UNL     1     -29.123  11.817 -30.172  1.00  0.00     0.162 A 
ATOM     45  C   UNL     1     -27.919  12.883 -28.349  1.00  0.00     0.162 A 
ATOM     46  C   UNL     1     -29.023  12.146 -28.809  1.00  0.00     0.200 A 
BRANCH  44  47
ATOM     47  O   UNL     1     -30.214  11.075 -30.632  1.00  0.00    -0.504 OA
ATOM     48  H   UNL     1     -31.144  11.476 -30.701  1.00  0.00     0.293 HD
ENDBRANCH  44  47
BRANCH  45  49
ATOM     49  O   UNL     1     -27.787  13.208 -26.999  1.00  0.00    -0.504 OA
ATOM     50  H   UNL     1     -27.120  12.743 -26.397  1.00  0.00     0.293 HD
ENDBRANCH  45  49
BRANCH  46  51
ATOM     51  O   UNL     1     -30.006  11.746 -27.904  1.00  0.00    -0.502 OA
ATOM     52  H   UNL     1     -30.190  10.771 -27.694  1.00  0.00     0.293 HD
ENDBRANCH  46  51
ENDBRANCH  39  41
ENDBRANCH  38  39
ENDBRANCH   3  38
BRANCH   5  53
ATOM     53  O   UNL     1     -22.484  16.920 -31.667  1.00  0.00    -0.428 OA
BRANCH  53  54
ATOM     54  C   UNL     1     -23.163  17.988 -32.268  1.00  0.00     0.340 C 
ATOM     55  O   UNL     1     -23.810  17.807 -33.336  1.00  0.00    -0.246 OA
BRANCH  54  56
ATOM     56  C   UNL     1     -23.090  19.333 -31.656  1.00  0.00     0.067 A 
ATOM     57  C   UNL     1     -23.403  20.471 -32.418  1.00  0.00     0.066 A 
ATOM     58  C   UNL     1     -22.722  19.487 -30.310  1.00  0.00     0.066 A 
ATOM     59  C   UNL     1     -23.339  21.750 -31.845  1.00  0.00     0.162 A 
ATOM     60  C   UNL     1     -22.664  20.761 -29.730  1.00  0.00     0.162 A 
ATOM     61  C   UNL     1     -22.965  21.897 -30.498  1.00  0.00     0.200 A 
BRANCH  59  62
ATOM     62  O   UNL     1     -23.645  22.875 -32.607  1.00  0.00    -0.504 OA
ATOM     63  H   UNL     1     -22.922  23.438 -33.038  1.00  0.00     0.293 HD
ENDBRANCH  59  62
BRANCH  60  64
ATOM     64  O   UNL     1     -22.293  20.889 -28.392  1.00  0.00    -0.504 OA
ATOM     65  H   UNL     1     -21.978  20.095 -27.845  1.00  0.00     0.293 HD
ENDBRANCH  60  64
BRANCH  61  66
ATOM     66  O   UNL     1     -22.891  23.162 -29.909  1.00  0.00    -0.502 OA
ATOM     67  H   UNL     1     -23.260  23.343 -28.976  1.00  0.00     0.293 HD
ENDBRANCH  61  66
ENDBRANCH  54  56
ENDBRANCH  53  54
ENDBRANCH   5  53
BRANCH   4  68
ATOM     68  O   UNL     1     -25.103  16.044 -31.255  1.00  0.00    -0.448 OA
BRANCH  68  69
ATOM     69  C   UNL     1     -25.904  17.041 -30.679  1.00  0.00     0.339 C 
ATOM     70  O   UNL     1     -25.902  17.210 -29.430  1.00  0.00    -0.246 OA
BRANCH  69  71
ATOM     71  C   UNL     1     -26.722  17.922 -31.539  1.00  0.00     0.067 A 
ATOM     72  C   UNL     1     -26.122  18.955 -32.281  1.00  0.00     0.066 A 
ATOM     73  C   UNL     1     -28.111  17.736 -31.630  1.00  0.00     0.066 A 
ATOM     74  C   UNL     1     -26.893  19.766 -33.126  1.00  0.00     0.162 A 
ATOM     75  C   UNL     1     -28.896  18.549 -32.457  1.00  0.00     0.162 A 
ATOM     76  C   UNL     1     -28.277  19.564 -33.230  1.00  0.00     0.200 A 
BRANCH  74  77
ATOM     77  O   UNL     1     -26.289  20.772 -33.881  1.00  0.00    -0.504 OA
ATOM     78  H   UNL     1     -26.813  21.567 -34.215  1.00  0.00     0.293 HD
ENDBRANCH  74  77
BRANCH  75  79
ATOM     79  O   UNL     1     -30.275  18.320 -32.470  1.00  0.00    -0.504 OA
ATOM     80  H   UNL     1     -30.968  19.039 -32.338  1.00  0.00     0.293 HD
ENDBRANCH  75  79
BRANCH  76  81
ATOM     81  O   UNL     1     -28.997  20.374 -34.110  1.00  0.00    -0.502 OA
ATOM     82  H   UNL     1     -28.619  20.730 -34.971  1.00  0.00     0.293 HD
ENDBRANCH  76  81
ENDBRANCH  69  71
ENDBRANCH  68  69
ENDBRANCH   4  68
TORSDOF 31
ENDMDL
MODEL 2
REMARK VINA RESULT:     4.719      0.424      2.031
REMARK INTER + INTRA:          13.050
REMARK INTER:                  10.766
REMARK INTRA:                   2.284
REMARK UNBOUND:                 1.848
REMARK SMILES O=C(OC[C@@H]1O[C@@H](OC(=O)c2cc(O)c(O)c(O)c2)[C@@H](OC(=O)c2cc(O)c(O)c(O)c2)[C@H](OC(=O)c2cc(O)c(O)c(O)c2)[C@@H]1OC(=O)c1cc(O)c(O)c(O)c1)c1cc(O)c(O)c(O)c1
REMARK SMILES IDX 5 1 46 2 33 3 20 4 7 5 6 6 4 7 3 8 2 9 1 10 59 11 60 12
REMARK SMILES IDX 61 13 67 14 63 15 65 16 62 17 64 19 66 21 47 23 48 24 49 25
REMARK SMILES IDX 50 26 58 27 51 28 56 29 52 30 54 31 57 32 53 34 55 36 34 38
REMARK SMILES IDX 35 39 36 40 37 41 45 42 38 43 43 44 39 45 41 46 44 47 40 49
REMARK SMILES IDX 42 51 8 53 9 54 10 55 11 56 19 57 12 58 17 59 13 60 15 61
REMARK SMILES IDX 18 62 14 64 16 66 21 68 22 69 23 70 24 71 32 72 25 73 30 74
REMARK SMILES IDX 26 75 28 76 31 77 27 79 29 81
REMARK H PARENT 62 18 64 20 66 22 57 33 53 35 55 37 44 48 40 50 42 52 18 63
REMARK H PARENT 14 65 16 67 31 78 27 80 29 82
REMARK Flexibility Score: inf
ROOT
ATOM      1  C   UNL     1     -21.273  14.610 -30.657  1.00  0.00     0.205 C 
ATOM      2  C   UNL     1     -22.351  13.508 -30.751  1.00  0.00     0.254 C 
ATOM      3  C   UNL     1     -23.627  14.102 -31.380  1.00  0.00     0.267 C 
ATOM      4  C   UNL     1     -24.050  15.372 -30.620  1.00  0.00     0.290 C 
ATOM      5  C   UNL     1     -22.856  16.334 -30.488  1.00  0.00     0.357 C 
ATOM      6  O   UNL     1     -21.743  15.699 -29.878  1.00  0.00    -0.329 OA
ENDROOT
BRANCH   1   7
ATOM      7  C   UNL     1     -19.977  14.064 -30.033  1.00  0.00     0.269 C 
BRANCH   7   8
ATOM      8  O   UNL     1     -18.836  14.703 -30.604  1.00  0.00    -0.459 OA
BRANCH   8   9
ATOM      9  C   UNL     1     -17.568  14.721 -30.011  1.00  0.00     0.338 C 
ATOM     10  O   UNL     1     -17.446  14.543 -28.769  1.00  0.00    -0.246 OA
BRANCH   9  11
ATOM     11  C   UNL     1     -16.369  14.917 -30.855  1.00  0.00     0.067 A 
ATOM     12  C   UNL     1     -16.214  14.186 -32.040  1.00  0.00     0.066 A 
ATOM     13  C   UNL     1     -15.080  14.349 -32.837  1.00  0.00     0.162 A 
ATOM     14  C   UNL     1     -15.371  15.829 -30.481  1.00  0.00     0.066 A 
ATOM     15  C   UNL     1     -14.073  15.255 -32.457  1.00  0.00     0.200 A 
ATOM     16  C   UNL     1     -14.228  16.009 -31.267  1.00  0.00     0.162 A 
BRANCH  13  17
ATOM     17  O   UNL     1     -14.959  13.586 -34.001  1.00  0.00    -0.504 OA
ATOM     18  H   UNL     1     -15.711  13.001 -34.347  1.00  0.00     0.293 HD
ENDBRANCH  13  17
BRANCH  15  19
ATOM     19  O   UNL     1     -12.944  15.374 -33.272  1.00  0.00    -0.502 OA
ATOM     20  H   UNL     1     -12.397  14.592 -33.598  1.00  0.00     0.293 HD
ENDBRANCH  15  19
BRANCH  16  21
ATOM     21  O   UNL     1     -13.284  16.946 -30.837  1.00  0.00    -0.504 OA
ATOM     22  H   UNL     1     -12.601  16.774 -30.117  1.00  0.00     0.293 HD
ENDBRANCH  16  21
ENDBRANCH   9  11
ENDBRANCH   8   9
ENDBRANCH   7   8
ENDBRANCH   1   7
BRANCH   2  23
ATOM     23  O   UNL     1     -22.641  13.013 -29.444  1.00  0.00    -0.452 OA
BRANCH  23  24
ATOM     24  C   UNL     1     -22.188  11.780 -28.955  1.00  0.00     0.338 C 
ATOM     25  O   UNL     1     -23.013  10.875 -28.647  1.00  0.00    -0.246 OA
BRANCH  24  26
ATOM     26  C   UNL     1     -20.738  11.543 -28.805  1.00  0.00     0.067 A 
ATOM     27  C   UNL     1     -19.892  11.543 -29.927  1.00  0.00     0.066 A 
ATOM     28  C   UNL     1     -20.188  11.326 -27.533  1.00  0.00     0.066 A 
ATOM     29  C   UNL     1     -18.518  11.329 -29.783  1.00  0.00     0.162 A 
ATOM     30  C   UNL     1     -18.817  11.104 -27.379  1.00  0.00     0.162 A 
ATOM     31  C   UNL     1     -17.975  11.102 -28.506  1.00  0.00     0.200 A 
BRANCH  29  32
ATOM     32  O   UNL     1     -17.704  11.363 -30.916  1.00  0.00    -0.504 OA
ATOM     33  H   UNL     1     -17.156  12.181 -31.156  1.00  0.00     0.293 HD
ENDBRANCH  29  32
BRANCH  30  34
ATOM     34  O   UNL     1     -18.283  10.877 -26.109  1.00  0.00    -0.504 OA
ATOM     35  H   UNL     1     -18.276  11.607 -25.404  1.00  0.00     0.293 HD
ENDBRANCH  30  34
BRANCH  31  36
ATOM     36  O   UNL     1     -16.603  10.888 -28.369  1.00  0.00    -0.502 OA
ATOM     37  H   UNL     1     -15.990  10.779 -29.171  1.00  0.00     0.293 HD
ENDBRANCH  31  36
ENDBRANCH  24  26
ENDBRANCH  23  24
ENDBRANCH   2  23
BRANCH   3  38
ATOM     38  O   UNL     1     -24.698  13.158 -31.341  1.00  0.00    -0.450 OA
BRANCH  38  39
ATOM     39  C   UNL     1     -26.052  13.491 -31.459  1.00  0.00     0.338 C 
ATOM     40  O   UNL     1     -26.455  14.161 -32.449  1.00  0.00    -0.246 OA
BRANCH  39  41
ATOM     41  C   UNL     1     -27.005  13.058 -30.411  1.00  0.00     0.067 A 
ATOM     42  C   UNL     1     -26.553  12.546 -29.182  1.00  0.00     0.066 A 
ATOM     43  C   UNL     1     -28.386  13.149 -30.641  1.00  0.00     0.066 A 
ATOM     44  C   UNL     1     -27.463  12.101 -28.213  1.00  0.00     0.162 A 
ATOM     45  C   UNL     1     -29.302  12.707 -29.682  1.00  0.00     0.162 A 
ATOM     46  C   UNL     1     -28.844  12.176 -28.466  1.00  0.00     0.200 A 
BRANCH  44  47
ATOM     47  O   UNL     1     -27.003  11.584 -26.998  1.00  0.00    -0.504 OA
ATOM     48  H   UNL     1     -26.938  12.156 -26.163  1.00  0.00     0.293 HD
ENDBRANCH  44  47
BRANCH  45  49
ATOM     49  O   UNL     1     -30.667  12.807 -29.952  1.00  0.00    -0.504 OA
ATOM     50  H   UNL     1     -31.323  13.170 -29.273  1.00  0.00     0.293 HD
ENDBRANCH  45  49
BRANCH  46  51
ATOM     51  O   UNL     1     -29.767  11.731 -27.520  1.00  0.00    -0.502 OA
ATOM     52  H   UNL     1     -30.069  10.765 -27.465  1.00  0.00     0.293 HD
ENDBRANCH  46  51
ENDBRANCH  39  41
ENDBRANCH  38  39
ENDBRANCH   3  38
BRANCH   5  53
ATOM     53  O   UNL     1     -22.493  16.871 -31.763  1.00  0.00    -0.428 OA
BRANCH  53  54
ATOM     54  C   UNL     1     -23.173  17.931 -32.375  1.00  0.00     0.340 C 
ATOM     55  O   UNL     1     -23.794  17.744 -33.457  1.00  0.00    -0.246 OA
BRANCH  54  56
ATOM     56  C   UNL     1     -23.133  19.275 -31.757  1.00  0.00     0.067 A 
ATOM     57  C   UNL     1     -22.869  19.412 -30.384  1.00  0.00     0.066 A 
ATOM     58  C   UNL     1     -23.345  20.425 -32.535  1.00  0.00     0.066 A 
ATOM     59  C   UNL     1     -22.827  20.683 -29.792  1.00  0.00     0.162 A 
ATOM     60  C   UNL     1     -23.295  21.698 -31.950  1.00  0.00     0.162 A 
ATOM     61  C   UNL     1     -23.044  21.830 -30.575  1.00  0.00     0.200 A 
BRANCH  59  62
ATOM     62  O   UNL     1     -22.569  20.811 -28.429  1.00  0.00    -0.504 OA
ATOM     63  H   UNL     1     -21.626  20.913 -28.073  1.00  0.00     0.293 HD
ENDBRANCH  59  62
BRANCH  60  64
ATOM     64  O   UNL     1     -23.512  22.825 -32.742  1.00  0.00    -0.504 OA
ATOM     65  H   UNL     1     -24.426  23.044 -33.124  1.00  0.00     0.293 HD
ENDBRANCH  60  64
BRANCH  61  66
ATOM     66  O   UNL     1     -23.010  23.104 -30.004  1.00  0.00    -0.502 OA
ATOM     67  H   UNL     1     -23.706  23.408 -29.324  1.00  0.00     0.293 HD
ENDBRANCH  61  66
ENDBRANCH  54  56
ENDBRANCH  53  54
ENDBRANCH   5  53
BRANCH   4  68
ATOM     68  O   UNL     1     -25.117  16.031 -31.309  1.00  0.00    -0.448 OA
BRANCH  68  69
ATOM     69  C   UNL     1     -25.925  17.018 -30.724  1.00  0.00     0.339 C 
ATOM     70  O   UNL     1     -25.943  17.158 -29.472  1.00  0.00    -0.246 OA
BRANCH  69  71
ATOM     71  C   UNL     1     -26.724  17.921 -31.578  1.00  0.00     0.067 A 
ATOM     72  C   UNL     1     -28.123  17.789 -31.647  1.00  0.00     0.066 A 
ATOM     73  C   UNL     1     -26.097  18.928 -32.329  1.00  0.00     0.066 A 
ATOM     74  C   UNL     1     -28.885  18.670 -32.427  1.00  0.00     0.162 A 
ATOM     75  C   UNL     1     -26.844  19.806 -33.126  1.00  0.00     0.162 A 
ATOM     76  C   UNL     1     -28.257  19.687 -33.160  1.00  0.00     0.200 A 
BRANCH  74  77
ATOM     77  O   UNL     1     -30.274  18.551 -32.471  1.00  0.00    -0.504 OA
ATOM     78  H   UNL     1     -30.721  17.742 -32.874  1.00  0.00     0.293 HD
ENDBRANCH  74  77
BRANCH  75  79
ATOM     79  O   UNL     1     -26.144  20.762 -33.867  1.00  0.00    -0.504 OA
ATOM     80  H   UNL     1     -25.525  20.543 -34.631  1.00  0.00     0.293 HD
ENDBRANCH  75  79
BRANCH  76  81
ATOM     81  O   UNL     1     -29.060  20.562 -33.895  1.00  0.00    -0.502 OA
ATOM     82  H   UNL     1     -28.978  20.687 -34.889  1.00  0.00     0.293 HD
ENDBRANCH  76  81
ENDBRANCH  69  71
ENDBRANCH  68  69
ENDBRANCH   4  68
TORSDOF 31
ENDMDL
MODEL 3
REMARK VINA RESULT:     5.181      1.004      2.151
REMARK INTER + INTRA:          14.148
REMARK INTER:                  11.763
REMARK INTRA:                   2.385
REMARK UNBOUND:                 1.848
REMARK SMILES O=C(OC[C@@H]1O[C@@H](OC(=O)c2cc(O)c(O)c(O)c2)[C@@H](OC(=O)c2cc(O)c(O)c(O)c2)[C@H](OC(=O)c2cc(O)c(O)c(O)c2)[C@@H]1OC(=O)c1cc(O)c(O)c(O)c1)c1cc(O)c(O)c(O)c1
REMARK SMILES IDX 5 1 46 2 33 3 20 4 7 5 6 6 4 7 3 8 2 9 1 10 59 11 60 12
REMARK SMILES IDX 61 13 67 14 63 15 65 16 62 17 64 19 66 21 47 23 48 24 49 25
REMARK SMILES IDX 50 26 58 27 51 28 56 29 52 30 54 31 57 32 53 34 55 36 34 38
REMARK SMILES IDX 35 39 36 40 37 41 45 42 38 43 43 44 39 45 41 46 44 47 40 49
REMARK SMILES IDX 42 51 8 53 9 54 10 55 11 56 19 57 12 58 17 59 13 60 15 61
REMARK SMILES IDX 18 62 14 64 16 66 21 68 22 69 23 70 24 71 32 72 25 73 30 74
REMARK SMILES IDX 26 75 28 76 31 77 27 79 29 81
REMARK H PARENT 62 18 64 20 66 22 57 33 53 35 55 37 44 48 40 50 42 52 18 63
REMARK H PARENT 14 65 16 67 31 78 27 80 29 82
REMARK Flexibility Score: inf
ROOT
ATOM      1  C   UNL     1     -21.355  14.755 -30.808  1.00  0.00     0.205 C 
ATOM      2  C   UNL     1     -22.481  13.699 -30.859  1.00  0.00     0.254 C 
ATOM      3  C   UNL     1     -23.745  14.336 -31.470  1.00  0.00     0.267 C 
ATOM      4  C   UNL     1     -24.096  15.636 -30.723  1.00  0.00     0.290 C 
ATOM      5  C   UNL     1     -22.859  16.547 -30.635  1.00  0.00     0.357 C 
ATOM      6  O   UNL     1     -21.761  15.876 -30.037  1.00  0.00    -0.329 OA
ENDROOT
BRANCH   1   7
ATOM      7  C   UNL     1     -20.070  14.165 -30.202  1.00  0.00     0.269 C 
BRANCH   7   8
ATOM      8  O   UNL     1     -18.935  14.947 -30.570  1.00  0.00    -0.459 OA
BRANCH   8   9
ATOM      9  C   UNL     1     -17.852  14.460 -31.311  1.00  0.00     0.338 C 
ATOM     10  O   UNL     1     -18.046  13.896 -32.422  1.00  0.00    -0.246 OA
BRANCH   9  11
ATOM     11  C   UNL     1     -16.476  14.641 -30.799  1.00  0.00     0.067 A 
ATOM     12  C   UNL     1     -16.042  13.925 -29.675  1.00  0.00     0.066 A 
ATOM     13  C   UNL     1     -14.752  14.099 -29.172  1.00  0.00     0.162 A 
ATOM     14  C   UNL     1     -15.591  15.532 -31.423  1.00  0.00     0.066 A 
ATOM     15  C   UNL     1     -13.867  15.000 -29.791  1.00  0.00     0.200 A 
ATOM     16  C   UNL     1     -14.293  15.719 -30.936  1.00  0.00     0.162 A 
BRANCH  13  17
ATOM     17  O   UNL     1     -14.368  13.377 -28.039  1.00  0.00    -0.504 OA
ATOM     18  H   UNL     1     -14.635  13.656 -27.102  1.00  0.00     0.293 HD
ENDBRANCH  13  17
BRANCH  15  19
ATOM     19  O   UNL     1     -12.591  15.161 -29.243  1.00  0.00    -0.502 OA
ATOM     20  H   UNL     1     -11.911  14.421 -29.167  1.00  0.00     0.293 HD
ENDBRANCH  15  19
BRANCH  16  21
ATOM     21  O   UNL     1     -13.464  16.613 -31.619  1.00  0.00    -0.504 OA
ATOM     22  H   UNL     1     -13.718  17.559 -31.851  1.00  0.00     0.293 HD
ENDBRANCH  16  21
ENDBRANCH   9  11
ENDBRANCH   8   9
ENDBRANCH   7   8
ENDBRANCH   1   7
BRANCH   2  23
ATOM     23  O   UNL     1     -22.762  13.239 -29.537  1.00  0.00    -0.452 OA
BRANCH  23  24
ATOM     24  C   UNL     1     -22.374  11.985 -29.044  1.00  0.00     0.338 C 
ATOM     25  O   UNL     1     -23.241  11.102 -28.797  1.00  0.00    -0.246 OA
BRANCH  24  26
ATOM     26  C   UNL     1     -20.942  11.702 -28.820  1.00  0.00     0.067 A 
ATOM     27  C   UNL     1     -20.454  11.453 -27.525  1.00  0.00     0.066 A 
ATOM     28  C   UNL     1     -20.053  11.669 -29.904  1.00  0.00     0.066 A 
ATOM     29  C   UNL     1     -19.101  11.176 -27.316  1.00  0.00     0.162 A 
ATOM     30  C   UNL     1     -18.696  11.399 -29.704  1.00  0.00     0.162 A 
ATOM     31  C   UNL     1     -18.214  11.153 -28.406  1.00  0.00     0.200 A 
BRANCH  29  32
ATOM     32  O   UNL     1     -18.657  10.906 -26.020  1.00  0.00    -0.504 OA
ATOM     33  H   UNL     1     -18.728   9.982 -25.612  1.00  0.00     0.293 HD
ENDBRANCH  29  32
BRANCH  30  34
ATOM     34  O   UNL     1     -17.819  11.380 -30.790  1.00  0.00    -0.504 OA
ATOM     35  H   UNL     1     -17.212  10.585 -30.961  1.00  0.00     0.293 HD
ENDBRANCH  30  34
BRANCH  31  36
ATOM     36  O   UNL     1     -16.863  10.877 -28.189  1.00  0.00    -0.502 OA
ATOM     37  H   UNL     1     -16.139  11.168 -28.840  1.00  0.00     0.293 HD
ENDBRANCH  31  36
ENDBRANCH  24  26
ENDBRANCH  23  24
ENDBRANCH   2  23
BRANCH   3  38
ATOM     38  O   UNL     1     -24.853  13.440 -31.391  1.00  0.00    -0.450 OA
BRANCH  38  39
ATOM     39  C   UNL     1     -25.718  13.344 -30.296  1.00  0.00     0.338 C 
ATOM     40  O   UNL     1     -25.379  13.822 -29.179  1.00  0.00    -0.246 OA
BRANCH  39  41
ATOM     41  C   UNL     1     -27.027  12.670 -30.455  1.00  0.00     0.067 A 
ATOM     42  C   UNL     1     -27.393  12.066 -31.670  1.00  0.00     0.066 A 
ATOM     43  C   UNL     1     -27.930  12.634 -29.381  1.00  0.00     0.066 A 
ATOM     44  C   UNL     1     -28.651  11.466 -31.823  1.00  0.00     0.162 A 
ATOM     45  C   UNL     1     -29.187  12.040 -29.523  1.00  0.00     0.162 A 
ATOM     46  C   UNL     1     -29.555  11.459 -30.748  1.00  0.00     0.200 A 
BRANCH  44  47
ATOM     47  O   UNL     1     -29.008  10.879 -33.041  1.00  0.00    -0.504 OA
ATOM     48  H   UNL     1     -29.865  10.345 -33.146  1.00  0.00     0.293 HD
ENDBRANCH  44  47
BRANCH  45  49
ATOM     49  O   UNL     1     -30.060  12.032 -28.435  1.00  0.00    -0.504 OA
ATOM     50  H   UNL     1     -29.789  12.385 -27.527  1.00  0.00     0.293 HD
ENDBRANCH  45  49
BRANCH  46  51
ATOM     51  O   UNL     1     -30.815  10.876 -30.879  1.00  0.00    -0.502 OA
ATOM     52  H   UNL     1     -30.954   9.871 -30.885  1.00  0.00     0.293 HD
ENDBRANCH  46  51
ENDBRANCH  39  41
ENDBRANCH  38  39
ENDBRANCH   3  38
BRANCH   5  53
ATOM     53  O   UNL     1     -22.502  17.047 -31.926  1.00  0.00    -0.428 OA
BRANCH  53  54
ATOM     54  C   UNL     1     -23.156  18.120 -32.545  1.00  0.00     0.340 C 
ATOM     55  O   UNL     1     -23.813  17.935 -33.606  1.00  0.00    -0.246 OA
BRANCH  54  56
ATOM     56  C   UNL     1     -23.046  19.475 -31.961  1.00  0.00     0.067 A 
ATOM     57  C   UNL     1     -23.752  20.548 -32.530  1.00  0.00     0.066 A 
ATOM     58  C   UNL     1     -22.247  19.702 -30.828  1.00  0.00     0.066 A 
ATOM     59  C   UNL     1     -23.655  21.835 -31.981  1.00  0.00     0.162 A 
ATOM     60  C   UNL     1     -22.153  20.984 -30.270  1.00  0.00     0.162 A 
ATOM     61  C   UNL     1     -22.851  22.056 -30.850  1.00  0.00     0.200 A 
BRANCH  59  62
ATOM     62  O   UNL     1     -24.354  22.894 -32.553  1.00  0.00    -0.504 OA
ATOM     63  H   UNL     1     -25.204  22.746 -33.086  1.00  0.00     0.293 HD
ENDBRANCH  59  62
BRANCH  60  64
ATOM     64  O   UNL     1     -21.351  21.186 -29.147  1.00  0.00    -0.504 OA
ATOM     65  H   UNL     1     -21.703  21.637 -28.311  1.00  0.00     0.293 HD
ENDBRANCH  60  64
BRANCH  61  66
ATOM     66  O   UNL     1     -22.737  23.331 -30.290  1.00  0.00    -0.502 OA
ATOM     67  H   UNL     1     -22.628  23.469 -29.286  1.00  0.00     0.293 HD
ENDBRANCH  61  66
ENDBRANCH  54  56
ENDBRANCH  53  54
ENDBRANCH   5  53
BRANCH   4  68
ATOM     68  O   UNL     1     -25.149  16.328 -31.401  1.00  0.00    -0.448 OA
BRANCH  68  69
ATOM     69  C   UNL     1     -25.722  17.519 -30.929  1.00  0.00     0.339 C 
ATOM     70  O   UNL     1     -25.398  17.971 -29.798  1.00  0.00    -0.246 OA
BRANCH  69  71
ATOM     71  C   UNL     1     -26.678  18.266 -31.774  1.00  0.00     0.067 A 
ATOM     72  C   UNL     1     -28.025  17.871 -31.851  1.00  0.00     0.066 A 
ATOM     73  C   UNL     1     -26.252  19.384 -32.509  1.00  0.00     0.066 A 
ATOM     74  C   UNL     1     -28.939  18.602 -32.624  1.00  0.00     0.162 A 
ATOM     75  C   UNL     1     -27.151  20.114 -33.298  1.00  0.00     0.162 A 
ATOM     76  C   UNL     1     -28.514  19.730 -33.340  1.00  0.00     0.200 A 
BRANCH  74  77
ATOM     77  O   UNL     1     -30.280  18.222 -32.675  1.00  0.00    -0.504 OA
ATOM     78  H   UNL     1     -30.756  18.087 -33.555  1.00  0.00     0.293 HD
ENDBRANCH  74  77
BRANCH  75  79
ATOM     79  O   UNL     1     -26.644  21.197 -34.023  1.00  0.00    -0.504 OA
ATOM     80  H   UNL     1     -26.840  21.367 -34.996  1.00  0.00     0.293 HD
ENDBRANCH  75  79
BRANCH  76  81
ATOM     81  O   UNL     1     -29.468  20.446 -34.067  1.00  0.00    -0.502 OA
ATOM     82  H   UNL     1     -30.244  20.924 -33.643  1.00  0.00     0.293 HD
ENDBRANCH  76  81
ENDBRANCH  69  71
ENDBRANCH  68  69
ENDBRANCH   4  68
TORSDOF 31
ENDMDL
MODEL 4
REMARK VINA RESULT:     5.407      1.520      9.747
REMARK INTER + INTRA:          14.682
REMARK INTER:                  12.715
REMARK INTRA:                   1.967
REMARK UNBOUND:                 1.848
REMARK SMILES O=C(OC[C@@H]1O[C@@H](OC(=O)c2cc(O)c(O)c(O)c2)[C@@H](OC(=O)c2cc(O)c(O)c(O)c2)[C@H](OC(=O)c2cc(O)c(O)c(O)c2)[C@@H]1OC(=O)c1cc(O)c(O)c(O)c1)c1cc(O)c(O)c(O)c1
REMARK SMILES IDX 5 1 46 2 33 3 20 4 7 5 6 6 4 7 3 8 2 9 1 10 59 11 60 12
REMARK SMILES IDX 61 13 67 14 63 15 65 16 62 17 64 19 66 21 47 23 48 24 49 25
REMARK SMILES IDX 50 26 58 27 51 28 56 29 52 30 54 31 57 32 53 34 55 36 34 38
REMARK SMILES IDX 35 39 36 40 37 41 45 42 38 43 43 44 39 45 41 46 44 47 40 49
REMARK SMILES IDX 42 51 8 53 9 54 10 55 11 56 19 57 12 58 17 59 13 60 15 61
REMARK SMILES IDX 18 62 14 64 16 66 21 68 22 69 23 70 24 71 32 72 25 73 30 74
REMARK SMILES IDX 26 75 28 76 31 77 27 79 29 81
REMARK H PARENT 62 18 64 20 66 22 57 33 53 35 55 37 44 48 40 50 42 52 18 63
REMARK H PARENT 14 65 16 67 31 78 27 80 29 82
REMARK Flexibility Score: inf
ROOT
ATOM      1  C   UNL     1     -24.362  15.281 -30.386  1.00  0.00     0.205 C 
ATOM      2  C   UNL     1     -23.772  14.142 -29.526  1.00  0.00     0.254 C 
ATOM      3  C   UNL     1     -22.235  14.158 -29.652  1.00  0.00     0.267 C 
ATOM      4  C   UNL     1     -21.826  14.141 -31.136  1.00  0.00     0.290 C 
ATOM      5  C   UNL     1     -22.574  15.244 -31.905  1.00  0.00     0.357 C 
ATOM      6  O   UNL     1     -23.979  15.127 -31.745  1.00  0.00    -0.329 OA
ENDROOT
BRANCH   1   7
ATOM      7  C   UNL     1     -25.897  15.306 -30.295  1.00  0.00     0.269 C 
BRANCH   7   8
ATOM      8  O   UNL     1     -26.442  16.246 -31.218  1.00  0.00    -0.459 OA
BRANCH   8   9
ATOM      9  C   UNL     1     -26.589  17.613 -30.953  1.00  0.00     0.338 C 
ATOM     10  O   UNL     1     -25.990  18.137 -29.975  1.00  0.00    -0.246 OA
BRANCH   9  11
ATOM     11  C   UNL     1     -27.423  18.445 -31.847  1.00  0.00     0.067 A 
ATOM     12  C   UNL     1     -28.772  18.128 -32.051  1.00  0.00     0.066 A 
ATOM     13  C   UNL     1     -29.566  18.895 -32.906  1.00  0.00     0.162 A 
ATOM     14  C   UNL     1     -26.877  19.557 -32.507  1.00  0.00     0.066 A 
ATOM     15  C   UNL     1     -29.016  20.002 -33.576  1.00  0.00     0.200 A 
ATOM     16  C   UNL     1     -27.656  20.340 -33.366  1.00  0.00     0.162 A 
BRANCH  13  17
ATOM     17  O   UNL     1     -30.901  18.531 -33.092  1.00  0.00    -0.504 OA
ATOM     18  H   UNL     1     -31.195  17.904 -33.833  1.00  0.00     0.293 HD
ENDBRANCH  13  17
BRANCH  15  19
ATOM     19  O   UNL     1     -29.839  20.732 -34.439  1.00  0.00    -0.502 OA
ATOM     20  H   UNL     1     -29.542  21.093 -35.333  1.00  0.00     0.293 HD
ENDBRANCH  15  19
BRANCH  16  21
ATOM     21  O   UNL     1     -27.046  21.439 -33.977  1.00  0.00    -0.504 OA
ATOM     22  H   UNL     1     -26.210  21.885 -33.638  1.00  0.00     0.293 HD
ENDBRANCH  16  21
ENDBRANCH   9  11
ENDBRANCH   8   9
ENDBRANCH   7   8
ENDBRANCH   1   7
BRANCH   2  23
ATOM     23  O   UNL     1     -24.282  12.889 -29.982  1.00  0.00    -0.452 OA
BRANCH  23  24
ATOM     24  C   UNL     1     -25.064  12.029 -29.198  1.00  0.00     0.338 C 
ATOM     25  O   UNL     1     -24.576  11.484 -28.170  1.00  0.00    -0.246 OA
BRANCH  24  26
ATOM     26  C   UNL     1     -26.466  11.767 -29.582  1.00  0.00     0.067 A 
ATOM     27  C   UNL     1     -27.496  11.841 -28.628  1.00  0.00     0.066 A 
ATOM     28  C   UNL     1     -26.785  11.450 -30.910  1.00  0.00     0.066 A 
ATOM     29  C   UNL     1     -28.824  11.603 -28.993  1.00  0.00     0.162 A 
ATOM     30  C   UNL     1     -28.109  11.203 -31.284  1.00  0.00     0.162 A 
ATOM     31  C   UNL     1     -29.135  11.277 -30.325  1.00  0.00     0.200 A 
BRANCH  29  32
ATOM     32  O   UNL     1     -29.823  11.713 -28.026  1.00  0.00    -0.504 OA
ATOM     33  H   UNL     1     -29.998  10.978 -27.351  1.00  0.00     0.293 HD
ENDBRANCH  29  32
BRANCH  30  34
ATOM     34  O   UNL     1     -28.413  10.876 -32.607  1.00  0.00    -0.504 OA
ATOM     35  H   UNL     1     -28.794   9.968 -32.850  1.00  0.00     0.293 HD
ENDBRANCH  30  34
BRANCH  31  36
ATOM     36  O   UNL     1     -30.462  11.038 -30.683  1.00  0.00    -0.502 OA
ATOM     37  H   UNL     1     -30.785  10.125 -30.991  1.00  0.00     0.293 HD
ENDBRANCH  31  36
ENDBRANCH  24  26
ENDBRANCH  23  24
ENDBRANCH   2  23
BRANCH   3  38
ATOM     38  O   UNL     1     -21.662  13.026 -28.998  1.00  0.00    -0.450 OA
BRANCH  38  39
ATOM     39  C   UNL     1     -20.966  12.002 -29.651  1.00  0.00     0.338 C 
ATOM     40  O   UNL     1     -21.519  11.356 -30.582  1.00  0.00    -0.246 OA
BRANCH  39  41
ATOM     41  C   UNL     1     -19.582  11.678 -29.234  1.00  0.00     0.067 A 
ATOM     42  C   UNL     1     -19.240  11.553 -27.877  1.00  0.00     0.066 A 
ATOM     43  C   UNL     1     -18.584  11.499 -30.204  1.00  0.00     0.066 A 
ATOM     44  C   UNL     1     -17.919  11.286 -27.491  1.00  0.00     0.162 A 
ATOM     45  C   UNL     1     -17.263  11.236 -29.831  1.00  0.00     0.162 A 
ATOM     46  C   UNL     1     -16.924  11.134 -28.472  1.00  0.00     0.200 A 
BRANCH  44  47
ATOM     47  O   UNL     1     -17.588  11.175 -26.138  1.00  0.00    -0.504 OA
ATOM     48  H   UNL     1     -17.283  10.296 -25.732  1.00  0.00     0.293 HD
ENDBRANCH  44  47
BRANCH  45  49
ATOM     49  O   UNL     1     -16.297  11.072 -30.825  1.00  0.00    -0.504 OA
ATOM     50  H   UNL     1     -16.525  11.130 -31.809  1.00  0.00     0.293 HD
ENDBRANCH  45  49
BRANCH  46  51
ATOM     51  O   UNL     1     -15.601  10.877 -28.112  1.00  0.00    -0.502 OA
ATOM     52  H   UNL     1     -15.148   9.988 -28.297  1.00  0.00     0.293 HD
ENDBRANCH  46  51
ENDBRANCH  39  41
ENDBRANCH  38  39
ENDBRANCH   3  38
BRANCH   5  53
ATOM     53  O   UNL     1     -22.126  16.540 -31.500  1.00  0.00    -0.428 OA
BRANCH  53  54
ATOM     54  C   UNL     1     -22.995  17.584 -31.156  1.00  0.00     0.340 C 
ATOM     55  O   UNL     1     -23.503  17.631 -30.002  1.00  0.00    -0.246 OA
BRANCH  54  56
ATOM     56  C   UNL     1     -23.334  18.611 -32.166  1.00  0.00     0.067 A 
ATOM     57  C   UNL     1     -23.564  19.939 -31.770  1.00  0.00     0.066 A 
ATOM     58  C   UNL     1     -23.417  18.275 -33.527  1.00  0.00     0.066 A 
ATOM     59  C   UNL     1     -23.884  20.920 -32.720  1.00  0.00     0.162 A 
ATOM     60  C   UNL     1     -23.728  19.252 -34.482  1.00  0.00     0.162 A 
ATOM     61  C   UNL     1     -23.970  20.576 -34.081  1.00  0.00     0.200 A 
BRANCH  59  62
ATOM     62  O   UNL     1     -24.115  22.233 -32.321  1.00  0.00    -0.504 OA
ATOM     63  H   UNL     1     -24.114  22.500 -31.343  1.00  0.00     0.293 HD
ENDBRANCH  59  62
BRANCH  60  64
ATOM     64  O   UNL     1     -23.809  18.894 -35.828  1.00  0.00    -0.504 OA
ATOM     65  H   UNL     1     -23.123  18.286 -36.262  1.00  0.00     0.293 HD
ENDBRANCH  60  64
BRANCH  61  66
ATOM     66  O   UNL     1     -24.291  21.536 -35.043  1.00  0.00    -0.502 OA
ATOM     67  H   UNL     1     -23.613  22.231 -35.357  1.00  0.00     0.293 HD
ENDBRANCH  61  66
ENDBRANCH  54  56
ENDBRANCH  53  54
ENDBRANCH   5  53
BRANCH   4  68
ATOM     68  O   UNL     1     -20.415  14.346 -31.263  1.00  0.00    -0.448 OA
BRANCH  68  69
ATOM     69  C   UNL     1     -19.581  14.687 -30.187  1.00  0.00     0.339 C 
ATOM     70  O   UNL     1     -20.084  15.014 -29.078  1.00  0.00    -0.246 OA
BRANCH  69  71
ATOM     71  C   UNL     1     -18.113  14.624 -30.340  1.00  0.00     0.067 A 
ATOM     72  C   UNL     1     -17.277  14.580 -29.210  1.00  0.00     0.066 A 
ATOM     73  C   UNL     1     -17.532  14.603 -31.619  1.00  0.00     0.066 A 
ATOM     74  C   UNL     1     -15.886  14.482 -29.356  1.00  0.00     0.162 A 
ATOM     75  C   UNL     1     -16.143  14.522 -31.779  1.00  0.00     0.162 A 
ATOM     76  C   UNL     1     -15.311  14.441 -30.634  1.00  0.00     0.200 A 
BRANCH  74  77
ATOM     77  O   UNL     1     -15.063  14.412 -28.232  1.00  0.00    -0.504 OA
ATOM     78  H   UNL     1     -15.409  14.633 -27.311  1.00  0.00     0.293 HD
ENDBRANCH  74  77
BRANCH  75  79
ATOM     79  O   UNL     1     -15.640  14.536 -33.084  1.00  0.00    -0.504 OA
ATOM     80  H   UNL     1     -16.182  14.785 -33.896  1.00  0.00     0.293 HD
ENDBRANCH  75  79
BRANCH  76  81
ATOM     81  O   UNL     1     -13.924  14.308 -30.729  1.00  0.00    -0.502 OA
ATOM     82  H   UNL     1     -13.470  13.525 -31.166  1.00  0.00     0.293 HD
ENDBRANCH  76  81
ENDBRANCH  69  71
ENDBRANCH  68  69
ENDBRANCH   4  68
TORSDOF 31
ENDMDL
MODEL 5
REMARK VINA RESULT:     6.150      2.067      6.543
REMARK INTER + INTRA:          16.447
REMARK INTER:                  16.545
REMARK INTRA:                  -0.098
REMARK UNBOUND:                 1.848
REMARK SMILES O=C(OC[C@@H]1O[C@@H](OC(=O)c2cc(O)c(O)c(O)c2)[C@@H](OC(=O)c2cc(O)c(O)c(O)c2)[C@H](OC(=O)c2cc(O)c(O)c(O)c2)[C@@H]1OC(=O)c1cc(O)c(O)c(O)c1)c1cc(O)c(O)c(O)c1
REMARK SMILES IDX 5 1 46 2 33 3 20 4 7 5 6 6 4 7 3 8 2 9 1 10 59 11 60 12
REMARK SMILES IDX 61 13 67 14 63 15 65 16 62 17 64 19 66 21 47 23 48 24 49 25
REMARK SMILES IDX 50 26 58 27 51 28 56 29 52 30 54 31 57 32 53 34 55 36 34 38
REMARK SMILES IDX 35 39 36 40 37 41 45 42 38 43 43 44 39 45 41 46 44 47 40 49
REMARK SMILES IDX 42 51 8 53 9 54 10 55 11 56 19 57 12 58 17 59 13 60 15 61
REMARK SMILES IDX 18 62 14 64 16 66 21 68 22 69 23 70 24 71 32 72 25 73 30 74
REMARK SMILES IDX 26 75 28 76 31 77 27 79 29 81
REMARK H PARENT 62 18 64 20 66 22 57 33 53 35 55 37 44 48 40 50 42 52 18 63
REMARK H PARENT 14 65 16 67 31 78 27 80 29 82
REMARK Flexibility Score: inf
ROOT
ATOM      1  C   UNL     1     -20.582  12.393 -28.980  1.00  0.00     0.205 C 
ATOM      2  C   UNL     1     -20.448  13.826 -29.539  1.00  0.00     0.254 C 
ATOM      3  C   UNL     1     -21.822  14.523 -29.478  1.00  0.00     0.267 C 
ATOM      4  C   UNL     1     -22.889  13.648 -30.161  1.00  0.00     0.290 C 
ATOM      5  C   UNL     1     -22.837  12.215 -29.602  1.00  0.00     0.357 C 
ATOM      6  O   UNL     1     -21.539  11.657 -29.727  1.00  0.00    -0.329 OA
ENDROOT
BRANCH   1   7
ATOM      7  C   UNL     1     -19.233  11.655 -29.021  1.00  0.00     0.269 C 
BRANCH   7   8
ATOM      8  O   UNL     1     -18.240  12.380 -28.298  1.00  0.00    -0.459 OA
BRANCH   8   9
ATOM      9  C   UNL     1     -17.246  11.783 -27.514  1.00  0.00     0.338 C 
ATOM     10  O   UNL     1     -17.562  11.041 -26.545  1.00  0.00    -0.246 OA
BRANCH   9  11
ATOM     11  C   UNL     1     -15.822  12.000 -27.849  1.00  0.00     0.067 A 
ATOM     12  C   UNL     1     -14.876  12.172 -26.830  1.00  0.00     0.066 A 
ATOM     13  C   UNL     1     -13.531  12.394 -27.134  1.00  0.00     0.162 A 
ATOM     14  C   UNL     1     -15.399  12.042 -29.186  1.00  0.00     0.066 A 
ATOM     15  C   UNL     1     -13.109  12.448 -28.474  1.00  0.00     0.200 A 
ATOM     16  C   UNL     1     -14.056  12.261 -29.511  1.00  0.00     0.162 A 
BRANCH  13  17
ATOM     17  O   UNL     1     -12.626  12.578 -26.086  1.00  0.00    -0.504 OA
ATOM     18  H   UNL     1     -11.747  12.077 -26.034  1.00  0.00     0.293 HD
ENDBRANCH  13  17
BRANCH  15  19
ATOM     19  O   UNL     1     -11.757  12.694 -28.736  1.00  0.00    -0.502 OA
ATOM     20  H   UNL     1     -11.172  13.292 -28.174  1.00  0.00     0.293 HD
ENDBRANCH  15  19
BRANCH  16  21
ATOM     21  O   UNL     1     -13.709  12.277 -30.865  1.00  0.00    -0.504 OA
ATOM     22  H   UNL     1     -12.829  11.951 -31.230  1.00  0.00     0.293 HD
ENDBRANCH  16  21
ENDBRANCH   9  11
ENDBRANCH   8   9
ENDBRANCH   7   8
ENDBRANCH   1   7
BRANCH   2  23
ATOM     23  O   UNL     1     -19.994  13.769 -30.891  1.00  0.00    -0.452 OA
BRANCH  23  24
ATOM     24  C   UNL     1     -18.813  13.130 -31.295  1.00  0.00     0.338 C 
ATOM     25  O   UNL     1     -18.816  11.897 -31.565  1.00  0.00    -0.246 OA
BRANCH  24  26
ATOM     26  C   UNL     1     -17.564  13.910 -31.405  1.00  0.00     0.067 A 
ATOM     27  C   UNL     1     -16.714  13.751 -32.514  1.00  0.00     0.066 A 
ATOM     28  C   UNL     1     -17.216  14.828 -30.403  1.00  0.00     0.066 A 
ATOM     29  C   UNL     1     -15.537  14.496 -32.621  1.00  0.00     0.162 A 
ATOM     30  C   UNL     1     -16.038  15.573 -30.498  1.00  0.00     0.162 A 
ATOM     31  C   UNL     1     -15.191  15.408 -31.609  1.00  0.00     0.200 A 
BRANCH  29  32
ATOM     32  O   UNL     1     -14.733  14.334 -33.750  1.00  0.00    -0.504 OA
ATOM     33  H   UNL     1     -14.050  13.588 -33.817  1.00  0.00     0.293 HD
ENDBRANCH  29  32
BRANCH  30  34
ATOM     34  O   UNL     1     -15.697  16.475 -29.489  1.00  0.00    -0.504 OA
ATOM     35  H   UNL     1     -14.734  16.760 -29.342  1.00  0.00     0.293 HD
ENDBRANCH  30  34
BRANCH  31  36
ATOM     36  O   UNL     1     -14.013  16.149 -31.722  1.00  0.00    -0.502 OA
ATOM     37  H   UNL     1     -13.325  15.964 -32.446  1.00  0.00     0.293 HD
ENDBRANCH  31  36
ENDBRANCH  24  26
ENDBRANCH  23  24
ENDBRANCH   2  23
BRANCH   3  38
ATOM     38  O   UNL     1     -21.776  15.793 -30.129  1.00  0.00    -0.450 OA
BRANCH  38  39
ATOM     39  C   UNL     1     -22.389  16.078 -31.353  1.00  0.00     0.338 C 
ATOM     40  O   UNL     1     -22.574  15.159 -32.198  1.00  0.00    -0.246 OA
BRANCH  39  41
ATOM     41  C   UNL     1     -22.811  17.466 -31.654  1.00  0.00     0.067 A 
ATOM     42  C   UNL     1     -23.545  17.770 -32.813  1.00  0.00     0.066 A 
ATOM     43  C   UNL     1     -22.469  18.506 -30.775  1.00  0.00     0.066 A 
ATOM     44  C   UNL     1     -23.903  19.093 -33.109  1.00  0.00     0.162 A 
ATOM     45  C   UNL     1     -22.820  19.828 -31.061  1.00  0.00     0.162 A 
ATOM     46  C   UNL     1     -23.534  20.128 -32.233  1.00  0.00     0.200 A 
BRANCH  44  47
ATOM     47  O   UNL     1     -24.624  19.385 -34.271  1.00  0.00    -0.504 OA
ATOM     48  H   UNL     1     -25.201  18.689 -34.732  1.00  0.00     0.293 HD
ENDBRANCH  44  47
BRANCH  45  49
ATOM     49  O   UNL     1     -22.455  20.836 -30.167  1.00  0.00    -0.504 OA
ATOM     50  H   UNL     1     -21.645  21.422 -30.322  1.00  0.00     0.293 HD
ENDBRANCH  45  49
BRANCH  46  51
ATOM     51  O   UNL     1     -23.872  21.452 -32.511  1.00  0.00    -0.502 OA
ATOM     52  H   UNL     1     -23.405  21.995 -33.229  1.00  0.00     0.293 HD
ENDBRANCH  46  51
ENDBRANCH  39  41
ENDBRANCH  38  39
ENDBRANCH   3  38
BRANCH   5  53
ATOM     53  O   UNL     1     -23.271  12.184 -28.240  1.00  0.00    -0.428 OA
BRANCH  53  54
ATOM     54  C   UNL     1     -24.452  11.558 -27.821  1.00  0.00     0.340 C 
ATOM     55  O   UNL     1     -24.465  10.875 -26.761  1.00  0.00    -0.246 OA
BRANCH  54  56
ATOM     56  C   UNL     1     -25.674  11.681 -28.647  1.00  0.00     0.067 A 
ATOM     57  C   UNL     1     -25.676  11.220 -29.974  1.00  0.00     0.066 A 
ATOM     58  C   UNL     1     -26.844  12.246 -28.114  1.00  0.00     0.066 A 
ATOM     59  C   UNL     1     -26.830  11.330 -30.764  1.00  0.00     0.162 A 
ATOM     60  C   UNL     1     -28.002  12.351 -28.895  1.00  0.00     0.162 A 
ATOM     61  C   UNL     1     -27.996  11.901 -30.224  1.00  0.00     0.200 A 
BRANCH  59  62
ATOM     62  O   UNL     1     -26.824  10.876 -32.080  1.00  0.00    -0.504 OA
ATOM     63  H   UNL     1     -27.671  10.556 -32.536  1.00  0.00     0.293 HD
ENDBRANCH  59  62
BRANCH  60  64
ATOM     64  O   UNL     1     -29.151  12.919 -28.344  1.00  0.00    -0.504 OA
ATOM     65  H   UNL     1     -30.067  12.777 -28.752  1.00  0.00     0.293 HD
ENDBRANCH  60  64
BRANCH  61  66
ATOM     66  O   UNL     1     -29.156  12.023 -30.995  1.00  0.00    -0.502 OA
ATOM     67  H   UNL     1     -29.977  12.523 -30.655  1.00  0.00     0.293 HD
ENDBRANCH  61  66
ENDBRANCH  54  56
ENDBRANCH  53  54
ENDBRANCH   5  53
BRANCH   4  68
ATOM     68  O   UNL     1     -24.193  14.196 -29.943  1.00  0.00    -0.448 OA
BRANCH  68  69
ATOM     69  C   UNL     1     -25.067  14.553 -30.981  1.00  0.00     0.339 C 
ATOM     70  O   UNL     1     -25.293  13.745 -31.922  1.00  0.00    -0.246 OA
BRANCH  69  71
ATOM     71  C   UNL     1     -25.754  15.862 -30.953  1.00  0.00     0.067 A 
ATOM     72  C   UNL     1     -26.613  16.241 -32.000  1.00  0.00     0.066 A 
ATOM     73  C   UNL     1     -25.560  16.742 -29.876  1.00  0.00     0.066 A 
ATOM     74  C   UNL     1     -27.294  17.466 -31.954  1.00  0.00     0.162 A 
ATOM     75  C   UNL     1     -26.222  17.976 -29.825  1.00  0.00     0.162 A 
ATOM     76  C   UNL     1     -27.114  18.334 -30.867  1.00  0.00     0.200 A 
BRANCH  74  77
ATOM     77  O   UNL     1     -28.165  17.827 -32.981  1.00  0.00    -0.504 OA
ATOM     78  H   UNL     1     -28.333  18.793 -33.215  1.00  0.00     0.293 HD
ENDBRANCH  74  77
BRANCH  75  79
ATOM     79  O   UNL     1     -25.954  18.809 -28.735  1.00  0.00    -0.504 OA
ATOM     80  H   UNL     1     -25.466  19.688 -28.802  1.00  0.00     0.293 HD
ENDBRANCH  75  79
BRANCH  76  81
ATOM     81  O   UNL     1     -27.840  19.527 -30.849  1.00  0.00    -0.502 OA
ATOM     82  H   UNL     1     -28.074  20.046 -31.678  1.00  0.00     0.293 HD
ENDBRANCH  76  81
ENDBRANCH  69  71
ENDBRANCH  68  69
ENDBRANCH   4  68
TORSDOF 31
ENDMDL
MODEL 6
REMARK VINA RESULT:     6.387      1.492      2.787
REMARK INTER + INTRA:          17.009
REMARK INTER:                  16.628
REMARK INTRA:                   0.381
REMARK UNBOUND:                 1.848
REMARK SMILES O=C(OC[C@@H]1O[C@@H](OC(=O)c2cc(O)c(O)c(O)c2)[C@@H](OC(=O)c2cc(O)c(O)c(O)c2)[C@H](OC(=O)c2cc(O)c(O)c(O)c2)[C@@H]1OC(=O)c1cc(O)c(O)c(O)c1)c1cc(O)c(O)c(O)c1
REMARK SMILES IDX 5 1 46 2 33 3 20 4 7 5 6 6 4 7 3 8 2 9 1 10 59 11 60 12
REMARK SMILES IDX 61 13 67 14 63 15 65 16 62 17 64 19 66 21 47 23 48 24 49 25
REMARK SMILES IDX 50 26 58 27 51 28 56 29 52 30 54 31 57 32 53 34 55 36 34 38
REMARK SMILES IDX 35 39 36 40 37 41 45 42 38 43 43 44 39 45 41 46 44 47 40 49
REMARK SMILES IDX 42 51 8 53 9 54 10 55 11 56 19 57 12 58 17 59 13 60 15 61
REMARK SMILES IDX 18 62 14 64 16 66 21 68 22 69 23 70 24 71 32 72 25 73 30 74
REMARK SMILES IDX 26 75 28 76 31 77 27 79 29 81
REMARK H PARENT 62 18 64 20 66 22 57 33 53 35 55 37 44 48 40 50 42 52 18 63
REMARK H PARENT 14 65 16 67 31 78 27 80 29 82
REMARK Flexibility Score: inf
ROOT
ATOM      1  C   UNL     1     -21.368  15.189 -30.872  1.00  0.00     0.205 C 
ATOM      2  C   UNL     1     -22.511  14.162 -31.031  1.00  0.00     0.254 C 
ATOM      3  C   UNL     1     -23.742  14.864 -31.639  1.00  0.00     0.267 C 
ATOM      4  C   UNL     1     -24.094  16.118 -30.817  1.00  0.00     0.290 C 
ATOM      5  C   UNL     1     -22.845  16.996 -30.628  1.00  0.00     0.357 C 
ATOM      6  O   UNL     1     -21.780  16.264 -30.042  1.00  0.00    -0.329 OA
ENDROOT
BRANCH   1   7
ATOM      7  C   UNL     1     -20.115  14.534 -30.267  1.00  0.00     0.269 C 
BRANCH   7   8
ATOM      8  O   UNL     1     -18.937  15.222 -30.683  1.00  0.00    -0.459 OA
BRANCH   8   9
ATOM      9  C   UNL     1     -17.850  14.606 -31.315  1.00  0.00     0.338 C 
ATOM     10  O   UNL     1     -17.999  14.051 -32.437  1.00  0.00    -0.246 OA
BRANCH   9  11
ATOM     11  C   UNL     1     -16.517  14.641 -30.674  1.00  0.00     0.067 A 
ATOM     12  C   UNL     1     -16.120  13.605 -29.818  1.00  0.00     0.066 A 
ATOM     13  C   UNL     1     -14.871  13.634 -29.194  1.00  0.00     0.162 A 
ATOM     14  C   UNL     1     -15.637  15.708 -30.908  1.00  0.00     0.066 A 
ATOM     15  C   UNL     1     -13.993  14.709 -29.419  1.00  0.00     0.200 A 
ATOM     16  C   UNL     1     -14.381  15.754 -30.294  1.00  0.00     0.162 A 
BRANCH  13  17
ATOM     17  O   UNL     1     -14.524  12.589 -28.334  1.00  0.00    -0.504 OA
ATOM     18  H   UNL     1     -15.197  12.146 -27.720  1.00  0.00     0.293 HD
ENDBRANCH  13  17
BRANCH  15  19
ATOM     19  O   UNL     1     -12.761  14.711 -28.758  1.00  0.00    -0.502 OA
ATOM     20  H   UNL     1     -12.187  15.531 -28.634  1.00  0.00     0.293 HD
ENDBRANCH  15  19
BRANCH  16  21
ATOM     21  O   UNL     1     -13.554  16.843 -30.586  1.00  0.00    -0.504 OA
ATOM     22  H   UNL     1     -13.113  17.423 -29.892  1.00  0.00     0.293 HD
ENDBRANCH  16  21
ENDBRANCH   9  11
ENDBRANCH   8   9
ENDBRANCH   7   8
ENDBRANCH   1   7
BRANCH   2  23
ATOM     23  O   UNL     1     -22.844  13.620 -29.753  1.00  0.00    -0.452 OA
BRANCH  23  24
ATOM     24  C   UNL     1     -22.538  12.312 -29.352  1.00  0.00     0.338 C 
ATOM     25  O   UNL     1     -23.456  11.461 -29.199  1.00  0.00    -0.246 OA
BRANCH  24  26
ATOM     26  C   UNL     1     -21.130  11.935 -29.113  1.00  0.00     0.067 A 
ATOM     27  C   UNL     1     -20.200  11.928 -30.168  1.00  0.00     0.066 A 
ATOM     28  C   UNL     1     -20.704  11.588 -27.823  1.00  0.00     0.066 A 
ATOM     29  C   UNL     1     -18.866  11.581 -29.938  1.00  0.00     0.162 A 
ATOM     30  C   UNL     1     -19.373  11.232 -27.585  1.00  0.00     0.162 A 
ATOM     31  C   UNL     1     -18.448  11.225 -28.644  1.00  0.00     0.200 A 
BRANCH  29  32
ATOM     32  O   UNL     1     -17.965  11.613 -31.003  1.00  0.00    -0.504 OA
ATOM     33  H   UNL     1     -16.985  11.388 -30.881  1.00  0.00     0.293 HD
ENDBRANCH  29  32
BRANCH  30  34
ATOM     34  O   UNL     1     -18.963  10.877 -26.298  1.00  0.00    -0.504 OA
ATOM     35  H   UNL     1     -19.028  11.533 -25.527  1.00  0.00     0.293 HD
ENDBRANCH  30  34
BRANCH  31  36
ATOM     36  O   UNL     1     -17.114  10.878 -28.422  1.00  0.00    -0.502 OA
ATOM     37  H   UNL     1     -16.376  11.574 -28.363  1.00  0.00     0.293 HD
ENDBRANCH  31  36
ENDBRANCH  24  26
ENDBRANCH  23  24
ENDBRANCH   2  23
BRANCH   3  38
ATOM     38  O   UNL     1     -24.869  13.988 -31.656  1.00  0.00    -0.450 OA
BRANCH  38  39
ATOM     39  C   UNL     1     -25.673  13.710 -30.546  1.00  0.00     0.338 C 
ATOM     40  O   UNL     1     -25.328  14.105 -29.399  1.00  0.00    -0.246 OA
BRANCH  39  41
ATOM     41  C   UNL     1     -26.927  12.941 -30.727  1.00  0.00     0.067 A 
ATOM     42  C   UNL     1     -27.190  12.246 -31.920  1.00  0.00     0.066 A 
ATOM     43  C   UNL     1     -27.880  12.906 -29.697  1.00  0.00     0.066 A 
ATOM     44  C   UNL     1     -28.397  11.556 -32.096  1.00  0.00     0.162 A 
ATOM     45  C   UNL     1     -29.087  12.222 -29.863  1.00  0.00     0.162 A 
ATOM     46  C   UNL     1     -29.354  11.549 -31.066  1.00  0.00     0.200 A 
BRANCH  44  47
ATOM     47  O   UNL     1     -28.653  10.877 -33.291  1.00  0.00    -0.504 OA
ATOM     48  H   UNL     1     -28.082  10.096 -33.596  1.00  0.00     0.293 HD
ENDBRANCH  44  47
BRANCH  45  49
ATOM     49  O   UNL     1     -30.013  12.217 -28.819  1.00  0.00    -0.504 OA
ATOM     50  H   UNL     1     -30.246  11.373 -28.313  1.00  0.00     0.293 HD
ENDBRANCH  45  49
BRANCH  46  51
ATOM     51  O   UNL     1     -30.565  10.876 -31.222  1.00  0.00    -0.502 OA
ATOM     52  H   UNL     1     -31.311  11.225 -31.814  1.00  0.00     0.293 HD
ENDBRANCH  46  51
ENDBRANCH  39  41
ENDBRANCH  38  39
ENDBRANCH   3  38
BRANCH   5  53
ATOM     53  O   UNL     1     -22.436  17.574 -31.870  1.00  0.00    -0.428 OA
BRANCH  53  54
ATOM     54  C   UNL     1     -22.409  18.954 -32.106  1.00  0.00     0.340 C 
ATOM     55  O   UNL     1     -21.640  19.697 -31.437  1.00  0.00    -0.246 OA
BRANCH  54  56
ATOM     56  C   UNL     1     -23.311  19.536 -33.125  1.00  0.00     0.067 A 
ATOM     57  C   UNL     1     -24.178  20.587 -32.782  1.00  0.00     0.066 A 
ATOM     58  C   UNL     1     -23.302  19.055 -34.445  1.00  0.00     0.066 A 
ATOM     59  C   UNL     1     -25.034  21.145 -33.742  1.00  0.00     0.162 A 
ATOM     60  C   UNL     1     -24.150  19.615 -35.411  1.00  0.00     0.162 A 
ATOM     61  C   UNL     1     -25.023  20.656 -35.060  1.00  0.00     0.200 A 
BRANCH  59  62
ATOM     62  O   UNL     1     -25.894  22.183 -33.394  1.00  0.00    -0.504 OA
ATOM     63  H   UNL     1     -26.883  22.151 -33.612  1.00  0.00     0.293 HD
ENDBRANCH  59  62
BRANCH  60  64
ATOM     64  O   UNL     1     -24.126  19.118 -36.714  1.00  0.00    -0.504 OA
ATOM     65  H   UNL     1     -24.965  19.058 -37.279  1.00  0.00     0.293 HD
ENDBRANCH  60  64
BRANCH  61  66
ATOM     66  O   UNL     1     -25.871  21.196 -36.031  1.00  0.00    -0.502 OA
ATOM     67  H   UNL     1     -26.885  21.182 -35.928  1.00  0.00     0.293 HD
ENDBRANCH  61  66
ENDBRANCH  54  56
ENDBRANCH  53  54
ENDBRANCH   5  53
BRANCH   4  68
ATOM     68  O   UNL     1     -25.111  16.875 -31.480  1.00  0.00    -0.448 OA
BRANCH  68  69
ATOM     69  C   UNL     1     -26.177  17.494 -30.810  1.00  0.00     0.339 C 
ATOM     70  O   UNL     1     -26.148  17.618 -29.556  1.00  0.00    -0.246 OA
BRANCH  69  71
ATOM     71  C   UNL     1     -27.319  18.037 -31.577  1.00  0.00     0.067 A 
ATOM     72  C   UNL     1     -28.622  17.555 -31.357  1.00  0.00     0.066 A 
ATOM     73  C   UNL     1     -27.116  19.045 -32.533  1.00  0.00     0.066 A 
ATOM     74  C   UNL     1     -29.709  18.097 -32.058  1.00  0.00     0.162 A 
ATOM     75  C   UNL     1     -28.191  19.584 -33.252  1.00  0.00     0.162 A 
ATOM     76  C   UNL     1     -29.505  19.118 -32.998  1.00  0.00     0.200 A 
BRANCH  74  77
ATOM     77  O   UNL     1     -31.003  17.635 -31.818  1.00  0.00    -0.504 OA
ATOM     78  H   UNL     1     -31.492  17.065 -32.491  1.00  0.00     0.293 HD
ENDBRANCH  74  77
BRANCH  75  79
ATOM     79  O   UNL     1     -27.904  20.564 -34.207  1.00  0.00    -0.504 OA
ATOM     80  H   UNL     1     -27.000  20.994 -34.321  1.00  0.00     0.293 HD
ENDBRANCH  75  79
BRANCH  76  81
ATOM     81  O   UNL     1     -30.623  19.650 -33.645  1.00  0.00    -0.502 OA
ATOM     82  H   UNL     1     -31.558  19.584 -33.282  1.00  0.00     0.293 HD
ENDBRANCH  76  81
ENDBRANCH  69  71
ENDBRANCH  68  69
ENDBRANCH   4  68
TORSDOF 31
ENDMDL
