MODEL 1
REMARK VINA RESULT:    -5.398      0.000      0.000
REMARK INTER + INTRA:          -6.108
REMARK INTER:                  -6.029
REMARK INTRA:                  -0.079
REMARK UNBOUND:                -0.079
REMARK SMILES CCc1ccc(O)cc1O
REMARK SMILES IDX 3 1 9 2 8 3 6 4 5 5 4 6 2 7 1 8 10 9 7 11
REMARK H PARENT 10 10 7 12
REMARK Flexibility Score: inf
ROOT
ATOM      1  C   UNL     1      10.290   5.028  -3.245  1.00  0.00    -0.006 A 
ATOM      2  C   UNL     1      11.102   5.512  -2.199  1.00  0.00     0.122 A 
ATOM      3  C   UNL     1      10.543   5.758  -0.936  1.00  0.00     0.092 A 
ATOM      4  C   UNL     1       9.180   5.537  -0.710  1.00  0.00     0.119 A 
ATOM      5  C   UNL     1       8.370   5.069  -1.752  1.00  0.00     0.047 A 
ATOM      6  C   UNL     1       8.920   4.821  -3.012  1.00  0.00     0.011 A 
ENDROOT
BRANCH   1   7
ATOM      7  C   UNL     1      10.858   4.783  -4.619  1.00  0.00     0.036 C 
ATOM      8  C   UNL     1      10.868   6.071  -5.438  1.00  0.00     0.009 C 
ENDBRANCH   1   7
BRANCH   2   9
ATOM      9  O   UNL     1      12.459   5.750  -2.417  1.00  0.00    -0.508 OA
ATOM     10  H   UNL     1      12.799   6.119  -3.297  1.00  0.00     0.293 HD
ENDBRANCH   2   9
BRANCH   4  11
ATOM     11  O   UNL     1       8.643   5.788   0.550  1.00  0.00    -0.508 OA
ATOM     12  H   UNL     1       7.757   6.267   0.662  1.00  0.00     0.293 HD
ENDBRANCH   4  11
TORSDOF 3
ENDMDL
MODEL 2
REMARK VINA RESULT:    -5.320      1.659      1.762
REMARK INTER + INTRA:          -6.022
REMARK INTER:                  -5.915
REMARK INTRA:                  -0.107
REMARK UNBOUND:                -0.079
REMARK SMILES CCc1ccc(O)cc1O
REMARK SMILES IDX 3 1 9 2 8 3 6 4 5 5 4 6 2 7 1 8 10 9 7 11
REMARK H PARENT 10 10 7 12
REMARK Flexibility Score: inf
ROOT
ATOM      1  C   UNL     1       9.236   4.876  -2.982  1.00  0.00    -0.006 A 
ATOM      2  C   UNL     1       9.559   4.027  -1.903  1.00  0.00     0.122 A 
ATOM      3  C   UNL     1       9.267   4.423  -0.590  1.00  0.00     0.092 A 
ATOM      4  C   UNL     1       8.666   5.661  -0.341  1.00  0.00     0.119 A 
ATOM      5  C   UNL     1       8.357   6.511  -1.410  1.00  0.00     0.047 A 
ATOM      6  C   UNL     1       8.645   6.124  -2.721  1.00  0.00     0.011 A 
ENDROOT
BRANCH   1   7
ATOM      7  C   UNL     1       9.566   4.488  -4.400  1.00  0.00     0.036 C 
ATOM      8  C   UNL     1      10.810   5.226  -4.887  1.00  0.00     0.009 C 
ENDBRANCH   1   7
BRANCH   2   9
ATOM      9  O   UNL     1      10.171   2.796  -2.139  1.00  0.00    -0.508 OA
ATOM     10  H   UNL     1      11.135   2.731  -2.445  1.00  0.00     0.293 HD
ENDBRANCH   2   9
BRANCH   4  11
ATOM     11  O   UNL     1       8.384   6.037   0.970  1.00  0.00    -0.508 OA
ATOM     12  H   UNL     1       9.013   5.813   1.732  1.00  0.00     0.293 HD
ENDBRANCH   4  11
TORSDOF 3
ENDMDL
MODEL 3
REMARK VINA RESULT:    -5.242      1.583      1.851
REMARK INTER + INTRA:          -5.934
REMARK INTER:                  -5.833
REMARK INTRA:                  -0.100
REMARK UNBOUND:                -0.079
REMARK SMILES CCc1ccc(O)cc1O
REMARK SMILES IDX 3 1 9 2 8 3 6 4 5 5 4 6 2 7 1 8 10 9 7 11
REMARK H PARENT 10 10 7 12
REMARK Flexibility Score: inf
ROOT
ATOM      1  C   UNL     1      10.985   5.206  -2.836  1.00  0.00    -0.006 A 
ATOM      2  C   UNL     1      10.667   3.859  -2.566  1.00  0.00     0.122 A 
ATOM      3  C   UNL     1       9.784   3.545  -1.523  1.00  0.00     0.092 A 
ATOM      4  C   UNL     1       9.225   4.559  -0.739  1.00  0.00     0.119 A 
ATOM      5  C   UNL     1       9.550   5.896  -0.997  1.00  0.00     0.047 A 
ATOM      6  C   UNL     1      10.428   6.218  -2.035  1.00  0.00     0.011 A 
ENDROOT
BRANCH   1   7
ATOM      7  C   UNL     1      11.954   5.571  -3.932  1.00  0.00     0.036 C 
ATOM      8  C   UNL     1      11.218   5.820  -5.245  1.00  0.00     0.009 C 
ENDBRANCH   1   7
BRANCH   2   9
ATOM      9  O   UNL     1      11.231   2.839  -3.332  1.00  0.00    -0.508 OA
ATOM     10  H   UNL     1      11.085   2.784  -4.333  1.00  0.00     0.293 HD
ENDBRANCH   2   9
BRANCH   4  11
ATOM     11  O   UNL     1       8.350   4.227   0.293  1.00  0.00    -0.508 OA
ATOM     12  H   UNL     1       7.348   4.339   0.193  1.00  0.00     0.293 HD
ENDBRANCH   4  11
TORSDOF 3
ENDMDL
MODEL 4
REMARK VINA RESULT:    -5.166      1.607      3.756
REMARK INTER + INTRA:          -5.849
REMARK INTER:                  -5.751
REMARK INTRA:                  -0.099
REMARK UNBOUND:                -0.079
REMARK SMILES CCc1ccc(O)cc1O
REMARK SMILES IDX 3 1 9 2 8 3 6 4 5 5 4 6 2 7 1 8 10 9 7 11
REMARK H PARENT 10 10 7 12
REMARK Flexibility Score: inf
ROOT
ATOM      1  C   UNL     1       9.931   4.510  -2.137  1.00  0.00    -0.006 A 
ATOM      2  C   UNL     1      11.026   5.392  -2.243  1.00  0.00     0.122 A 
ATOM      3  C   UNL     1      11.453   5.826  -3.506  1.00  0.00     0.092 A 
ATOM      4  C   UNL     1      10.808   5.380  -4.664  1.00  0.00     0.119 A 
ATOM      5  C   UNL     1       9.729   4.494  -4.561  1.00  0.00     0.047 A 
ATOM      6  C   UNL     1       9.297   4.057  -3.306  1.00  0.00     0.011 A 
ENDROOT
BRANCH   1   7
ATOM      7  C   UNL     1       9.469   4.004  -0.794  1.00  0.00     0.036 C 
ATOM      8  C   UNL     1       8.393   4.916  -0.213  1.00  0.00     0.009 C 
ENDBRANCH   1   7
BRANCH   2   9
ATOM      9  O   UNL     1      11.686   5.832  -1.096  1.00  0.00    -0.508 OA
ATOM     10  H   UNL     1      12.697   5.888  -1.053  1.00  0.00     0.293 HD
ENDBRANCH   2   9
BRANCH   4  11
ATOM     11  O   UNL     1      11.247   5.822  -5.910  1.00  0.00    -0.508 OA
ATOM     12  H   UNL     1      11.046   6.759  -6.240  1.00  0.00     0.293 HD
ENDBRANCH   4  11
TORSDOF 3
ENDMDL
MODEL 5
REMARK VINA RESULT:    -5.141      1.682      1.772
REMARK INTER + INTRA:          -5.821
REMARK INTER:                  -5.719
REMARK INTRA:                  -0.102
REMARK UNBOUND:                -0.079
REMARK SMILES CCc1ccc(O)cc1O
REMARK SMILES IDX 3 1 9 2 8 3 6 4 5 5 4 6 2 7 1 8 10 9 7 11
REMARK H PARENT 10 10 7 12
REMARK Flexibility Score: inf
ROOT
ATOM      1  C   UNL     1       9.452   6.197  -3.701  1.00  0.00    -0.006 A 
ATOM      2  C   UNL     1       9.600   7.329  -2.874  1.00  0.00     0.122 A 
ATOM      3  C   UNL     1       9.227   7.261  -1.524  1.00  0.00     0.092 A 
ATOM      4  C   UNL     1       8.698   6.080  -0.994  1.00  0.00     0.119 A 
ATOM      5  C   UNL     1       8.538   4.959  -1.818  1.00  0.00     0.047 A 
ATOM      6  C   UNL     1       8.907   5.018  -3.164  1.00  0.00     0.011 A 
ENDROOT
BRANCH   1   7
ATOM      7  C   UNL     1       9.816   6.251  -5.163  1.00  0.00     0.036 C 
ATOM      8  C   UNL     1      11.256   5.795  -5.380  1.00  0.00     0.009 C 
ENDBRANCH   1   7
BRANCH   2   9
ATOM      9  O   UNL     1      10.113   8.516  -3.395  1.00  0.00    -0.508 OA
ATOM     10  H   UNL     1      10.450   9.259  -2.794  1.00  0.00     0.293 HD
ENDBRANCH   2   9
BRANCH   4  11
ATOM     11  O   UNL     1       8.333   6.032   0.350  1.00  0.00    -0.508 OA
ATOM     12  H   UNL     1       8.660   6.726   1.012  1.00  0.00     0.293 HD
ENDBRANCH   4  11
TORSDOF 3
ENDMDL
MODEL 6
REMARK VINA RESULT:    -4.948      2.157      2.556
REMARK INTER + INTRA:          -5.606
REMARK INTER:                  -5.502
REMARK INTRA:                  -0.104
REMARK UNBOUND:                -0.079
REMARK SMILES CCc1ccc(O)cc1O
REMARK SMILES IDX 3 1 9 2 8 3 6 4 5 5 4 6 2 7 1 8 10 9 7 11
REMARK H PARENT 10 10 7 12
REMARK Flexibility Score: inf
ROOT
ATOM      1  C   UNL     1       9.296   4.698  -2.476  1.00  0.00    -0.006 A 
ATOM      2  C   UNL     1       9.069   5.882  -3.208  1.00  0.00     0.122 A 
ATOM      3  C   UNL     1       8.592   7.027  -2.555  1.00  0.00     0.092 A 
ATOM      4  C   UNL     1       8.326   7.000  -1.182  1.00  0.00     0.119 A 
ATOM      5  C   UNL     1       8.538   5.822  -0.456  1.00  0.00     0.047 A 
ATOM      6  C   UNL     1       9.014   4.677  -1.099  1.00  0.00     0.011 A 
ENDROOT
BRANCH   1   7
ATOM      7  C   UNL     1       9.780   3.444  -3.158  1.00  0.00     0.036 C 
ATOM      8  C   UNL     1      11.282   3.264  -2.957  1.00  0.00     0.009 C 
ENDBRANCH   1   7
BRANCH   2   9
ATOM      9  O   UNL     1       9.317   5.915  -4.580  1.00  0.00    -0.508 OA
ATOM     10  H   UNL     1       9.222   5.088  -5.158  1.00  0.00     0.293 HD
ENDBRANCH   2   9
BRANCH   4  11
ATOM     11  O   UNL     1       7.852   8.148  -0.551  1.00  0.00    -0.508 OA
ATOM     12  H   UNL     1       8.422   8.982  -0.472  1.00  0.00     0.293 HD
ENDBRANCH   4  11
TORSDOF 3
ENDMDL
MODEL 7
REMARK VINA RESULT:    -4.853      1.937      3.731
REMARK INTER + INTRA:          -5.500
REMARK INTER:                  -5.414
REMARK INTRA:                  -0.086
REMARK UNBOUND:                -0.079
REMARK SMILES CCc1ccc(O)cc1O
REMARK SMILES IDX 3 1 9 2 8 3 6 4 5 5 4 6 2 7 1 8 10 9 7 11
REMARK H PARENT 10 10 7 12
REMARK Flexibility Score: inf
ROOT
ATOM      1  C   UNL     1       8.724   6.108  -1.954  1.00  0.00    -0.006 A 
ATOM      2  C   UNL     1       8.991   4.922  -1.240  1.00  0.00     0.122 A 
ATOM      3  C   UNL     1       9.708   3.884  -1.852  1.00  0.00     0.092 A 
ATOM      4  C   UNL     1      10.150   4.011  -3.172  1.00  0.00     0.119 A 
ATOM      5  C   UNL     1       9.874   5.182  -3.888  1.00  0.00     0.047 A 
ATOM      6  C   UNL     1       9.160   6.222  -3.285  1.00  0.00     0.011 A 
ENDROOT
BRANCH   1   7
ATOM      7  C   UNL     1       7.930   7.227  -1.331  1.00  0.00     0.036 C 
ATOM      8  C   UNL     1       8.487   8.584  -1.750  1.00  0.00     0.009 C 
ENDBRANCH   1   7
BRANCH   2   9
ATOM      9  O   UNL     1       8.543   4.778   0.073  1.00  0.00    -0.508 OA
ATOM     10  H   UNL     1       8.207   5.569   0.610  1.00  0.00     0.293 HD
ENDBRANCH   2   9
BRANCH   4  11
ATOM     11  O   UNL     1      10.861   2.969  -3.763  1.00  0.00    -0.508 OA
ATOM     12  H   UNL     1      11.824   3.085  -4.057  1.00  0.00     0.293 HD
ENDBRANCH   4  11
TORSDOF 3
ENDMDL
MODEL 8
REMARK VINA RESULT:    -4.847      2.307      3.959
REMARK INTER + INTRA:          -5.493
REMARK INTER:                  -5.407
REMARK INTRA:                  -0.086
REMARK UNBOUND:                -0.079
REMARK SMILES CCc1ccc(O)cc1O
REMARK SMILES IDX 3 1 9 2 8 3 6 4 5 5 4 6 2 7 1 8 10 9 7 11
REMARK H PARENT 10 10 7 12
REMARK Flexibility Score: inf
ROOT
ATOM      1  C   UNL     1       9.942   4.866  -2.531  1.00  0.00    -0.006 A 
ATOM      2  C   UNL     1      10.585   4.275  -3.638  1.00  0.00     0.122 A 
ATOM      3  C   UNL     1      10.801   5.025  -4.803  1.00  0.00     0.092 A 
ATOM      4  C   UNL     1      10.371   6.354  -4.879  1.00  0.00     0.119 A 
ATOM      5  C   UNL     1       9.720   6.937  -3.786  1.00  0.00     0.047 A 
ATOM      6  C   UNL     1       9.502   6.197  -2.621  1.00  0.00     0.011 A 
ENDROOT
BRANCH   1   7
ATOM      7  C   UNL     1       9.671   4.074  -1.278  1.00  0.00     0.036 C 
ATOM      8  C   UNL     1       8.554   4.718  -0.462  1.00  0.00     0.009 C 
ENDBRANCH   1   7
BRANCH   2   9
ATOM      9  O   UNL     1      11.005   2.947  -3.578  1.00  0.00    -0.508 OA
ATOM     10  H   UNL     1      11.978   2.690  -3.706  1.00  0.00     0.293 HD
ENDBRANCH   2   9
BRANCH   4  11
ATOM     11  O   UNL     1      10.594   7.083  -6.045  1.00  0.00    -0.508 OA
ATOM     12  H   UNL     1      10.489   6.661  -6.961  1.00  0.00     0.293 HD
ENDBRANCH   4  11
TORSDOF 3
ENDMDL
MODEL 9
REMARK VINA RESULT:    -4.762      2.215      3.049
REMARK INTER + INTRA:          -5.398
REMARK INTER:                  -5.312
REMARK INTRA:                  -0.085
REMARK UNBOUND:                -0.079
REMARK SMILES CCc1ccc(O)cc1O
REMARK SMILES IDX 3 1 9 2 8 3 6 4 5 5 4 6 2 7 1 8 10 9 7 11
REMARK H PARENT 10 10 7 12
REMARK Flexibility Score: inf
ROOT
ATOM      1  C   UNL     1       9.004   6.932  -1.789  1.00  0.00    -0.006 A 
ATOM      2  C   UNL     1      10.160   6.302  -2.295  1.00  0.00     0.122 A 
ATOM      3  C   UNL     1      10.488   5.004  -1.879  1.00  0.00     0.092 A 
ATOM      4  C   UNL     1       9.682   4.332  -0.955  1.00  0.00     0.119 A 
ATOM      5  C   UNL     1       8.542   4.960  -0.441  1.00  0.00     0.047 A 
ATOM      6  C   UNL     1       8.208   6.254  -0.850  1.00  0.00     0.011 A 
ENDROOT
BRANCH   1   7
ATOM      7  C   UNL     1       8.644   8.338  -2.196  1.00  0.00     0.036 C 
ATOM      8  C   UNL     1       7.213   8.671  -1.784  1.00  0.00     0.009 C 
ENDBRANCH   1   7
BRANCH   2   9
ATOM      9  O   UNL     1      10.979   6.969  -3.207  1.00  0.00    -0.508 OA
ATOM     10  H   UNL     1      11.747   6.500  -3.673  1.00  0.00     0.293 HD
ENDBRANCH   2   9
BRANCH   4  11
ATOM     11  O   UNL     1      10.025   3.043  -0.554  1.00  0.00    -0.508 OA
ATOM     12  H   UNL     1       9.859   2.241  -1.152  1.00  0.00     0.293 HD
ENDBRANCH   4  11
TORSDOF 3
ENDMDL
