MODEL 1
REMARK VINA RESULT:    -3.791      0.000      0.000
REMARK INTER + INTRA:          -3.791
REMARK INTER:                  -3.791
REMARK INTRA:                   0.000
REMARK UNBOUND:                 0.000
REMARK SMILES CC(C)=C1CC[C@@H](C)CC1=O
REMARK SMILES IDX 8 1 7 2 6 3 5 4 4 5 2 6 1 7 3 8 10 9 11 10 9 11
REMARK H PARENT
REMARK Flexibility Score: inf
ROOT
ATOM      1  C   UNL     1      29.024  34.438  20.637  1.00  0.00     0.008 C 
ATOM      2  C   UNL     1      28.196  35.607  20.092  1.00  0.00    -0.006 C 
ATOM      3  C   UNL     1      29.113  36.696  19.513  1.00  0.00     0.008 C 
ATOM      4  C   UNL     1      28.300  37.828  18.871  1.00  0.00     0.039 C 
ATOM      5  C   UNL     1      27.243  38.392  19.810  1.00  0.00    -0.006 C 
ATOM      6  C   UNL     1      26.873  39.705  19.754  1.00  0.00    -0.070 C 
ATOM      7  C   UNL     1      27.485  40.650  18.744  1.00  0.00     0.039 C 
ATOM      8  C   UNL     1      25.867  40.290  20.717  1.00  0.00     0.039 C 
ATOM      9  C   UNL     1      26.564  37.406  20.702  1.00  0.00     0.159 C 
ATOM     10  O   UNL     1      25.362  37.557  21.050  1.00  0.00    -0.295 OA
ATOM     11  C   UNL     1      27.310  36.201  21.198  1.00  0.00     0.084 C 
ENDROOT
TORSDOF 0
ENDMDL
MODEL 2
REMARK VINA RESULT:    -3.785      2.000      5.191
REMARK INTER + INTRA:          -3.785
REMARK INTER:                  -3.785
REMARK INTRA:                   0.000
REMARK UNBOUND:                 0.000
REMARK SMILES CC(C)=C1CC[C@@H](C)CC1=O
REMARK SMILES IDX 8 1 7 2 6 3 5 4 4 5 2 6 1 7 3 8 10 9 11 10 9 11
REMARK H PARENT
REMARK Flexibility Score: inf
ROOT
ATOM      1  C   UNL     1      26.743  43.775  20.407  1.00  0.00     0.008 C 
ATOM      2  C   UNL     1      26.488  42.308  20.044  1.00  0.00    -0.006 C 
ATOM      3  C   UNL     1      26.084  41.504  21.289  1.00  0.00     0.008 C 
ATOM      4  C   UNL     1      25.726  40.056  20.928  1.00  0.00     0.039 C 
ATOM      5  C   UNL     1      26.817  39.371  20.117  1.00  0.00    -0.006 C 
ATOM      6  C   UNL     1      27.043  38.028  20.225  1.00  0.00    -0.070 C 
ATOM      7  C   UNL     1      26.206  37.164  21.141  1.00  0.00     0.039 C 
ATOM      8  C   UNL     1      28.159  37.345  19.468  1.00  0.00     0.039 C 
ATOM      9  C   UNL     1      27.534  40.226  19.125  1.00  0.00     0.159 C 
ATOM     10  O   UNL     1      27.972  39.748  18.045  1.00  0.00    -0.295 OA
ATOM     11  C   UNL     1      27.738  41.688  19.401  1.00  0.00     0.084 C 
ENDROOT
TORSDOF 0
ENDMDL
MODEL 3
REMARK VINA RESULT:    -3.783      2.638      4.955
REMARK INTER + INTRA:          -3.783
REMARK INTER:                  -3.783
REMARK INTRA:                   0.000
REMARK UNBOUND:                 0.000
REMARK SMILES CC(C)=C1CC[C@@H](C)CC1=O
REMARK SMILES IDX 8 1 7 2 6 3 5 4 4 5 2 6 1 7 3 8 10 9 11 10 9 11
REMARK H PARENT
REMARK Flexibility Score: inf
ROOT
ATOM      1  C   UNL     1      27.250  44.124  21.989  1.00  0.00     0.008 C 
ATOM      2  C   UNL     1      27.499  42.667  21.585  1.00  0.00    -0.006 C 
ATOM      3  C   UNL     1      28.581  42.583  20.497  1.00  0.00     0.008 C 
ATOM      4  C   UNL     1      28.916  41.126  20.153  1.00  0.00     0.039 C 
ATOM      5  C   UNL     1      27.678  40.309  19.810  1.00  0.00    -0.006 C 
ATOM      6  C   UNL     1      27.732  39.282  18.911  1.00  0.00    -0.070 C 
ATOM      7  C   UNL     1      29.029  38.904  18.231  1.00  0.00     0.039 C 
ATOM      8  C   UNL     1      26.500  38.500  18.520  1.00  0.00     0.039 C 
ATOM      9  C   UNL     1      26.447  40.620  20.596  1.00  0.00     0.159 C 
ATOM     10  O   UNL     1      25.602  39.726  20.871  1.00  0.00    -0.295 OA
ATOM     11  C   UNL     1      26.199  42.018  21.083  1.00  0.00     0.084 C 
ENDROOT
TORSDOF 0
ENDMDL
MODEL 4
REMARK VINA RESULT:    -3.780      1.696      2.625
REMARK INTER + INTRA:          -3.780
REMARK INTER:                  -3.780
REMARK INTRA:                   0.000
REMARK UNBOUND:                 0.000
REMARK SMILES CC(C)=C1CC[C@@H](C)CC1=O
REMARK SMILES IDX 8 1 7 2 6 3 5 4 4 5 2 6 1 7 3 8 10 9 11 10 9 11
REMARK H PARENT
REMARK Flexibility Score: inf
ROOT
ATOM      1  C   UNL     1      28.381  36.798  19.771  1.00  0.00     0.008 C 
ATOM      2  C   UNL     1      27.597  38.094  19.538  1.00  0.00    -0.006 C 
ATOM      3  C   UNL     1      28.461  39.124  18.793  1.00  0.00     0.008 C 
ATOM      4  C   UNL     1      27.660  40.390  18.461  1.00  0.00     0.039 C 
ATOM      5  C   UNL     1      26.972  40.981  19.684  1.00  0.00    -0.006 C 
ATOM      6  C   UNL     1      26.772  42.326  19.805  1.00  0.00    -0.070 C 
ATOM      7  C   UNL     1      27.212  43.284  18.720  1.00  0.00     0.039 C 
ATOM      8  C   UNL     1      26.141  42.930  21.037  1.00  0.00     0.039 C 
ATOM      9  C   UNL     1      26.431  40.000  20.671  1.00  0.00     0.159 C 
ATOM     10  O   UNL     1      25.394  40.250  21.342  1.00  0.00    -0.295 OA
ATOM     11  C   UNL     1      27.119  38.681  20.876  1.00  0.00     0.084 C 
ENDROOT
TORSDOF 0
ENDMDL
MODEL 5
REMARK VINA RESULT:    -3.576      2.864      4.223
REMARK INTER + INTRA:          -3.576
REMARK INTER:                  -3.576
REMARK INTRA:                   0.000
REMARK UNBOUND:                 0.000
REMARK SMILES CC(C)=C1CC[C@@H](C)CC1=O
REMARK SMILES IDX 8 1 7 2 6 3 5 4 4 5 2 6 1 7 3 8 10 9 11 10 9 11
REMARK H PARENT
REMARK Flexibility Score: inf
ROOT
ATOM      1  C   UNL     1      27.792  37.721  19.439  1.00  0.00     0.008 C 
ATOM      2  C   UNL     1      27.981  39.205  19.772  1.00  0.00    -0.006 C 
ATOM      3  C   UNL     1      27.667  39.473  21.252  1.00  0.00     0.008 C 
ATOM      4  C   UNL     1      27.949  40.934  21.627  1.00  0.00     0.039 C 
ATOM      5  C   UNL     1      27.259  41.920  20.694  1.00  0.00    -0.006 C 
ATOM      6  C   UNL     1      26.829  43.136  21.141  1.00  0.00    -0.070 C 
ATOM      7  C   UNL     1      27.036  43.562  22.577  1.00  0.00     0.039 C 
ATOM      8  C   UNL     1      26.092  44.100  20.240  1.00  0.00     0.039 C 
ATOM      9  C   UNL     1      27.190  41.525  19.256  1.00  0.00     0.159 C 
ATOM     10  O   UNL     1      27.225  42.387  18.338  1.00  0.00    -0.295 OA
ATOM     11  C   UNL     1      27.084  40.076  18.878  1.00  0.00     0.084 C 
ENDROOT
TORSDOF 0
ENDMDL
MODEL 6
REMARK VINA RESULT:    -3.574      1.997      4.731
REMARK INTER + INTRA:          -3.574
REMARK INTER:                  -3.574
REMARK INTRA:                   0.000
REMARK UNBOUND:                 0.000
REMARK SMILES CC(C)=C1CC[C@@H](C)CC1=O
REMARK SMILES IDX 8 1 7 2 6 3 5 4 4 5 2 6 1 7 3 8 10 9 11 10 9 11
REMARK H PARENT
REMARK Flexibility Score: inf
ROOT
ATOM      1  C   UNL     1      28.103  39.110  18.518  1.00  0.00     0.008 C 
ATOM      2  C   UNL     1      27.751  37.804  19.239  1.00  0.00    -0.006 C 
ATOM      3  C   UNL     1      27.381  38.078  20.706  1.00  0.00     0.008 C 
ATOM      4  C   UNL     1      26.927  36.796  21.416  1.00  0.00     0.039 C 
ATOM      5  C   UNL     1      27.931  35.662  21.269  1.00  0.00    -0.006 C 
ATOM      6  C   UNL     1      28.093  34.726  22.251  1.00  0.00    -0.070 C 
ATOM      7  C   UNL     1      27.268  34.769  23.518  1.00  0.00     0.039 C 
ATOM      8  C   UNL     1      29.125  33.628  22.142  1.00  0.00     0.039 C 
ATOM      9  C   UNL     1      28.631  35.570  19.954  1.00  0.00     0.159 C 
ATOM     10  O   UNL     1      28.980  34.459  19.473  1.00  0.00    -0.295 OA
ATOM     11  C   UNL     1      28.927  36.817  19.171  1.00  0.00     0.084 C 
ENDROOT
TORSDOF 0
ENDMDL
MODEL 7
REMARK VINA RESULT:    -3.298      2.808      4.147
REMARK INTER + INTRA:          -3.298
REMARK INTER:                  -3.298
REMARK INTRA:                   0.000
REMARK UNBOUND:                 0.000
REMARK SMILES CC(C)=C1CC[C@@H](C)CC1=O
REMARK SMILES IDX 8 1 7 2 6 3 5 4 4 5 2 6 1 7 3 8 10 9 11 10 9 11
REMARK H PARENT
REMARK Flexibility Score: inf
ROOT
ATOM      1  C   UNL     1      25.368  37.364  20.429  1.00  0.00     0.008 C 
ATOM      2  C   UNL     1      26.129  38.694  20.473  1.00  0.00    -0.006 C 
ATOM      3  C   UNL     1      25.275  39.785  21.138  1.00  0.00     0.008 C 
ATOM      4  C   UNL     1      26.058  41.096  21.283  1.00  0.00     0.039 C 
ATOM      5  C   UNL     1      26.675  41.556  19.969  1.00  0.00    -0.006 C 
ATOM      6  C   UNL     1      26.834  42.882  19.686  1.00  0.00    -0.070 C 
ATOM      7  C   UNL     1      26.421  43.950  20.674  1.00  0.00     0.039 C 
ATOM      8  C   UNL     1      27.393  43.352  18.363  1.00  0.00     0.039 C 
ATOM      9  C   UNL     1      27.194  40.479  19.075  1.00  0.00     0.159 C 
ATOM     10  O   UNL     1      28.192  40.670  18.330  1.00  0.00    -0.295 OA
ATOM     11  C   UNL     1      26.530  39.132  19.056  1.00  0.00     0.084 C 
ENDROOT
TORSDOF 0
ENDMDL
MODEL 8
REMARK VINA RESULT:    -3.169      2.880      5.232
REMARK INTER + INTRA:          -3.169
REMARK INTER:                  -3.169
REMARK INTRA:                   0.000
REMARK UNBOUND:                 0.000
REMARK SMILES CC(C)=C1CC[C@@H](C)CC1=O
REMARK SMILES IDX 8 1 7 2 6 3 5 4 4 5 2 6 1 7 3 8 10 9 11 10 9 11
REMARK H PARENT
REMARK Flexibility Score: inf
ROOT
ATOM      1  C   UNL     1      28.586  43.628  22.754  1.00  0.00     0.008 C 
ATOM      2  C   UNL     1      27.948  42.499  21.937  1.00  0.00    -0.006 C 
ATOM      3  C   UNL     1      28.480  41.132  22.395  1.00  0.00     0.008 C 
ATOM      4  C   UNL     1      27.778  39.984  21.659  1.00  0.00     0.039 C 
ATOM      5  C   UNL     1      27.819  40.150  20.146  1.00  0.00    -0.006 C 
ATOM      6  C   UNL     1      27.864  39.067  19.315  1.00  0.00    -0.070 C 
ATOM      7  C   UNL     1      27.858  37.658  19.863  1.00  0.00     0.039 C 
ATOM      8  C   UNL     1      27.962  39.219  17.815  1.00  0.00     0.039 C 
ATOM      9  C   UNL     1      27.689  41.546  19.635  1.00  0.00     0.159 C 
ATOM     10  O   UNL     1      27.125  41.792  18.535  1.00  0.00    -0.295 OA
ATOM     11  C   UNL     1      28.227  42.695  20.439  1.00  0.00     0.084 C 
ENDROOT
TORSDOF 0
ENDMDL
