MODEL 1
REMARK VINA RESULT:    -4.025      0.000      0.000
REMARK INTER + INTRA:          -7.436
REMARK INTER:                  -6.848
REMARK INTRA:                  -0.588
REMARK UNBOUND:                -0.588
REMARK SMILES CCCCCCCCCCCCCC(=O)[O-]
REMARK SMILES IDX 8 1 9 2 10 3 11 4 12 5 13 6 14 7 15 8 16 9 7 10 6 11 5 12
REMARK SMILES IDX 4 13 3 14 2 15 1 16
REMARK H PARENT
REMARK Flexibility Score: inf
ROOT
ATOM      1  C   UNL     1     -27.915 -10.217  35.254  1.00  0.00     0.000 C 
ENDROOT
BRANCH   1   2
ATOM      2  C   UNL     1     -28.457  -9.295  34.145  1.00  0.00     0.000 C 
BRANCH   2   3
ATOM      3  C   UNL     1     -29.981  -9.065  34.174  1.00  0.00     0.000 C 
BRANCH   3   4
ATOM      4  C   UNL     1     -30.537  -8.232  33.002  1.00  0.00     0.000 C 
BRANCH   4   5
ATOM      5  C   UNL     1     -31.900  -8.704  32.455  1.00  0.00     0.006 C 
BRANCH   5   6
ATOM      6  C   UNL     1     -33.013  -8.788  33.510  1.00  0.00     0.053 C 
BRANCH   6   7
ATOM      7  C   UNL     1     -33.696  -7.470  33.709  1.00  0.00     0.041 C 
ATOM      8  O   UNL     1     -34.941  -7.369  33.544  1.00  0.00    -0.550 OA
ATOM      9  O   UNL     1     -32.963  -6.360  34.107  1.00  0.00    -0.550 OA
ENDBRANCH   6   7
ENDBRANCH   5   6
ENDBRANCH   4   5
ENDBRANCH   3   4
ENDBRANCH   2   3
ENDBRANCH   1   2
BRANCH   1  10
ATOM     10  C   UNL     1     -27.081 -11.412  34.758  1.00  0.00     0.000 C 
BRANCH  10  11
ATOM     11  C   UNL     1     -27.490 -11.883  33.355  1.00  0.00    -0.000 C 
BRANCH  11  12
ATOM     12  C   UNL     1     -26.271 -11.947  32.421  1.00  0.00    -0.000 C 
BRANCH  12  13
ATOM     13  C   UNL     1     -24.956 -11.607  33.141  1.00  0.00    -0.000 C 
BRANCH  13  14
ATOM     14  C   UNL     1     -23.723 -11.809  32.249  1.00  0.00    -0.000 C 
BRANCH  14  15
ATOM     15  C   UNL     1     -23.339 -13.292  32.172  1.00  0.00    -0.003 C 
ATOM     16  C   UNL     1     -22.141 -13.598  33.066  1.00  0.00     0.004 C 
ENDBRANCH  14  15
ENDBRANCH  13  14
ENDBRANCH  12  13
ENDBRANCH  11  12
ENDBRANCH  10  11
ENDBRANCH   1  10
TORSDOF 12
ENDMDL
MODEL 2
REMARK VINA RESULT:    -3.985      8.902     11.638
REMARK INTER + INTRA:          -7.369
REMARK INTER:                  -5.619
REMARK INTRA:                  -1.751
REMARK UNBOUND:                -0.588
REMARK SMILES CCCCCCCCCCCCCC(=O)[O-]
REMARK SMILES IDX 8 1 9 2 10 3 11 4 12 5 13 6 14 7 15 8 16 9 7 10 6 11 5 12
REMARK SMILES IDX 4 13 3 14 2 15 1 16
REMARK H PARENT
REMARK Flexibility Score: inf
ROOT
ATOM      1  C   UNL     1     -20.560 -13.468  37.489  1.00  0.00     0.000 C 
ENDROOT
BRANCH   1   2
ATOM      2  C   UNL     1     -20.485 -14.457  38.669  1.00  0.00     0.000 C 
BRANCH   2   3
ATOM      3  C   UNL     1     -19.280 -14.259  39.609  1.00  0.00     0.000 C 
BRANCH   3   4
ATOM      4  C   UNL     1     -19.389 -14.982  40.968  1.00  0.00     0.000 C 
BRANCH   4   5
ATOM      5  C   UNL     1     -20.805 -15.472  41.333  1.00  0.00     0.006 C 
BRANCH   5   6
ATOM      6  C   UNL     1     -21.515 -14.625  42.400  1.00  0.00     0.053 C 
BRANCH   6   7
ATOM      7  C   UNL     1     -22.968 -14.436  42.088  1.00  0.00     0.041 C 
ATOM      8  O   UNL     1     -23.358 -14.379  40.891  1.00  0.00    -0.550 OA
ATOM      9  O   UNL     1     -23.895 -14.354  43.117  1.00  0.00    -0.550 OA
ENDBRANCH   6   7
ENDBRANCH   5   6
ENDBRANCH   4   5
ENDBRANCH   3   4
ENDBRANCH   2   3
ENDBRANCH   1   2
BRANCH   1  10
ATOM     10  C   UNL     1     -21.935 -13.378  36.802  1.00  0.00     0.000 C 
BRANCH  10  11
ATOM     11  C   UNL     1     -22.638 -12.035  37.048  1.00  0.00    -0.000 C 
BRANCH  11  12
ATOM     12  C   UNL     1     -23.252 -11.988  38.456  1.00  0.00    -0.000 C 
BRANCH  12  13
ATOM     13  C   UNL     1     -22.669 -10.858  39.319  1.00  0.00    -0.000 C 
BRANCH  13  14
ATOM     14  C   UNL     1     -21.650 -11.365  40.350  1.00  0.00    -0.000 C 
BRANCH  14  15
ATOM     15  C   UNL     1     -20.243 -10.845  40.030  1.00  0.00    -0.003 C 
ATOM     16  C   UNL     1     -19.349 -10.878  41.267  1.00  0.00     0.004 C 
ENDBRANCH  14  15
ENDBRANCH  13  14
ENDBRANCH  12  13
ENDBRANCH  11  12
ENDBRANCH  10  11
ENDBRANCH   1  10
TORSDOF 12
ENDMDL
MODEL 3
REMARK VINA RESULT:    -3.982      8.698     11.100
REMARK INTER + INTRA:          -7.363
REMARK INTER:                  -5.263
REMARK INTRA:                  -2.100
REMARK UNBOUND:                -0.588
REMARK SMILES CCCCCCCCCCCCCC(=O)[O-]
REMARK SMILES IDX 8 1 9 2 10 3 11 4 12 5 13 6 14 7 15 8 16 9 7 10 6 11 5 12
REMARK SMILES IDX 4 13 3 14 2 15 1 16
REMARK H PARENT
REMARK Flexibility Score: inf
ROOT
ATOM      1  C   UNL     1     -22.011 -11.478  40.298  1.00  0.00     0.000 C 
ENDROOT
BRANCH   1   2
ATOM      2  C   UNL     1     -22.673 -10.865  39.048  1.00  0.00     0.000 C 
BRANCH   2   3
ATOM      3  C   UNL     1     -23.065 -11.878  37.954  1.00  0.00     0.000 C 
BRANCH   3   4
ATOM      4  C   UNL     1     -22.890 -13.359  38.346  1.00  0.00     0.000 C 
BRANCH   4   5
ATOM      5  C   UNL     1     -21.774 -14.107  37.587  1.00  0.00     0.006 C 
BRANCH   5   6
ATOM      6  C   UNL     1     -20.790 -13.192  36.842  1.00  0.00     0.053 C 
BRANCH   6   7
ATOM      7  C   UNL     1     -20.865 -13.382  35.358  1.00  0.00     0.041 C 
ATOM      8  O   UNL     1     -21.924 -13.807  34.826  1.00  0.00    -0.550 OA
ATOM      9  O   UNL     1     -19.777 -13.057  34.560  1.00  0.00    -0.550 OA
ENDBRANCH   6   7
ENDBRANCH   5   6
ENDBRANCH   4   5
ENDBRANCH   3   4
ENDBRANCH   2   3
ENDBRANCH   1   2
BRANCH   1  10
ATOM     10  C   UNL     1     -20.529 -11.114  40.495  1.00  0.00     0.000 C 
BRANCH  10  11
ATOM     11  C   UNL     1     -19.578 -12.261  40.121  1.00  0.00    -0.000 C 
BRANCH  11  12
ATOM     12  C   UNL     1     -19.517 -13.309  41.243  1.00  0.00    -0.000 C 
BRANCH  12  13
ATOM     13  C   UNL     1     -19.799 -14.733  40.739  1.00  0.00    -0.000 C 
BRANCH  13  14
ATOM     14  C   UNL     1     -21.220 -15.210  41.074  1.00  0.00    -0.000 C 
BRANCH  14  15
ATOM     15  C   UNL     1     -21.729 -14.554  42.363  1.00  0.00    -0.003 C 
ATOM     16  C   UNL     1     -23.234 -14.308  42.299  1.00  0.00     0.004 C 
ENDBRANCH  14  15
ENDBRANCH  13  14
ENDBRANCH  12  13
ENDBRANCH  11  12
ENDBRANCH  10  11
ENDBRANCH   1  10
TORSDOF 12
ENDMDL
MODEL 4
REMARK VINA RESULT:    -3.979      9.073     11.475
REMARK INTER + INTRA:          -7.358
REMARK INTER:                  -5.656
REMARK INTRA:                  -1.701
REMARK UNBOUND:                -0.588
REMARK SMILES CCCCCCCCCCCCCC(=O)[O-]
REMARK SMILES IDX 8 1 9 2 10 3 11 4 12 5 13 6 14 7 15 8 16 9 7 10 6 11 5 12
REMARK SMILES IDX 4 13 3 14 2 15 1 16
REMARK H PARENT
REMARK Flexibility Score: inf
ROOT
ATOM      1  C   UNL     1     -20.337 -12.646  41.648  1.00  0.00     0.000 C 
ENDROOT
BRANCH   1   2
ATOM      2  C   UNL     1     -19.900 -11.413  40.833  1.00  0.00     0.000 C 
BRANCH   2   3
ATOM      3  C   UNL     1     -20.718 -11.152  39.554  1.00  0.00     0.000 C 
BRANCH   3   4
ATOM      4  C   UNL     1     -22.240 -11.025  39.769  1.00  0.00     0.000 C 
BRANCH   4   5
ATOM      5  C   UNL     1     -23.110 -11.681  38.677  1.00  0.00     0.006 C 
BRANCH   5   6
ATOM      6  C   UNL     1     -22.454 -12.881  37.978  1.00  0.00     0.053 C 
BRANCH   6   7
ATOM      7  C   UNL     1     -22.441 -12.722  36.489  1.00  0.00     0.041 C 
ATOM      8  O   UNL     1     -21.886 -13.589  35.763  1.00  0.00    -0.550 OA
ATOM      9  O   UNL     1     -23.071 -11.634  35.900  1.00  0.00    -0.550 OA
ENDBRANCH   6   7
ENDBRANCH   5   6
ENDBRANCH   4   5
ENDBRANCH   3   4
ENDBRANCH   2   3
ENDBRANCH   1   2
BRANCH   1  10
ATOM     10  C   UNL     1     -20.282 -13.982  40.886  1.00  0.00     0.000 C 
BRANCH  10  11
ATOM     11  C   UNL     1     -21.410 -14.944  41.286  1.00  0.00    -0.000 C 
BRANCH  11  12
ATOM     12  C   UNL     1     -22.735 -14.188  41.470  1.00  0.00    -0.000 C 
BRANCH  12  13
ATOM     13  C   UNL     1     -23.427 -14.520  42.801  1.00  0.00    -0.000 C 
BRANCH  13  14
ATOM     14  C   UNL     1     -22.666 -15.573  43.618  1.00  0.00    -0.000 C 
BRANCH  14  15
ATOM     15  C   UNL     1     -22.150 -14.979  44.935  1.00  0.00    -0.003 C 
ATOM     16  C   UNL     1     -20.625 -14.944  44.964  1.00  0.00     0.004 C 
ENDBRANCH  14  15
ENDBRANCH  13  14
ENDBRANCH  12  13
ENDBRANCH  11  12
ENDBRANCH  10  11
ENDBRANCH   1  10
TORSDOF 12
ENDMDL
MODEL 5
REMARK VINA RESULT:    -3.938      7.018      9.423
REMARK INTER + INTRA:          -7.289
REMARK INTER:                  -5.801
REMARK INTRA:                  -1.488
REMARK UNBOUND:                -0.588
REMARK SMILES CCCCCCCCCCCCCC(=O)[O-]
REMARK SMILES IDX 8 1 9 2 10 3 11 4 12 5 13 6 14 7 15 8 16 9 7 10 6 11 5 12
REMARK SMILES IDX 4 13 3 14 2 15 1 16
REMARK H PARENT
REMARK Flexibility Score: inf
ROOT
ATOM      1  C   UNL     1     -23.014 -14.212  39.107  1.00  0.00     0.000 C 
ENDROOT
BRANCH   1   2
ATOM      2  C   UNL     1     -23.849 -13.045  38.542  1.00  0.00     0.000 C 
BRANCH   2   3
ATOM      3  C   UNL     1     -23.036 -11.946  37.831  1.00  0.00     0.000 C 
BRANCH   3   4
ATOM      4  C   UNL     1     -21.973 -12.461  36.839  1.00  0.00     0.000 C 
BRANCH   4   5
ATOM      5  C   UNL     1     -22.466 -12.636  35.388  1.00  0.00     0.006 C 
BRANCH   5   6
ATOM      6  C   UNL     1     -23.694 -11.787  35.027  1.00  0.00     0.053 C 
BRANCH   6   7
ATOM      7  C   UNL     1     -24.027 -11.875  33.570  1.00  0.00     0.041 C 
ATOM      8  O   UNL     1     -25.045 -11.289  33.115  1.00  0.00    -0.550 OA
ATOM      9  O   UNL     1     -23.195 -12.578  32.708  1.00  0.00    -0.550 OA
ENDBRANCH   6   7
ENDBRANCH   5   6
ENDBRANCH   4   5
ENDBRANCH   3   4
ENDBRANCH   2   3
ENDBRANCH   1   2
BRANCH   1  10
ATOM     10  C   UNL     1     -22.977 -14.301  40.643  1.00  0.00     0.000 C 
BRANCH  10  11
ATOM     11  C   UNL     1     -22.406 -13.036  41.301  1.00  0.00    -0.000 C 
BRANCH  11  12
ATOM     12  C   UNL     1     -21.072 -13.338  42.000  1.00  0.00    -0.000 C 
BRANCH  12  13
ATOM     13  C   UNL     1     -19.931 -12.428  41.515  1.00  0.00    -0.000 C 
BRANCH  13  14
ATOM     14  C   UNL     1     -20.407 -11.359  40.522  1.00  0.00    -0.000 C 
BRANCH  14  15
ATOM     15  C   UNL     1     -19.462 -11.270  39.317  1.00  0.00    -0.003 C 
ATOM     16  C   UNL     1     -18.964 -12.652  38.904  1.00  0.00     0.004 C 
ENDBRANCH  14  15
ENDBRANCH  13  14
ENDBRANCH  12  13
ENDBRANCH  11  12
ENDBRANCH  10  11
ENDBRANCH   1  10
TORSDOF 12
ENDMDL
MODEL 6
REMARK VINA RESULT:    -3.915      9.114     11.780
REMARK INTER + INTRA:          -7.249
REMARK INTER:                  -5.717
REMARK INTRA:                  -1.532
REMARK UNBOUND:                -0.588
REMARK SMILES CCCCCCCCCCCCCC(=O)[O-]
REMARK SMILES IDX 8 1 9 2 10 3 11 4 12 5 13 6 14 7 15 8 16 9 7 10 6 11 5 12
REMARK SMILES IDX 4 13 3 14 2 15 1 16
REMARK H PARENT
REMARK Flexibility Score: inf
ROOT
ATOM      1  C   UNL     1     -21.818 -11.498  40.359  1.00  0.00     0.000 C 
ENDROOT
BRANCH   1   2
ATOM      2  C   UNL     1     -20.350 -11.031  40.308  1.00  0.00     0.000 C 
BRANCH   2   3
ATOM      3  C   UNL     1     -19.491 -11.443  41.520  1.00  0.00     0.000 C 
BRANCH   3   4
ATOM      4  C   UNL     1     -19.277 -12.962  41.679  1.00  0.00     0.000 C 
BRANCH   4   5
ATOM      5  C   UNL     1     -20.058 -13.612  42.839  1.00  0.00     0.006 C 
BRANCH   5   6
ATOM      6  C   UNL     1     -21.016 -14.734  42.410  1.00  0.00     0.053 C 
BRANCH   6   7
ATOM      7  C   UNL     1     -22.313 -14.678  43.157  1.00  0.00     0.041 C 
ATOM      8  O   UNL     1     -22.339 -14.888  44.399  1.00  0.00    -0.550 OA
ATOM      9  O   UNL     1     -23.488 -14.362  42.488  1.00  0.00    -0.550 OA
ENDBRANCH   6   7
ENDBRANCH   5   6
ENDBRANCH   4   5
ENDBRANCH   3   4
ENDBRANCH   2   3
ENDBRANCH   1   2
BRANCH   1  10
ATOM     10  C   UNL     1     -22.735 -10.882  39.287  1.00  0.00     0.000 C 
BRANCH  10  11
ATOM     11  C   UNL     1     -22.908 -11.786  38.058  1.00  0.00    -0.000 C 
BRANCH  11  12
ATOM     12  C   UNL     1     -24.012 -12.829  38.296  1.00  0.00    -0.000 C 
BRANCH  12  13
ATOM     13  C   UNL     1     -23.476 -14.125  38.924  1.00  0.00    -0.000 C 
BRANCH  13  14
ATOM     14  C   UNL     1     -22.334 -14.750  38.110  1.00  0.00    -0.000 C 
BRANCH  14  15
ATOM     15  C   UNL     1     -21.046 -14.823  38.939  1.00  0.00    -0.003 C 
ATOM     16  C   UNL     1     -19.914 -14.050  38.268  1.00  0.00     0.004 C 
ENDBRANCH  14  15
ENDBRANCH  13  14
ENDBRANCH  12  13
ENDBRANCH  11  12
ENDBRANCH  10  11
ENDBRANCH   1  10
TORSDOF 12
ENDMDL
MODEL 7
REMARK VINA RESULT:    -3.882      8.733     10.848
REMARK INTER + INTRA:          -7.194
REMARK INTER:                  -5.352
REMARK INTRA:                  -1.841
REMARK UNBOUND:                -0.588
REMARK SMILES CCCCCCCCCCCCCC(=O)[O-]
REMARK SMILES IDX 8 1 9 2 10 3 11 4 12 5 13 6 14 7 15 8 16 9 7 10 6 11 5 12
REMARK SMILES IDX 4 13 3 14 2 15 1 16
REMARK H PARENT
REMARK Flexibility Score: inf
ROOT
ATOM      1  C   UNL     1     -23.734 -11.779  39.368  1.00  0.00     0.000 C 
ENDROOT
BRANCH   1   2
ATOM      2  C   UNL     1     -23.936 -12.847  38.275  1.00  0.00     0.000 C 
BRANCH   2   3
ATOM      3  C   UNL     1     -23.068 -14.112  38.429  1.00  0.00     0.000 C 
BRANCH   3   4
ATOM      4  C   UNL     1     -21.926 -14.246  37.401  1.00  0.00     0.000 C 
BRANCH   4   5
ATOM      5  C   UNL     1     -21.782 -13.058  36.428  1.00  0.00     0.006 C 
BRANCH   5   6
ATOM      6  C   UNL     1     -21.714 -13.456  34.946  1.00  0.00     0.053 C 
BRANCH   6   7
ATOM      7  C   UNL     1     -20.349 -13.235  34.369  1.00  0.00     0.041 C 
ATOM      8  O   UNL     1     -19.338 -13.216  35.121  1.00  0.00    -0.550 OA
ATOM      9  O   UNL     1     -20.190 -13.082  32.999  1.00  0.00    -0.550 OA
ENDBRANCH   6   7
ENDBRANCH   5   6
ENDBRANCH   4   5
ENDBRANCH   3   4
ENDBRANCH   2   3
ENDBRANCH   1   2
BRANCH   1  10
ATOM     10  C   UNL     1     -22.567 -10.807  39.120  1.00  0.00     0.000 C 
BRANCH  10  11
ATOM     11  C   UNL     1     -21.456 -10.928  40.174  1.00  0.00    -0.000 C 
BRANCH  11  12
ATOM     12  C   UNL     1     -20.385 -11.936  39.727  1.00  0.00    -0.000 C 
BRANCH  12  13
ATOM     13  C   UNL     1     -19.826 -12.762  40.897  1.00  0.00    -0.000 C 
BRANCH  13  14
ATOM     14  C   UNL     1     -20.616 -14.056  41.140  1.00  0.00    -0.000 C 
BRANCH  14  15
ATOM     15  C   UNL     1     -21.466 -13.948  42.412  1.00  0.00    -0.003 C 
ATOM     16  C   UNL     1     -22.943 -14.187  42.110  1.00  0.00     0.004 C 
ENDBRANCH  14  15
ENDBRANCH  13  14
ENDBRANCH  12  13
ENDBRANCH  11  12
ENDBRANCH  10  11
ENDBRANCH   1  10
TORSDOF 12
ENDMDL
MODEL 8
REMARK VINA RESULT:    -3.817     10.345     12.903
REMARK INTER + INTRA:          -7.084
REMARK INTER:                  -5.242
REMARK INTRA:                  -1.842
REMARK UNBOUND:                -0.588
REMARK SMILES CCCCCCCCCCCCCC(=O)[O-]
REMARK SMILES IDX 8 1 9 2 10 3 11 4 12 5 13 6 14 7 15 8 16 9 7 10 6 11 5 12
REMARK SMILES IDX 4 13 3 14 2 15 1 16
REMARK H PARENT
REMARK Flexibility Score: inf
ROOT
ATOM      1  C   UNL     1     -20.847 -15.205  40.362  1.00  0.00     0.000 C 
ENDROOT
BRANCH   1   2
ATOM      2  C   UNL     1     -20.707 -14.238  41.554  1.00  0.00     0.000 C 
BRANCH   2   3
ATOM      3  C   UNL     1     -22.038 -13.742  42.153  1.00  0.00     0.000 C 
BRANCH   3   4
ATOM      4  C   UNL     1     -22.986 -14.856  42.643  1.00  0.00     0.000 C 
BRANCH   4   5
ATOM      5  C   UNL     1     -22.442 -15.709  43.807  1.00  0.00     0.006 C 
BRANCH   5   6
ATOM      6  C   UNL     1     -22.360 -14.971  45.152  1.00  0.00     0.053 C 
BRANCH   6   7
ATOM      7  C   UNL     1     -20.947 -14.835  45.630  1.00  0.00     0.041 C 
ATOM      8  O   UNL     1     -20.505 -15.602  46.526  1.00  0.00    -0.550 OA
ATOM      9  O   UNL     1     -20.109 -13.884  45.064  1.00  0.00    -0.550 OA
ENDBRANCH   6   7
ENDBRANCH   5   6
ENDBRANCH   4   5
ENDBRANCH   3   4
ENDBRANCH   2   3
ENDBRANCH   1   2
BRANCH   1  10
ATOM     10  C   UNL     1     -20.383 -14.641  39.008  1.00  0.00     0.000 C 
BRANCH  10  11
ATOM     11  C   UNL     1     -21.546 -14.384  38.038  1.00  0.00    -0.000 C 
BRANCH  11  12
ATOM     12  C   UNL     1     -22.868 -14.910  38.617  1.00  0.00    -0.000 C 
BRANCH  12  13
ATOM     13  C   UNL     1     -23.871 -13.785  38.919  1.00  0.00    -0.000 C 
BRANCH  13  14
ATOM     14  C   UNL     1     -23.428 -12.428  38.353  1.00  0.00    -0.000 C 
BRANCH  14  15
ATOM     15  C   UNL     1     -23.300 -11.384  39.469  1.00  0.00    -0.003 C 
ATOM     16  C   UNL     1     -21.837 -11.069  39.764  1.00  0.00     0.004 C 
ENDBRANCH  14  15
ENDBRANCH  13  14
ENDBRANCH  12  13
ENDBRANCH  11  12
ENDBRANCH  10  11
ENDBRANCH   1  10
TORSDOF 12
ENDMDL
MODEL 9
REMARK VINA RESULT:    -3.792      8.692     10.770
REMARK INTER + INTRA:          -7.040
REMARK INTER:                  -5.507
REMARK INTRA:                  -1.533
REMARK UNBOUND:                -0.588
REMARK SMILES CCCCCCCCCCCCCC(=O)[O-]
REMARK SMILES IDX 8 1 9 2 10 3 11 4 12 5 13 6 14 7 15 8 16 9 7 10 6 11 5 12
REMARK SMILES IDX 4 13 3 14 2 15 1 16
REMARK H PARENT
REMARK Flexibility Score: inf
ROOT
ATOM      1  C   UNL     1     -22.565 -10.742  39.256  1.00  0.00     0.000 C 
ENDROOT
BRANCH   1   2
ATOM      2  C   UNL     1     -21.368 -11.262  40.076  1.00  0.00     0.000 C 
BRANCH   2   3
ATOM      3  C   UNL     1     -20.191 -11.804  39.241  1.00  0.00     0.000 C 
BRANCH   3   4
ATOM      4  C   UNL     1     -19.525 -13.077  39.804  1.00  0.00     0.000 C 
BRANCH   4   5
ATOM      5  C   UNL     1     -19.762 -14.356  38.975  1.00  0.00     0.006 C 
BRANCH   5   6
ATOM      6  C   UNL     1     -21.122 -15.028  39.217  1.00  0.00     0.053 C 
BRANCH   6   7
ATOM      7  C   UNL     1     -21.425 -15.167  40.677  1.00  0.00     0.041 C 
ATOM      8  O   UNL     1     -20.713 -15.908  41.405  1.00  0.00    -0.550 OA
ATOM      9  O   UNL     1     -22.474 -14.454  41.240  1.00  0.00    -0.550 OA
ENDBRANCH   6   7
ENDBRANCH   5   6
ENDBRANCH   4   5
ENDBRANCH   3   4
ENDBRANCH   2   3
ENDBRANCH   1   2
BRANCH   1  10
ATOM     10  C   UNL     1     -23.775 -11.690  39.197  1.00  0.00     0.000 C 
BRANCH  10  11
ATOM     11  C   UNL     1     -23.645 -12.757  38.100  1.00  0.00    -0.000 C 
BRANCH  11  12
ATOM     12  C   UNL     1     -23.028 -12.159  36.826  1.00  0.00    -0.000 C 
BRANCH  12  13
ATOM     13  C   UNL     1     -21.930 -13.052  36.225  1.00  0.00    -0.000 C 
BRANCH  13  14
ATOM     14  C   UNL     1     -21.946 -13.058  34.690  1.00  0.00    -0.000 C 
BRANCH  14  15
ATOM     15  C   UNL     1     -20.552 -13.366  34.128  1.00  0.00    -0.003 C 
ATOM     16  C   UNL     1     -20.485 -13.079  32.631  1.00  0.00     0.004 C 
ENDBRANCH  14  15
ENDBRANCH  13  14
ENDBRANCH  12  13
ENDBRANCH  11  12
ENDBRANCH  10  11
ENDBRANCH   1  10
TORSDOF 12
ENDMDL
