MODEL 1
REMARK VINA RESULT:    -4.885      0.000      0.000
REMARK INTER + INTRA:          -6.072
REMARK INTER:                  -5.884
REMARK INTRA:                  -0.188
REMARK UNBOUND:                -0.188
REMARK SMILES NC(=O)C[C@H]([NH3+])C(=O)[O-]
REMARK SMILES IDX 4 1 5 2 6 3 7 7 8 8 9 9 2 10 3 11 1 12
REMARK H PARENT 6 4 6 5 6 6 1 13 1 14
REMARK Flexibility Score: inf
ROOT
ATOM      1  C   UNL     1      23.530  22.196  12.172  1.00  0.00     0.171 C 
ENDROOT
BRANCH   1   2
ATOM      2  C   UNL     1      24.617  23.228  11.810  1.00  0.00     0.237 C 
BRANCH   2   3
ATOM      3  N   UNL     1      24.040  24.557  11.573  1.00  0.00    -0.350 N 
ATOM      4  H   UNL     1      23.022  24.483  11.336  1.00  0.00     0.345 HD
ATOM      5  H   UNL     1      24.541  25.027  10.784  1.00  0.00     0.345 HD
ATOM      6  H   UNL     1      24.151  25.154  12.424  1.00  0.00     0.345 HD
ENDBRANCH   2   3
BRANCH   2   7
ATOM      7  C   UNL     1      25.367  22.765  10.590  1.00  0.00     0.100 C 
ATOM      8  O   UNL     1      24.788  22.713   9.472  1.00  0.00    -0.544 OA
ATOM      9  O   UNL     1      26.707  22.407  10.685  1.00  0.00    -0.544 OA
ENDBRANCH   2   7
ENDBRANCH   1   2
BRANCH   1  10
ATOM     10  C   UNL     1      24.128  20.900  12.636  1.00  0.00     0.223 C 
ATOM     11  O   UNL     1      23.776  19.819  12.093  1.00  0.00    -0.275 OA
ATOM     12  N   UNL     1      25.118  20.884  13.666  1.00  0.00    -0.369 N 
ATOM     13  H   UNL     1      25.539  19.981  13.978  1.00  0.00     0.159 HD
ATOM     14  H   UNL     1      25.439  21.772  14.111  1.00  0.00     0.159 HD
ENDBRANCH   1  10
TORSDOF 4
ENDMDL
MODEL 2
REMARK VINA RESULT:    -4.730      1.586      2.022
REMARK INTER + INTRA:          -5.886
REMARK INTER:                  -5.566
REMARK INTRA:                  -0.320
REMARK UNBOUND:                -0.188
REMARK SMILES NC(=O)C[C@H]([NH3+])C(=O)[O-]
REMARK SMILES IDX 4 1 5 2 6 3 7 7 8 8 9 9 2 10 3 11 1 12
REMARK H PARENT 6 4 6 5 6 6 1 13 1 14
REMARK Flexibility Score: inf
ROOT
ATOM      1  C   UNL     1      24.730  21.063  13.643  1.00  0.00     0.171 C 
ENDROOT
BRANCH   1   2
ATOM      2  C   UNL     1      24.377  22.240  12.712  1.00  0.00     0.237 C 
BRANCH   2   3
ATOM      3  N   UNL     1      23.025  22.101  12.157  1.00  0.00    -0.350 N 
ATOM      4  H   UNL     1      22.890  21.148  11.744  1.00  0.00     0.345 HD
ATOM      5  H   UNL     1      22.870  22.821  11.414  1.00  0.00     0.345 HD
ATOM      6  H   UNL     1      22.312  22.254  12.905  1.00  0.00     0.345 HD
ENDBRANCH   2   3
BRANCH   2   7
ATOM      7  C   UNL     1      25.387  22.323  11.599  1.00  0.00     0.100 C 
ATOM      8  O   UNL     1      26.603  22.521  11.860  1.00  0.00    -0.544 OA
ATOM      9  O   UNL     1      24.987  22.167  10.277  1.00  0.00    -0.544 OA
ENDBRANCH   2   7
ENDBRANCH   1   2
BRANCH   1  10
ATOM     10  C   UNL     1      23.875  19.860  13.366  1.00  0.00     0.223 C 
ATOM     11  O   UNL     1      23.885  19.337  12.221  1.00  0.00    -0.275 OA
ATOM     12  N   UNL     1      23.077  19.284  14.401  1.00  0.00    -0.369 N 
ATOM     13  H   UNL     1      22.492  18.441  14.206  1.00  0.00     0.159 HD
ATOM     14  H   UNL     1      23.074  19.690  15.362  1.00  0.00     0.159 HD
ENDBRANCH   1  10
TORSDOF 4
ENDMDL
MODEL 3
REMARK VINA RESULT:    -4.686      3.984      5.571
REMARK INTER + INTRA:          -5.833
REMARK INTER:                  -5.546
REMARK INTRA:                  -0.287
REMARK UNBOUND:                -0.188
REMARK SMILES NC(=O)C[C@H]([NH3+])C(=O)[O-]
REMARK SMILES IDX 4 1 5 2 6 3 7 7 8 8 9 9 2 10 3 11 1 12
REMARK H PARENT 6 4 6 5 6 6 1 13 1 14
REMARK Flexibility Score: inf
ROOT
ATOM      1  C   UNL     1      23.291  19.663  15.465  1.00  0.00     0.171 C 
ENDROOT
BRANCH   1   2
ATOM      2  C   UNL     1      22.843  21.040  15.992  1.00  0.00     0.237 C 
BRANCH   2   3
ATOM      3  N   UNL     1      23.584  22.131  15.345  1.00  0.00    -0.350 N 
ATOM      4  H   UNL     1      22.990  22.990  15.271  1.00  0.00     0.345 HD
ATOM      5  H   UNL     1      23.883  21.838  14.386  1.00  0.00     0.345 HD
ATOM      6  H   UNL     1      24.444  22.356  15.894  1.00  0.00     0.345 HD
ENDBRANCH   2   3
BRANCH   2   7
ATOM      7  C   UNL     1      23.036  21.098  17.483  1.00  0.00     0.100 C 
ATOM      8  O   UNL     1      22.943  22.197  18.092  1.00  0.00    -0.544 OA
ATOM      9  O   UNL     1      23.302  19.938  18.201  1.00  0.00    -0.544 OA
ENDBRANCH   2   7
ENDBRANCH   1   2
BRANCH   1  10
ATOM     10  C   UNL     1      23.686  19.723  14.018  1.00  0.00     0.223 C 
ATOM     11  O   UNL     1      22.906  20.245  13.178  1.00  0.00    -0.275 OA
ATOM     12  N   UNL     1      24.954  19.223  13.590  1.00  0.00    -0.369 N 
ATOM     13  H   UNL     1      25.228  19.277  12.585  1.00  0.00     0.159 HD
ATOM     14  H   UNL     1      25.622  18.808  14.276  1.00  0.00     0.159 HD
ENDBRANCH   1  10
TORSDOF 4
ENDMDL
MODEL 4
REMARK VINA RESULT:    -4.681      3.905      5.492
REMARK INTER + INTRA:          -5.827
REMARK INTER:                  -5.695
REMARK INTRA:                  -0.132
REMARK UNBOUND:                -0.188
REMARK SMILES NC(=O)C[C@H]([NH3+])C(=O)[O-]
REMARK SMILES IDX 4 1 5 2 6 3 7 7 8 8 9 9 2 10 3 11 1 12
REMARK H PARENT 6 4 6 5 6 6 1 13 1 14
REMARK Flexibility Score: inf
ROOT
ATOM      1  C   UNL     1      22.942  19.738  14.451  1.00  0.00     0.171 C 
ENDROOT
BRANCH   1   2
ATOM      2  C   UNL     1      23.391  19.856  15.921  1.00  0.00     0.237 C 
BRANCH   2   3
ATOM      3  N   UNL     1      22.826  18.779  16.745  1.00  0.00    -0.350 N 
ATOM      4  H   UNL     1      22.008  18.335  16.264  1.00  0.00     0.345 HD
ATOM      5  H   UNL     1      22.514  19.163  17.666  1.00  0.00     0.345 HD
ATOM      6  H   UNL     1      23.552  18.050  16.930  1.00  0.00     0.345 HD
ENDBRANCH   2   3
BRANCH   2   7
ATOM      7  C   UNL     1      22.979  21.196  16.470  1.00  0.00     0.100 C 
ATOM      8  O   UNL     1      22.895  22.195  15.707  1.00  0.00    -0.544 OA
ATOM      9  O   UNL     1      22.672  21.337  17.818  1.00  0.00    -0.544 OA
ENDBRANCH   2   7
ENDBRANCH   1   2
BRANCH   1  10
ATOM     10  C   UNL     1      24.111  19.554  13.527  1.00  0.00     0.223 C 
ATOM     11  O   UNL     1      25.087  20.348  13.587  1.00  0.00    -0.275 OA
ATOM     12  N   UNL     1      24.140  18.465  12.603  1.00  0.00    -0.369 N 
ATOM     13  H   UNL     1      24.960  18.334  11.970  1.00  0.00     0.159 HD
ATOM     14  H   UNL     1      23.350  17.784  12.556  1.00  0.00     0.159 HD
ENDBRANCH   1  10
TORSDOF 4
ENDMDL
MODEL 5
REMARK VINA RESULT:    -4.538      1.181      3.770
REMARK INTER + INTRA:          -5.654
REMARK INTER:                  -5.445
REMARK INTRA:                  -0.210
REMARK UNBOUND:                -0.188
REMARK SMILES NC(=O)C[C@H]([NH3+])C(=O)[O-]
REMARK SMILES IDX 4 1 5 2 6 3 7 7 8 8 9 9 2 10 3 11 1 12
REMARK H PARENT 6 4 6 5 6 6 1 13 1 14
REMARK Flexibility Score: inf
ROOT
ATOM      1  C   UNL     1      23.713  22.044  12.093  1.00  0.00     0.171 C 
ENDROOT
BRANCH   1   2
ATOM      2  C   UNL     1      24.180  21.153  13.261  1.00  0.00     0.237 C 
BRANCH   2   3
ATOM      3  N   UNL     1      25.645  21.084  13.334  1.00  0.00    -0.350 N 
ATOM      4  H   UNL     1      26.045  20.721  12.436  1.00  0.00     0.345 HD
ATOM      5  H   UNL     1      25.933  20.452  14.116  1.00  0.00     0.345 HD
ATOM      6  H   UNL     1      26.040  22.032  13.526  1.00  0.00     0.345 HD
ENDBRANCH   2   3
BRANCH   2   7
ATOM      7  C   UNL     1      23.605  19.770  13.103  1.00  0.00     0.100 C 
ATOM      8  O   UNL     1      22.763  19.336  13.932  1.00  0.00    -0.544 OA
ATOM      9  O   UNL     1      23.987  18.971  12.032  1.00  0.00    -0.544 OA
ENDBRANCH   2   7
ENDBRANCH   1   2
BRANCH   1  10
ATOM     10  C   UNL     1      24.874  22.658  11.364  1.00  0.00     0.223 C 
ATOM     11  O   UNL     1      25.360  22.075  10.360  1.00  0.00    -0.275 OA
ATOM     12  N   UNL     1      25.408  23.915  11.781  1.00  0.00    -0.369 N 
ATOM     13  H   UNL     1      26.208  24.344  11.265  1.00  0.00     0.159 HD
ATOM     14  H   UNL     1      25.003  24.423  12.597  1.00  0.00     0.159 HD
ENDBRANCH   1  10
TORSDOF 4
ENDMDL
MODEL 6
REMARK VINA RESULT:    -4.514      2.185      3.169
REMARK INTER + INTRA:          -5.625
REMARK INTER:                  -5.278
REMARK INTRA:                  -0.347
REMARK UNBOUND:                -0.188
REMARK SMILES NC(=O)C[C@H]([NH3+])C(=O)[O-]
REMARK SMILES IDX 4 1 5 2 6 3 7 7 8 8 9 9 2 10 3 11 1 12
REMARK H PARENT 6 4 6 5 6 6 1 13 1 14
REMARK Flexibility Score: inf
ROOT
ATOM      1  C   UNL     1      23.119  23.298  11.456  1.00  0.00     0.171 C 
ENDROOT
BRANCH   1   2
ATOM      2  C   UNL     1      24.627  23.302  11.774  1.00  0.00     0.237 C 
BRANCH   2   3
ATOM      3  N   UNL     1      25.100  24.648  12.124  1.00  0.00    -0.350 N 
ATOM      4  H   UNL     1      24.663  24.973  13.018  1.00  0.00     0.345 HD
ATOM      5  H   UNL     1      24.857  25.319  11.359  1.00  0.00     0.345 HD
ATOM      6  H   UNL     1      26.140  24.646  12.231  1.00  0.00     0.345 HD
ENDBRANCH   2   3
BRANCH   2   7
ATOM      7  C   UNL     1      25.394  22.776  10.590  1.00  0.00     0.100 C 
ATOM      8  O   UNL     1      24.841  22.693   9.462  1.00  0.00    -0.544 OA
ATOM      9  O   UNL     1      26.723  22.393  10.732  1.00  0.00    -0.544 OA
ENDBRANCH   2   7
ENDBRANCH   1   2
BRANCH   1  10
ATOM     10  C   UNL     1      22.589  24.688  11.256  1.00  0.00     0.223 C 
ATOM     11  O   UNL     1      23.015  25.388  10.300  1.00  0.00    -0.275 OA
ATOM     12  N   UNL     1      21.581  25.212  12.122  1.00  0.00    -0.369 N 
ATOM     13  H   UNL     1      21.208  26.175  11.973  1.00  0.00     0.159 HD
ATOM     14  H   UNL     1      21.200  24.637  12.906  1.00  0.00     0.159 HD
ENDBRANCH   1  10
TORSDOF 4
ENDMDL
MODEL 7
REMARK VINA RESULT:    -4.496      3.112      4.281
REMARK INTER + INTRA:          -5.603
REMARK INTER:                  -5.342
REMARK INTRA:                  -0.262
REMARK UNBOUND:                -0.188
REMARK SMILES NC(=O)C[C@H]([NH3+])C(=O)[O-]
REMARK SMILES IDX 4 1 5 2 6 3 7 7 8 8 9 9 2 10 3 11 1 12
REMARK H PARENT 6 4 6 5 6 6 1 13 1 14
REMARK Flexibility Score: inf
ROOT
ATOM      1  C   UNL     1      23.565  21.296  15.333  1.00  0.00     0.171 C 
ENDROOT
BRANCH   1   2
ATOM      2  C   UNL     1      23.185  20.326  14.197  1.00  0.00     0.237 C 
BRANCH   2   3
ATOM      3  N   UNL     1      24.107  19.185  14.132  1.00  0.00    -0.350 N 
ATOM      4  H   UNL     1      25.101  19.506  14.219  1.00  0.00     0.345 HD
ATOM      5  H   UNL     1      23.988  18.683  13.222  1.00  0.00     0.345 HD
ATOM      6  H   UNL     1      23.897  18.509  14.901  1.00  0.00     0.345 HD
ENDBRANCH   2   3
BRANCH   2   7
ATOM      7  C   UNL     1      23.179  21.062  12.884  1.00  0.00     0.100 C 
ATOM      8  O   UNL     1      22.223  21.826  12.590  1.00  0.00    -0.544 OA
ATOM      9  O   UNL     1      24.237  20.915  11.995  1.00  0.00    -0.544 OA
ENDBRANCH   2   7
ENDBRANCH   1   2
BRANCH   1  10
ATOM     10  C   UNL     1      23.103  20.795  16.670  1.00  0.00     0.223 C 
ATOM     11  O   UNL     1      22.775  19.586  16.805  1.00  0.00    -0.275 OA
ATOM     12  N   UNL     1      23.064  21.669  17.799  1.00  0.00    -0.369 N 
ATOM     13  H   UNL     1      22.752  21.313  18.730  1.00  0.00     0.159 HD
ATOM     14  H   UNL     1      23.354  22.668  17.711  1.00  0.00     0.159 HD
ENDBRANCH   1  10
TORSDOF 4
ENDMDL
MODEL 8
REMARK VINA RESULT:    -4.461      3.893      4.804
REMARK INTER + INTRA:          -5.562
REMARK INTER:                  -5.321
REMARK INTRA:                  -0.241
REMARK UNBOUND:                -0.188
REMARK SMILES NC(=O)C[C@H]([NH3+])C(=O)[O-]
REMARK SMILES IDX 4 1 5 2 6 3 7 7 8 8 9 9 2 10 3 11 1 12
REMARK H PARENT 6 4 6 5 6 6 1 13 1 14
REMARK Flexibility Score: inf
ROOT
ATOM      1  C   UNL     1      22.929  20.278  16.221  1.00  0.00     0.171 C 
ENDROOT
BRANCH   1   2
ATOM      2  C   UNL     1      23.726  21.243  15.322  1.00  0.00     0.237 C 
BRANCH   2   3
ATOM      3  N   UNL     1      23.074  22.556  15.230  1.00  0.00    -0.350 N 
ATOM      4  H   UNL     1      22.609  22.674  14.299  1.00  0.00     0.345 HD
ATOM      5  H   UNL     1      23.784  23.314  15.356  1.00  0.00     0.345 HD
ATOM      6  H   UNL     1      22.360  22.656  15.986  1.00  0.00     0.345 HD
ENDBRANCH   2   3
BRANCH   2   7
ATOM      7  C   UNL     1      23.880  20.645  13.949  1.00  0.00     0.100 C 
ATOM      8  O   UNL     1      22.891  20.578  13.173  1.00  0.00    -0.544 OA
ATOM      9  O   UNL     1      25.118  20.177  13.523  1.00  0.00    -0.544 OA
ENDBRANCH   2   7
ENDBRANCH   1   2
BRANCH   1  10
ATOM     10  C   UNL     1      23.068  20.629  17.674  1.00  0.00     0.223 C 
ATOM     11  O   UNL     1      22.971  21.831  18.038  1.00  0.00    -0.275 OA
ATOM     12  N   UNL     1      23.274  19.609  18.651  1.00  0.00    -0.369 N 
ATOM     13  H   UNL     1      23.359  19.857  19.662  1.00  0.00     0.159 HD
ATOM     14  H   UNL     1      23.333  18.605  18.370  1.00  0.00     0.159 HD
ENDBRANCH   1  10
TORSDOF 4
ENDMDL
MODEL 9
REMARK VINA RESULT:    -4.455      3.211      4.379
REMARK INTER + INTRA:          -5.554
REMARK INTER:                  -5.288
REMARK INTRA:                  -0.266
REMARK UNBOUND:                -0.188
REMARK SMILES NC(=O)C[C@H]([NH3+])C(=O)[O-]
REMARK SMILES IDX 4 1 5 2 6 3 7 7 8 8 9 9 2 10 3 11 1 12
REMARK H PARENT 6 4 6 5 6 6 1 13 1 14
REMARK Flexibility Score: inf
ROOT
ATOM      1  C   UNL     1      23.314  21.637  14.795  1.00  0.00     0.171 C 
ENDROOT
BRANCH   1   2
ATOM      2  C   UNL     1      24.313  20.709  14.077  1.00  0.00     0.237 C 
BRANCH   2   3
ATOM      3  N   UNL     1      25.119  21.443  13.093  1.00  0.00    -0.350 N 
ATOM      4  H   UNL     1      25.856  20.824  12.681  1.00  0.00     0.345 HD
ATOM      5  H   UNL     1      25.579  22.264  13.552  1.00  0.00     0.345 HD
ATOM      6  H   UNL     1      24.508  21.806  12.326  1.00  0.00     0.345 HD
ENDBRANCH   2   3
BRANCH   2   7
ATOM      7  C   UNL     1      23.567  19.589  13.401  1.00  0.00     0.100 C 
ATOM      8  O   UNL     1      22.576  19.056  13.966  1.00  0.00    -0.544 OA
ATOM      9  O   UNL     1      23.957  19.147  12.142  1.00  0.00    -0.544 OA
ENDBRANCH   2   7
ENDBRANCH   1   2
BRANCH   1  10
ATOM     10  C   UNL     1      23.370  21.466  16.286  1.00  0.00     0.223 C 
ATOM     11  O   UNL     1      23.742  22.426  17.011  1.00  0.00    -0.275 OA
ATOM     12  N   UNL     1      22.972  20.235  16.890  1.00  0.00    -0.369 N 
ATOM     13  H   UNL     1      23.002  20.124  17.928  1.00  0.00     0.159 HD
ATOM     14  H   UNL     1      22.639  19.436  16.306  1.00  0.00     0.159 HD
ENDBRANCH   1  10
TORSDOF 4
ENDMDL
