MODEL 1
REMARK VINA RESULT:     0.191      0.000      0.000
REMARK INTER + INTRA:           1.185
REMARK INTER:                   0.436
REMARK INTRA:                   0.749
REMARK UNBOUND:                 0.749
REMARK SMILES CCCCCCCCCCCCCCCCCCCCCCCC(=O)[O-]
REMARK SMILES IDX 13 1 14 2 15 3 16 4 17 5 18 6 19 7 20 8 21 9 22 10 23 11
REMARK SMILES IDX 24 12 25 13 26 14 12 15 11 16 10 17 9 18 8 19 7 20 6 21 5 22
REMARK SMILES IDX 4 23 3 24 2 25 1 26
REMARK H PARENT
REMARK Flexibility Score: inf
ROOT
ATOM      1  C   UNL     1       8.701  -5.432  -4.679  1.00  0.00     0.000 C 
ENDROOT
BRANCH   1   2
ATOM      2  C   UNL     1       9.818  -6.116  -5.483  1.00  0.00     0.000 C 
BRANCH   2   3
ATOM      3  C   UNL     1       9.705  -7.643  -5.388  1.00  0.00     0.000 C 
BRANCH   3   4
ATOM      4  C   UNL     1      10.124  -8.311  -6.708  1.00  0.00     0.000 C 
BRANCH   4   5
ATOM      5  C   UNL     1      10.034  -7.356  -7.912  1.00  0.00     0.000 C 
BRANCH   5   6
ATOM      6  C   UNL     1       8.792  -7.564  -8.798  1.00  0.00     0.000 C 
BRANCH   6   7
ATOM      7  C   UNL     1       8.090  -6.245  -9.155  1.00  0.00     0.000 C 
BRANCH   7   8
ATOM      8  C   UNL     1       6.685  -6.189  -8.543  1.00  0.00     0.000 C 
BRANCH   8   9
ATOM      9  C   UNL     1       6.703  -6.657  -7.079  1.00  0.00     0.000 C 
BRANCH   9  10
ATOM     10  C   UNL     1       5.775  -7.857  -6.830  1.00  0.00     0.006 C 
BRANCH  10  11
ATOM     11  C   UNL     1       5.732  -8.828  -8.017  1.00  0.00     0.053 C 
BRANCH  11  12
ATOM     12  C   UNL     1       4.504  -8.602  -8.843  1.00  0.00     0.041 C 
ATOM     13  O   UNL     1       4.597  -8.079  -9.986  1.00  0.00    -0.550 OA
ATOM     14  O   UNL     1       3.257  -8.975  -8.356  1.00  0.00    -0.550 OA
ENDBRANCH  11  12
ENDBRANCH  10  11
ENDBRANCH   9  10
ENDBRANCH   8   9
ENDBRANCH   7   8
ENDBRANCH   6   7
ENDBRANCH   5   6
ENDBRANCH   4   5
ENDBRANCH   3   4
ENDBRANCH   2   3
ENDBRANCH   1   2
BRANCH   1  15
ATOM     15  C   UNL     1       8.819  -5.666  -3.162  1.00  0.00     0.000 C 
BRANCH  15  16
ATOM     16  C   UNL     1       7.821  -6.682  -2.576  1.00  0.00     0.000 C 
BRANCH  16  17
ATOM     17  C   UNL     1       7.628  -7.918  -3.469  1.00  0.00     0.000 C 
BRANCH  17  18
ATOM     18  C   UNL     1       8.891  -8.795  -3.469  1.00  0.00    -0.000 C 
BRANCH  18  19
ATOM     19  C   UNL     1       8.802  -9.972  -2.485  1.00  0.00    -0.000 C 
BRANCH  19  20
ATOM     20  C   UNL     1       9.861  -9.896  -1.371  1.00  0.00    -0.000 C 
BRANCH  20  21
ATOM     21  C   UNL     1       9.259 -10.034   0.040  1.00  0.00    -0.000 C 
BRANCH  21  22
ATOM     22  C   UNL     1       9.898  -9.135   1.116  1.00  0.00    -0.000 C 
BRANCH  22  23
ATOM     23  C   UNL     1      10.097  -9.854   2.459  1.00  0.00    -0.000 C 
BRANCH  23  24
ATOM     24  C   UNL     1       9.214  -9.237   3.550  1.00  0.00    -0.000 C 
BRANCH  24  25
ATOM     25  C   UNL     1      10.068  -8.646   4.678  1.00  0.00    -0.003 C 
ATOM     26  C   UNL     1      10.002  -9.511   5.934  1.00  0.00     0.004 C 
ENDBRANCH  24  25
ENDBRANCH  23  24
ENDBRANCH  22  23
ENDBRANCH  21  22
ENDBRANCH  20  21
ENDBRANCH  19  20
ENDBRANCH  18  19
ENDBRANCH  17  18
ENDBRANCH  16  17
ENDBRANCH  15  16
ENDBRANCH   1  15
TORSDOF 22
ENDMDL
MODEL 2
REMARK VINA RESULT:     1.054      4.024      6.845
REMARK INTER + INTRA:           3.159
REMARK INTER:                  -0.306
REMARK INTRA:                   3.465
REMARK UNBOUND:                 0.749
REMARK SMILES CCCCCCCCCCCCCCCCCCCCCCCC(=O)[O-]
REMARK SMILES IDX 13 1 14 2 15 3 16 4 17 5 18 6 19 7 20 8 21 9 22 10 23 11
REMARK SMILES IDX 24 12 25 13 26 14 12 15 11 16 10 17 9 18 8 19 7 20 6 21 5 22
REMARK SMILES IDX 4 23 3 24 2 25 1 26
REMARK H PARENT
REMARK Flexibility Score: inf
ROOT
ATOM      1  C   UNL     1       6.107  -7.518  -7.834  1.00  0.00     0.000 C 
ENDROOT
BRANCH   1   2
ATOM      2  C   UNL     1       6.160  -6.821  -9.203  1.00  0.00     0.000 C 
BRANCH   2   3
ATOM      3  C   UNL     1       7.594  -6.402  -9.550  1.00  0.00     0.000 C 
BRANCH   3   4
ATOM      4  C   UNL     1       7.799  -4.896  -9.327  1.00  0.00     0.000 C 
BRANCH   4   5
ATOM      5  C   UNL     1       9.284  -4.508  -9.206  1.00  0.00     0.000 C 
BRANCH   5   6
ATOM      6  C   UNL     1      10.109  -5.429  -8.289  1.00  0.00     0.000 C 
BRANCH   6   7
ATOM      7  C   UNL     1       9.878  -5.142  -6.797  1.00  0.00     0.000 C 
BRANCH   7   8
ATOM      8  C   UNL     1       8.542  -5.730  -6.328  1.00  0.00     0.000 C 
BRANCH   8   9
ATOM      9  C   UNL     1       8.760  -7.026  -5.531  1.00  0.00     0.000 C 
BRANCH   9  10
ATOM     10  C   UNL     1       9.585  -6.804  -4.253  1.00  0.00     0.006 C 
BRANCH  10  11
ATOM     11  C   UNL     1      10.124  -8.113  -3.662  1.00  0.00     0.053 C 
BRANCH  11  12
ATOM     12  C   UNL     1       9.855  -8.180  -2.191  1.00  0.00     0.041 C 
ATOM     13  O   UNL     1       9.891  -7.133  -1.492  1.00  0.00    -0.550 OA
ATOM     14  O   UNL     1       9.557  -9.399  -1.591  1.00  0.00    -0.550 OA
ENDBRANCH  11  12
ENDBRANCH  10  11
ENDBRANCH   9  10
ENDBRANCH   8   9
ENDBRANCH   7   8
ENDBRANCH   6   7
ENDBRANCH   5   6
ENDBRANCH   4   5
ENDBRANCH   3   4
ENDBRANCH   2   3
ENDBRANCH   1   2
BRANCH   1  15
ATOM     15  C   UNL     1       5.715  -9.004  -7.927  1.00  0.00     0.000 C 
BRANCH  15  16
ATOM     16  C   UNL     1       5.421  -9.515  -9.349  1.00  0.00     0.000 C 
BRANCH  16  17
ATOM     17  C   UNL     1       6.655 -10.118 -10.039  1.00  0.00     0.000 C 
BRANCH  17  18
ATOM     18  C   UNL     1       7.840  -9.141  -9.992  1.00  0.00    -0.000 C 
BRANCH  18  19
ATOM     19  C   UNL     1       9.202  -9.847 -10.094  1.00  0.00    -0.000 C 
BRANCH  19  20
ATOM     20  C   UNL     1       9.947  -9.899  -8.748  1.00  0.00    -0.000 C 
BRANCH  20  21
ATOM     21  C   UNL     1       9.166  -9.225  -7.604  1.00  0.00    -0.000 C 
BRANCH  21  22
ATOM     22  C   UNL     1       8.136 -10.124  -6.894  1.00  0.00    -0.000 C 
BRANCH  22  23
ATOM     23  C   UNL     1       7.100  -9.329  -6.085  1.00  0.00    -0.000 C 
BRANCH  23  24
ATOM     24  C   UNL     1       6.656 -10.109  -4.842  1.00  0.00    -0.000 C 
BRANCH  24  25
ATOM     25  C   UNL     1       6.913  -9.299  -3.565  1.00  0.00    -0.003 C 
ATOM     26  C   UNL     1       6.067  -9.814  -2.404  1.00  0.00     0.004 C 
ENDBRANCH  24  25
ENDBRANCH  23  24
ENDBRANCH  22  23
ENDBRANCH  21  22
ENDBRANCH  20  21
ENDBRANCH  19  20
ENDBRANCH  18  19
ENDBRANCH  17  18
ENDBRANCH  16  17
ENDBRANCH  15  16
ENDBRANCH   1  15
TORSDOF 22
ENDMDL
MODEL 3
REMARK VINA RESULT:     1.069      8.306     13.204
REMARK INTER + INTRA:           3.194
REMARK INTER:                   4.151
REMARK INTRA:                  -0.957
REMARK UNBOUND:                 0.749
REMARK SMILES CCCCCCCCCCCCCCCCCCCCCCCC(=O)[O-]
REMARK SMILES IDX 13 1 14 2 15 3 16 4 17 5 18 6 19 7 20 8 21 9 22 10 23 11
REMARK SMILES IDX 24 12 25 13 26 14 12 15 11 16 10 17 9 18 8 19 7 20 6 21 5 22
REMARK SMILES IDX 4 23 3 24 2 25 1 26
REMARK H PARENT
REMARK Flexibility Score: inf
ROOT
ATOM      1  C   UNL     1      -1.484  -6.163  -9.333  1.00  0.00     0.000 C 
ENDROOT
BRANCH   1   2
ATOM      2  C   UNL     1      -0.164  -6.124 -10.120  1.00  0.00     0.000 C 
BRANCH   2   3
ATOM      3  C   UNL     1       0.512  -7.500 -10.125  1.00  0.00     0.000 C 
BRANCH   3   4
ATOM      4  C   UNL     1       2.043  -7.364 -10.115  1.00  0.00     0.000 C 
BRANCH   4   5
ATOM      5  C   UNL     1       2.754  -8.667  -9.707  1.00  0.00     0.000 C 
BRANCH   5   6
ATOM      6  C   UNL     1       4.283  -8.643  -9.893  1.00  0.00     0.000 C 
BRANCH   6   7
ATOM      7  C   UNL     1       5.029  -8.223  -8.618  1.00  0.00     0.000 C 
BRANCH   7   8
ATOM      8  C   UNL     1       6.188  -7.275  -8.949  1.00  0.00     0.000 C 
BRANCH   8   9
ATOM      9  C   UNL     1       6.763  -6.641  -7.672  1.00  0.00     0.000 C 
BRANCH   9  10
ATOM     10  C   UNL     1       8.300  -6.655  -7.645  1.00  0.00     0.006 C 
BRANCH  10  11
ATOM     11  C   UNL     1       8.881  -8.071  -7.755  1.00  0.00     0.053 C 
BRANCH  11  12
ATOM     12  C   UNL     1       9.317  -8.358  -9.158  1.00  0.00     0.041 C 
ATOM     13  O   UNL     1       9.973  -7.499  -9.805  1.00  0.00    -0.550 OA
ATOM     14  O   UNL     1       9.007  -9.577  -9.749  1.00  0.00    -0.550 OA
ENDBRANCH  11  12
ENDBRANCH  10  11
ENDBRANCH   9  10
ENDBRANCH   8   9
ENDBRANCH   7   8
ENDBRANCH   6   7
ENDBRANCH   5   6
ENDBRANCH   4   5
ENDBRANCH   3   4
ENDBRANCH   2   3
ENDBRANCH   1   2
BRANCH   1  15
ATOM     15  C   UNL     1      -2.638  -6.810 -10.120  1.00  0.00     0.000 C 
BRANCH  15  16
ATOM     16  C   UNL     1      -3.248  -8.067  -9.473  1.00  0.00     0.000 C 
BRANCH  16  17
ATOM     17  C   UNL     1      -4.683  -8.349  -9.945  1.00  0.00     0.000 C 
BRANCH  17  18
ATOM     18  C   UNL     1      -5.031  -9.837  -9.781  1.00  0.00    -0.000 C 
BRANCH  18  19
ATOM     19  C   UNL     1      -6.537 -10.083  -9.596  1.00  0.00    -0.000 C 
BRANCH  19  20
ATOM     20  C   UNL     1      -7.145  -9.225  -8.472  1.00  0.00    -0.000 C 
BRANCH  20  21
ATOM     21  C   UNL     1      -8.014 -10.042  -7.497  1.00  0.00    -0.000 C 
BRANCH  21  22
ATOM     22  C   UNL     1      -9.243  -9.301  -6.936  1.00  0.00    -0.000 C 
BRANCH  22  23
ATOM     23  C   UNL     1      -8.973  -7.814  -6.658  1.00  0.00    -0.000 C 
BRANCH  23  24
ATOM     24  C   UNL     1      -9.372  -7.441  -5.226  1.00  0.00    -0.000 C 
BRANCH  24  25
ATOM     25  C   UNL     1      -8.151  -6.985  -4.417  1.00  0.00    -0.003 C 
ATOM     26  C   UNL     1      -6.849  -7.387  -5.106  1.00  0.00     0.004 C 
ENDBRANCH  24  25
ENDBRANCH  23  24
ENDBRANCH  22  23
ENDBRANCH  21  22
ENDBRANCH  20  21
ENDBRANCH  19  20
ENDBRANCH  18  19
ENDBRANCH  17  18
ENDBRANCH  16  17
ENDBRANCH  15  16
ENDBRANCH   1  15
TORSDOF 22
ENDMDL
MODEL 4
REMARK VINA RESULT:     1.096      3.203      8.055
REMARK INTER + INTRA:           3.254
REMARK INTER:                   1.500
REMARK INTRA:                   1.754
REMARK UNBOUND:                 0.749
REMARK SMILES CCCCCCCCCCCCCCCCCCCCCCCC(=O)[O-]
REMARK SMILES IDX 13 1 14 2 15 3 16 4 17 5 18 6 19 7 20 8 21 9 22 10 23 11
REMARK SMILES IDX 24 12 25 13 26 14 12 15 11 16 10 17 9 18 8 19 7 20 6 21 5 22
REMARK SMILES IDX 4 23 3 24 2 25 1 26
REMARK H PARENT
REMARK Flexibility Score: inf
ROOT
ATOM      1  C   UNL     1       8.025  -6.438 -10.125  1.00  0.00     0.000 C 
ENDROOT
BRANCH   1   2
ATOM      2  C   UNL     1       7.102  -6.026  -8.967  1.00  0.00     0.000 C 
BRANCH   2   3
ATOM      3  C   UNL     1       7.716  -4.877  -8.158  1.00  0.00     0.000 C 
BRANCH   3   4
ATOM      4  C   UNL     1       9.145  -5.218  -7.710  1.00  0.00     0.000 C 
BRANCH   4   5
ATOM      5  C   UNL     1       9.180  -6.240  -6.559  1.00  0.00     0.000 C 
BRANCH   5   6
ATOM      6  C   UNL     1       9.582  -5.648  -5.195  1.00  0.00     0.000 C 
BRANCH   6   7
ATOM      7  C   UNL     1      10.125  -6.709  -4.225  1.00  0.00     0.000 C 
BRANCH   7   8
ATOM      8  C   UNL     1       9.378  -6.661  -2.887  1.00  0.00     0.000 C 
BRANCH   8   9
ATOM      9  C   UNL     1       9.790  -7.833  -1.983  1.00  0.00     0.000 C 
BRANCH   9  10
ATOM     10  C   UNL     1       8.711  -8.924  -1.900  1.00  0.00     0.006 C 
BRANCH  10  11
ATOM     11  C   UNL     1       8.269  -9.426  -3.281  1.00  0.00     0.053 C 
BRANCH  11  12
ATOM     12  C   UNL     1       6.778  -9.534  -3.353  1.00  0.00     0.041 C 
ATOM     13  O   UNL     1       6.176  -9.296  -4.434  1.00  0.00    -0.550 OA
ATOM     14  O   UNL     1       6.051  -9.907  -2.228  1.00  0.00    -0.550 OA
ENDBRANCH  11  12
ENDBRANCH  10  11
ENDBRANCH   9  10
ENDBRANCH   8   9
ENDBRANCH   7   8
ENDBRANCH   6   7
ENDBRANCH   5   6
ENDBRANCH   4   5
ENDBRANCH   3   4
ENDBRANCH   2   3
ENDBRANCH   1   2
BRANCH   1  15
ATOM     15  C   UNL     1       9.391  -6.967  -9.649  1.00  0.00     0.000 C 
BRANCH  15  16
ATOM     16  C   UNL     1       9.695  -8.428 -10.029  1.00  0.00     0.000 C 
BRANCH  16  17
ATOM     17  C   UNL     1      10.115  -9.287  -8.826  1.00  0.00     0.000 C 
BRANCH  17  18
ATOM     18  C   UNL     1       9.713  -8.612  -7.504  1.00  0.00    -0.000 C 
BRANCH  18  19
ATOM     19  C   UNL     1       9.176  -9.607  -6.464  1.00  0.00    -0.000 C 
BRANCH  19  20
ATOM     20  C   UNL     1       7.767 -10.124  -6.807  1.00  0.00    -0.000 C 
BRANCH  20  21
ATOM     21  C   UNL     1       7.433 -10.004  -8.307  1.00  0.00    -0.000 C 
BRANCH  21  22
ATOM     22  C   UNL     1       6.441  -8.883  -8.668  1.00  0.00    -0.000 C 
BRANCH  22  23
ATOM     23  C   UNL     1       5.692  -9.144  -9.985  1.00  0.00    -0.000 C 
BRANCH  23  24
ATOM     24  C   UNL     1       4.324  -9.784  -9.723  1.00  0.00    -0.000 C 
BRANCH  24  25
ATOM     25  C   UNL     1       3.424  -8.844  -8.911  1.00  0.00    -0.003 C 
ATOM     26  C   UNL     1       2.708  -7.845  -9.817  1.00  0.00     0.004 C 
ENDBRANCH  24  25
ENDBRANCH  23  24
ENDBRANCH  22  23
ENDBRANCH  21  22
ENDBRANCH  20  21
ENDBRANCH  19  20
ENDBRANCH  18  19
ENDBRANCH  17  18
ENDBRANCH  16  17
ENDBRANCH  15  16
ENDBRANCH   1  15
TORSDOF 22
ENDMDL
MODEL 5
REMARK VINA RESULT:     1.481      8.303     13.457
REMARK INTER + INTRA:           4.135
REMARK INTER:                   4.414
REMARK INTRA:                  -0.279
REMARK UNBOUND:                 0.749
REMARK SMILES CCCCCCCCCCCCCCCCCCCCCCCC(=O)[O-]
REMARK SMILES IDX 13 1 14 2 15 3 16 4 17 5 18 6 19 7 20 8 21 9 22 10 23 11
REMARK SMILES IDX 24 12 25 13 26 14 12 15 11 16 10 17 9 18 8 19 7 20 6 21 5 22
REMARK SMILES IDX 4 23 3 24 2 25 1 26
REMARK H PARENT
REMARK Flexibility Score: inf
ROOT
ATOM      1  C   UNL     1      -1.205  -6.179  -9.216  1.00  0.00     0.000 C 
ENDROOT
BRANCH   1   2
ATOM      2  C   UNL     1       0.065  -6.125 -10.080  1.00  0.00     0.000 C 
BRANCH   2   3
ATOM      3  C   UNL     1       0.778  -7.483 -10.093  1.00  0.00     0.000 C 
BRANCH   3   4
ATOM      4  C   UNL     1       2.304  -7.305 -10.123  1.00  0.00     0.000 C 
BRANCH   4   5
ATOM      5  C   UNL     1       3.061  -8.631  -9.927  1.00  0.00     0.000 C 
BRANCH   5   6
ATOM      6  C   UNL     1       4.595  -8.490  -9.903  1.00  0.00     0.000 C 
BRANCH   6   7
ATOM      7  C   UNL     1       5.288  -9.675  -9.214  1.00  0.00     0.000 C 
BRANCH   7   8
ATOM      8  C   UNL     1       6.511  -9.206  -8.416  1.00  0.00     0.000 C 
BRANCH   8   9
ATOM      9  C   UNL     1       6.493  -9.782  -6.991  1.00  0.00     0.000 C 
BRANCH   9  10
ATOM     10  C   UNL     1       6.101  -8.737  -5.935  1.00  0.00     0.006 C 
BRANCH  10  11
ATOM     11  C   UNL     1       7.283  -8.318  -5.049  1.00  0.00     0.053 C 
BRANCH  11  12
ATOM     12  C   UNL     1       7.783  -6.962  -5.439  1.00  0.00     0.041 C 
ATOM     13  O   UNL     1       8.461  -6.279  -4.626  1.00  0.00    -0.550 OA
ATOM     14  O   UNL     1       7.508  -6.455  -6.704  1.00  0.00    -0.550 OA
ENDBRANCH  11  12
ENDBRANCH  10  11
ENDBRANCH   9  10
ENDBRANCH   8   9
ENDBRANCH   7   8
ENDBRANCH   6   7
ENDBRANCH   5   6
ENDBRANCH   4   5
ENDBRANCH   3   4
ENDBRANCH   2   3
ENDBRANCH   1   2
BRANCH   1  15
ATOM     15  C   UNL     1      -2.447  -6.647  -9.997  1.00  0.00     0.000 C 
BRANCH  15  16
ATOM     16  C   UNL     1      -2.607  -8.173 -10.120  1.00  0.00     0.000 C 
BRANCH  16  17
ATOM     17  C   UNL     1      -3.948  -8.683  -9.571  1.00  0.00     0.000 C 
BRANCH  17  18
ATOM     18  C   UNL     1      -4.537  -7.692  -8.554  1.00  0.00    -0.000 C 
BRANCH  18  19
ATOM     19  C   UNL     1      -5.542  -8.347  -7.593  1.00  0.00    -0.000 C 
BRANCH  19  20
ATOM     20  C   UNL     1      -6.652  -9.117  -8.330  1.00  0.00    -0.000 C 
BRANCH  20  21
ATOM     21  C   UNL     1      -7.386 -10.125  -7.425  1.00  0.00    -0.000 C 
BRANCH  21  22
ATOM     22  C   UNL     1      -8.040  -9.521  -6.168  1.00  0.00    -0.000 C 
BRANCH  22  23
ATOM     23  C   UNL     1      -9.024  -8.385  -6.489  1.00  0.00    -0.000 C 
BRANCH  23  24
ATOM     24  C   UNL     1      -9.264  -8.274  -7.999  1.00  0.00    -0.000 C 
BRANCH  24  25
ATOM     25  C   UNL     1     -10.030  -6.990  -8.341  1.00  0.00    -0.003 C 
ATOM     26  C   UNL     1     -10.102  -6.052  -7.138  1.00  0.00     0.004 C 
ENDBRANCH  24  25
ENDBRANCH  23  24
ENDBRANCH  22  23
ENDBRANCH  21  22
ENDBRANCH  20  21
ENDBRANCH  19  20
ENDBRANCH  18  19
ENDBRANCH  17  18
ENDBRANCH  16  17
ENDBRANCH  15  16
ENDBRANCH   1  15
TORSDOF 22
ENDMDL
