MODEL 1
REMARK VINA RESULT:    -7.065      0.000      0.000
REMARK INTER + INTRA:         -11.705
REMARK INTER:                 -10.989
REMARK INTRA:                  -0.716
REMARK UNBOUND:                -0.716
REMARK SMILES COc1cc(CNC(=O)CCCCC=CC(C)C)ccc1O
REMARK SMILES IDX 11 1 12 2 13 3 14 4 15 5 16 6 17 7 18 8 10 9 8 10 9 11 7 12
REMARK SMILES IDX 6 14 5 15 4 16 19 17 3 18 20 19 21 20 2 21 1 22 22 23
REMARK H PARENT 7 13 22 24
REMARK Flexibility Score: inf
ROOT
ATOM      1  C   UNL     1       4.370  46.351   3.097  1.00  0.00     0.010 C 
ENDROOT
BRANCH   1   2
ATOM      2  C   UNL     1       3.298  45.274   3.346  1.00  0.00     0.005 C 
BRANCH   2   3
ATOM      3  C   UNL     1       1.935  45.589   2.701  1.00  0.00     0.027 C 
BRANCH   3   4
ATOM      4  C   UNL     1       1.003  46.317   3.642  1.00  0.00    -0.031 C 
ATOM      5  C   UNL     1      -0.342  46.265   3.596  1.00  0.00    -0.028 C 
BRANCH   5   6
ATOM      6  C   UNL     1      -1.156  45.456   2.606  1.00  0.00     0.005 C 
ATOM      7  C   UNL     1      -2.358  44.832   3.320  1.00  0.00     0.012 C 
ATOM      8  C   UNL     1      -1.620  46.359   1.459  1.00  0.00     0.012 C 
ENDBRANCH   5   6
ENDBRANCH   3   4
ENDBRANCH   2   3
ENDBRANCH   1   2
BRANCH   1   9
ATOM      9  C   UNL     1       4.157  47.105   1.778  1.00  0.00     0.100 C 
BRANCH   9  10
ATOM     10  C   UNL     1       5.442  47.728   1.322  1.00  0.00     0.220 C 
ATOM     11  O   UNL     1       6.513  47.456   1.930  1.00  0.00    -0.275 OA
ATOM     12  N   UNL     1       5.456  48.589   0.175  1.00  0.00    -0.352 N 
ATOM     13  H   UNL     1       4.560  48.774  -0.332  1.00  0.00     0.163 HD
BRANCH  12  14
ATOM     14  C   UNL     1       6.679  49.216  -0.321  1.00  0.00     0.151 C 
BRANCH  14  15
ATOM     15  C   UNL     1       7.321  48.354  -1.375  1.00  0.00    -0.025 A 
ATOM     16  C   UNL     1       6.593  47.982  -2.517  1.00  0.00     0.056 A 
ATOM     17  C   UNL     1       8.652  47.933  -1.237  1.00  0.00     0.009 A 
ATOM     18  C   UNL     1       7.187  47.189  -3.519  1.00  0.00     0.160 A 
ATOM     19  C   UNL     1       9.246  47.145  -2.226  1.00  0.00     0.050 A 
ATOM     20  C   UNL     1       8.522  46.771  -3.364  1.00  0.00     0.157 A 
BRANCH  18  21
ATOM     21  O   UNL     1       6.485  46.801  -4.673  1.00  0.00    -0.493 OA
ATOM     22  C   UNL     1       5.799  45.561  -4.822  1.00  0.00     0.278 C 
ENDBRANCH  18  21
BRANCH  20  23
ATOM     23  O   UNL     1       9.149  45.985  -4.330  1.00  0.00    -0.504 OA
ATOM     24  H   UNL     1      10.148  45.820  -4.327  1.00  0.00     0.293 HD
ENDBRANCH  20  23
ENDBRANCH  14  15
ENDBRANCH  12  14
ENDBRANCH   9  10
ENDBRANCH   1   9
TORSDOF 10
ENDMDL
MODEL 2
REMARK VINA RESULT:    -7.029      2.126      3.392
REMARK INTER + INTRA:         -11.649
REMARK INTER:                 -10.723
REMARK INTRA:                  -0.926
REMARK UNBOUND:                -0.716
REMARK SMILES COc1cc(CNC(=O)CCCCC=CC(C)C)ccc1O
REMARK SMILES IDX 11 1 12 2 13 3 14 4 15 5 16 6 17 7 18 8 10 9 8 10 9 11 7 12
REMARK SMILES IDX 6 14 5 15 4 16 19 17 3 18 20 19 21 20 2 21 1 22 22 23
REMARK H PARENT 7 13 22 24
REMARK Flexibility Score: inf
ROOT
ATOM      1  C   UNL     1       7.579  46.838   3.346  1.00  0.00     0.010 C 
ENDROOT
BRANCH   1   2
ATOM      2  C   UNL     1       6.817  46.034   4.417  1.00  0.00     0.005 C 
BRANCH   2   3
ATOM      3  C   UNL     1       5.341  45.768   4.066  1.00  0.00     0.027 C 
BRANCH   3   4
ATOM      4  C   UNL     1       4.840  46.659   2.953  1.00  0.00    -0.031 C 
ATOM      5  C   UNL     1       3.657  46.523   2.324  1.00  0.00    -0.028 C 
BRANCH   5   6
ATOM      6  C   UNL     1       2.616  45.467   2.631  1.00  0.00     0.005 C 
ATOM      7  C   UNL     1       1.464  46.097   3.419  1.00  0.00     0.012 C 
ATOM      8  C   UNL     1       2.103  44.853   1.326  1.00  0.00     0.012 C 
ENDBRANCH   5   6
ENDBRANCH   3   4
ENDBRANCH   2   3
ENDBRANCH   1   2
BRANCH   1   9
ATOM      9  C   UNL     1       9.057  46.441   3.248  1.00  0.00     0.100 C 
BRANCH   9  10
ATOM     10  C   UNL     1       9.655  46.971   1.979  1.00  0.00     0.220 C 
ATOM     11  O   UNL     1      10.735  46.480   1.551  1.00  0.00    -0.275 OA
ATOM     12  N   UNL     1       8.977  47.995   1.238  1.00  0.00    -0.352 N 
ATOM     13  H   UNL     1       8.066  48.363   1.597  1.00  0.00     0.163 HD
BRANCH  12  14
ATOM     14  C   UNL     1       9.507  48.541  -0.009  1.00  0.00     0.151 C 
BRANCH  14  15
ATOM     15  C   UNL     1       8.600  48.198  -1.161  1.00  0.00    -0.025 A 
ATOM     16  C   UNL     1       8.905  47.110  -1.994  1.00  0.00     0.056 A 
ATOM     17  C   UNL     1       7.437  48.945  -1.399  1.00  0.00     0.009 A 
ATOM     18  C   UNL     1       8.057  46.767  -3.066  1.00  0.00     0.160 A 
ATOM     19  C   UNL     1       6.593  48.612  -2.460  1.00  0.00     0.050 A 
ATOM     20  C   UNL     1       6.895  47.530  -3.294  1.00  0.00     0.157 A 
BRANCH  18  21
ATOM     21  O   UNL     1       8.335  45.684  -3.917  1.00  0.00    -0.493 OA
ATOM     22  C   UNL     1       8.024  44.326  -3.622  1.00  0.00     0.278 C 
ENDBRANCH  18  21
BRANCH  20  23
ATOM     23  O   UNL     1       6.028  47.227  -4.343  1.00  0.00    -0.504 OA
ATOM     24  H   UNL     1       6.360  46.904  -5.242  1.00  0.00     0.293 HD
ENDBRANCH  20  23
ENDBRANCH  14  15
ENDBRANCH  12  14
ENDBRANCH   9  10
ENDBRANCH   1   9
TORSDOF 10
ENDMDL
MODEL 3
REMARK VINA RESULT:    -7.025      6.685     11.317
REMARK INTER + INTRA:         -11.642
REMARK INTER:                 -10.735
REMARK INTRA:                  -0.907
REMARK UNBOUND:                -0.716
REMARK SMILES COc1cc(CNC(=O)CCCCC=CC(C)C)ccc1O
REMARK SMILES IDX 11 1 12 2 13 3 14 4 15 5 16 6 17 7 18 8 10 9 8 10 9 11 7 12
REMARK SMILES IDX 6 14 5 15 4 16 19 17 3 18 20 19 21 20 2 21 1 22 22 23
REMARK H PARENT 7 13 22 24
REMARK Flexibility Score: inf
ROOT
ATOM      1  C   UNL     1       5.497  44.718   6.639  1.00  0.00     0.010 C 
ENDROOT
BRANCH   1   2
ATOM      2  C   UNL     1       6.062  45.262   5.313  1.00  0.00     0.005 C 
BRANCH   2   3
ATOM      3  C   UNL     1       5.177  44.963   4.088  1.00  0.00     0.027 C 
BRANCH   3   4
ATOM      4  C   UNL     1       4.780  46.214   3.340  1.00  0.00    -0.031 C 
ATOM      5  C   UNL     1       3.577  46.431   2.774  1.00  0.00    -0.028 C 
BRANCH   5   6
ATOM      6  C   UNL     1       2.408  45.469   2.802  1.00  0.00     0.005 C 
ATOM      7  C   UNL     1       1.189  46.160   3.420  1.00  0.00     0.012 C 
ATOM      8  C   UNL     1       2.094  44.996   1.380  1.00  0.00     0.012 C 
ENDBRANCH   5   6
ENDBRANCH   3   4
ENDBRANCH   2   3
ENDBRANCH   1   2
BRANCH   1   9
ATOM      9  C   UNL     1       4.310  43.769   6.431  1.00  0.00     0.100 C 
BRANCH   9  10
ATOM     10  C   UNL     1       3.702  43.401   7.752  1.00  0.00     0.220 C 
ATOM     11  O   UNL     1       2.702  42.632   7.781  1.00  0.00    -0.275 OA
ATOM     12  N   UNL     1       4.285  43.883   8.971  1.00  0.00    -0.352 N 
ATOM     13  H   UNL     1       5.133  44.493   8.922  1.00  0.00     0.163 HD
BRANCH  12  14
ATOM     14  C   UNL     1       3.742  43.548  10.285  1.00  0.00     0.151 C 
BRANCH  14  15
ATOM     15  C   UNL     1       3.034  44.737  10.880  1.00  0.00    -0.025 A 
ATOM     16  C   UNL     1       1.849  45.212  10.296  1.00  0.00     0.056 A 
ATOM     17  C   UNL     1       3.538  45.365  12.028  1.00  0.00     0.009 A 
ATOM     18  C   UNL     1       1.167  46.313  10.851  1.00  0.00     0.160 A 
ATOM     19  C   UNL     1       2.869  46.458  12.582  1.00  0.00     0.050 A 
ATOM     20  C   UNL     1       1.688  46.935  12.002  1.00  0.00     0.157 A 
BRANCH  18  21
ATOM     21  O   UNL     1      -0.021  46.811  10.291  1.00  0.00    -0.493 OA
ATOM     22  C   UNL     1      -1.321  46.294  10.561  1.00  0.00     0.278 C 
ENDBRANCH  18  21
BRANCH  20  23
ATOM     23  O   UNL     1       1.047  48.028  12.585  1.00  0.00    -0.504 OA
ATOM     24  H   UNL     1       0.050  48.040  12.757  1.00  0.00     0.293 HD
ENDBRANCH  20  23
ENDBRANCH  14  15
ENDBRANCH  12  14
ENDBRANCH   9  10
ENDBRANCH   1   9
TORSDOF 10
ENDMDL
MODEL 4
REMARK VINA RESULT:    -6.990      3.099      8.707
REMARK INTER + INTRA:         -11.587
REMARK INTER:                 -10.774
REMARK INTRA:                  -0.813
REMARK UNBOUND:                -0.716
REMARK SMILES COc1cc(CNC(=O)CCCCC=CC(C)C)ccc1O
REMARK SMILES IDX 11 1 12 2 13 3 14 4 15 5 16 6 17 7 18 8 10 9 8 10 9 11 7 12
REMARK SMILES IDX 6 14 5 15 4 16 19 17 3 18 20 19 21 20 2 21 1 22 22 23
REMARK H PARENT 7 13 22 24
REMARK Flexibility Score: inf
ROOT
ATOM      1  C   UNL     1       8.228  48.189   0.062  1.00  0.00     0.010 C 
ENDROOT
BRANCH   1   2
ATOM      2  C   UNL     1       8.505  47.037  -0.923  1.00  0.00     0.005 C 
BRANCH   2   3
ATOM      3  C   UNL     1       8.751  47.500  -2.371  1.00  0.00     0.027 C 
BRANCH   3   4
ATOM      4  C   UNL     1       7.613  47.139  -3.297  1.00  0.00    -0.031 C 
ATOM      5  C   UNL     1       7.687  46.256  -4.311  1.00  0.00    -0.028 C 
BRANCH   5   6
ATOM      6  C   UNL     1       8.917  45.458  -4.692  1.00  0.00     0.005 C 
ATOM      7  C   UNL     1       8.529  43.994  -4.919  1.00  0.00     0.012 C 
ATOM      8  C   UNL     1       9.546  46.051  -5.955  1.00  0.00     0.012 C 
ENDBRANCH   5   6
ENDBRANCH   3   4
ENDBRANCH   2   3
ENDBRANCH   1   2
BRANCH   1   9
ATOM      9  C   UNL     1       7.076  49.093  -0.393  1.00  0.00     0.100 C 
BRANCH   9  10
ATOM     10  C   UNL     1       5.763  48.534   0.069  1.00  0.00     0.220 C 
ATOM     11  O   UNL     1       4.762  48.589  -0.695  1.00  0.00    -0.275 OA
ATOM     12  N   UNL     1       5.664  47.902   1.353  1.00  0.00    -0.352 N 
ATOM     13  H   UNL     1       6.516  47.840   1.956  1.00  0.00     0.163 HD
BRANCH  12  14
ATOM     14  C   UNL     1       4.414  47.331   1.852  1.00  0.00     0.151 C 
BRANCH  14  15
ATOM     15  C   UNL     1       4.688  46.367   2.975  1.00  0.00    -0.025 A 
ATOM     16  C   UNL     1       5.907  46.426   3.669  1.00  0.00     0.056 A 
ATOM     17  C   UNL     1       3.725  45.418   3.350  1.00  0.00     0.009 A 
ATOM     18  C   UNL     1       6.171  45.540   4.733  1.00  0.00     0.160 A 
ATOM     19  C   UNL     1       3.980  44.537   4.402  1.00  0.00     0.050 A 
ATOM     20  C   UNL     1       5.195  44.591   5.094  1.00  0.00     0.157 A 
BRANCH  18  21
ATOM     21  O   UNL     1       7.380  45.575   5.446  1.00  0.00    -0.493 OA
ATOM     22  C   UNL     1       7.588  46.312   6.648  1.00  0.00     0.278 C 
ENDBRANCH  18  21
BRANCH  20  23
ATOM     23  O   UNL     1       5.413  43.695   6.141  1.00  0.00    -0.504 OA
ATOM     24  H   UNL     1       6.125  42.977   6.097  1.00  0.00     0.293 HD
ENDBRANCH  20  23
ENDBRANCH  14  15
ENDBRANCH  12  14
ENDBRANCH   9  10
ENDBRANCH   1   9
TORSDOF 10
ENDMDL
MODEL 5
REMARK VINA RESULT:    -6.951      2.895      8.676
REMARK INTER + INTRA:         -11.527
REMARK INTER:                 -10.947
REMARK INTRA:                  -0.581
REMARK UNBOUND:                -0.716
REMARK SMILES COc1cc(CNC(=O)CCCCC=CC(C)C)ccc1O
REMARK SMILES IDX 11 1 12 2 13 3 14 4 15 5 16 6 17 7 18 8 10 9 8 10 9 11 7 12
REMARK SMILES IDX 6 14 5 15 4 16 19 17 3 18 20 19 21 20 2 21 1 22 22 23
REMARK H PARENT 7 13 22 24
REMARK Flexibility Score: inf
ROOT
ATOM      1  C   UNL     1       7.053  47.836   0.438  1.00  0.00     0.010 C 
ENDROOT
BRANCH   1   2
ATOM      2  C   UNL     1       7.660  48.791  -0.607  1.00  0.00     0.005 C 
BRANCH   2   3
ATOM      3  C   UNL     1       8.176  48.085  -1.874  1.00  0.00     0.027 C 
BRANCH   3   4
ATOM      4  C   UNL     1       7.083  47.847  -2.891  1.00  0.00    -0.031 C 
ATOM      5  C   UNL     1       7.022  46.798  -3.733  1.00  0.00    -0.028 C 
BRANCH   5   6
ATOM      6  C   UNL     1       8.025  45.664  -3.797  1.00  0.00     0.005 C 
ATOM      7  C   UNL     1       7.308  44.366  -4.181  1.00  0.00     0.012 C 
ATOM      8  C   UNL     1       9.117  45.998  -4.817  1.00  0.00     0.012 C 
ENDBRANCH   5   6
ENDBRANCH   3   4
ENDBRANCH   2   3
ENDBRANCH   1   2
BRANCH   1   9
ATOM      9  C   UNL     1       5.664  48.283   0.911  1.00  0.00     0.100 C 
BRANCH   9  10
ATOM     10  C   UNL     1       5.153  47.356   1.973  1.00  0.00     0.220 C 
ATOM     11  O   UNL     1       5.839  47.168   3.014  1.00  0.00    -0.275 OA
ATOM     12  N   UNL     1       3.873  46.726   1.822  1.00  0.00    -0.352 N 
ATOM     13  H   UNL     1       3.308  46.923   0.964  1.00  0.00     0.163 HD
BRANCH  12  14
ATOM     14  C   UNL     1       3.321  45.822   2.828  1.00  0.00     0.151 C 
BRANCH  14  15
ATOM     15  C   UNL     1       1.822  45.749   2.703  1.00  0.00    -0.025 A 
ATOM     16  C   UNL     1       1.240  45.139   1.580  1.00  0.00     0.056 A 
ATOM     17  C   UNL     1       0.997  46.268   3.712  1.00  0.00     0.009 A 
ATOM     18  C   UNL     1      -0.161  45.049   1.458  1.00  0.00     0.160 A 
ATOM     19  C   UNL     1      -0.392  46.185   3.596  1.00  0.00     0.050 A 
ATOM     20  C   UNL     1      -0.975  45.580   2.477  1.00  0.00     0.157 A 
BRANCH  18  21
ATOM     21  O   UNL     1      -0.772  44.445   0.346  1.00  0.00    -0.493 OA
ATOM     22  C   UNL     1      -1.290  45.155  -0.775  1.00  0.00     0.278 C 
ENDBRANCH  18  21
BRANCH  20  23
ATOM     23  O   UNL     1      -2.366  45.513   2.397  1.00  0.00    -0.504 OA
ATOM     24  H   UNL     1      -2.891  44.734   2.772  1.00  0.00     0.293 HD
ENDBRANCH  20  23
ENDBRANCH  14  15
ENDBRANCH  12  14
ENDBRANCH   9  10
ENDBRANCH   1   9
TORSDOF 10
ENDMDL
MODEL 6
REMARK VINA RESULT:    -6.940      5.011      8.753
REMARK INTER + INTRA:         -11.510
REMARK INTER:                 -10.795
REMARK INTRA:                  -0.715
REMARK UNBOUND:                -0.716
REMARK SMILES COc1cc(CNC(=O)CCCCC=CC(C)C)ccc1O
REMARK SMILES IDX 11 1 12 2 13 3 14 4 15 5 16 6 17 7 18 8 10 9 8 10 9 11 7 12
REMARK SMILES IDX 6 14 5 15 4 16 19 17 3 18 20 19 21 20 2 21 1 22 22 23
REMARK H PARENT 7 13 22 24
REMARK Flexibility Score: inf
ROOT
ATOM      1  C   UNL     1       3.498  44.855   3.980  1.00  0.00     0.010 C 
ENDROOT
BRANCH   1   2
ATOM      2  C   UNL     1       4.888  44.694   4.624  1.00  0.00     0.005 C 
BRANCH   2   3
ATOM      3  C   UNL     1       4.847  44.238   6.094  1.00  0.00     0.027 C 
BRANCH   3   4
ATOM      4  C   UNL     1       3.624  43.409   6.410  1.00  0.00    -0.031 C 
ATOM      5  C   UNL     1       3.296  42.943   7.631  1.00  0.00    -0.028 C 
BRANCH   5   6
ATOM      6  C   UNL     1       4.086  43.181   8.902  1.00  0.00     0.005 C 
ATOM      7  C   UNL     1       3.158  43.736   9.986  1.00  0.00     0.012 C 
ATOM      8  C   UNL     1       4.729  41.870   9.363  1.00  0.00     0.012 C 
ENDBRANCH   5   6
ENDBRANCH   3   4
ENDBRANCH   2   3
ENDBRANCH   1   2
BRANCH   1   9
ATOM      9  C   UNL     1       3.382  46.127   3.132  1.00  0.00     0.100 C 
BRANCH   9  10
ATOM     10  C   UNL     1       2.829  45.800   1.777  1.00  0.00     0.220 C 
ATOM     11  O   UNL     1       3.331  46.343   0.755  1.00  0.00    -0.275 OA
ATOM     12  N   UNL     1       1.769  44.842   1.645  1.00  0.00    -0.352 N 
ATOM     13  H   UNL     1       1.391  44.382   2.505  1.00  0.00     0.163 HD
BRANCH  12  14
ATOM     14  C   UNL     1       1.199  44.477   0.350  1.00  0.00     0.151 C 
BRANCH  14  15
ATOM     15  C   UNL     1      -0.301  44.595   0.385  1.00  0.00    -0.025 A 
ATOM     16  C   UNL     1      -1.014  44.153   1.510  1.00  0.00     0.056 A 
ATOM     17  C   UNL     1      -0.996  45.164  -0.693  1.00  0.00     0.009 A 
ATOM     18  C   UNL     1      -2.418  44.272   1.563  1.00  0.00     0.160 A 
ATOM     19  C   UNL     1      -2.387  45.283  -0.648  1.00  0.00     0.050 A 
ATOM     20  C   UNL     1      -3.101  44.841   0.471  1.00  0.00     0.157 A 
BRANCH  18  21
ATOM     21  O   UNL     1      -3.159  43.839   2.676  1.00  0.00    -0.493 OA
ATOM     22  C   UNL     1      -3.195  44.509   3.932  1.00  0.00     0.278 C 
ENDBRANCH  18  21
BRANCH  20  23
ATOM     23  O   UNL     1      -4.488  44.979   0.481  1.00  0.00    -0.504 OA
ATOM     24  H   UNL     1      -5.094  44.383  -0.069  1.00  0.00     0.293 HD
ENDBRANCH  20  23
ENDBRANCH  14  15
ENDBRANCH  12  14
ENDBRANCH   9  10
ENDBRANCH   1   9
TORSDOF 10
ENDMDL
MODEL 7
REMARK VINA RESULT:    -6.917      5.593      8.363
REMARK INTER + INTRA:         -11.474
REMARK INTER:                 -10.947
REMARK INTRA:                  -0.526
REMARK UNBOUND:                -0.716
REMARK SMILES COc1cc(CNC(=O)CCCCC=CC(C)C)ccc1O
REMARK SMILES IDX 11 1 12 2 13 3 14 4 15 5 16 6 17 7 18 8 10 9 8 10 9 11 7 12
REMARK SMILES IDX 6 14 5 15 4 16 19 17 3 18 20 19 21 20 2 21 1 22 22 23
REMARK H PARENT 7 13 22 24
REMARK Flexibility Score: inf
ROOT
ATOM      1  C   UNL     1       5.190  44.329   7.561  1.00  0.00     0.010 C 
ENDROOT
BRANCH   1   2
ATOM      2  C   UNL     1       4.828  43.677   8.909  1.00  0.00     0.005 C 
BRANCH   2   3
ATOM      3  C   UNL     1       3.597  44.300   9.593  1.00  0.00     0.027 C 
BRANCH   3   4
ATOM      4  C   UNL     1       3.925  44.906  10.938  1.00  0.00    -0.031 C 
ATOM      5  C   UNL     1       3.150  45.784  11.603  1.00  0.00    -0.028 C 
BRANCH   5   6
ATOM      6  C   UNL     1       1.809  46.305  11.130  1.00  0.00     0.005 C 
ATOM      7  C   UNL     1       0.693  45.384  11.634  1.00  0.00     0.012 C 
ATOM      8  C   UNL     1       1.599  47.733  11.641  1.00  0.00     0.012 C 
ENDBRANCH   5   6
ENDBRANCH   3   4
ENDBRANCH   2   3
ENDBRANCH   1   2
BRANCH   1   9
ATOM      9  C   UNL     1       4.527  43.628   6.369  1.00  0.00     0.100 C 
BRANCH   9  10
ATOM     10  C   UNL     1       4.533  44.527   5.169  1.00  0.00     0.220 C 
ATOM     11  O   UNL     1       5.602  45.106   4.833  1.00  0.00    -0.275 OA
ATOM     12  N   UNL     1       3.342  44.688   4.385  1.00  0.00    -0.352 N 
ATOM     13  H   UNL     1       2.477  44.172   4.665  1.00  0.00     0.163 HD
BRANCH  12  14
ATOM     14  C   UNL     1       3.292  45.543   3.201  1.00  0.00     0.151 C 
BRANCH  14  15
ATOM     15  C   UNL     1       2.027  45.292   2.425  1.00  0.00    -0.025 A 
ATOM     16  C   UNL     1       0.783  45.630   2.983  1.00  0.00     0.056 A 
ATOM     17  C   UNL     1       2.078  44.740   1.136  1.00  0.00     0.009 A 
ATOM     18  C   UNL     1      -0.409  45.416   2.262  1.00  0.00     0.160 A 
ATOM     19  C   UNL     1       0.901  44.523   0.417  1.00  0.00     0.050 A 
ATOM     20  C   UNL     1      -0.340  44.857   0.971  1.00  0.00     0.157 A 
BRANCH  18  21
ATOM     21  O   UNL     1      -1.667  45.744   2.792  1.00  0.00    -0.493 OA
ATOM     22  C   UNL     1      -2.037  45.573   4.158  1.00  0.00     0.278 C 
ENDBRANCH  18  21
BRANCH  20  23
ATOM     23  O   UNL     1      -1.493  44.627   0.222  1.00  0.00    -0.504 OA
ATOM     24  H   UNL     1      -2.415  44.618   0.639  1.00  0.00     0.293 HD
ENDBRANCH  20  23
ENDBRANCH  14  15
ENDBRANCH  12  14
ENDBRANCH   9  10
ENDBRANCH   1   9
TORSDOF 10
ENDMDL
MODEL 8
REMARK VINA RESULT:    -6.876      2.009      3.284
REMARK INTER + INTRA:         -11.410
REMARK INTER:                 -10.849
REMARK INTRA:                  -0.560
REMARK UNBOUND:                -0.716
REMARK SMILES COc1cc(CNC(=O)CCCCC=CC(C)C)ccc1O
REMARK SMILES IDX 11 1 12 2 13 3 14 4 15 5 16 6 17 7 18 8 10 9 8 10 9 11 7 12
REMARK SMILES IDX 6 14 5 15 4 16 19 17 3 18 20 19 21 20 2 21 1 22 22 23
REMARK H PARENT 7 13 22 24
REMARK Flexibility Score: inf
ROOT
ATOM      1  C   UNL     1       5.554  48.834   0.878  1.00  0.00     0.010 C 
ENDROOT
BRANCH   1   2
ATOM      2  C   UNL     1       5.410  47.417   1.465  1.00  0.00     0.005 C 
BRANCH   2   3
ATOM      3  C   UNL     1       4.845  47.389   2.898  1.00  0.00     0.027 C 
BRANCH   3   4
ATOM      4  C   UNL     1       4.601  45.984   3.397  1.00  0.00    -0.031 C 
ATOM      5  C   UNL     1       3.482  45.267   3.181  1.00  0.00    -0.028 C 
BRANCH   5   6
ATOM      6  C   UNL     1       2.279  45.735   2.387  1.00  0.00     0.005 C 
ATOM      7  C   UNL     1       1.866  44.646   1.393  1.00  0.00     0.012 C 
ATOM      8  C   UNL     1       1.125  46.059   3.340  1.00  0.00     0.012 C 
ENDBRANCH   5   6
ENDBRANCH   3   4
ENDBRANCH   2   3
ENDBRANCH   1   2
BRANCH   1   9
ATOM      9  C   UNL     1       5.160  48.903  -0.603  1.00  0.00     0.100 C 
BRANCH   9  10
ATOM     10  C   UNL     1       6.381  48.819  -1.470  1.00  0.00     0.220 C 
ATOM     11  O   UNL     1       6.662  49.777  -2.239  1.00  0.00    -0.275 OA
ATOM     12  N   UNL     1       7.245  47.676  -1.386  1.00  0.00    -0.352 N 
ATOM     13  H   UNL     1       7.008  46.908  -0.717  1.00  0.00     0.163 HD
BRANCH  12  14
ATOM     14  C   UNL     1       8.452  47.545  -2.198  1.00  0.00     0.151 C 
BRANCH  14  15
ATOM     15  C   UNL     1       8.145  46.827  -3.485  1.00  0.00    -0.025 A 
ATOM     16  C   UNL     1       6.811  46.637  -3.881  1.00  0.00     0.056 A 
ATOM     17  C   UNL     1       9.182  46.362  -4.308  1.00  0.00     0.009 A 
ATOM     18  C   UNL     1       6.509  45.982  -5.092  1.00  0.00     0.160 A 
ATOM     19  C   UNL     1       8.890  45.710  -5.507  1.00  0.00     0.050 A 
ATOM     20  C   UNL     1       7.562  45.517  -5.903  1.00  0.00     0.157 A 
BRANCH  18  21
ATOM     21  O   UNL     1       5.185  45.776  -5.515  1.00  0.00    -0.493 OA
ATOM     22  C   UNL     1       4.393  44.644  -5.168  1.00  0.00     0.278 C 
ENDBRANCH  18  21
BRANCH  20  23
ATOM     23  O   UNL     1       7.308  44.863  -7.109  1.00  0.00    -0.504 OA
ATOM     24  H   UNL     1       7.950  44.185  -7.500  1.00  0.00     0.293 HD
ENDBRANCH  20  23
ENDBRANCH  14  15
ENDBRANCH  12  14
ENDBRANCH   9  10
ENDBRANCH   1   9
TORSDOF 10
ENDMDL
MODEL 9
REMARK VINA RESULT:    -6.782      5.452      8.526
REMARK INTER + INTRA:         -11.264
REMARK INTER:                 -10.291
REMARK INTRA:                  -0.973
REMARK UNBOUND:                -0.716
REMARK SMILES COc1cc(CNC(=O)CCCCC=CC(C)C)ccc1O
REMARK SMILES IDX 11 1 12 2 13 3 14 4 15 5 16 6 17 7 18 8 10 9 8 10 9 11 7 12
REMARK SMILES IDX 6 14 5 15 4 16 19 17 3 18 20 19 21 20 2 21 1 22 22 23
REMARK H PARENT 7 13 22 24
REMARK Flexibility Score: inf
ROOT
ATOM      1  C   UNL     1       0.641  46.481   3.715  1.00  0.00     0.010 C 
ENDROOT
BRANCH   1   2
ATOM      2  C   UNL     1      -0.684  45.742   3.980  1.00  0.00     0.005 C 
BRANCH   2   3
ATOM      3  C   UNL     1      -1.700  45.848   2.828  1.00  0.00     0.027 C 
BRANCH   3   4
ATOM      4  C   UNL     1      -1.966  44.517   2.164  1.00  0.00    -0.031 C 
ATOM      5  C   UNL     1      -1.635  44.203   0.897  1.00  0.00    -0.028 C 
BRANCH   5   6
ATOM      6  C   UNL     1      -0.925  45.120  -0.078  1.00  0.00     0.005 C 
ATOM      7  C   UNL     1       0.420  44.505  -0.475  1.00  0.00     0.012 C 
ATOM      8  C   UNL     1      -1.803  45.338  -1.314  1.00  0.00     0.012 C 
ENDBRANCH   5   6
ENDBRANCH   3   4
ENDBRANCH   2   3
ENDBRANCH   1   2
BRANCH   1   9
ATOM      9  C   UNL     1       1.512  45.778   2.666  1.00  0.00     0.100 C 
BRANCH   9  10
ATOM     10  C   UNL     1       2.943  45.753   3.111  1.00  0.00     0.220 C 
ATOM     11  O   UNL     1       3.753  46.599   2.642  1.00  0.00    -0.275 OA
ATOM     12  N   UNL     1       3.373  44.804   4.098  1.00  0.00    -0.352 N 
ATOM     13  H   UNL     1       2.676  44.134   4.496  1.00  0.00     0.163 HD
BRANCH  12  14
ATOM     14  C   UNL     1       4.752  44.741   4.576  1.00  0.00     0.151 C 
BRANCH  14  15
ATOM     15  C   UNL     1       4.788  44.328   6.024  1.00  0.00    -0.025 A 
ATOM     16  C   UNL     1       5.795  44.822   6.869  1.00  0.00     0.056 A 
ATOM     17  C   UNL     1       3.810  43.468   6.544  1.00  0.00     0.009 A 
ATOM     18  C   UNL     1       5.831  44.457   8.230  1.00  0.00     0.160 A 
ATOM     19  C   UNL     1       3.841  43.102   7.891  1.00  0.00     0.050 A 
ATOM     20  C   UNL     1       4.844  43.589   8.736  1.00  0.00     0.157 A 
BRANCH  18  21
ATOM     21  O   UNL     1       6.825  44.934   9.101  1.00  0.00    -0.493 OA
ATOM     22  C   UNL     1       8.143  44.399   9.192  1.00  0.00     0.278 C 
ENDBRANCH  18  21
BRANCH  20  23
ATOM     23  O   UNL     1       4.842  43.202  10.075  1.00  0.00    -0.504 OA
ATOM     24  H   UNL     1       4.466  42.314  10.380  1.00  0.00     0.293 HD
ENDBRANCH  20  23
ENDBRANCH  14  15
ENDBRANCH  12  14
ENDBRANCH   9  10
ENDBRANCH   1   9
TORSDOF 10
ENDMDL
