MODEL 1
REMARK VINA RESULT:    -4.276      0.000      0.000
REMARK INTER + INTRA:          -7.087
REMARK INTER:                  -6.276
REMARK INTRA:                  -0.811
REMARK UNBOUND:                -0.811
REMARK SMILES O=C([O-])CCCCCCCC(=O)[O-]
REMARK SMILES IDX 7 1 6 2 5 3 4 4 2 5 1 6 3 7 8 8 9 9 10 10 11 11 12 12 13 13
REMARK H PARENT
REMARK Flexibility Score: inf
ROOT
ATOM      1  C   UNL     1      -7.291  26.017  23.984  1.00  0.00     0.000 C 
ENDROOT
BRANCH   1   2
ATOM      2  C   UNL     1      -6.996  25.716  22.504  1.00  0.00     0.000 C 
BRANCH   2   3
ATOM      3  C   UNL     1      -7.964  24.684  21.906  1.00  0.00     0.006 C 
BRANCH   3   4
ATOM      4  C   UNL     1      -8.435  25.064  20.497  1.00  0.00     0.053 C 
BRANCH   4   5
ATOM      5  C   UNL     1      -9.236  26.328  20.538  1.00  0.00     0.041 C 
ATOM      6  O   UNL     1      -8.844  27.347  19.910  1.00  0.00    -0.550 OA
ATOM      7  O   UNL     1     -10.390  26.394  21.308  1.00  0.00    -0.550 OA
ENDBRANCH   4   5
ENDBRANCH   3   4
ENDBRANCH   2   3
ENDBRANCH   1   2
BRANCH   1   8
ATOM      8  C   UNL     1      -8.703  25.581  24.406  1.00  0.00     0.000 C 
BRANCH   8   9
ATOM      9  C   UNL     1      -9.635  26.773  24.668  1.00  0.00     0.006 C 
BRANCH   9  10
ATOM     10  C   UNL     1      -8.857  28.092  24.640  1.00  0.00     0.053 C 
BRANCH  10  11
ATOM     11  C   UNL     1      -9.552  29.092  23.771  1.00  0.00     0.041 C 
ATOM     12  O   UNL     1      -9.086  29.380  22.637  1.00  0.00    -0.550 OA
ATOM     13  O   UNL     1     -10.689  29.745  24.234  1.00  0.00    -0.550 OA
ENDBRANCH  10  11
ENDBRANCH   9  10
ENDBRANCH   8   9
ENDBRANCH   1   8
TORSDOF 8
ENDMDL
MODEL 2
REMARK VINA RESULT:    -4.272      0.149      3.929
REMARK INTER + INTRA:          -7.081
REMARK INTER:                  -6.302
REMARK INTRA:                  -0.779
REMARK UNBOUND:                -0.811
REMARK SMILES O=C([O-])CCCCCCCC(=O)[O-]
REMARK SMILES IDX 7 1 6 2 5 3 4 4 2 5 1 6 3 7 8 8 9 9 10 10 11 11 12 12 13 13
REMARK H PARENT
REMARK Flexibility Score: inf
ROOT
ATOM      1  C   UNL     1      -7.262  26.002  23.989  1.00  0.00     0.000 C 
ENDROOT
BRANCH   1   2
ATOM      2  C   UNL     1      -8.667  25.591  24.466  1.00  0.00     0.000 C 
BRANCH   2   3
ATOM      3  C   UNL     1      -9.625  26.786  24.580  1.00  0.00     0.006 C 
BRANCH   3   4
ATOM      4  C   UNL     1      -8.885  28.123  24.720  1.00  0.00     0.053 C 
BRANCH   4   5
ATOM      5  C   UNL     1      -9.513  29.161  23.842  1.00  0.00     0.041 C 
ATOM      6  O   UNL     1      -9.186  29.246  22.629  1.00  0.00    -0.550 OA
ATOM      7  O   UNL     1     -10.422  30.065  24.376  1.00  0.00    -0.550 OA
ENDBRANCH   4   5
ENDBRANCH   3   4
ENDBRANCH   2   3
ENDBRANCH   1   2
BRANCH   1   8
ATOM      8  C   UNL     1      -7.039  25.718  22.495  1.00  0.00     0.000 C 
BRANCH   8   9
ATOM      9  C   UNL     1      -8.005  24.660  21.944  1.00  0.00     0.006 C 
BRANCH   9  10
ATOM     10  C   UNL     1      -8.442  25.007  20.517  1.00  0.00     0.053 C 
BRANCH  10  11
ATOM     11  C   UNL     1      -9.258  26.260  20.509  1.00  0.00     0.041 C 
ATOM     12  O   UNL     1      -8.852  27.277  19.888  1.00  0.00    -0.550 OA
ATOM     13  O   UNL     1     -10.445  26.323  21.229  1.00  0.00    -0.550 OA
ENDBRANCH  10  11
ENDBRANCH   9  10
ENDBRANCH   8   9
ENDBRANCH   1   8
TORSDOF 8
ENDMDL
MODEL 3
REMARK VINA RESULT:    -4.182      1.756      2.212
REMARK INTER + INTRA:          -6.948
REMARK INTER:                  -6.254
REMARK INTRA:                  -0.694
REMARK UNBOUND:                -0.811
REMARK SMILES O=C([O-])CCCCCCCC(=O)[O-]
REMARK SMILES IDX 7 1 6 2 5 3 4 4 2 5 1 6 3 7 8 8 9 9 10 10 11 11 12 12 13 13
REMARK H PARENT
REMARK Flexibility Score: inf
ROOT
ATOM      1  C   UNL     1      -7.373  26.148  24.361  1.00  0.00     0.000 C 
ENDROOT
BRANCH   1   2
ATOM      2  C   UNL     1      -7.030  25.840  22.893  1.00  0.00     0.000 C 
BRANCH   2   3
ATOM      3  C   UNL     1      -8.269  25.845  21.984  1.00  0.00     0.006 C 
BRANCH   3   4
ATOM      4  C   UNL     1      -8.445  24.525  21.222  1.00  0.00     0.053 C 
BRANCH   4   5
ATOM      5  C   UNL     1      -9.161  23.522  22.073  1.00  0.00     0.041 C 
ATOM      6  O   UNL     1      -8.625  22.412  22.329  1.00  0.00    -0.550 OA
ATOM      7  O   UNL     1     -10.440  23.795  22.541  1.00  0.00    -0.550 OA
ENDBRANCH   4   5
ENDBRANCH   3   4
ENDBRANCH   2   3
ENDBRANCH   1   2
BRANCH   1   8
ATOM      8  C   UNL     1      -8.886  26.265  24.603  1.00  0.00     0.000 C 
BRANCH   8   9
ATOM      9  C   UNL     1      -9.263  27.533  25.382  1.00  0.00     0.006 C 
BRANCH   9  10
ATOM     10  C   UNL     1     -10.187  28.431  24.553  1.00  0.00     0.053 C 
BRANCH  10  11
ATOM     11  C   UNL     1      -9.389  29.292  23.626  1.00  0.00     0.041 C 
ATOM     12  O   UNL     1      -8.596  30.154  24.088  1.00  0.00    -0.550 OA
ATOM     13  O   UNL     1      -9.557  29.178  22.252  1.00  0.00    -0.550 OA
ENDBRANCH  10  11
ENDBRANCH   9  10
ENDBRANCH   8   9
ENDBRANCH   1   8
TORSDOF 8
ENDMDL
MODEL 4
REMARK VINA RESULT:    -4.165      1.953      4.778
REMARK INTER + INTRA:          -6.924
REMARK INTER:                  -6.312
REMARK INTRA:                  -0.612
REMARK UNBOUND:                -0.811
REMARK SMILES O=C([O-])CCCCCCCC(=O)[O-]
REMARK SMILES IDX 7 1 6 2 5 3 4 4 2 5 1 6 3 7 8 8 9 9 10 10 11 11 12 12 13 13
REMARK H PARENT
REMARK Flexibility Score: inf
ROOT
ATOM      1  C   UNL     1      -7.137  26.007  23.982  1.00  0.00     0.000 C 
ENDROOT
BRANCH   1   2
ATOM      2  C   UNL     1      -8.435  26.056  24.808  1.00  0.00     0.000 C 
BRANCH   2   3
ATOM      3  C   UNL     1      -8.760  27.470  25.314  1.00  0.00     0.006 C 
BRANCH   3   4
ATOM      4  C   UNL     1      -9.871  28.146  24.499  1.00  0.00     0.053 C 
BRANCH   4   5
ATOM      5  C   UNL     1      -9.296  29.207  23.613  1.00  0.00     0.041 C 
ATOM      6  O   UNL     1      -8.601  30.134  24.105  1.00  0.00    -0.550 OA
ATOM      7  O   UNL     1      -9.568  29.197  22.251  1.00  0.00    -0.550 OA
ENDBRANCH   4   5
ENDBRANCH   3   4
ENDBRANCH   2   3
ENDBRANCH   1   2
BRANCH   1   8
ATOM      8  C   UNL     1      -7.403  25.892  22.472  1.00  0.00     0.000 C 
BRANCH   8   9
ATOM      9  C   UNL     1      -8.849  25.488  22.156  1.00  0.00     0.006 C 
BRANCH   9  10
ATOM     10  C   UNL     1      -8.887  24.234  21.277  1.00  0.00     0.053 C 
BRANCH  10  11
ATOM     11  C   UNL     1      -9.444  23.074  22.040  1.00  0.00     0.041 C 
ATOM     12  O   UNL     1     -10.659  23.057  22.369  1.00  0.00    -0.550 OA
ATOM     13  O   UNL     1      -8.610  22.035  22.433  1.00  0.00    -0.550 OA
ENDBRANCH  10  11
ENDBRANCH   9  10
ENDBRANCH   8   9
ENDBRANCH   1   8
TORSDOF 8
ENDMDL
MODEL 5
REMARK VINA RESULT:    -4.108      1.132      4.097
REMARK INTER + INTRA:          -6.840
REMARK INTER:                  -6.254
REMARK INTRA:                  -0.586
REMARK UNBOUND:                -0.811
REMARK SMILES O=C([O-])CCCCCCCC(=O)[O-]
REMARK SMILES IDX 7 1 6 2 5 3 4 4 2 5 1 6 3 7 8 8 9 9 10 10 11 11 12 12 13 13
REMARK H PARENT
REMARK Flexibility Score: inf
ROOT
ATOM      1  C   UNL     1      -7.029  26.019  23.299  1.00  0.00     0.000 C 
ENDROOT
BRANCH   1   2
ATOM      2  C   UNL     1      -8.025  25.928  24.469  1.00  0.00     0.000 C 
BRANCH   2   3
ATOM      3  C   UNL     1      -8.417  27.308  25.020  1.00  0.00     0.006 C 
BRANCH   3   4
ATOM      4  C   UNL     1      -9.654  27.889  24.323  1.00  0.00     0.053 C 
BRANCH   4   5
ATOM      5  C   UNL     1      -9.295  29.138  23.579  1.00  0.00     0.041 C 
ATOM      6  O   UNL     1      -8.659  30.058  24.156  1.00  0.00    -0.550 OA
ATOM      7  O   UNL     1      -9.705  29.304  22.262  1.00  0.00    -0.550 OA
ENDBRANCH   4   5
ENDBRANCH   3   4
ENDBRANCH   2   3
ENDBRANCH   1   2
BRANCH   1   8
ATOM      8  C   UNL     1      -7.467  25.185  22.084  1.00  0.00     0.000 C 
BRANCH   8   9
ATOM      9  C   UNL     1      -8.917  24.691  22.199  1.00  0.00     0.006 C 
BRANCH   9  10
ATOM     10  C   UNL     1      -9.868  25.599  21.415  1.00  0.00     0.053 C 
BRANCH  10  11
ATOM     11  C   UNL     1      -9.293  25.929  20.074  1.00  0.00     0.041 C 
ATOM     12  O   UNL     1      -9.138  25.025  19.211  1.00  0.00    -0.550 OA
ATOM     13  O   UNL     1      -8.880  27.226  19.794  1.00  0.00    -0.550 OA
ENDBRANCH  10  11
ENDBRANCH   9  10
ENDBRANCH   8   9
ENDBRANCH   1   8
TORSDOF 8
ENDMDL
MODEL 6
REMARK VINA RESULT:    -4.080      1.535      1.957
REMARK INTER + INTRA:          -6.798
REMARK INTER:                  -6.174
REMARK INTRA:                  -0.625
REMARK UNBOUND:                -0.811
REMARK SMILES O=C([O-])CCCCCCCC(=O)[O-]
REMARK SMILES IDX 7 1 6 2 5 3 4 4 2 5 1 6 3 7 8 8 9 9 10 10 11 11 12 12 13 13
REMARK H PARENT
REMARK Flexibility Score: inf
ROOT
ATOM      1  C   UNL     1      -8.963  25.887  24.550  1.00  0.00     0.000 C 
ENDROOT
BRANCH   1   2
ATOM      2  C   UNL     1      -7.450  26.127  24.394  1.00  0.00     0.000 C 
BRANCH   2   3
ATOM      3  C   UNL     1      -6.962  25.905  22.955  1.00  0.00     0.006 C 
BRANCH   3   4
ATOM      4  C   UNL     1      -8.082  26.076  21.920  1.00  0.00     0.053 C 
BRANCH   4   5
ATOM      5  C   UNL     1      -8.246  24.823  21.117  1.00  0.00     0.041 C 
ATOM      6  O   UNL     1      -8.456  24.889  19.877  1.00  0.00    -0.550 OA
ATOM      7  O   UNL     1      -8.215  23.586  21.746  1.00  0.00    -0.550 OA
ENDBRANCH   4   5
ENDBRANCH   3   4
ENDBRANCH   2   3
ENDBRANCH   1   2
BRANCH   1   8
ATOM      8  C   UNL     1      -9.545  26.574  25.795  1.00  0.00     0.000 C 
BRANCH   8   9
ATOM      9  C   UNL     1     -10.100  27.974  25.492  1.00  0.00     0.006 C 
BRANCH   9  10
ATOM     10  C   UNL     1     -10.451  28.113  24.008  1.00  0.00     0.053 C 
BRANCH  10  11
ATOM     11  C   UNL     1      -9.613  29.174  23.368  1.00  0.00     0.041 C 
ATOM     12  O   UNL     1      -9.631  29.328  22.118  1.00  0.00    -0.550 OA
ATOM     13  O   UNL     1      -8.773  29.961  24.146  1.00  0.00    -0.550 OA
ENDBRANCH  10  11
ENDBRANCH   9  10
ENDBRANCH   8   9
ENDBRANCH   1   8
TORSDOF 8
ENDMDL
MODEL 7
REMARK VINA RESULT:    -3.942      2.634      5.224
REMARK INTER + INTRA:          -6.597
REMARK INTER:                  -5.909
REMARK INTRA:                  -0.687
REMARK UNBOUND:                -0.811
REMARK SMILES O=C([O-])CCCCCCCC(=O)[O-]
REMARK SMILES IDX 7 1 6 2 5 3 4 4 2 5 1 6 3 7 8 8 9 9 10 10 11 11 12 12 13 13
REMARK H PARENT
REMARK Flexibility Score: inf
ROOT
ATOM      1  C   UNL     1      -8.372  26.187  21.779  1.00  0.00     0.000 C 
ENDROOT
BRANCH   1   2
ATOM      2  C   UNL     1      -7.119  25.627  22.476  1.00  0.00     0.000 C 
BRANCH   2   3
ATOM      3  C   UNL     1      -7.051  26.004  23.963  1.00  0.00     0.006 C 
BRANCH   3   4
ATOM      4  C   UNL     1      -8.385  25.782  24.688  1.00  0.00     0.053 C 
BRANCH   4   5
ATOM      5  C   UNL     1      -8.759  26.999  25.476  1.00  0.00     0.041 C 
ATOM      6  O   UNL     1      -9.369  26.881  26.571  1.00  0.00    -0.550 OA
ATOM      7  O   UNL     1      -8.477  28.264  24.977  1.00  0.00    -0.550 OA
ENDBRANCH   4   5
ENDBRANCH   3   4
ENDBRANCH   2   3
ENDBRANCH   1   2
BRANCH   1   8
ATOM      8  C   UNL     1      -8.942  25.226  20.724  1.00  0.00     0.000 C 
BRANCH   8   9
ATOM      9  C   UNL     1     -10.361  24.749  21.066  1.00  0.00     0.006 C 
BRANCH   9  10
ATOM     10  C   UNL     1     -10.345  23.801  22.269  1.00  0.00     0.053 C 
BRANCH  10  11
ATOM     11  C   UNL     1      -9.720  22.493  21.898  1.00  0.00     0.041 C 
ATOM     12  O   UNL     1      -8.626  22.145  22.415  1.00  0.00    -0.550 OA
ATOM     13  O   UNL     1     -10.320  21.680  20.944  1.00  0.00    -0.550 OA
ENDBRANCH  10  11
ENDBRANCH   9  10
ENDBRANCH   8   9
ENDBRANCH   1   8
TORSDOF 8
ENDMDL
MODEL 8
REMARK VINA RESULT:    -3.915      2.709      3.453
REMARK INTER + INTRA:          -6.556
REMARK INTER:                  -5.978
REMARK INTRA:                  -0.578
REMARK UNBOUND:                -0.811
REMARK SMILES O=C([O-])CCCCCCCC(=O)[O-]
REMARK SMILES IDX 7 1 6 2 5 3 4 4 2 5 1 6 3 7 8 8 9 9 10 10 11 11 12 12 13 13
REMARK H PARENT
REMARK Flexibility Score: inf
ROOT
ATOM      1  C   UNL     1      -8.369  25.456  22.129  1.00  0.00     0.000 C 
ENDROOT
BRANCH   1   2
ATOM      2  C   UNL     1      -8.217  24.031  21.567  1.00  0.00     0.000 C 
BRANCH   2   3
ATOM      3  C   UNL     1      -8.918  22.976  22.437  1.00  0.00     0.006 C 
BRANCH   3   4
ATOM      4  C   UNL     1     -10.419  22.869  22.139  1.00  0.00     0.053 C 
BRANCH   4   5
ATOM      5  C   UNL     1     -10.641  22.220  20.808  1.00  0.00     0.041 C 
ATOM      6  O   UNL     1     -10.358  21.004  20.641  1.00  0.00    -0.550 OA
ATOM      7  O   UNL     1     -11.116  22.970  19.740  1.00  0.00    -0.550 OA
ENDBRANCH   4   5
ENDBRANCH   3   4
ENDBRANCH   2   3
ENDBRANCH   1   2
BRANCH   1   8
ATOM      8  C   UNL     1      -7.083  25.968  22.797  1.00  0.00     0.000 C 
BRANCH   8   9
ATOM      9  C   UNL     1      -7.145  25.896  24.330  1.00  0.00     0.006 C 
BRANCH   9  10
ATOM     10  C   UNL     1      -8.596  25.909  24.820  1.00  0.00     0.053 C 
BRANCH  10  11
ATOM     11  C   UNL     1      -8.887  27.173  25.563  1.00  0.00     0.041 C 
ATOM     12  O   UNL     1      -9.261  27.131  26.765  1.00  0.00    -0.550 OA
ATOM     13  O   UNL     1      -8.795  28.399  24.914  1.00  0.00    -0.550 OA
ENDBRANCH  10  11
ENDBRANCH   9  10
ENDBRANCH   8   9
ENDBRANCH   1   8
TORSDOF 8
ENDMDL
MODEL 9
REMARK VINA RESULT:    -3.901      2.013      3.026
REMARK INTER + INTRA:          -6.536
REMARK INTER:                  -5.704
REMARK INTRA:                  -0.831
REMARK UNBOUND:                -0.811
REMARK SMILES O=C([O-])CCCCCCCC(=O)[O-]
REMARK SMILES IDX 7 1 6 2 5 3 4 4 2 5 1 6 3 7 8 8 9 9 10 10 11 11 12 12 13 13
REMARK H PARENT
REMARK Flexibility Score: inf
ROOT
ATOM      1  C   UNL     1      -8.078  25.887  21.758  1.00  0.00     0.000 C 
ENDROOT
BRANCH   1   2
ATOM      2  C   UNL     1      -9.522  25.403  21.986  1.00  0.00     0.000 C 
BRANCH   2   3
ATOM      3  C   UNL     1     -10.566  26.374  21.415  1.00  0.00     0.006 C 
BRANCH   3   4
ATOM      4  C   UNL     1     -10.931  27.492  22.400  1.00  0.00     0.053 C 
BRANCH   4   5
ATOM      5  C   UNL     1     -10.311  28.787  21.973  1.00  0.00     0.041 C 
ATOM      6  O   UNL     1     -10.776  29.416  20.987  1.00  0.00    -0.550 OA
ATOM      7  O   UNL     1      -9.191  29.272  22.635  1.00  0.00    -0.550 OA
ENDBRANCH   4   5
ENDBRANCH   3   4
ENDBRANCH   2   3
ENDBRANCH   1   2
BRANCH   1   8
ATOM      8  C   UNL     1      -7.264  25.949  23.061  1.00  0.00     0.000 C 
BRANCH   8   9
ATOM      9  C   UNL     1      -8.131  25.733  24.310  1.00  0.00     0.006 C 
BRANCH   9  10
ATOM     10  C   UNL     1      -8.240  27.022  25.130  1.00  0.00     0.053 C 
BRANCH  10  11
ATOM     11  C   UNL     1      -9.545  27.070  25.859  1.00  0.00     0.041 C 
ATOM     12  O   UNL     1     -10.270  28.098  25.794  1.00  0.00    -0.550 OA
ATOM     13  O   UNL     1      -9.939  25.999  26.652  1.00  0.00    -0.550 OA
ENDBRANCH  10  11
ENDBRANCH   9  10
ENDBRANCH   8   9
ENDBRANCH   1   8
TORSDOF 8
ENDMDL
