MODEL 1
REMARK VINA RESULT:    -4.093      0.000      0.000
REMARK INTER + INTRA:          -4.452
REMARK INTER:                  -4.452
REMARK INTRA:                   0.000
REMARK UNBOUND:                 0.000
REMARK SMILES [NH3+]CC(=O)[O-]
REMARK SMILES IDX 2 1 1 2 3 6 4 7 5 8
REMARK H PARENT 1 3 1 4 1 5
REMARK Flexibility Score: inf
ROOT
ATOM      1  C   UNL     1      -8.562  -1.080  63.273  1.00  0.00     0.312 C 
ENDROOT
BRANCH   1   2
ATOM      2  N   UNL     1      -8.052  -0.077  64.206  1.00  0.00    -0.353 N 
ATOM      3  H   UNL     1      -7.495  -0.541  64.960  1.00  0.00     0.344 HD
ATOM      4  H   UNL     1      -7.453   0.614  63.698  1.00  0.00     0.344 HD
ATOM      5  H   UNL     1      -8.858   0.428  64.641  1.00  0.00     0.344 HD
ENDBRANCH   1   2
BRANCH   1   6
ATOM      6  C   UNL     1      -9.897  -0.671  62.734  1.00  0.00     0.096 C 
ATOM      7  O   UNL     1      -9.979   0.243  61.871  1.00  0.00    -0.544 OA
ATOM      8  O   UNL     1     -11.054  -1.263  63.223  1.00  0.00    -0.544 OA
ENDBRANCH   1   6
TORSDOF 2
ENDMDL
MODEL 2
REMARK VINA RESULT:    -4.065      0.083      1.450
REMARK INTER + INTRA:          -4.422
REMARK INTER:                  -4.422
REMARK INTRA:                   0.000
REMARK UNBOUND:                 0.000
REMARK SMILES [NH3+]CC(=O)[O-]
REMARK SMILES IDX 2 1 1 2 3 6 4 7 5 8
REMARK H PARENT 1 3 1 4 1 5
REMARK Flexibility Score: inf
ROOT
ATOM      1  C   UNL     1      -8.608  -1.148  63.303  1.00  0.00     0.312 C 
ENDROOT
BRANCH   1   2
ATOM      2  N   UNL     1      -8.025  -0.122  64.165  1.00  0.00    -0.353 N 
ATOM      3  H   UNL     1      -8.783   0.423  64.637  1.00  0.00     0.344 HD
ATOM      4  H   UNL     1      -7.408  -0.566  64.884  1.00  0.00     0.344 HD
ATOM      5  H   UNL     1      -7.452   0.530  63.582  1.00  0.00     0.344 HD
ENDBRANCH   1   2
BRANCH   1   6
ATOM      6  C   UNL     1      -9.950  -0.716  62.800  1.00  0.00     0.096 C 
ATOM      7  O   UNL     1     -10.998  -1.252  63.248  1.00  0.00    -0.544 OA
ATOM      8  O   UNL     1     -10.041   0.241  61.798  1.00  0.00    -0.544 OA
ENDBRANCH   1   6
TORSDOF 2
ENDMDL
MODEL 3
REMARK VINA RESULT:    -3.582      1.155      1.623
REMARK INTER + INTRA:          -3.896
REMARK INTER:                  -3.896
REMARK INTRA:                   0.000
REMARK UNBOUND:                 0.000
REMARK SMILES [NH3+]CC(=O)[O-]
REMARK SMILES IDX 2 1 1 2 3 6 4 7 5 8
REMARK H PARENT 1 3 1 4 1 5
REMARK Flexibility Score: inf
ROOT
ATOM      1  C   UNL     1      -8.639  -0.531  62.983  1.00  0.00     0.312 C 
ENDROOT
BRANCH   1   2
ATOM      2  N   UNL     1      -7.984  -0.132  64.227  1.00  0.00    -0.353 N 
ATOM      3  H   UNL     1      -6.961   0.012  64.064  1.00  0.00     0.344 HD
ATOM      4  H   UNL     1      -8.411   0.751  64.590  1.00  0.00     0.344 HD
ATOM      5  H   UNL     1      -8.111  -0.887  64.939  1.00  0.00     0.344 HD
ENDBRANCH   1   2
BRANCH   1   6
ATOM      6  C   UNL     1      -9.697  -1.556  63.246  1.00  0.00     0.096 C 
ATOM      7  O   UNL     1      -9.388  -2.769  63.373  1.00  0.00    -0.544 OA
ATOM      8  O   UNL     1     -11.033  -1.176  63.301  1.00  0.00    -0.544 OA
ENDBRANCH   1   6
TORSDOF 2
ENDMDL
MODEL 4
REMARK VINA RESULT:    -3.522      1.445      1.906
REMARK INTER + INTRA:          -3.831
REMARK INTER:                  -3.831
REMARK INTRA:                   0.000
REMARK UNBOUND:                 0.000
REMARK SMILES [NH3+]CC(=O)[O-]
REMARK SMILES IDX 2 1 1 2 3 6 4 7 5 8
REMARK H PARENT 1 3 1 4 1 5
REMARK Flexibility Score: inf
ROOT
ATOM      1  C   UNL     1      -8.967  -2.433  63.409  1.00  0.00     0.312 C 
ENDROOT
BRANCH   1   2
ATOM      2  N   UNL     1      -7.909  -2.286  64.406  1.00  0.00    -0.353 N 
ATOM      3  H   UNL     1      -6.993  -2.107  63.932  1.00  0.00     0.344 HD
ATOM      4  H   UNL     1      -8.133  -1.495  65.053  1.00  0.00     0.344 HD
ATOM      5  H   UNL     1      -7.836  -3.169  64.962  1.00  0.00     0.344 HD
ENDBRANCH   1   2
BRANCH   1   6
ATOM      6  C   UNL     1      -9.810  -1.198  63.345  1.00  0.00     0.096 C 
ATOM      7  O   UNL     1     -11.061  -1.289  63.237  1.00  0.00    -0.544 OA
ATOM      8  O   UNL     1      -9.209   0.054  63.352  1.00  0.00    -0.544 OA
ENDBRANCH   1   6
TORSDOF 2
ENDMDL
MODEL 5
REMARK VINA RESULT:    -2.969      2.325      2.671
REMARK INTER + INTRA:          -3.229
REMARK INTER:                  -3.229
REMARK INTRA:                   0.000
REMARK UNBOUND:                 0.000
REMARK SMILES [NH3+]CC(=O)[O-]
REMARK SMILES IDX 2 1 1 2 3 6 4 7 5 8
REMARK H PARENT 1 3 1 4 1 5
REMARK Flexibility Score: inf
ROOT
ATOM      1  C   UNL     1     -10.175  -1.672  62.951  1.00  0.00     0.312 C 
ENDROOT
BRANCH   1   2
ATOM      2  N   UNL     1     -11.330  -1.240  62.166  1.00  0.00    -0.353 N 
ATOM      3  H   UNL     1     -11.011  -0.802  61.271  1.00  0.00     0.344 HD
ATOM      4  H   UNL     1     -11.949  -2.057  61.959  1.00  0.00     0.344 HD
ATOM      5  H   UNL     1     -11.873  -0.534  62.714  1.00  0.00     0.344 HD
ENDBRANCH   1   2
BRANCH   1   6
ATOM      6  C   UNL     1      -9.172  -0.568  63.068  1.00  0.00     0.096 C 
ATOM      7  O   UNL     1      -9.102   0.116  64.123  1.00  0.00    -0.544 OA
ATOM      8  O   UNL     1      -8.349  -0.260  61.992  1.00  0.00    -0.544 OA
ENDBRANCH   1   6
TORSDOF 2
ENDMDL
MODEL 6
REMARK VINA RESULT:    -2.934      4.728      5.012
REMARK INTER + INTRA:          -3.191
REMARK INTER:                  -3.191
REMARK INTRA:                   0.000
REMARK UNBOUND:                 0.000
REMARK SMILES [NH3+]CC(=O)[O-]
REMARK SMILES IDX 2 1 1 2 3 6 4 7 5 8
REMARK H PARENT 1 3 1 4 1 5
REMARK Flexibility Score: inf
ROOT
ATOM      1  C   UNL     1      -8.005  -3.852  63.613  1.00  0.00     0.312 C 
ENDROOT
BRANCH   1   2
ATOM      2  N   UNL     1      -7.814  -2.628  64.388  1.00  0.00    -0.353 N 
ATOM      3  H   UNL     1      -7.008  -2.082  64.002  1.00  0.00     0.344 HD
ATOM      4  H   UNL     1      -8.682  -2.045  64.358  1.00  0.00     0.344 HD
ATOM      5  H   UNL     1      -7.608  -2.879  65.381  1.00  0.00     0.344 HD
ENDBRANCH   1   2
BRANCH   1   6
ATOM      6  C   UNL     1      -6.833  -4.769  63.772  1.00  0.00     0.096 C 
ATOM      7  O   UNL     1      -6.071  -4.999  62.796  1.00  0.00    -0.544 OA
ATOM      8  O   UNL     1      -6.611  -5.409  64.984  1.00  0.00    -0.544 OA
ENDBRANCH   1   6
TORSDOF 2
ENDMDL
MODEL 7
REMARK VINA RESULT:    -2.772     13.336     13.656
REMARK INTER + INTRA:          -3.015
REMARK INTER:                  -3.015
REMARK INTRA:                   0.000
REMARK UNBOUND:                 0.000
REMARK SMILES [NH3+]CC(=O)[O-]
REMARK SMILES IDX 2 1 1 2 3 6 4 7 5 8
REMARK H PARENT 1 3 1 4 1 5
REMARK Flexibility Score: inf
ROOT
ATOM      1  C   UNL     1     -19.611   1.549  53.494  1.00  0.00     0.312 C 
ENDROOT
BRANCH   1   2
ATOM      2  N   UNL     1     -18.494   1.007  52.722  1.00  0.00    -0.353 N 
ATOM      3  H   UNL     1     -17.636   0.958  53.319  1.00  0.00     0.344 HD
ATOM      4  H   UNL     1     -18.733   0.053  52.367  1.00  0.00     0.344 HD
ATOM      5  H   UNL     1     -18.304   1.635  51.907  1.00  0.00     0.344 HD
ENDBRANCH   1   2
BRANCH   1   6
ATOM      6  C   UNL     1     -19.943   0.652  54.645  1.00  0.00     0.096 C 
ATOM      7  O   UNL     1     -21.125   0.255  54.819  1.00  0.00    -0.544 OA
ATOM      8  O   UNL     1     -18.956   0.296  55.556  1.00  0.00    -0.544 OA
ENDBRANCH   1   6
TORSDOF 2
ENDMDL
MODEL 8
REMARK VINA RESULT:    -2.758     15.501     15.938
REMARK INTER + INTRA:          -2.999
REMARK INTER:                  -2.999
REMARK INTRA:                   0.000
REMARK UNBOUND:                 0.000
REMARK SMILES [NH3+]CC(=O)[O-]
REMARK SMILES IDX 2 1 1 2 3 6 4 7 5 8
REMARK H PARENT 1 3 1 4 1 5
REMARK Flexibility Score: inf
ROOT
ATOM      1  C   UNL     1     -17.065 -14.073  61.727  1.00  0.00     0.312 C 
ENDROOT
BRANCH   1   2
ATOM      2  N   UNL     1     -15.949 -14.655  60.984  1.00  0.00    -0.353 N 
ATOM      3  H   UNL     1     -15.193 -14.949  61.645  1.00  0.00     0.344 HD
ATOM      4  H   UNL     1     -16.277 -15.481  60.433  1.00  0.00     0.344 HD
ATOM      5  H   UNL     1     -15.565 -13.939  60.326  1.00  0.00     0.344 HD
ENDBRANCH   1   2
BRANCH   1   6
ATOM      6  C   UNL     1     -17.047 -14.529  63.153  1.00  0.00     0.096 C 
ATOM      7  O   UNL     1     -16.694 -13.739  64.067  1.00  0.00    -0.544 OA
ATOM      8  O   UNL     1     -17.372 -15.843  63.465  1.00  0.00    -0.544 OA
ENDBRANCH   1   6
TORSDOF 2
ENDMDL
MODEL 9
REMARK VINA RESULT:    -2.752     12.598     12.824
REMARK INTER + INTRA:          -2.993
REMARK INTER:                  -2.993
REMARK INTRA:                   0.000
REMARK UNBOUND:                 0.000
REMARK SMILES [NH3+]CC(=O)[O-]
REMARK SMILES IDX 2 1 1 2 3 6 4 7 5 8
REMARK H PARENT 1 3 1 4 1 5
REMARK Flexibility Score: inf
ROOT
ATOM      1  C   UNL     1     -18.343  -0.562  53.399  1.00  0.00     0.312 C 
ENDROOT
BRANCH   1   2
ATOM      2  N   UNL     1     -17.291  -1.212  54.179  1.00  0.00    -0.353 N 
ATOM      3  H   UNL     1     -17.573  -2.192  54.412  1.00  0.00     0.344 HD
ATOM      4  H   UNL     1     -16.397  -1.221  53.637  1.00  0.00     0.344 HD
ATOM      5  H   UNL     1     -17.145  -0.681  55.067  1.00  0.00     0.344 HD
ENDBRANCH   1   2
BRANCH   1   6
ATOM      6  C   UNL     1     -18.998   0.523  54.195  1.00  0.00     0.096 C 
ATOM      7  O   UNL     1     -19.254   1.635  53.662  1.00  0.00    -0.544 OA
ATOM      8  O   UNL     1     -19.279   0.324  55.541  1.00  0.00    -0.544 OA
ENDBRANCH   1   6
TORSDOF 2
ENDMDL
