MODEL 1
REMARK VINA RESULT:     1.591      0.000      0.000
REMARK INTER + INTRA:           2.633
REMARK INTER:                   1.963
REMARK INTRA:                   0.670
REMARK UNBOUND:                 0.670
REMARK SMILES C=C1[C@@H]2CC[C@H]3[C@@H]2C(C)(C)CCC[C@@]13C
REMARK SMILES IDX 14 1 6 2 7 3 3 4 2 5 1 6 4 7 5 8 15 9 8 10 9 11 10 12 11 13
REMARK SMILES IDX 13 15 12 16
REMARK H PARENT
REMARK Flexibility Score: 80.00
ROOT
ATOM      1  C   UNL     1       7.287   7.652  12.761  1.00  0.00    -0.008 C 
ATOM      2  C   UNL     1       7.028   6.325  11.956  1.00  0.00     0.003 C 
ATOM      3  C   UNL     1       5.762   5.758  12.615  1.00  0.00     0.006 C 
ATOM      4  C   UNL     1       6.373   5.758  14.017  1.00  0.00     0.019 C 
ATOM      5  C   UNL     1       6.871   7.173  14.132  1.00  0.00    -0.068 C 
ATOM      6  C   UNL     1       6.997   7.848  15.282  1.00  0.00     0.009 C 
ATOM      7  C   UNL     1       7.624   4.883  13.810  1.00  0.00     0.008 C 
ATOM      8  C   UNL     1       8.044   5.223  12.365  1.00  0.00     0.005 C 
ATOM      9  C   UNL     1       8.777   8.084  12.763  1.00  0.00     0.016 C 
ENDROOT
BRANCH   3  10
ATOM     10  C   UNL     1       4.373   6.509  12.392  1.00  0.00    -0.032 C 
ATOM     11  C   UNL     1       3.795   7.201  13.658  1.00  0.00     0.011 C 
ATOM     12  C   UNL     1       3.319   5.425  12.026  1.00  0.00     0.011 C 
BRANCH  10  13
ATOM     13  C   UNL     1       4.398   7.502  11.185  1.00  0.00     0.007 CG0
ATOM     14  G   UNL     1       5.464   8.626  11.102  1.00  0.00     0.000 G0
ENDBRANCH  10  13
ENDBRANCH   3  10
BRANCH   1  15
ATOM     15  C   UNL     1       6.396   8.857  12.300  1.00  0.00     0.011 C 
BRANCH  15  16
ATOM     16  C   UNL     1       5.472   8.619  11.098  1.00  0.00     0.001 CG0
ATOM     17  G   UNL     1       4.396   7.505  11.189  1.00  0.00     0.000 G0
ENDBRANCH  15  16
ENDBRANCH   1  15
TORSDOF 0
ENDMDL
MODEL 2
REMARK VINA RESULT:     3.200      1.099      3.025
REMARK INTER + INTRA:           4.618
REMARK INTER:                   2.120
REMARK INTRA:                   2.498
REMARK UNBOUND:                 0.670
REMARK SMILES C=C1[C@@H]2CC[C@H]3[C@@H]2C(C)(C)CCC[C@@]13C
REMARK SMILES IDX 14 1 6 2 7 3 3 4 2 5 1 6 4 7 5 8 15 9 8 10 9 11 10 12 11 13
REMARK SMILES IDX 13 15 12 16
REMARK H PARENT
REMARK Flexibility Score: 80.00
ROOT
ATOM      1  C   UNL     1       6.747   5.915  13.948  1.00  0.00    -0.008 C 
ATOM      2  C   UNL     1       6.797   7.451  14.280  1.00  0.00     0.003 C 
ATOM      3  C   UNL     1       6.629   8.112  12.903  1.00  0.00     0.006 C 
ATOM      4  C   UNL     1       7.817   7.368  12.292  1.00  0.00     0.019 C 
ATOM      5  C   UNL     1       7.490   5.940  12.632  1.00  0.00    -0.068 C 
ATOM      6  C   UNL     1       7.876   4.875  11.917  1.00  0.00     0.009 C 
ATOM      7  C   UNL     1       8.961   7.779  13.238  1.00  0.00     0.008 C 
ATOM      8  C   UNL     1       8.249   7.901  14.602  1.00  0.00     0.005 C 
ATOM      9  C   UNL     1       7.502   5.041  14.984  1.00  0.00     0.016 C 
ENDROOT
BRANCH   3  10
ATOM     10  C   UNL     1       5.216   8.020  12.170  1.00  0.00    -0.032 C 
ATOM     11  C   UNL     1       4.914   9.185  11.187  1.00  0.00     0.011 C 
ATOM     12  C   UNL     1       4.120   8.144  13.268  1.00  0.00     0.011 C 
BRANCH  10  13
ATOM     13  C   UNL     1       4.971   6.639  11.480  1.00  0.00     0.007 CG0
ATOM     14  G   UNL     1       4.650   5.375  12.320  1.00  0.00     0.000 G0
ENDBRANCH  10  13
ENDBRANCH   3  10
BRANCH   1  15
ATOM     15  C   UNL     1       5.295   5.355  13.754  1.00  0.00     0.011 C 
BRANCH  15  16
ATOM     16  C   UNL     1       4.674   5.501  12.358  1.00  0.00     0.001 CG0
ATOM     17  G   UNL     1       5.065   6.724  11.488  1.00  0.00     0.000 G0
ENDBRANCH  15  16
ENDBRANCH   1  15
TORSDOF 0
ENDMDL
MODEL 3
REMARK VINA RESULT:     3.377      1.754      3.843
REMARK INTER + INTRA:           4.837
REMARK INTER:                   4.166
REMARK INTRA:                   0.671
REMARK UNBOUND:                 0.670
REMARK SMILES C=C1[C@@H]2CC[C@H]3[C@@H]2C(C)(C)CCC[C@@]13C
REMARK SMILES IDX 14 1 6 2 7 3 3 4 2 5 1 6 4 7 5 8 15 9 8 10 9 11 10 12 11 13
REMARK SMILES IDX 13 15 12 16
REMARK H PARENT
REMARK Flexibility Score: 80.00
ROOT
ATOM      1  C   UNL     1       4.910   7.716  13.268  1.00  0.00    -0.008 C 
ATOM      2  C   UNL     1       5.123   6.199  13.628  1.00  0.00     0.003 C 
ATOM      3  C   UNL     1       5.945   5.671  12.443  1.00  0.00     0.006 C 
ATOM      4  C   UNL     1       4.922   6.129  11.402  1.00  0.00     0.019 C 
ATOM      5  C   UNL     1       4.737   7.575  11.774  1.00  0.00    -0.068 C 
ATOM      6  C   UNL     1       4.390   8.546  10.919  1.00  0.00     0.009 C 
ATOM      7  C   UNL     1       3.650   5.401  11.876  1.00  0.00     0.008 C 
ATOM      8  C   UNL     1       3.814   5.390  13.411  1.00  0.00     0.005 C 
ATOM      9  C   UNL     1       3.635   8.322  13.911  1.00  0.00     0.016 C 
ENDROOT
BRANCH   3  10
ATOM     10  C   UNL     1       7.458   6.146  12.281  1.00  0.00    -0.032 C 
ATOM     11  C   UNL     1       7.725   7.070  11.060  1.00  0.00     0.011 C 
ATOM     12  C   UNL     1       8.311   4.875  11.999  1.00  0.00     0.011 C 
BRANCH  10  13
ATOM     13  C   UNL     1       8.049   6.773  13.585  1.00  0.00     0.007 CG0
ATOM     14  G   UNL     1       7.340   7.960  14.289  1.00  0.00     0.000 G0
ENDBRANCH  10  13
ENDBRANCH   3  10
BRANCH   1  15
ATOM     15  C   UNL     1       6.144   8.625  13.600  1.00  0.00     0.011 C 
BRANCH  15  16
ATOM     16  C   UNL     1       7.337   7.952  14.293  1.00  0.00     0.001 CG0
ATOM     17  G   UNL     1       8.041   6.763  13.588  1.00  0.00     0.000 G0
ENDBRANCH  15  16
ENDBRANCH   1  15
TORSDOF 0
ENDMDL
MODEL 4
REMARK VINA RESULT:     4.200      1.922      4.054
REMARK INTER + INTRA:           5.852
REMARK INTER:                   5.199
REMARK INTRA:                   0.653
REMARK UNBOUND:                 0.670
REMARK SMILES C=C1[C@@H]2CC[C@H]3[C@@H]2C(C)(C)CCC[C@@]13C
REMARK SMILES IDX 14 1 6 2 7 3 3 4 2 5 1 6 4 7 5 8 15 9 8 10 9 11 10 12 11 13
REMARK SMILES IDX 13 15 12 16
REMARK H PARENT
REMARK Flexibility Score: 80.00
ROOT
ATOM      1  C   UNL     1       5.711   6.756  12.960  1.00  0.00    -0.008 C 
ATOM      2  C   UNL     1       7.059   6.052  13.360  1.00  0.00     0.003 C 
ATOM      3  C   UNL     1       8.119   7.113  13.031  1.00  0.00     0.006 C 
ATOM      4  C   UNL     1       7.669   7.253  11.576  1.00  0.00     0.019 C 
ATOM      5  C   UNL     1       6.194   7.498  11.735  1.00  0.00    -0.068 C 
ATOM      6  C   UNL     1       5.437   8.191  10.875  1.00  0.00     0.009 C 
ATOM      7  C   UNL     1       7.808   5.805  11.068  1.00  0.00     0.008 C 
ATOM      8  C   UNL     1       7.449   4.969  12.316  1.00  0.00     0.005 C 
ATOM      9  C   UNL     1       4.587   5.755  12.584  1.00  0.00     0.016 C 
ENDROOT
BRANCH   3  10
ATOM     10  C   UNL     1       8.201   8.427  13.930  1.00  0.00    -0.032 C 
ATOM     11  C   UNL     1       7.785   9.739  13.207  1.00  0.00     0.011 C 
ATOM     12  C   UNL     1       9.698   8.643  14.294  1.00  0.00     0.011 C 
BRANCH  10  13
ATOM     13  C   UNL     1       7.448   8.287  15.293  1.00  0.00     0.007 CG0
ATOM     14  G   UNL     1       5.959   7.856  15.338  1.00  0.00     0.000 G0
ENDBRANCH  10  13
ENDBRANCH   3  10
BRANCH   1  15
ATOM     15  C   UNL     1       5.175   7.759  14.040  1.00  0.00     0.011 C 
BRANCH  15  16
ATOM     16  C   UNL     1       5.967   7.858  15.351  1.00  0.00     0.001 CG0
ATOM     17  G   UNL     1       7.457   8.283  15.297  1.00  0.00     0.000 G0
ENDBRANCH  15  16
ENDBRANCH   1  15
TORSDOF 0
ENDMDL
