MODEL 1
REMARK VINA RESULT:    -4.008      0.000      0.000
REMARK INTER + INTRA:          -4.008
REMARK INTER:                  -4.008
REMARK INTRA:                   0.000
REMARK UNBOUND:                 0.000
REMARK SMILES CC1=CC(=O)[C@@H]2C[C@H]1C2(C)C
REMARK SMILES IDX 1 1 2 2 3 3 4 4 5 5 6 6 7 7 8 8 9 9 10 10 11 11
REMARK H PARENT
REMARK Flexibility Score: inf
ROOT
ATOM      1  C   UNL     1     -16.500   6.853  28.592  1.00  0.00     0.040 C 
ATOM      2  C   UNL     1     -15.780   5.766  27.860  1.00  0.00    -0.066 C 
ATOM      3  C   UNL     1     -16.447   4.885  27.064  1.00  0.00     0.047 C 
ATOM      4  C   UNL     1     -15.609   3.860  26.360  1.00  0.00     0.159 C 
ATOM      5  O   UNL     1     -16.103   3.018  25.568  1.00  0.00    -0.295 OA
ATOM      6  C   UNL     1     -14.112   3.914  26.672  1.00  0.00     0.067 C 
ATOM      7  C   UNL     1     -14.053   4.060  28.208  1.00  0.00     0.021 C 
ATOM      8  C   UNL     1     -14.253   5.576  27.985  1.00  0.00     0.022 C 
ATOM      9  C   UNL     1     -13.637   5.390  26.568  1.00  0.00    -0.019 C 
ATOM     10  C   UNL     1     -14.190   6.264  25.405  1.00  0.00     0.012 C 
ATOM     11  C   UNL     1     -12.093   5.514  26.575  1.00  0.00     0.012 C 
ENDROOT
TORSDOF 0
ENDMDL
MODEL 2
REMARK VINA RESULT:    -3.944      1.643      2.911
REMARK INTER + INTRA:          -3.944
REMARK INTER:                  -3.944
REMARK INTRA:                   0.000
REMARK UNBOUND:                 0.000
REMARK SMILES CC1=CC(=O)[C@@H]2C[C@H]1C2(C)C
REMARK SMILES IDX 1 1 2 2 3 3 4 4 5 5 6 6 7 7 8 8 9 9 10 10 11 11
REMARK H PARENT
REMARK Flexibility Score: inf
ROOT
ATOM      1  C   UNL     1     -13.508   6.472  25.299  1.00  0.00     0.040 C 
ATOM      2  C   UNL     1     -14.329   5.843  26.380  1.00  0.00    -0.066 C 
ATOM      3  C   UNL     1     -15.553   6.336  26.718  1.00  0.00     0.047 C 
ATOM      4  C   UNL     1     -16.290   5.599  27.796  1.00  0.00     0.159 C 
ATOM      5  O   UNL     1     -17.444   5.932  28.168  1.00  0.00    -0.295 OA
ATOM      6  C   UNL     1     -15.541   4.414  28.407  1.00  0.00     0.067 C 
ATOM      7  C   UNL     1     -14.117   4.956  28.656  1.00  0.00     0.021 C 
ATOM      8  C   UNL     1     -13.824   4.621  27.176  1.00  0.00     0.022 C 
ATOM      9  C   UNL     1     -14.952   3.552  27.255  1.00  0.00    -0.019 C 
ATOM     10  C   UNL     1     -15.827   3.312  25.991  1.00  0.00     0.012 C 
ATOM     11  C   UNL     1     -14.432   2.180  27.751  1.00  0.00     0.012 C 
ENDROOT
TORSDOF 0
ENDMDL
MODEL 3
REMARK VINA RESULT:    -3.939      1.689      3.452
REMARK INTER + INTRA:          -3.939
REMARK INTER:                  -3.939
REMARK INTRA:                   0.000
REMARK UNBOUND:                 0.000
REMARK SMILES CC1=CC(=O)[C@@H]2C[C@H]1C2(C)C
REMARK SMILES IDX 1 1 2 2 3 3 4 4 5 5 6 6 7 7 8 8 9 9 10 10 11 11
REMARK H PARENT
REMARK Flexibility Score: inf
ROOT
ATOM      1  C   UNL     1     -12.534   5.417  26.378  1.00  0.00     0.040 C 
ATOM      2  C   UNL     1     -13.634   4.489  26.786  1.00  0.00    -0.066 C 
ATOM      3  C   UNL     1     -13.374   3.334  27.458  1.00  0.00     0.047 C 
ATOM      4  C   UNL     1     -14.564   2.505  27.838  1.00  0.00     0.159 C 
ATOM      5  O   UNL     1     -14.457   1.437  28.495  1.00  0.00    -0.295 OA
ATOM      6  C   UNL     1     -15.915   3.050  27.374  1.00  0.00     0.067 C 
ATOM      7  C   UNL     1     -15.674   3.454  25.903  1.00  0.00     0.021 C 
ATOM      8  C   UNL     1     -15.111   4.785  26.451  1.00  0.00     0.022 C 
ATOM      9  C   UNL     1     -15.985   4.564  27.720  1.00  0.00    -0.019 C 
ATOM     10  C   UNL     1     -15.420   5.035  29.092  1.00  0.00     0.012 C 
ATOM     11  C   UNL     1     -17.413   5.141  27.561  1.00  0.00     0.012 C 
ENDROOT
TORSDOF 0
ENDMDL
MODEL 4
REMARK VINA RESULT:    -3.869      7.139      7.971
REMARK INTER + INTRA:          -3.869
REMARK INTER:                  -3.869
REMARK INTRA:                   0.000
REMARK UNBOUND:                 0.000
REMARK SMILES CC1=CC(=O)[C@@H]2C[C@H]1C2(C)C
REMARK SMILES IDX 1 1 2 2 3 3 4 4 5 5 6 6 7 7 8 8 9 9 10 10 11 11
REMARK H PARENT
REMARK Flexibility Score: inf
ROOT
ATOM      1  C   UNL     1     -18.204   2.749  33.873  1.00  0.00     0.040 C 
ATOM      2  C   UNL     1     -18.175   1.366  33.301  1.00  0.00    -0.066 C 
ATOM      3  C   UNL     1     -19.321   0.654  33.114  1.00  0.00     0.047 C 
ATOM      4  C   UNL     1     -19.164  -0.707  32.505  1.00  0.00     0.159 C 
ATOM      5  O   UNL     1     -20.149  -1.445  32.247  1.00  0.00    -0.295 OA
ATOM      6  C   UNL     1     -17.723  -1.132  32.218  1.00  0.00     0.067 C 
ATOM      7  C   UNL     1     -16.955  -0.750  33.501  1.00  0.00     0.021 C 
ATOM      8  C   UNL     1     -16.852   0.675  32.912  1.00  0.00     0.022 C 
ATOM      9  C   UNL     1     -16.995   0.039  31.499  1.00  0.00    -0.019 C 
ATOM     10  C   UNL     1     -17.771   0.834  30.410  1.00  0.00     0.012 C 
ATOM     11  C   UNL     1     -15.631  -0.392  30.905  1.00  0.00     0.012 C 
ENDROOT
TORSDOF 0
ENDMDL
MODEL 5
REMARK VINA RESULT:    -3.791      6.911      8.015
REMARK INTER + INTRA:          -3.791
REMARK INTER:                  -3.791
REMARK INTRA:                   0.000
REMARK UNBOUND:                 0.000
REMARK SMILES CC1=CC(=O)[C@@H]2C[C@H]1C2(C)C
REMARK SMILES IDX 1 1 2 2 3 3 4 4 5 5 6 6 7 7 8 8 9 9 10 10 11 11
REMARK H PARENT
REMARK Flexibility Score: inf
ROOT
ATOM      1  C   UNL     1     -20.099  -1.507  31.882  1.00  0.00     0.040 C 
ATOM      2  C   UNL     1     -18.724  -0.921  31.949  1.00  0.00    -0.066 C 
ATOM      3  C   UNL     1     -17.815  -1.135  30.957  1.00  0.00     0.047 C 
ATOM      4  C   UNL     1     -16.482  -0.468  31.125  1.00  0.00     0.159 C 
ATOM      5  O   UNL     1     -15.573  -0.557  30.259  1.00  0.00    -0.295 OA
ATOM      6  C   UNL     1     -16.307   0.327  32.420  1.00  0.00     0.067 C 
ATOM      7  C   UNL     1     -16.863  -0.609  33.515  1.00  0.00     0.021 C 
ATOM      8  C   UNL     1     -18.262  -0.065  33.147  1.00  0.00     0.022 C 
ATOM      9  C   UNL     1     -17.561   1.222  32.625  1.00  0.00    -0.019 C 
ATOM     10  C   UNL     1     -18.168   1.938  31.384  1.00  0.00     0.012 C 
ATOM     11  C   UNL     1     -17.356   2.277  33.741  1.00  0.00     0.012 C 
ENDROOT
TORSDOF 0
ENDMDL
MODEL 6
REMARK VINA RESULT:    -3.772      7.729      9.124
REMARK INTER + INTRA:          -3.772
REMARK INTER:                  -3.772
REMARK INTRA:                   0.000
REMARK UNBOUND:                 0.000
REMARK SMILES CC1=CC(=O)[C@@H]2C[C@H]1C2(C)C
REMARK SMILES IDX 1 1 2 2 3 3 4 4 5 5 6 6 7 7 8 8 9 9 10 10 11 11
REMARK H PARENT
REMARK Flexibility Score: inf
ROOT
ATOM      1  C   UNL     1     -18.765  -1.880  28.586  1.00  0.00     0.040 C 
ATOM      2  C   UNL     1     -18.945  -1.475  30.015  1.00  0.00    -0.066 C 
ATOM      3  C   UNL     1     -17.904  -1.498  30.893  1.00  0.00     0.047 C 
ATOM      4  C   UNL     1     -18.205  -1.039  32.289  1.00  0.00     0.159 C 
ATOM      5  O   UNL     1     -17.319  -0.977  33.180  1.00  0.00    -0.295 OA
ATOM      6  C   UNL     1     -19.661  -0.652  32.550  1.00  0.00     0.067 C 
ATOM      7  C   UNL     1     -20.476  -1.792  31.903  1.00  0.00     0.021 C 
ATOM      8  C   UNL     1     -20.316  -1.032  30.567  1.00  0.00     0.022 C 
ATOM      9  C   UNL     1     -20.142   0.273  31.397  1.00  0.00    -0.019 C 
ATOM     10  C   UNL     1     -19.164   1.359  30.864  1.00  0.00     0.012 C 
ATOM     11  C   UNL     1     -21.496   0.955  31.715  1.00  0.00     0.012 C 
ENDROOT
TORSDOF 0
ENDMDL
MODEL 7
REMARK VINA RESULT:    -3.720      9.414     11.158
REMARK INTER + INTRA:          -3.720
REMARK INTER:                  -3.720
REMARK INTRA:                   0.000
REMARK UNBOUND:                 0.000
REMARK SMILES CC1=CC(=O)[C@@H]2C[C@H]1C2(C)C
REMARK SMILES IDX 1 1 2 2 3 3 4 4 5 5 6 6 7 7 8 8 9 9 10 10 11 11
REMARK H PARENT
REMARK Flexibility Score: inf
ROOT
ATOM      1  C   UNL     1     -19.826  -5.990  21.522  1.00  0.00     0.040 C 
ATOM      2  C   UNL     1     -19.802  -4.509  21.732  1.00  0.00    -0.066 C 
ATOM      3  C   UNL     1     -20.327  -3.655  20.810  1.00  0.00     0.047 C 
ATOM      4  C   UNL     1     -20.270  -2.196  21.150  1.00  0.00     0.159 C 
ATOM      5  O   UNL     1     -20.757  -1.312  20.399  1.00  0.00    -0.295 OA
ATOM      6  C   UNL     1     -19.581  -1.859  22.473  1.00  0.00     0.067 C 
ATOM      7  C   UNL     1     -18.297  -2.715  22.458  1.00  0.00     0.021 C 
ATOM      8  C   UNL     1     -19.167  -3.876  22.988  1.00  0.00     0.022 C 
ATOM      9  C   UNL     1     -20.134  -2.807  23.575  1.00  0.00    -0.019 C 
ATOM     10  C   UNL     1     -21.658  -3.120  23.583  1.00  0.00     0.012 C 
ATOM     11  C   UNL     1     -19.724  -2.358  24.999  1.00  0.00     0.012 C 
ENDROOT
TORSDOF 0
ENDMDL
MODEL 8
REMARK VINA RESULT:    -3.690      7.158      8.477
REMARK INTER + INTRA:          -3.690
REMARK INTER:                  -3.690
REMARK INTRA:                   0.000
REMARK UNBOUND:                 0.000
REMARK SMILES CC1=CC(=O)[C@@H]2C[C@H]1C2(C)C
REMARK SMILES IDX 1 1 2 2 3 3 4 4 5 5 6 6 7 7 8 8 9 9 10 10 11 11
REMARK H PARENT
REMARK Flexibility Score: inf
ROOT
ATOM      1  C   UNL     1     -16.809   1.966  30.101  1.00  0.00     0.040 C 
ATOM      2  C   UNL     1     -17.327   0.872  30.980  1.00  0.00    -0.066 C 
ATOM      3  C   UNL     1     -16.658   0.490  32.104  1.00  0.00     0.047 C 
ATOM      4  C   UNL     1     -17.295  -0.596  32.918  1.00  0.00     0.159 C 
ATOM      5  O   UNL     1     -16.795  -1.007  33.996  1.00  0.00    -0.295 OA
ATOM      6  C   UNL     1     -18.594  -1.165  32.346  1.00  0.00     0.067 C 
ATOM      7  C   UNL     1     -18.285  -1.381  30.850  1.00  0.00     0.021 C 
ATOM      8  C   UNL     1     -18.629   0.112  30.651  1.00  0.00     0.022 C 
ATOM      9  C   UNL     1     -19.512   0.019  31.929  1.00  0.00    -0.019 C 
ATOM     10  C   UNL     1     -19.586   1.261  32.863  1.00  0.00     0.012 C 
ATOM     11  C   UNL     1     -20.958  -0.439  31.615  1.00  0.00     0.012 C 
ENDROOT
TORSDOF 0
ENDMDL
MODEL 9
REMARK VINA RESULT:    -3.684      7.348      8.468
REMARK INTER + INTRA:          -3.684
REMARK INTER:                  -3.684
REMARK INTRA:                   0.000
REMARK UNBOUND:                 0.000
REMARK SMILES CC1=CC(=O)[C@@H]2C[C@H]1C2(C)C
REMARK SMILES IDX 1 1 2 2 3 3 4 4 5 5 6 6 7 7 8 8 9 9 10 10 11 11
REMARK H PARENT
REMARK Flexibility Score: inf
ROOT
ATOM      1  C   UNL     1     -19.754   2.465  32.167  1.00  0.00     0.040 C 
ATOM      2  C   UNL     1     -18.902   1.237  32.099  1.00  0.00    -0.066 C 
ATOM      3  C   UNL     1     -18.244   0.770  33.197  1.00  0.00     0.047 C 
ATOM      4  C   UNL     1     -17.448  -0.486  33.008  1.00  0.00     0.159 C 
ATOM      5  O   UNL     1     -16.829  -1.037  33.954  1.00  0.00    -0.295 OA
ATOM      6  C   UNL     1     -17.445  -1.051  31.586  1.00  0.00     0.067 C 
ATOM      7  C   UNL     1     -17.194   0.183  30.692  1.00  0.00     0.021 C 
ATOM      8  C   UNL     1     -18.713   0.451  30.785  1.00  0.00     0.022 C 
ATOM      9  C   UNL     1     -18.906  -1.069  31.057  1.00  0.00    -0.019 C 
ATOM     10  C   UNL     1     -20.039  -1.503  32.031  1.00  0.00     0.012 C 
ATOM     11  C   UNL     1     -19.050  -1.889  29.750  1.00  0.00     0.012 C 
ENDROOT
TORSDOF 0
ENDMDL
