MODEL 1
REMARK VINA RESULT:    -6.539      0.000      0.000
REMARK INTER + INTRA:         -10.185
REMARK INTER:                  -8.832
REMARK INTRA:                  -1.353
REMARK UNBOUND:                -1.353
REMARK SMILES O=c1c(-c2ccc(O)cc2)coc2c([C@@H]3O[C@H](CO)[C@@H](O)[C@H](O)[C@H]3O)c(O)ccc12
REMARK SMILES IDX 3 1 11 2 12 3 13 4 30 5 2 6 1 7 29 8 28 9 26 10 14 11 4 12
REMARK SMILES IDX 5 13 6 14 7 15 10 16 9 17 8 18 15 20 24 21 16 22 22 23 17 24
REMARK SMILES IDX 20 25 25 26 23 28 18 30 19 31 21 33 27 35
REMARK H PARENT 8 19 25 27 23 29 19 32 21 34 27 36
REMARK Flexibility Score: inf
ROOT
ATOM      1  C   UNL     1      11.829  -6.121 -10.499  1.00  0.00     0.065 A 
ATOM      2  C   UNL     1      12.700  -5.057 -10.771  1.00  0.00     0.208 A 
ATOM      3  O   UNL     1      13.777  -5.234 -11.527  1.00  0.00    -0.463 OA
ATOM      4  C   UNL     1      14.100  -6.404 -12.073  1.00  0.00     0.147 A 
ATOM      5  C   UNL     1      13.277  -7.532 -11.849  1.00  0.00     0.066 A 
ATOM      6  C   UNL     1      12.133  -7.383 -11.045  1.00  0.00     0.200 A 
ATOM      7  O   UNL     1      11.397  -8.377 -10.795  1.00  0.00    -0.288 OA
ATOM      8  C   UNL     1      13.628  -8.770 -12.413  1.00  0.00     0.020 A 
ATOM      9  C   UNL     1      14.784  -8.890 -13.177  1.00  0.00     0.047 A 
ATOM     10  C   UNL     1      15.612  -7.783 -13.398  1.00  0.00     0.125 A 
ATOM     11  C   UNL     1      15.264  -6.518 -12.869  1.00  0.00     0.069 A 
ENDROOT
BRANCH   1  12
ATOM     12  C   UNL     1      10.639  -5.906  -9.639  1.00  0.00    -0.011 A 
ATOM     13  C   UNL     1      10.707  -6.115  -8.250  1.00  0.00     0.013 A 
ATOM     14  C   UNL     1       9.583  -5.903  -7.446  1.00  0.00     0.047 A 
ATOM     15  C   UNL     1       8.378  -5.484  -8.018  1.00  0.00     0.115 A 
ATOM     16  C   UNL     1       9.419  -5.495 -10.208  1.00  0.00     0.013 A 
ATOM     17  C   UNL     1       8.297  -5.283  -9.402  1.00  0.00     0.047 A 
BRANCH  15  18
ATOM     18  O   UNL     1       7.268  -5.269  -7.205  1.00  0.00    -0.508 OA
ATOM     19  H   UNL     1       7.087  -5.845  -6.391  1.00  0.00     0.293 HD
ENDBRANCH  15  18
ENDBRANCH   1  12
BRANCH  11  20
ATOM     20  C   UNL     1      16.175  -5.317 -13.081  1.00  0.00     0.188 C 
ATOM     21  C   UNL     1      17.407  -5.402 -12.132  1.00  0.00     0.179 C 
ATOM     22  O   UNL     1      16.586  -5.270 -14.436  1.00  0.00    -0.362 OA
ATOM     23  C   UNL     1      18.714  -4.952 -12.833  1.00  0.00     0.177 C 
ATOM     24  C   UNL     1      17.224  -4.035 -14.719  1.00  0.00     0.176 C 
ATOM     25  C   UNL     1      18.474  -3.786 -13.813  1.00  0.00     0.177 C 
BRANCH  21  26
ATOM     26  O   UNL     1      17.183  -4.668 -10.953  1.00  0.00    -0.387 OA
ATOM     27  H   UNL     1      16.216  -4.453 -10.905  1.00  0.00     0.211 HD
ENDBRANCH  21  26
BRANCH  23  28
ATOM     28  O   UNL     1      19.266  -6.030 -13.548  1.00  0.00    -0.387 OA
ATOM     29  H   UNL     1      19.461  -5.702 -14.463  1.00  0.00     0.211 HD
ENDBRANCH  23  28
BRANCH  24  30
ATOM     30  C   UNL     1      17.597  -4.007 -16.209  1.00  0.00     0.191 C 
BRANCH  30  31
ATOM     31  O   UNL     1      18.426  -5.088 -16.545  1.00  0.00    -0.394 OA
ATOM     32  H   UNL     1      18.128  -5.858 -15.992  1.00  0.00     0.210 HD
ENDBRANCH  30  31
ENDBRANCH  24  30
BRANCH  25  33
ATOM     33  O   UNL     1      18.312  -2.592 -13.088  1.00  0.00    -0.388 OA
ATOM     34  H   UNL     1      17.359  -2.327 -13.190  1.00  0.00     0.211 HD
ENDBRANCH  25  33
ENDBRANCH  11  20
BRANCH  10  35
ATOM     35  O   UNL     1      16.784  -7.941 -14.137  1.00  0.00    -0.507 OA
ATOM     36  H   UNL     1      17.268  -7.151 -14.547  1.00  0.00     0.293 HD
ENDBRANCH  10  35
TORSDOF 9
ENDMDL
MODEL 2
REMARK VINA RESULT:    -6.351      5.483      7.362
REMARK INTER + INTRA:          -9.932
REMARK INTER:                  -8.885
REMARK INTRA:                  -1.047
REMARK UNBOUND:                -1.353
REMARK SMILES O=c1c(-c2ccc(O)cc2)coc2c([C@@H]3O[C@H](CO)[C@@H](O)[C@H](O)[C@H]3O)c(O)ccc12
REMARK SMILES IDX 3 1 11 2 12 3 13 4 30 5 2 6 1 7 29 8 28 9 26 10 14 11 4 12
REMARK SMILES IDX 5 13 6 14 7 15 10 16 9 17 8 18 15 20 24 21 16 22 22 23 17 24
REMARK SMILES IDX 20 25 25 26 23 28 18 30 19 31 21 33 27 35
REMARK H PARENT 8 19 25 27 23 29 19 32 21 34 27 36
REMARK Flexibility Score: inf
ROOT
ATOM      1  C   UNL     1      17.683  -1.884 -12.464  1.00  0.00     0.065 A 
ATOM      2  C   UNL     1      17.312  -3.236 -12.447  1.00  0.00     0.208 A 
ATOM      3  O   UNL     1      17.387  -3.977 -13.546  1.00  0.00    -0.463 OA
ATOM      4  C   UNL     1      17.811  -3.505 -14.716  1.00  0.00     0.147 A 
ATOM      5  C   UNL     1      18.203  -2.149 -14.824  1.00  0.00     0.066 A 
ATOM      6  C   UNL     1      18.128  -1.334 -13.681  1.00  0.00     0.200 A 
ATOM      7  O   UNL     1      18.435  -0.111 -13.751  1.00  0.00    -0.288 OA
ATOM      8  C   UNL     1      18.636  -1.648 -16.063  1.00  0.00     0.020 A 
ATOM      9  C   UNL     1      18.667  -2.475 -17.181  1.00  0.00     0.047 A 
ATOM     10  C   UNL     1      18.272  -3.815 -17.090  1.00  0.00     0.125 A 
ATOM     11  C   UNL     1      17.864  -4.353 -15.846  1.00  0.00     0.069 A 
ENDROOT
BRANCH   1  12
ATOM     12  C   UNL     1      17.578  -1.070 -11.227  1.00  0.00    -0.011 A 
ATOM     13  C   UNL     1      18.698  -0.872 -10.399  1.00  0.00     0.013 A 
ATOM     14  C   UNL     1      18.592  -0.098  -9.240  1.00  0.00     0.047 A 
ATOM     15  C   UNL     1      17.370   0.483  -8.891  1.00  0.00     0.115 A 
ATOM     16  C   UNL     1      16.349  -0.491 -10.863  1.00  0.00     0.013 A 
ATOM     17  C   UNL     1      16.246   0.284  -9.704  1.00  0.00     0.047 A 
BRANCH  15  18
ATOM     18  O   UNL     1      17.280   1.259  -7.737  1.00  0.00    -0.508 OA
ATOM     19  H   UNL     1      16.534   1.125  -7.065  1.00  0.00     0.293 HD
ENDBRANCH  15  18
ENDBRANCH   1  12
BRANCH  11  20
ATOM     20  C   UNL     1      17.405  -5.801 -15.747  1.00  0.00     0.188 C 
ATOM     21  C   UNL     1      15.869  -5.897 -15.977  1.00  0.00     0.179 C 
ATOM     22  O   UNL     1      18.106  -6.584 -16.698  1.00  0.00    -0.362 OA
ATOM     23  C   UNL     1      15.483  -7.132 -16.831  1.00  0.00     0.177 C 
ATOM     24  C   UNL     1      17.888  -7.965 -16.461  1.00  0.00     0.176 C 
ATOM     25  C   UNL     1      16.374  -8.351 -16.521  1.00  0.00     0.177 C 
BRANCH  21  26
ATOM     26  O   UNL     1      15.177  -5.889 -14.752  1.00  0.00    -0.387 OA
ATOM     27  H   UNL     1      15.654  -5.277 -14.134  1.00  0.00     0.211 HD
ENDBRANCH  21  26
BRANCH  23  28
ATOM     28  O   UNL     1      15.607  -6.822 -18.197  1.00  0.00    -0.387 OA
ATOM     29  H   UNL     1      16.563  -6.938 -18.434  1.00  0.00     0.211 HD
ENDBRANCH  23  28
BRANCH  24  30
ATOM     30  C   UNL     1      18.712  -8.772 -17.476  1.00  0.00     0.191 C 
BRANCH  30  31
ATOM     31  O   UNL     1      19.673  -7.965 -18.105  1.00  0.00    -0.394 OA
ATOM     32  H   UNL     1      20.394  -7.810 -17.441  1.00  0.00     0.210 HD
ENDBRANCH  30  31
ENDBRANCH  24  30
BRANCH  25  33
ATOM     33  O   UNL     1      15.975  -8.922 -15.300  1.00  0.00    -0.388 OA
ATOM     34  H   UNL     1      15.345  -8.279 -14.879  1.00  0.00     0.211 HD
ENDBRANCH  25  33
ENDBRANCH  11  20
BRANCH  10  35
ATOM     35  O   UNL     1      18.278  -4.611 -18.235  1.00  0.00    -0.507 OA
ATOM     36  H   UNL     1      18.358  -4.212 -19.163  1.00  0.00     0.293 HD
ENDBRANCH  10  35
TORSDOF 9
ENDMDL
MODEL 3
REMARK VINA RESULT:    -6.329     12.302     16.656
REMARK INTER + INTRA:          -9.901
REMARK INTER:                  -9.188
REMARK INTRA:                  -0.713
REMARK UNBOUND:                -1.353
REMARK SMILES O=c1c(-c2ccc(O)cc2)coc2c([C@@H]3O[C@H](CO)[C@@H](O)[C@H](O)[C@H]3O)c(O)ccc12
REMARK SMILES IDX 3 1 11 2 12 3 13 4 30 5 2 6 1 7 29 8 28 9 26 10 14 11 4 12
REMARK SMILES IDX 5 13 6 14 7 15 10 16 9 17 8 18 15 20 24 21 16 22 22 23 17 24
REMARK SMILES IDX 20 25 25 26 23 28 18 30 19 31 21 33 27 35
REMARK H PARENT 8 19 25 27 23 29 19 32 21 34 27 36
REMARK Flexibility Score: inf
ROOT
ATOM      1  C   UNL     1      16.741   7.969 -19.589  1.00  0.00     0.065 A 
ATOM      2  C   UNL     1      16.403   6.609 -19.572  1.00  0.00     0.208 A 
ATOM      3  O   UNL     1      15.173   6.216 -19.263  1.00  0.00    -0.463 OA
ATOM      4  C   UNL     1      14.193   7.063 -18.956  1.00  0.00     0.147 A 
ATOM      5  C   UNL     1      14.448   8.455 -18.946  1.00  0.00     0.066 A 
ATOM      6  C   UNL     1      15.742   8.905 -19.261  1.00  0.00     0.200 A 
ATOM      7  O   UNL     1      16.013  10.137 -19.225  1.00  0.00    -0.288 OA
ATOM      8  C   UNL     1      13.416   9.346 -18.607  1.00  0.00     0.020 A 
ATOM      9  C   UNL     1      12.156   8.864 -18.270  1.00  0.00     0.047 A 
ATOM     10  C   UNL     1      11.894   7.489 -18.266  1.00  0.00     0.125 A 
ATOM     11  C   UNL     1      12.906   6.572 -18.636  1.00  0.00     0.069 A 
ENDROOT
BRANCH   1  12
ATOM     12  C   UNL     1      18.126   8.386 -19.924  1.00  0.00    -0.011 A 
ATOM     13  C   UNL     1      18.731   7.976 -21.126  1.00  0.00     0.013 A 
ATOM     14  C   UNL     1      20.033   8.379 -21.437  1.00  0.00     0.047 A 
ATOM     15  C   UNL     1      20.748   9.191 -20.551  1.00  0.00     0.115 A 
ATOM     16  C   UNL     1      18.856   9.194 -19.033  1.00  0.00     0.013 A 
ATOM     17  C   UNL     1      20.158   9.597 -19.347  1.00  0.00     0.047 A 
BRANCH  15  18
ATOM     18  O   UNL     1      22.042   9.592 -20.877  1.00  0.00    -0.508 OA
ATOM     19  H   UNL     1      22.477  10.390 -20.429  1.00  0.00     0.293 HD
ENDBRANCH  15  18
ENDBRANCH   1  12
BRANCH  11  20
ATOM     20  C   UNL     1      12.637   5.074 -18.605  1.00  0.00     0.188 C 
ATOM     21  C   UNL     1      12.276   4.621 -17.160  1.00  0.00     0.179 C 
ATOM     22  O   UNL     1      11.588   4.765 -19.506  1.00  0.00    -0.362 OA
ATOM     23  C   UNL     1      11.135   3.571 -17.146  1.00  0.00     0.177 C 
ATOM     24  C   UNL     1      11.485   3.361 -19.686  1.00  0.00     0.176 C 
ATOM     25  C   UNL     1      11.224   2.604 -18.343  1.00  0.00     0.177 C 
BRANCH  21  26
ATOM     26  O   UNL     1      13.414   4.145 -16.485  1.00  0.00    -0.387 OA
ATOM     27  H   UNL     1      14.209   4.599 -16.866  1.00  0.00     0.211 HD
ENDBRANCH  21  26
BRANCH  23  28
ATOM     28  O   UNL     1       9.889   4.223 -17.189  1.00  0.00    -0.387 OA
ATOM     29  H   UNL     1       9.843   4.703 -18.056  1.00  0.00     0.211 HD
ENDBRANCH  23  28
BRANCH  24  30
ATOM     30  C   UNL     1      10.378   3.079 -20.713  1.00  0.00     0.191 C 
BRANCH  30  31
ATOM     31  O   UNL     1      10.917   2.815 -21.981  1.00  0.00    -0.394 OA
ATOM     32  H   UNL     1      11.369   3.648 -22.278  1.00  0.00     0.210 HD
ENDBRANCH  30  31
ENDBRANCH  24  30
BRANCH  25  33
ATOM     33  O   UNL     1      12.248   1.669 -18.113  1.00  0.00    -0.388 OA
ATOM     34  H   UNL     1      12.800   1.645 -18.939  1.00  0.00     0.211 HD
ENDBRANCH  25  33
ENDBRANCH  11  20
BRANCH  10  35
ATOM     35  O   UNL     1      10.632   7.033 -17.888  1.00  0.00    -0.507 OA
ATOM     36  H   UNL     1      10.382   6.897 -16.916  1.00  0.00     0.293 HD
ENDBRANCH  10  35
TORSDOF 9
ENDMDL
MODEL 4
REMARK VINA RESULT:    -6.193     13.534     16.090
REMARK INTER + INTRA:          -9.718
REMARK INTER:                  -8.647
REMARK INTRA:                  -1.072
REMARK UNBOUND:                -1.353
REMARK SMILES O=c1c(-c2ccc(O)cc2)coc2c([C@@H]3O[C@H](CO)[C@@H](O)[C@H](O)[C@H]3O)c(O)ccc12
REMARK SMILES IDX 3 1 11 2 12 3 13 4 30 5 2 6 1 7 29 8 28 9 26 10 14 11 4 12
REMARK SMILES IDX 5 13 6 14 7 15 10 16 9 17 8 18 15 20 24 21 16 22 22 23 17 24
REMARK SMILES IDX 20 25 25 26 23 28 18 30 19 31 21 33 27 35
REMARK H PARENT 8 19 25 27 23 29 19 32 21 34 27 36
REMARK Flexibility Score: inf
ROOT
ATOM      1  C   UNL     1      14.577   7.030 -18.829  1.00  0.00     0.065 A 
ATOM      2  C   UNL     1      15.430   6.254 -19.627  1.00  0.00     0.208 A 
ATOM      3  O   UNL     1      16.662   6.662 -19.905  1.00  0.00    -0.463 OA
ATOM      4  C   UNL     1      17.169   7.808 -19.456  1.00  0.00     0.147 A 
ATOM      5  C   UNL     1      16.376   8.654 -18.644  1.00  0.00     0.066 A 
ATOM      6  C   UNL     1      15.063   8.256 -18.338  1.00  0.00     0.200 A 
ATOM      7  O   UNL     1      14.317   9.005 -17.648  1.00  0.00    -0.288 OA
ATOM      8  C   UNL     1      16.908   9.870 -18.183  1.00  0.00     0.020 A 
ATOM      9  C   UNL     1      18.200  10.247 -18.532  1.00  0.00     0.047 A 
ATOM     10  C   UNL     1      18.991   9.424 -19.342  1.00  0.00     0.125 A 
ATOM     11  C   UNL     1      18.491   8.178 -19.792  1.00  0.00     0.069 A 
ENDROOT
BRANCH   1  12
ATOM     12  C   UNL     1      13.198   6.562 -18.543  1.00  0.00    -0.011 A 
ATOM     13  C   UNL     1      12.124   6.934 -19.372  1.00  0.00     0.013 A 
ATOM     14  C   UNL     1      10.830   6.484 -19.100  1.00  0.00     0.047 A 
ATOM     15  C   UNL     1      10.590   5.661 -17.995  1.00  0.00     0.115 A 
ATOM     16  C   UNL     1      12.946   5.743 -17.427  1.00  0.00     0.013 A 
ATOM     17  C   UNL     1      11.650   5.293 -17.157  1.00  0.00     0.047 A 
BRANCH  15  18
ATOM     18  O   UNL     1       9.296   5.212 -17.739  1.00  0.00    -0.508 OA
ATOM     19  H   UNL     1       8.596   5.818 -17.327  1.00  0.00     0.293 HD
ENDBRANCH  15  18
ENDBRANCH   1  12
BRANCH  11  20
ATOM     20  C   UNL     1      19.335   7.292 -20.698  1.00  0.00     0.188 C 
ATOM     21  C   UNL     1      19.136   7.699 -22.187  1.00  0.00     0.179 C 
ATOM     22  O   UNL     1      20.698   7.398 -20.324  1.00  0.00    -0.362 OA
ATOM     23  C   UNL     1      20.465   7.657 -22.985  1.00  0.00     0.177 C 
ATOM     24  C   UNL     1      21.470   6.403 -20.976  1.00  0.00     0.176 C 
ATOM     25  C   UNL     1      21.374   6.497 -22.534  1.00  0.00     0.177 C 
BRANCH  21  26
ATOM     26  O   UNL     1      18.151   6.902 -22.797  1.00  0.00    -0.387 OA
ATOM     27  H   UNL     1      17.267   7.192 -22.455  1.00  0.00     0.211 HD
ENDBRANCH  21  26
BRANCH  23  28
ATOM     28  O   UNL     1      21.163   8.866 -22.810  1.00  0.00    -0.387 OA
ATOM     29  H   UNL     1      20.501   9.541 -22.509  1.00  0.00     0.211 HD
ENDBRANCH  23  28
BRANCH  24  30
ATOM     30  C   UNL     1      22.925   6.520 -20.496  1.00  0.00     0.191 C 
BRANCH  30  31
ATOM     31  O   UNL     1      23.677   5.398 -20.877  1.00  0.00    -0.394 OA
ATOM     32  H   UNL     1      23.660   4.769 -20.108  1.00  0.00     0.210 HD
ENDBRANCH  30  31
ENDBRANCH  24  30
BRANCH  25  33
ATOM     33  O   UNL     1      20.883   5.288 -23.058  1.00  0.00    -0.388 OA
ATOM     34  H   UNL     1      20.146   4.998 -22.458  1.00  0.00     0.211 HD
ENDBRANCH  25  33
ENDBRANCH  11  20
BRANCH  10  35
ATOM     35  O   UNL     1      20.269   9.845 -19.706  1.00  0.00    -0.507 OA
ATOM     36  H   UNL     1      20.438  10.369 -20.556  1.00  0.00     0.293 HD
ENDBRANCH  10  35
TORSDOF 9
ENDMDL
MODEL 5
REMARK VINA RESULT:    -6.088      5.652      7.479
REMARK INTER + INTRA:          -9.576
REMARK INTER:                  -8.717
REMARK INTRA:                  -0.859
REMARK UNBOUND:                -1.353
REMARK SMILES O=c1c(-c2ccc(O)cc2)coc2c([C@@H]3O[C@H](CO)[C@@H](O)[C@H](O)[C@H]3O)c(O)ccc12
REMARK SMILES IDX 3 1 11 2 12 3 13 4 30 5 2 6 1 7 29 8 28 9 26 10 14 11 4 12
REMARK SMILES IDX 5 13 6 14 7 15 10 16 9 17 8 18 15 20 24 21 16 22 22 23 17 24
REMARK SMILES IDX 20 25 25 26 23 28 18 30 19 31 21 33 27 35
REMARK H PARENT 8 19 25 27 23 29 19 32 21 34 27 36
REMARK Flexibility Score: inf
ROOT
ATOM      1  C   UNL     1      16.596  -0.984 -13.730  1.00  0.00     0.065 A 
ATOM      2  C   UNL     1      16.292  -2.330 -13.482  1.00  0.00     0.208 A 
ATOM      3  O   UNL     1      16.691  -3.284 -14.315  1.00  0.00    -0.463 OA
ATOM      4  C   UNL     1      17.395  -3.041 -15.418  1.00  0.00     0.147 A 
ATOM      5  C   UNL     1      17.745  -1.709 -15.746  1.00  0.00     0.066 A 
ATOM      6  C   UNL     1      17.331  -0.674 -14.890  1.00  0.00     0.200 A 
ATOM      7  O   UNL     1      17.594   0.528 -15.172  1.00  0.00    -0.288 OA
ATOM      8  C   UNL     1      18.475  -1.453 -16.919  1.00  0.00     0.020 A 
ATOM      9  C   UNL     1      18.841  -2.499 -17.760  1.00  0.00     0.047 A 
ATOM     10  C   UNL     1      18.491  -3.819 -17.451  1.00  0.00     0.125 A 
ATOM     11  C   UNL     1      17.785  -4.108 -16.259  1.00  0.00     0.069 A 
ENDROOT
BRANCH   1  12
ATOM     12  C   UNL     1      16.128   0.068 -12.793  1.00  0.00    -0.011 A 
ATOM     13  C   UNL     1      14.865   0.666 -12.955  1.00  0.00     0.013 A 
ATOM     14  C   UNL     1      14.429   1.651 -12.065  1.00  0.00     0.047 A 
ATOM     15  C   UNL     1      15.248   2.055 -11.006  1.00  0.00     0.115 A 
ATOM     16  C   UNL     1      16.951   0.487 -11.732  1.00  0.00     0.013 A 
ATOM     17  C   UNL     1      16.512   1.472 -10.842  1.00  0.00     0.047 A 
BRANCH  15  18
ATOM     18  O   UNL     1      14.798   3.032 -10.121  1.00  0.00    -0.508 OA
ATOM     19  H   UNL     1      14.127   3.736 -10.405  1.00  0.00     0.293 HD
ENDBRANCH  15  18
ENDBRANCH   1  12
BRANCH  11  20
ATOM     20  C   UNL     1      17.378  -5.538 -15.933  1.00  0.00     0.188 C 
ATOM     21  C   UNL     1      15.855  -5.736 -16.191  1.00  0.00     0.179 C 
ATOM     22  O   UNL     1      18.142  -6.436 -16.717  1.00  0.00    -0.362 OA
ATOM     23  C   UNL     1      15.548  -7.111 -16.838  1.00  0.00     0.177 C 
ATOM     24  C   UNL     1      17.967  -7.768 -16.260  1.00  0.00     0.176 C 
ATOM     25  C   UNL     1      16.471  -8.222 -16.301  1.00  0.00     0.177 C 
BRANCH  21  26
ATOM     26  O   UNL     1      15.118  -5.555 -15.006  1.00  0.00    -0.387 OA
ATOM     27  H   UNL     1      14.516  -4.777 -15.136  1.00  0.00     0.211 HD
ENDBRANCH  21  26
BRANCH  23  28
ATOM     28  O   UNL     1      15.712  -7.027 -18.232  1.00  0.00    -0.387 OA
ATOM     29  H   UNL     1      15.864  -7.951 -18.561  1.00  0.00     0.211 HD
ENDBRANCH  23  28
BRANCH  24  30
ATOM     30  C   UNL     1      18.858  -8.696 -17.099  1.00  0.00     0.191 C 
BRANCH  30  31
ATOM     31  O   UNL     1      19.588  -7.971 -18.054  1.00  0.00    -0.394 OA
ATOM     32  H   UNL     1      19.887  -7.135 -17.609  1.00  0.00     0.210 HD
ENDBRANCH  30  31
ENDBRANCH  24  30
BRANCH  25  33
ATOM     33  O   UNL     1      16.048  -8.600 -15.014  1.00  0.00    -0.388 OA
ATOM     34  H   UNL     1      16.870  -8.682 -14.459  1.00  0.00     0.211 HD
ENDBRANCH  25  33
ENDBRANCH  11  20
BRANCH  10  35
ATOM     35  O   UNL     1      18.840  -4.843 -18.331  1.00  0.00    -0.507 OA
ATOM     36  H   UNL     1      18.670  -5.817 -18.112  1.00  0.00     0.293 HD
ENDBRANCH  10  35
TORSDOF 9
ENDMDL
MODEL 6
REMARK VINA RESULT:    -6.078      1.735      2.954
REMARK INTER + INTRA:          -9.563
REMARK INTER:                  -8.957
REMARK INTRA:                  -0.606
REMARK UNBOUND:                -1.353
REMARK SMILES O=c1c(-c2ccc(O)cc2)coc2c([C@@H]3O[C@H](CO)[C@@H](O)[C@H](O)[C@H]3O)c(O)ccc12
REMARK SMILES IDX 3 1 11 2 12 3 13 4 30 5 2 6 1 7 29 8 28 9 26 10 14 11 4 12
REMARK SMILES IDX 5 13 6 14 7 15 10 16 9 17 8 18 15 20 24 21 16 22 22 23 17 24
REMARK SMILES IDX 20 25 25 26 23 28 18 30 19 31 21 33 27 35
REMARK H PARENT 8 19 25 27 23 29 19 32 21 34 27 36
REMARK Flexibility Score: inf
ROOT
ATOM      1  C   UNL     1      11.920  -6.534 -10.429  1.00  0.00     0.065 A 
ATOM      2  C   UNL     1      12.662  -5.347 -10.345  1.00  0.00     0.208 A 
ATOM      3  O   UNL     1      13.770  -5.184 -11.058  1.00  0.00    -0.463 OA
ATOM      4  C   UNL     1      14.246  -6.110 -11.887  1.00  0.00     0.147 A 
ATOM      5  C   UNL     1      13.560  -7.339 -12.032  1.00  0.00     0.066 A 
ATOM      6  C   UNL     1      12.388  -7.549 -11.285  1.00  0.00     0.200 A 
ATOM      7  O   UNL     1      11.772  -8.648 -11.362  1.00  0.00    -0.288 OA
ATOM      8  C   UNL     1      14.072  -8.322 -12.896  1.00  0.00     0.020 A 
ATOM      9  C   UNL     1      15.252  -8.094 -13.596  1.00  0.00     0.047 A 
ATOM     10  C   UNL     1      15.945  -6.886 -13.453  1.00  0.00     0.125 A 
ATOM     11  C   UNL     1      15.433  -5.867 -12.615  1.00  0.00     0.069 A 
ENDROOT
BRANCH   1  12
ATOM     12  C   UNL     1      10.692  -6.701  -9.612  1.00  0.00    -0.011 A 
ATOM     13  C   UNL     1      10.738  -7.356  -8.368  1.00  0.00     0.013 A 
ATOM     14  C   UNL     1       9.578  -7.503  -7.602  1.00  0.00     0.047 A 
ATOM     15  C   UNL     1       8.359  -7.004  -8.069  1.00  0.00     0.115 A 
ATOM     16  C   UNL     1       9.459  -6.211 -10.080  1.00  0.00     0.013 A 
ATOM     17  C   UNL     1       8.301  -6.359  -9.311  1.00  0.00     0.047 A 
BRANCH  15  18
ATOM     18  O   UNL     1       7.212  -7.150  -7.292  1.00  0.00    -0.508 OA
ATOM     19  H   UNL     1       7.208  -7.721  -6.455  1.00  0.00     0.293 HD
ENDBRANCH  15  18
ENDBRANCH   1  12
BRANCH  11  20
ATOM     20  C   UNL     1      16.197  -4.563 -12.433  1.00  0.00     0.188 C 
ATOM     21  C   UNL     1      15.536  -3.430 -13.272  1.00  0.00     0.179 C 
ATOM     22  O   UNL     1      16.226  -4.220 -11.059  1.00  0.00    -0.362 OA
ATOM     23  C   UNL     1      15.512  -2.080 -12.510  1.00  0.00     0.177 C 
ATOM     24  C   UNL     1      17.136  -3.156 -10.831  1.00  0.00     0.176 C 
ATOM     25  C   UNL     1      16.777  -1.876 -11.654  1.00  0.00     0.177 C 
BRANCH  21  26
ATOM     26  O   UNL     1      16.168  -3.298 -14.522  1.00  0.00    -0.387 OA
ATOM     27  H   UNL     1      15.463  -3.254 -15.218  1.00  0.00     0.211 HD
ENDBRANCH  21  26
BRANCH  23  28
ATOM     28  O   UNL     1      14.388  -2.030 -11.667  1.00  0.00    -0.387 OA
ATOM     29  H   UNL     1      13.676  -2.566 -12.102  1.00  0.00     0.211 HD
ENDBRANCH  23  28
BRANCH  24  30
ATOM     30  C   UNL     1      17.177  -2.861  -9.324  1.00  0.00     0.191 C 
BRANCH  30  31
ATOM     31  O   UNL     1      17.455  -4.023  -8.587  1.00  0.00    -0.394 OA
ATOM     32  H   UNL     1      17.017  -3.910  -7.703  1.00  0.00     0.210 HD
ENDBRANCH  30  31
ENDBRANCH  24  30
BRANCH  25  33
ATOM     33  O   UNL     1      17.854  -1.523 -12.487  1.00  0.00    -0.388 OA
ATOM     34  H   UNL     1      17.495  -0.880 -13.155  1.00  0.00     0.211 HD
ENDBRANCH  25  33
ENDBRANCH  11  20
BRANCH  10  35
ATOM     35  O   UNL     1      17.145  -6.699 -14.139  1.00  0.00    -0.507 OA
ATOM     36  H   UNL     1      17.267  -5.950 -14.809  1.00  0.00     0.293 HD
ENDBRANCH  10  35
TORSDOF 9
ENDMDL
MODEL 7
REMARK VINA RESULT:    -6.067      5.559     10.244
REMARK INTER + INTRA:          -9.547
REMARK INTER:                  -8.182
REMARK INTRA:                  -1.365
REMARK UNBOUND:                -1.353
REMARK SMILES O=c1c(-c2ccc(O)cc2)coc2c([C@@H]3O[C@H](CO)[C@@H](O)[C@H](O)[C@H]3O)c(O)ccc12
REMARK SMILES IDX 3 1 11 2 12 3 13 4 30 5 2 6 1 7 29 8 28 9 26 10 14 11 4 12
REMARK SMILES IDX 5 13 6 14 7 15 10 16 9 17 8 18 15 20 24 21 16 22 22 23 17 24
REMARK SMILES IDX 20 25 25 26 23 28 18 30 19 31 21 33 27 35
REMARK H PARENT 8 19 25 27 23 29 19 32 21 34 27 36
REMARK Flexibility Score: inf
ROOT
ATOM      1  C   UNL     1      18.860  -1.596 -16.765  1.00  0.00     0.065 A 
ATOM      2  C   UNL     1      18.846  -0.445 -15.965  1.00  0.00     0.208 A 
ATOM      3  O   UNL     1      18.362  -0.480 -14.730  1.00  0.00    -0.463 OA
ATOM      4  C   UNL     1      17.869  -1.583 -14.171  1.00  0.00     0.147 A 
ATOM      5  C   UNL     1      17.843  -2.790 -14.908  1.00  0.00     0.066 A 
ATOM      6  C   UNL     1      18.340  -2.787 -16.223  1.00  0.00     0.200 A 
ATOM      7  O   UNL     1      18.297  -3.837 -16.922  1.00  0.00    -0.288 OA
ATOM      8  C   UNL     1      17.308  -3.950 -14.323  1.00  0.00     0.020 A 
ATOM      9  C   UNL     1      16.795  -3.910 -13.030  1.00  0.00     0.047 A 
ATOM     10  C   UNL     1      16.807  -2.719 -12.294  1.00  0.00     0.125 A 
ATOM     11  C   UNL     1      17.370  -1.545 -12.848  1.00  0.00     0.069 A 
ENDROOT
BRANCH   1  12
ATOM     12  C   UNL     1      19.393  -1.532 -18.150  1.00  0.00    -0.011 A 
ATOM     13  C   UNL     1      20.765  -1.713 -18.402  1.00  0.00     0.013 A 
ATOM     14  C   UNL     1      21.257  -1.658 -19.709  1.00  0.00     0.047 A 
ATOM     15  C   UNL     1      20.389  -1.418 -20.778  1.00  0.00     0.115 A 
ATOM     16  C   UNL     1      18.527  -1.281 -19.230  1.00  0.00     0.013 A 
ATOM     17  C   UNL     1      19.022  -1.227 -20.536  1.00  0.00     0.047 A 
BRANCH  15  18
ATOM     18  O   UNL     1      20.891  -1.374 -22.077  1.00  0.00    -0.508 OA
ATOM     19  H   UNL     1      21.881  -1.477 -22.266  1.00  0.00     0.293 HD
ENDBRANCH  15  18
ENDBRANCH   1  12
BRANCH  11  20
ATOM     20  C   UNL     1      17.358  -0.241 -12.064  1.00  0.00     0.188 C 
ATOM     21  C   UNL     1      15.927   0.371 -12.057  1.00  0.00     0.179 C 
ATOM     22  O   UNL     1      17.809  -0.482 -10.742  1.00  0.00    -0.362 OA
ATOM     23  C   UNL     1      15.560   0.981 -10.680  1.00  0.00     0.177 C 
ATOM     24  C   UNL     1      18.047   0.744 -10.068  1.00  0.00     0.176 C 
ATOM     25  C   UNL     1      16.773   1.647 -10.001  1.00  0.00     0.177 C 
BRANCH  21  26
ATOM     26  O   UNL     1      15.782   1.318 -13.088  1.00  0.00    -0.387 OA
ATOM     27  H   UNL     1      15.923   2.219 -12.699  1.00  0.00     0.211 HD
ENDBRANCH  21  26
BRANCH  23  28
ATOM     28  O   UNL     1      15.068  -0.026  -9.830  1.00  0.00    -0.387 OA
ATOM     29  H   UNL     1      15.106  -0.877 -10.338  1.00  0.00     0.211 HD
ENDBRANCH  23  28
BRANCH  24  30
ATOM     30  C   UNL     1      18.589   0.433  -8.665  1.00  0.00     0.191 C 
BRANCH  30  31
ATOM     31  O   UNL     1      17.622  -0.212  -7.879  1.00  0.00    -0.394 OA
ATOM     32  H   UNL     1      17.753  -1.188  -8.009  1.00  0.00     0.210 HD
ENDBRANCH  30  31
ENDBRANCH  24  30
BRANCH  25  33
ATOM     33  O   UNL     1      17.030   2.886 -10.614  1.00  0.00    -0.388 OA
ATOM     34  H   UNL     1      16.419   3.545 -10.187  1.00  0.00     0.211 HD
ENDBRANCH  25  33
ENDBRANCH  11  20
BRANCH  10  35
ATOM     35  O   UNL     1      16.252  -2.700 -11.014  1.00  0.00    -0.507 OA
ATOM     36  H   UNL     1      15.659  -3.449 -10.677  1.00  0.00     0.293 HD
ENDBRANCH  10  35
TORSDOF 9
ENDMDL
MODEL 8
REMARK VINA RESULT:    -6.024      4.184      9.222
REMARK INTER + INTRA:          -9.490
REMARK INTER:                  -9.109
REMARK INTRA:                  -0.380
REMARK UNBOUND:                -1.353
REMARK SMILES O=c1c(-c2ccc(O)cc2)coc2c([C@@H]3O[C@H](CO)[C@@H](O)[C@H](O)[C@H]3O)c(O)ccc12
REMARK SMILES IDX 3 1 11 2 12 3 13 4 30 5 2 6 1 7 29 8 28 9 26 10 14 11 4 12
REMARK SMILES IDX 5 13 6 14 7 15 10 16 9 17 8 18 15 20 24 21 16 22 22 23 17 24
REMARK SMILES IDX 20 25 25 26 23 28 18 30 19 31 21 33 27 35
REMARK H PARENT 8 19 25 27 23 29 19 32 21 34 27 36
REMARK Flexibility Score: inf
ROOT
ATOM      1  C   UNL     1      17.863  -2.383 -15.955  1.00  0.00     0.065 A 
ATOM      2  C   UNL     1      17.163  -1.347 -15.320  1.00  0.00     0.208 A 
ATOM      3  O   UNL     1      16.369  -1.595 -14.285  1.00  0.00    -0.463 OA
ATOM      4  C   UNL     1      16.186  -2.814 -13.783  1.00  0.00     0.147 A 
ATOM      5  C   UNL     1      16.853  -3.919 -14.364  1.00  0.00     0.066 A 
ATOM      6  C   UNL     1      17.694  -3.693 -15.467  1.00  0.00     0.200 A 
ATOM      7  O   UNL     1      18.275  -4.660 -16.033  1.00  0.00    -0.288 OA
ATOM      8  C   UNL     1      16.646  -5.207 -13.843  1.00  0.00     0.020 A 
ATOM      9  C   UNL     1      15.782  -5.398 -12.770  1.00  0.00     0.047 A 
ATOM     10  C   UNL     1      15.108  -4.315 -12.193  1.00  0.00     0.125 A 
ATOM     11  C   UNL     1      15.324  -3.004 -12.678  1.00  0.00     0.069 A 
ENDROOT
BRANCH   1  12
ATOM     12  C   UNL     1      18.734  -2.086 -17.120  1.00  0.00    -0.011 A 
ATOM     13  C   UNL     1      18.689  -2.887 -18.275  1.00  0.00     0.013 A 
ATOM     14  C   UNL     1      19.507  -2.596 -19.370  1.00  0.00     0.047 A 
ATOM     15  C   UNL     1      20.382  -1.507 -19.324  1.00  0.00     0.115 A 
ATOM     16  C   UNL     1      19.625  -0.998 -17.077  1.00  0.00     0.013 A 
ATOM     17  C   UNL     1      20.442  -0.709 -18.174  1.00  0.00     0.047 A 
BRANCH  15  18
ATOM     18  O   UNL     1      21.187  -1.223 -20.426  1.00  0.00    -0.508 OA
ATOM     19  H   UNL     1      22.146  -0.915 -20.316  1.00  0.00     0.293 HD
ENDBRANCH  15  18
ENDBRANCH   1  12
BRANCH  11  20
ATOM     20  C   UNL     1      14.572  -1.826 -12.074  1.00  0.00     0.188 C 
ATOM     21  C   UNL     1      15.563  -0.869 -11.349  1.00  0.00     0.179 C 
ATOM     22  O   UNL     1      13.868  -1.142 -13.095  1.00  0.00    -0.362 OA
ATOM     23  C   UNL     1      15.210   0.623 -11.584  1.00  0.00     0.177 C 
ATOM     24  C   UNL     1      12.966  -0.202 -12.533  1.00  0.00     0.176 C 
ATOM     25  C   UNL     1      13.687   0.855 -11.635  1.00  0.00     0.177 C 
BRANCH  21  26
ATOM     26  O   UNL     1      15.634  -1.166  -9.976  1.00  0.00    -0.387 OA
ATOM     27  H   UNL     1      14.910  -0.667  -9.517  1.00  0.00     0.211 HD
ENDBRANCH  21  26
BRANCH  23  28
ATOM     28  O   UNL     1      15.770   1.059 -12.797  1.00  0.00    -0.387 OA
ATOM     29  H   UNL     1      15.016   1.312 -13.390  1.00  0.00     0.211 HD
ENDBRANCH  23  28
BRANCH  24  30
ATOM     30  C   UNL     1      12.185   0.469 -13.673  1.00  0.00     0.191 C 
BRANCH  30  31
ATOM     31  O   UNL     1      12.898   0.411 -14.880  1.00  0.00    -0.394 OA
ATOM     32  H   UNL     1      12.744   1.275 -15.344  1.00  0.00     0.210 HD
ENDBRANCH  30  31
ENDBRANCH  24  30
BRANCH  25  33
ATOM     33  O   UNL     1      13.164   0.813 -10.330  1.00  0.00    -0.388 OA
ATOM     34  H   UNL     1      12.329   1.353 -10.343  1.00  0.00     0.211 HD
ENDBRANCH  25  33
ENDBRANCH  11  20
BRANCH  10  35
ATOM     35  O   UNL     1      14.219  -4.542 -11.143  1.00  0.00    -0.507 OA
ATOM     36  H   UNL     1      13.251  -4.789 -11.306  1.00  0.00     0.293 HD
ENDBRANCH  10  35
TORSDOF 9
ENDMDL
MODEL 9
REMARK VINA RESULT:    -5.919      5.305      7.587
REMARK INTER + INTRA:          -9.348
REMARK INTER:                  -8.171
REMARK INTRA:                  -1.177
REMARK UNBOUND:                -1.353
REMARK SMILES O=c1c(-c2ccc(O)cc2)coc2c([C@@H]3O[C@H](CO)[C@@H](O)[C@H](O)[C@H]3O)c(O)ccc12
REMARK SMILES IDX 3 1 11 2 12 3 13 4 30 5 2 6 1 7 29 8 28 9 26 10 14 11 4 12
REMARK SMILES IDX 5 13 6 14 7 15 10 16 9 17 8 18 15 20 24 21 16 22 22 23 17 24
REMARK SMILES IDX 20 25 25 26 23 28 18 30 19 31 21 33 27 35
REMARK H PARENT 8 19 25 27 23 29 19 32 21 34 27 36
REMARK Flexibility Score: inf
ROOT
ATOM      1  C   UNL     1      14.681  -0.026 -13.153  1.00  0.00     0.065 A 
ATOM      2  C   UNL     1      15.828   0.433 -12.491  1.00  0.00     0.208 A 
ATOM      3  O   UNL     1      16.482  -0.348 -11.639  1.00  0.00    -0.463 OA
ATOM      4  C   UNL     1      16.109  -1.594 -11.359  1.00  0.00     0.147 A 
ATOM      5  C   UNL     1      14.960  -2.138 -11.981  1.00  0.00     0.066 A 
ATOM      6  C   UNL     1      14.239  -1.335 -12.882  1.00  0.00     0.200 A 
ATOM      7  O   UNL     1      13.189  -1.776 -13.426  1.00  0.00    -0.288 OA
ATOM      8  C   UNL     1      14.558  -3.448 -11.673  1.00  0.00     0.020 A 
ATOM      9  C   UNL     1      15.277  -4.203 -10.752  1.00  0.00     0.047 A 
ATOM     10  C   UNL     1      16.410  -3.673 -10.122  1.00  0.00     0.125 A 
ATOM     11  C   UNL     1      16.854  -2.368 -10.440  1.00  0.00     0.069 A 
ENDROOT
BRANCH   1  12
ATOM     12  C   UNL     1      13.956   0.868 -14.091  1.00  0.00    -0.011 A 
ATOM     13  C   UNL     1      14.252   0.860 -15.466  1.00  0.00     0.013 A 
ATOM     14  C   UNL     1      13.560   1.700 -16.343  1.00  0.00     0.047 A 
ATOM     15  C   UNL     1      12.570   2.560 -15.859  1.00  0.00     0.115 A 
ATOM     16  C   UNL     1      12.966   1.744 -13.610  1.00  0.00     0.013 A 
ATOM     17  C   UNL     1      12.275   2.582 -14.490  1.00  0.00     0.047 A 
BRANCH  15  18
ATOM     18  O   UNL     1      11.882   3.386 -16.745  1.00  0.00    -0.508 OA
ATOM     19  H   UNL     1      11.460   4.256 -16.440  1.00  0.00     0.293 HD
ENDBRANCH  15  18
ENDBRANCH   1  12
BRANCH  11  20
ATOM     20  C   UNL     1      18.067  -1.775  -9.737  1.00  0.00     0.188 C 
ATOM     21  C   UNL     1      17.729  -1.461  -8.250  1.00  0.00     0.179 C 
ATOM     22  O   UNL     1      19.153  -2.682  -9.825  1.00  0.00    -0.362 OA
ATOM     23  C   UNL     1      18.900  -1.815  -7.298  1.00  0.00     0.177 C 
ATOM     24  C   UNL     1      20.356  -2.058  -9.405  1.00  0.00     0.176 C 
ATOM     25  C   UNL     1      20.273  -1.526  -7.937  1.00  0.00     0.177 C 
BRANCH  21  26
ATOM     26  O   UNL     1      17.337  -0.119  -8.098  1.00  0.00    -0.387 OA
ATOM     27  H   UNL     1      17.503   0.348  -8.957  1.00  0.00     0.211 HD
ENDBRANCH  21  26
BRANCH  23  28
ATOM     28  O   UNL     1      18.842  -3.179  -6.961  1.00  0.00    -0.387 OA
ATOM     29  H   UNL     1      17.883  -3.420  -6.892  1.00  0.00     0.211 HD
ENDBRANCH  23  28
BRANCH  24  30
ATOM     30  C   UNL     1      21.510  -3.057  -9.574  1.00  0.00     0.191 C 
BRANCH  30  31
ATOM     31  O   UNL     1      21.328  -3.855 -10.714  1.00  0.00    -0.394 OA
ATOM     32  H   UNL     1      20.489  -4.367 -10.573  1.00  0.00     0.210 HD
ENDBRANCH  30  31
ENDBRANCH  24  30
BRANCH  25  33
ATOM     33  O   UNL     1      20.516  -0.141  -7.914  1.00  0.00    -0.388 OA
ATOM     34  H   UNL     1      19.628   0.300  -7.840  1.00  0.00     0.211 HD
ENDBRANCH  25  33
ENDBRANCH  11  20
BRANCH  10  35
ATOM     35  O   UNL     1      17.089  -4.440  -9.176  1.00  0.00    -0.507 OA
ATOM     36  H   UNL     1      18.046  -4.237  -8.911  1.00  0.00     0.293 HD
ENDBRANCH  10  35
TORSDOF 9
ENDMDL
