MODEL 1
REMARK VINA RESULT:    -5.252      0.000      0.000
REMARK INTER + INTRA:          -6.648
REMARK INTER:                  -6.020
REMARK INTRA:                  -0.628
REMARK UNBOUND:                -0.628
REMARK SMILES C=C(C)[C@@H]1CC[C@@]2(C(=O)[O-])CC[C@@]3(C)[C@H](CC[C@@H]4[C@]5(C)CC[C@H](O)C(C)(C)[C@H]5CC[C@@]43C)[C@@H]12
REMARK SMILES IDX 7 1 6 2 33 3 11 4 5 5 15 6 4 7 12 8 16 9 13 10 17 11 31 12
REMARK SMILES IDX 14 13 18 14 30 15 32 16 19 17 29 18 21 19 20 20 28 21 22 22
REMARK SMILES IDX 25 23 23 24 26 25 27 26 8 27 9 28 10 29 2 30 3 31 1 32 24 33
REMARK H PARENT 24 34
REMARK Flexibility Score: inf
ROOT
ATOM      1  C   UNL     1      32.645  20.709  40.800  1.00  0.00     0.014 C 
ATOM      2  C   UNL     1      33.407  20.590  42.153  1.00  0.00     0.014 C 
ATOM      3  C   UNL     1      31.178  21.005  41.221  1.00  0.00     0.012 C 
ATOM      4  C   UNL     1      32.731  19.362  40.029  1.00  0.00     0.014 C 
ATOM      5  C   UNL     1      32.366  20.616  43.275  1.00  0.00     0.009 C 
ATOM      6  C   UNL     1      30.068  20.731  40.138  1.00  0.00     0.000 C 
ATOM      7  C   UNL     1      31.029  20.342  42.598  1.00  0.00     0.018 C 
ATOM      8  C   UNL     1      31.683  19.202  38.910  1.00  0.00     0.008 C 
ATOM      9  C   UNL     1      30.109  21.918  39.156  1.00  0.00     0.005 C 
ATOM     10  C   UNL     1      30.186  19.353  39.379  1.00  0.00    -0.024 C 
ATOM     11  C   UNL     1      29.048  21.851  38.094  1.00  0.00     0.005 C 
ATOM     12  C   UNL     1      29.167  19.269  38.100  1.00  0.00    -0.024 C 
ATOM     13  C   UNL     1      29.860  18.175  40.383  1.00  0.00     0.012 C 
ATOM     14  C   UNL     1      29.184  20.593  37.194  1.00  0.00     0.002 C 
ATOM     15  C   UNL     1      27.676  19.066  38.543  1.00  0.00     0.008 C 
ATOM     16  C   UNL     1      29.605  18.023  37.250  1.00  0.00     0.012 C 
ATOM     17  C   UNL     1      28.110  20.616  35.988  1.00  0.00    -0.026 C 
ATOM     18  C   UNL     1      26.650  19.009  37.388  1.00  0.00     0.005 C 
ATOM     19  C   UNL     1      28.017  22.039  35.327  1.00  0.00     0.010 C 
ATOM     20  C   UNL     1      28.613  19.638  34.869  1.00  0.00     0.012 C 
ATOM     21  C   UNL     1      26.665  20.289  36.530  1.00  0.00     0.003 C 
ATOM     22  C   UNL     1      26.919  22.170  34.255  1.00  0.00     0.033 C 
ATOM     23  C   UNL     1      25.484  20.408  35.477  1.00  0.00    -0.006 C 
ATOM     24  C   UNL     1      25.519  21.822  34.799  1.00  0.00     0.120 C 
ATOM     25  C   UNL     1      24.107  20.270  36.192  1.00  0.00     0.014 C 
ATOM     26  C   UNL     1      25.511  19.307  34.383  1.00  0.00     0.014 C 
ENDROOT
BRANCH   1  27
ATOM     27  C   UNL     1      33.251  21.852  39.996  1.00  0.00     0.048 C 
ATOM     28  O   UNL     1      34.082  21.634  39.071  1.00  0.00    -0.550 OA
ATOM     29  O   UNL     1      32.903  23.168  40.292  1.00  0.00    -0.550 OA
ENDBRANCH   1  27
BRANCH   7  30
ATOM     30  C   UNL     1      29.834  20.824  43.419  1.00  0.00    -0.077 C 
ATOM     31  C   UNL     1      28.604  19.951  43.540  1.00  0.00     0.039 C 
ATOM     32  C   UNL     1      29.845  22.010  44.056  1.00  0.00     0.008 C 
ENDBRANCH   7  30
BRANCH  24  33
ATOM     33  O   UNL     1      25.125  22.826  35.707  1.00  0.00    -0.393 OA
ATOM     34  H   UNL     1      24.830  22.382  36.545  1.00  0.00     0.210 HD
ENDBRANCH  24  33
TORSDOF 3
ENDMDL
MODEL 2
REMARK VINA RESULT:    -5.105      2.067      7.805
REMARK INTER + INTRA:          -6.479
REMARK INTER:                  -5.972
REMARK INTRA:                  -0.507
REMARK UNBOUND:                -0.628
REMARK SMILES C=C(C)[C@@H]1CC[C@@]2(C(=O)[O-])CC[C@@]3(C)[C@H](CC[C@@H]4[C@]5(C)CC[C@H](O)C(C)(C)[C@H]5CC[C@@]43C)[C@@H]12
REMARK SMILES IDX 7 1 6 2 33 3 11 4 5 5 15 6 4 7 12 8 16 9 13 10 17 11 31 12
REMARK SMILES IDX 14 13 18 14 30 15 32 16 19 17 29 18 21 19 20 20 28 21 22 22
REMARK SMILES IDX 25 23 23 24 26 25 27 26 8 27 9 28 10 29 2 30 3 31 1 32 24 33
REMARK H PARENT 24 34
REMARK Flexibility Score: inf
ROOT
ATOM      1  C   UNL     1      25.880  18.512  35.823  1.00  0.00     0.014 C 
ATOM      2  C   UNL     1      25.070  18.573  34.493  1.00  0.00     0.014 C 
ATOM      3  C   UNL     1      26.070  20.004  36.214  1.00  0.00     0.012 C 
ATOM      4  C   UNL     1      27.255  17.834  35.568  1.00  0.00     0.014 C 
ATOM      5  C   UNL     1      24.994  20.041  34.064  1.00  0.00     0.009 C 
ATOM      6  C   UNL     1      27.222  20.318  37.242  1.00  0.00     0.000 C 
ATOM      7  C   UNL     1      26.063  20.760  34.878  1.00  0.00     0.018 C 
ATOM      8  C   UNL     1      28.305  18.094  36.666  1.00  0.00     0.008 C 
ATOM      9  C   UNL     1      26.683  19.939  38.635  1.00  0.00     0.005 C 
ATOM     10  C   UNL     1      28.604  19.615  36.949  1.00  0.00    -0.024 C 
ATOM     11  C   UNL     1      27.639  20.254  39.751  1.00  0.00     0.005 C 
ATOM     12  C   UNL     1      29.650  19.777  38.198  1.00  0.00    -0.024 C 
ATOM     13  C   UNL     1      29.243  20.246  35.647  1.00  0.00     0.012 C 
ATOM     14  C   UNL     1      28.979  19.479  39.624  1.00  0.00     0.002 C 
ATOM     15  C   UNL     1      30.239  21.228  38.292  1.00  0.00     0.008 C 
ATOM     16  C   UNL     1      30.832  18.779  37.934  1.00  0.00     0.012 C 
ATOM     17  C   UNL     1      29.931  19.742  40.903  1.00  0.00    -0.026 C 
ATOM     18  C   UNL     1      31.214  21.466  39.468  1.00  0.00     0.005 C 
ATOM     19  C   UNL     1      29.121  19.679  42.247  1.00  0.00     0.010 C 
ATOM     20  C   UNL     1      30.990  18.586  40.966  1.00  0.00     0.012 C 
ATOM     21  C   UNL     1      30.558  21.188  40.834  1.00  0.00     0.003 C 
ATOM     22  C   UNL     1      29.939  20.048  43.499  1.00  0.00     0.033 C 
ATOM     23  C   UNL     1      31.411  21.635  42.095  1.00  0.00    -0.006 C 
ATOM     24  C   UNL     1      30.563  21.454  43.401  1.00  0.00     0.120 C 
ATOM     25  C   UNL     1      31.784  23.143  41.988  1.00  0.00     0.014 C 
ATOM     26  C   UNL     1      32.755  20.872  42.240  1.00  0.00     0.014 C 
ENDROOT
BRANCH   1  27
ATOM     27  C   UNL     1      25.064  17.749  36.857  1.00  0.00     0.048 C 
ATOM     28  O   UNL     1      25.597  16.875  37.598  1.00  0.00    -0.550 OA
ATOM     29  O   UNL     1      23.699  17.997  36.985  1.00  0.00    -0.550 OA
ENDBRANCH   1  27
BRANCH   7  30
ATOM     30  C   UNL     1      25.819  22.264  34.990  1.00  0.00    -0.077 C 
ATOM     31  C   UNL     1      24.789  22.788  35.967  1.00  0.00     0.039 C 
ATOM     32  C   UNL     1      26.508  23.150  34.245  1.00  0.00     0.008 C 
ENDBRANCH   7  30
BRANCH  24  33
ATOM     33  O   UNL     1      29.529  22.412  43.467  1.00  0.00    -0.393 OA
ATOM     34  H   UNL     1      29.515  22.784  44.388  1.00  0.00     0.210 HD
ENDBRANCH  24  33
TORSDOF 3
ENDMDL
MODEL 3
REMARK VINA RESULT:    -5.031      1.881      7.791
REMARK INTER + INTRA:          -6.395
REMARK INTER:                  -6.115
REMARK INTRA:                  -0.279
REMARK UNBOUND:                -0.628
REMARK SMILES C=C(C)[C@@H]1CC[C@@]2(C(=O)[O-])CC[C@@]3(C)[C@H](CC[C@@H]4[C@]5(C)CC[C@H](O)C(C)(C)[C@H]5CC[C@@]43C)[C@@H]12
REMARK SMILES IDX 7 1 6 2 33 3 11 4 5 5 15 6 4 7 12 8 16 9 13 10 17 11 31 12
REMARK SMILES IDX 14 13 18 14 30 15 32 16 19 17 29 18 21 19 20 20 28 21 22 22
REMARK SMILES IDX 25 23 23 24 26 25 27 26 8 27 9 28 10 29 2 30 3 31 1 32 24 33
REMARK H PARENT 24 34
REMARK Flexibility Score: inf
ROOT
ATOM      1  C   UNL     1      25.513  22.255  35.366  1.00  0.00     0.014 C 
ATOM      2  C   UNL     1      24.289  21.702  34.577  1.00  0.00     0.014 C 
ATOM      3  C   UNL     1      26.436  21.017  35.543  1.00  0.00     0.012 C 
ATOM      4  C   UNL     1      25.046  22.791  36.749  1.00  0.00     0.014 C 
ATOM      5  C   UNL     1      24.438  20.180  34.500  1.00  0.00     0.009 C 
ATOM      6  C   UNL     1      27.524  21.110  36.677  1.00  0.00     0.000 C 
ATOM      7  C   UNL     1      25.477  19.817  35.553  1.00  0.00     0.018 C 
ATOM      8  C   UNL     1      26.179  22.960  37.781  1.00  0.00     0.008 C 
ATOM      9  C   UNL     1      28.668  21.980  36.120  1.00  0.00     0.005 C 
ATOM     10  C   UNL     1      27.013  21.654  38.067  1.00  0.00    -0.024 C 
ATOM     11  C   UNL     1      29.835  22.105  37.057  1.00  0.00     0.005 C 
ATOM     12  C   UNL     1      28.249  21.970  39.094  1.00  0.00    -0.024 C 
ATOM     13  C   UNL     1      26.051  20.584  38.723  1.00  0.00     0.012 C 
ATOM     14  C   UNL     1      29.451  22.778  38.402  1.00  0.00     0.002 C 
ATOM     15  C   UNL     1      28.886  20.660  39.674  1.00  0.00     0.008 C 
ATOM     16  C   UNL     1      27.651  22.800  40.285  1.00  0.00     0.012 C 
ATOM     17  C   UNL     1      30.750  23.012  39.334  1.00  0.00    -0.026 C 
ATOM     18  C   UNL     1      30.082  20.878  40.629  1.00  0.00     0.005 C 
ATOM     19  C   UNL     1      31.961  23.570  38.503  1.00  0.00     0.010 C 
ATOM     20  C   UNL     1      30.395  24.109  40.397  1.00  0.00     0.012 C 
ATOM     21  C   UNL     1      31.235  21.645  39.954  1.00  0.00     0.003 C 
ATOM     22  C   UNL     1      33.273  23.695  39.300  1.00  0.00     0.033 C 
ATOM     23  C   UNL     1      32.586  21.700  40.786  1.00  0.00    -0.006 C 
ATOM     24  C   UNL     1      33.717  22.354  39.918  1.00  0.00     0.120 C 
ATOM     25  C   UNL     1      33.054  20.261  41.153  1.00  0.00     0.014 C 
ATOM     26  C   UNL     1      32.458  22.464  42.131  1.00  0.00     0.014 C 
ENDROOT
BRANCH   1  27
ATOM     27  C   UNL     1      26.176  23.349  34.539  1.00  0.00     0.048 C 
ATOM     28  O   UNL     1      26.813  23.077  33.483  1.00  0.00    -0.550 OA
ATOM     29  O   UNL     1      26.099  24.675  34.955  1.00  0.00    -0.550 OA
ENDBRANCH   1  27
BRANCH   7  30
ATOM     30  C   UNL     1      26.138  18.463  35.299  1.00  0.00    -0.077 C 
ATOM     31  C   UNL     1      27.639  18.378  35.130  1.00  0.00     0.039 C 
ATOM     32  C   UNL     1      25.418  17.327  35.232  1.00  0.00     0.008 C 
ENDBRANCH   7  30
BRANCH  24  33
ATOM     33  O   UNL     1      34.118  21.489  38.879  1.00  0.00    -0.393 OA
ATOM     34  H   UNL     1      33.300  21.096  38.476  1.00  0.00     0.210 HD
ENDBRANCH  24  33
TORSDOF 3
ENDMDL
MODEL 4
REMARK VINA RESULT:    -4.718      3.823      7.433
REMARK INTER + INTRA:          -6.036
REMARK INTER:                  -5.367
REMARK INTRA:                  -0.669
REMARK UNBOUND:                -0.628
REMARK SMILES C=C(C)[C@@H]1CC[C@@]2(C(=O)[O-])CC[C@@]3(C)[C@H](CC[C@@H]4[C@]5(C)CC[C@H](O)C(C)(C)[C@H]5CC[C@@]43C)[C@@H]12
REMARK SMILES IDX 7 1 6 2 33 3 11 4 5 5 15 6 4 7 12 8 16 9 13 10 17 11 31 12
REMARK SMILES IDX 14 13 18 14 30 15 32 16 19 17 29 18 21 19 20 20 28 21 22 22
REMARK SMILES IDX 25 23 23 24 26 25 27 26 8 27 9 28 10 29 2 30 3 31 1 32 24 33
REMARK H PARENT 24 34
REMARK Flexibility Score: inf
ROOT
ATOM      1  C   UNL     1      29.010  21.592  40.729  1.00  0.00     0.014 C 
ATOM      2  C   UNL     1      28.306  20.289  41.213  1.00  0.00     0.014 C 
ATOM      3  C   UNL     1      29.962  21.106  39.600  1.00  0.00     0.012 C 
ATOM      4  C   UNL     1      29.822  22.215  41.899  1.00  0.00     0.014 C 
ATOM      5  C   UNL     1      28.992  19.108  40.520  1.00  0.00     0.009 C 
ATOM      6  C   UNL     1      31.143  22.074  39.214  1.00  0.00     0.000 C 
ATOM      7  C   UNL     1      30.305  19.658  39.979  1.00  0.00     0.018 C 
ATOM      8  C   UNL     1      30.891  23.235  41.459  1.00  0.00     0.008 C 
ATOM      9  C   UNL     1      30.534  23.181  38.331  1.00  0.00     0.005 C 
ATOM     10  C   UNL     1      31.947  22.684  40.427  1.00  0.00    -0.024 C 
ATOM     11  C   UNL     1      31.551  24.153  37.806  1.00  0.00     0.005 C 
ATOM     12  C   UNL     1      32.966  23.873  39.951  1.00  0.00    -0.024 C 
ATOM     13  C   UNL     1      32.777  21.537  41.132  1.00  0.00     0.012 C 
ATOM     14  C   UNL     1      32.286  24.918  38.939  1.00  0.00     0.002 C 
ATOM     15  C   UNL     1      34.227  23.310  39.207  1.00  0.00     0.008 C 
ATOM     16  C   UNL     1      33.446  24.610  41.251  1.00  0.00     0.012 C 
ATOM     17  C   UNL     1      33.279  26.043  38.341  1.00  0.00    -0.026 C 
ATOM     18  C   UNL     1      35.222  24.378  38.699  1.00  0.00     0.005 C 
ATOM     19  C   UNL     1      32.600  26.848  37.174  1.00  0.00     0.010 C 
ATOM     20  C   UNL     1      33.582  27.079  39.479  1.00  0.00     0.012 C 
ATOM     21  C   UNL     1      34.564  25.370  37.721  1.00  0.00     0.003 C 
ATOM     22  C   UNL     1      33.532  27.850  36.469  1.00  0.00     0.033 C 
ATOM     23  C   UNL     1      35.568  26.346  36.974  1.00  0.00    -0.006 C 
ATOM     24  C   UNL     1      34.793  27.176  35.892  1.00  0.00     0.120 C 
ATOM     25  C   UNL     1      36.667  25.528  36.234  1.00  0.00     0.014 C 
ATOM     26  C   UNL     1      36.322  27.312  37.926  1.00  0.00     0.014 C 
ENDROOT
BRANCH   1  27
ATOM     27  C   UNL     1      27.952  22.555  40.209  1.00  0.00     0.048 C 
ATOM     28  O   UNL     1      27.636  23.594  40.855  1.00  0.00    -0.550 OA
ATOM     29  O   UNL     1      27.300  22.287  39.008  1.00  0.00    -0.550 OA
ENDBRANCH   1  27
BRANCH   7  30
ATOM     30  C   UNL     1      30.883  18.815  38.843  1.00  0.00    -0.077 C 
ATOM     31  C   UNL     1      32.333  18.385  38.888  1.00  0.00     0.039 C 
ATOM     32  C   UNL     1      30.130  18.427  37.796  1.00  0.00     0.008 C 
ENDBRANCH   7  30
BRANCH  24  33
ATOM     33  O   UNL     1      34.412  26.359  34.807  1.00  0.00    -0.393 OA
ATOM     34  H   UNL     1      33.820  25.643  35.158  1.00  0.00     0.210 HD
ENDBRANCH  24  33
TORSDOF 3
ENDMDL
MODEL 5
REMARK VINA RESULT:    -4.669      2.545      3.631
REMARK INTER + INTRA:          -5.979
REMARK INTER:                  -5.317
REMARK INTRA:                  -0.662
REMARK UNBOUND:                -0.628
REMARK SMILES C=C(C)[C@@H]1CC[C@@]2(C(=O)[O-])CC[C@@]3(C)[C@H](CC[C@@H]4[C@]5(C)CC[C@H](O)C(C)(C)[C@H]5CC[C@@]43C)[C@@H]12
REMARK SMILES IDX 7 1 6 2 33 3 11 4 5 5 15 6 4 7 12 8 16 9 13 10 17 11 31 12
REMARK SMILES IDX 14 13 18 14 30 15 32 16 19 17 29 18 21 19 20 20 28 21 22 22
REMARK SMILES IDX 25 23 23 24 26 25 27 26 8 27 9 28 10 29 2 30 3 31 1 32 24 33
REMARK H PARENT 24 34
REMARK Flexibility Score: inf
ROOT
ATOM      1  C   UNL     1      32.542  24.403  39.904  1.00  0.00     0.014 C 
ATOM      2  C   UNL     1      33.051  25.593  40.770  1.00  0.00     0.014 C 
ATOM      3  C   UNL     1      31.012  24.651  39.790  1.00  0.00     0.012 C 
ATOM      4  C   UNL     1      32.826  23.062  40.636  1.00  0.00     0.014 C 
ATOM      5  C   UNL     1      31.824  26.351  41.283  1.00  0.00     0.009 C 
ATOM      6  C   UNL     1      30.130  23.413  39.379  1.00  0.00     0.000 C 
ATOM      7  C   UNL     1      30.645  25.409  41.073  1.00  0.00     0.018 C 
ATOM      8  C   UNL     1      32.006  21.866  40.112  1.00  0.00     0.008 C 
ATOM      9  C   UNL     1      30.294  23.241  37.856  1.00  0.00     0.005 C 
ATOM     10  C   UNL     1      30.444  22.070  40.145  1.00  0.00    -0.024 C 
ATOM     11  C   UNL     1      29.448  22.140  37.283  1.00  0.00     0.005 C 
ATOM     12  C   UNL     1      29.678  20.787  39.474  1.00  0.00    -0.024 C 
ATOM     13  C   UNL     1      29.994  22.214  41.654  1.00  0.00     0.012 C 
ATOM     14  C   UNL     1      29.800  20.749  37.874  1.00  0.00     0.002 C 
ATOM     15  C   UNL     1      28.142  20.783  39.791  1.00  0.00     0.008 C 
ATOM     16  C   UNL     1      30.317  19.497  40.100  1.00  0.00     0.012 C 
ATOM     17  C   UNL     1      28.962  19.573  37.148  1.00  0.00    -0.026 C 
ATOM     18  C   UNL     1      27.345  19.616  39.164  1.00  0.00     0.005 C 
ATOM     19  C   UNL     1      28.927  19.770  35.590  1.00  0.00     0.010 C 
ATOM     20  C   UNL     1      29.702  18.215  37.410  1.00  0.00     0.012 C 
ATOM     21  C   UNL     1      27.459  19.593  37.627  1.00  0.00     0.003 C 
ATOM     22  C   UNL     1      28.037  18.759  34.843  1.00  0.00     0.033 C 
ATOM     23  C   UNL     1      26.483  18.577  36.895  1.00  0.00    -0.006 C 
ATOM     24  C   UNL     1      26.579  18.776  35.342  1.00  0.00     0.120 C 
ATOM     25  C   UNL     1      25.008  18.851  37.310  1.00  0.00     0.014 C 
ATOM     26  C   UNL     1      26.757  17.089  37.244  1.00  0.00     0.014 C 
ENDROOT
BRANCH   1  27
ATOM     27  C   UNL     1      33.232  24.456  38.547  1.00  0.00     0.048 C 
ATOM     28  O   UNL     1      34.147  23.639  38.245  1.00  0.00    -0.550 OA
ATOM     29  O   UNL     1      32.868  25.430  37.621  1.00  0.00    -0.550 OA
ENDBRANCH   1  27
BRANCH   7  30
ATOM     30  C   UNL     1      29.301  26.134  41.032  1.00  0.00    -0.077 C 
ATOM     31  C   UNL     1      29.087  27.266  40.050  1.00  0.00     0.039 C 
ATOM     32  C   UNL     1      28.284  25.786  41.843  1.00  0.00     0.008 C 
ENDBRANCH   7  30
BRANCH  24  33
ATOM     33  O   UNL     1      25.982  19.994  34.953  1.00  0.00    -0.393 OA
ATOM     34  H   UNL     1      25.146  20.105  35.477  1.00  0.00     0.210 HD
ENDBRANCH  24  33
TORSDOF 3
ENDMDL
MODEL 6
REMARK VINA RESULT:    -4.602      2.055      7.714
REMARK INTER + INTRA:          -5.903
REMARK INTER:                  -5.237
REMARK INTRA:                  -0.666
REMARK UNBOUND:                -0.628
REMARK SMILES C=C(C)[C@@H]1CC[C@@]2(C(=O)[O-])CC[C@@]3(C)[C@H](CC[C@@H]4[C@]5(C)CC[C@H](O)C(C)(C)[C@H]5CC[C@@]43C)[C@@H]12
REMARK SMILES IDX 7 1 6 2 33 3 11 4 5 5 15 6 4 7 12 8 16 9 13 10 17 11 31 12
REMARK SMILES IDX 14 13 18 14 30 15 32 16 19 17 29 18 21 19 20 20 28 21 22 22
REMARK SMILES IDX 25 23 23 24 26 25 27 26 8 27 9 28 10 29 2 30 3 31 1 32 24 33
REMARK H PARENT 24 34
REMARK Flexibility Score: inf
ROOT
ATOM      1  C   UNL     1      26.719  18.207  37.994  1.00  0.00     0.014 C 
ATOM      2  C   UNL     1      25.967  17.691  36.730  1.00  0.00     0.014 C 
ATOM      3  C   UNL     1      27.456  19.482  37.496  1.00  0.00     0.012 C 
ATOM      4  C   UNL     1      27.740  17.136  38.470  1.00  0.00     0.014 C 
ATOM      5  C   UNL     1      26.435  18.530  35.538  1.00  0.00     0.009 C 
ATOM      6  C   UNL     1      28.660  19.985  38.378  1.00  0.00     0.000 C 
ATOM      7  C   UNL     1      27.708  19.226  36.003  1.00  0.00     0.018 C 
ATOM      8  C   UNL     1      28.830  17.674  39.418  1.00  0.00     0.008 C 
ATOM      9  C   UNL     1      28.044  20.718  39.586  1.00  0.00     0.005 C 
ATOM     10  C   UNL     1      29.677  18.871  38.840  1.00  0.00    -0.024 C 
ATOM     11  C   UNL     1      29.067  21.336  40.496  1.00  0.00     0.005 C 
ATOM     12  C   UNL     1      30.730  19.430  39.962  1.00  0.00    -0.024 C 
ATOM     13  C   UNL     1      30.482  18.348  37.584  1.00  0.00     0.012 C 
ATOM     14  C   UNL     1      30.021  20.283  41.122  1.00  0.00     0.002 C 
ATOM     15  C   UNL     1      31.817  20.371  39.336  1.00  0.00     0.008 C 
ATOM     16  C   UNL     1      31.452  18.177  40.573  1.00  0.00     0.012 C 
ATOM     17  C   UNL     1      31.025  20.961  42.190  1.00  0.00    -0.026 C 
ATOM     18  C   UNL     1      32.831  20.964  40.342  1.00  0.00     0.005 C 
ATOM     19  C   UNL     1      30.272  21.980  43.121  1.00  0.00     0.010 C 
ATOM     20  C   UNL     1      31.579  19.830  43.124  1.00  0.00     0.012 C 
ATOM     21  C   UNL     1      32.142  21.790  41.446  1.00  0.00     0.003 C 
ATOM     22  C   UNL     1      31.190  22.762  44.079  1.00  0.00     0.033 C 
ATOM     23  C   UNL     1      33.122  22.624  42.374  1.00  0.00    -0.006 C 
ATOM     24  C   UNL     1      32.290  23.544  43.334  1.00  0.00     0.120 C 
ATOM     25  C   UNL     1      34.026  23.551  41.510  1.00  0.00     0.014 C 
ATOM     26  C   UNL     1      34.089  21.743  43.210  1.00  0.00     0.014 C 
ENDROOT
BRANCH   1  27
ATOM     27  C   UNL     1      25.696  18.525  39.076  1.00  0.00     0.048 C 
ATOM     28  O   UNL     1      25.573  17.791  40.098  1.00  0.00    -0.550 OA
ATOM     29  O   UNL     1      24.862  19.631  38.939  1.00  0.00    -0.550 OA
ENDBRANCH   1  27
BRANCH   7  30
ATOM     30  C   UNL     1      28.041  20.471  35.183  1.00  0.00    -0.077 C 
ATOM     31  C   UNL     1      26.970  21.506  34.918  1.00  0.00     0.039 C 
ATOM     32  C   UNL     1      29.277  20.686  34.693  1.00  0.00     0.008 C 
ENDBRANCH   7  30
BRANCH  24  33
ATOM     33  O   UNL     1      31.687  24.601  42.620  1.00  0.00    -0.393 OA
ATOM     34  H   UNL     1      31.377  25.276  43.279  1.00  0.00     0.210 HD
ENDBRANCH  24  33
TORSDOF 3
ENDMDL
MODEL 7
REMARK VINA RESULT:    -4.529      2.675      5.022
REMARK INTER + INTRA:          -5.819
REMARK INTER:                  -5.168
REMARK INTRA:                  -0.651
REMARK UNBOUND:                -0.628
REMARK SMILES C=C(C)[C@@H]1CC[C@@]2(C(=O)[O-])CC[C@@]3(C)[C@H](CC[C@@H]4[C@]5(C)CC[C@H](O)C(C)(C)[C@H]5CC[C@@]43C)[C@@H]12
REMARK SMILES IDX 7 1 6 2 33 3 11 4 5 5 15 6 4 7 12 8 16 9 13 10 17 11 31 12
REMARK SMILES IDX 14 13 18 14 30 15 32 16 19 17 29 18 21 19 20 20 28 21 22 22
REMARK SMILES IDX 25 23 23 24 26 25 27 26 8 27 9 28 10 29 2 30 3 31 1 32 24 33
REMARK H PARENT 24 34
REMARK Flexibility Score: inf
ROOT
ATOM      1  C   UNL     1      33.350  23.717  42.261  1.00  0.00     0.014 C 
ATOM      2  C   UNL     1      34.490  24.680  42.710  1.00  0.00     0.014 C 
ATOM      3  C   UNL     1      33.711  23.371  40.790  1.00  0.00     0.012 C 
ATOM      4  C   UNL     1      31.983  24.453  42.330  1.00  0.00     0.014 C 
ATOM      5  C   UNL     1      35.329  25.012  41.474  1.00  0.00     0.009 C 
ATOM      6  C   UNL     1      32.546  22.798  39.898  1.00  0.00     0.000 C 
ATOM      7  C   UNL     1      34.479  24.599  40.280  1.00  0.00     0.018 C 
ATOM      8  C   UNL     1      30.857  23.780  41.521  1.00  0.00     0.008 C 
ATOM      9  C   UNL     1      32.381  21.316  40.289  1.00  0.00     0.005 C 
ATOM     10  C   UNL     1      31.175  23.573  39.992  1.00  0.00    -0.024 C 
ATOM     11  C   UNL     1      31.352  20.593  39.467  1.00  0.00     0.005 C 
ATOM     12  C   UNL     1      29.960  22.761  39.253  1.00  0.00    -0.024 C 
ATOM     13  C   UNL     1      31.334  24.996  39.320  1.00  0.00     0.012 C 
ATOM     14  C   UNL     1      29.932  21.199  39.622  1.00  0.00     0.002 C 
ATOM     15  C   UNL     1      30.065  22.833  37.689  1.00  0.00     0.008 C 
ATOM     16  C   UNL     1      28.619  23.448  39.692  1.00  0.00     0.012 C 
ATOM     17  C   UNL     1      28.830  20.324  38.828  1.00  0.00    -0.026 C 
ATOM     18  C   UNL     1      28.968  22.062  36.921  1.00  0.00     0.005 C 
ATOM     19  C   UNL     1      29.047  18.784  39.054  1.00  0.00     0.010 C 
ATOM     20  C   UNL     1      27.418  20.666  39.420  1.00  0.00     0.012 C 
ATOM     21  C   UNL     1      28.954  20.562  37.274  1.00  0.00     0.003 C 
ATOM     22  C   UNL     1      28.113  17.884  38.224  1.00  0.00     0.033 C 
ATOM     23  C   UNL     1      28.021  19.663  36.357  1.00  0.00    -0.006 C 
ATOM     24  C   UNL     1      28.231  18.149  36.710  1.00  0.00     0.120 C 
ATOM     25  C   UNL     1      28.398  19.847  34.858  1.00  0.00     0.014 C 
ATOM     26  C   UNL     1      26.514  20.016  36.466  1.00  0.00     0.014 C 
ENDROOT
BRANCH   1  27
ATOM     27  C   UNL     1      33.368  22.487  43.159  1.00  0.00     0.048 C 
ATOM     28  O   UNL     1      34.313  21.651  43.107  1.00  0.00    -0.550 OA
ATOM     29  O   UNL     1      32.317  22.260  44.044  1.00  0.00    -0.550 OA
ENDBRANCH   1  27
BRANCH   7  30
ATOM     30  C   UNL     1      35.302  24.364  39.013  1.00  0.00    -0.077 C 
ATOM     31  C   UNL     1      34.747  24.779  37.669  1.00  0.00     0.039 C 
ATOM     32  C   UNL     1      36.525  23.803  39.059  1.00  0.00     0.008 C 
ENDBRANCH   7  30
BRANCH  24  33
ATOM     33  O   UNL     1      29.494  17.700  36.270  1.00  0.00    -0.393 OA
ATOM     34  H   UNL     1      29.350  16.916  35.678  1.00  0.00     0.210 HD
ENDBRANCH  24  33
TORSDOF 3
ENDMDL
MODEL 8
REMARK VINA RESULT:    -4.433      3.635      6.633
REMARK INTER + INTRA:          -5.709
REMARK INTER:                  -5.050
REMARK INTRA:                  -0.659
REMARK UNBOUND:                -0.628
REMARK SMILES C=C(C)[C@@H]1CC[C@@]2(C(=O)[O-])CC[C@@]3(C)[C@H](CC[C@@H]4[C@]5(C)CC[C@H](O)C(C)(C)[C@H]5CC[C@@]43C)[C@@H]12
REMARK SMILES IDX 7 1 6 2 33 3 11 4 5 5 15 6 4 7 12 8 16 9 13 10 17 11 31 12
REMARK SMILES IDX 14 13 18 14 30 15 32 16 19 17 29 18 21 19 20 20 28 21 22 22
REMARK SMILES IDX 25 23 23 24 26 25 27 26 8 27 9 28 10 29 2 30 3 31 1 32 24 33
REMARK H PARENT 24 34
REMARK Flexibility Score: inf
ROOT
ATOM      1  C   UNL     1      35.032  26.018  40.516  1.00  0.00     0.014 C 
ATOM      2  C   UNL     1      35.974  27.233  40.264  1.00  0.00     0.014 C 
ATOM      3  C   UNL     1      34.903  25.348  39.120  1.00  0.00     0.012 C 
ATOM      4  C   UNL     1      33.647  26.523  41.011  1.00  0.00     0.014 C 
ATOM      5  C   UNL     1      36.190  27.345  38.753  1.00  0.00     0.009 C 
ATOM      6  C   UNL     1      33.676  24.381  38.917  1.00  0.00     0.000 C 
ATOM      7  C   UNL     1      35.094  26.497  38.120  1.00  0.00     0.018 C 
ATOM      8  C   UNL     1      32.511  25.488  40.884  1.00  0.00     0.008 C 
ATOM      9  C   UNL     1      34.044  23.053  39.607  1.00  0.00     0.005 C 
ATOM     10  C   UNL     1      32.287  24.928  39.428  1.00  0.00    -0.024 C 
ATOM     11  C   UNL     1      33.004  21.983  39.438  1.00  0.00     0.005 C 
ATOM     12  C   UNL     1      31.133  23.767  39.426  1.00  0.00    -0.024 C 
ATOM     13  C   UNL     1      31.826  26.123  38.501  1.00  0.00     0.012 C 
ATOM     14  C   UNL     1      31.635  22.379  40.055  1.00  0.00     0.002 C 
ATOM     15  C   UNL     1      30.635  23.430  37.977  1.00  0.00     0.008 C 
ATOM     16  C   UNL     1      29.920  24.329  40.248  1.00  0.00     0.012 C 
ATOM     17  C   UNL     1      30.578  21.160  39.969  1.00  0.00    -0.026 C 
ATOM     18  C   UNL     1      29.565  22.317  37.893  1.00  0.00     0.005 C 
ATOM     19  C   UNL     1      31.243  19.792  40.364  1.00  0.00     0.010 C 
ATOM     20  C   UNL     1      29.444  21.425  41.020  1.00  0.00     0.012 C 
ATOM     21  C   UNL     1      30.059  20.986  38.489  1.00  0.00     0.003 C 
ATOM     22  C   UNL     1      30.328  18.567  40.179  1.00  0.00     0.033 C 
ATOM     23  C   UNL     1      29.114  19.738  38.227  1.00  0.00    -0.006 C 
ATOM     24  C   UNL     1      29.813  18.428  38.733  1.00  0.00     0.120 C 
ATOM     25  C   UNL     1      28.855  19.567  36.701  1.00  0.00     0.014 C 
ATOM     26  C   UNL     1      27.715  19.867  38.886  1.00  0.00     0.014 C 
ENDROOT
BRANCH   1  27
ATOM     27  C   UNL     1      35.686  25.095  41.536  1.00  0.00     0.048 C 
ATOM     28  O   UNL     1      36.718  24.426  41.247  1.00  0.00    -0.550 OA
ATOM     29  O   UNL     1      35.134  24.963  42.807  1.00  0.00    -0.550 OA
ENDBRANCH   1  27
BRANCH   7  30
ATOM     30  C   UNL     1      35.426  26.060  36.693  1.00  0.00    -0.077 C 
ATOM     31  C   UNL     1      34.388  26.205  35.602  1.00  0.00     0.039 C 
ATOM     32  C   UNL     1      36.632  25.555  36.371  1.00  0.00     0.008 C 
ENDBRANCH   7  30
BRANCH  24  33
ATOM     33  O   UNL     1      30.895  18.080  37.899  1.00  0.00    -0.393 OA
ATOM     34  H   UNL     1      31.199  18.903  37.434  1.00  0.00     0.210 HD
ENDBRANCH  24  33
TORSDOF 3
ENDMDL
MODEL 9
REMARK VINA RESULT:    -4.415      7.726     10.084
REMARK INTER + INTRA:          -5.689
REMARK INTER:                  -5.043
REMARK INTRA:                  -0.646
REMARK UNBOUND:                -0.628
REMARK SMILES C=C(C)[C@@H]1CC[C@@]2(C(=O)[O-])CC[C@@]3(C)[C@H](CC[C@@H]4[C@]5(C)CC[C@H](O)C(C)(C)[C@H]5CC[C@@]43C)[C@@H]12
REMARK SMILES IDX 7 1 6 2 33 3 11 4 5 5 15 6 4 7 12 8 16 9 13 10 17 11 31 12
REMARK SMILES IDX 14 13 18 14 30 15 32 16 19 17 29 18 21 19 20 20 28 21 22 22
REMARK SMILES IDX 25 23 23 24 26 25 27 26 8 27 9 28 10 29 2 30 3 31 1 32 24 33
REMARK H PARENT 24 34
REMARK Flexibility Score: inf
ROOT
ATOM      1  C   UNL     1      36.517  25.134  40.712  1.00  0.00     0.014 C 
ATOM      2  C   UNL     1      37.478  24.375  41.675  1.00  0.00     0.014 C 
ATOM      3  C   UNL     1      37.101  24.852  39.300  1.00  0.00     0.012 C 
ATOM      4  C   UNL     1      36.555  26.656  41.026  1.00  0.00     0.014 C 
ATOM      5  C   UNL     1      38.659  23.867  40.844  1.00  0.00     0.009 C 
ATOM      6  C   UNL     1      36.655  25.829  38.149  1.00  0.00     0.000 C 
ATOM      7  C   UNL     1      38.605  24.647  39.537  1.00  0.00     0.018 C 
ATOM      8  C   UNL     1      36.004  27.551  39.898  1.00  0.00     0.008 C 
ATOM      9  C   UNL     1      35.235  25.400  37.733  1.00  0.00     0.005 C 
ATOM     10  C   UNL     1      36.710  27.366  38.502  1.00  0.00    -0.024 C 
ATOM     11  C   UNL     1      34.686  26.188  36.577  1.00  0.00     0.005 C 
ATOM     12  C   UNL     1      35.982  28.285  37.359  1.00  0.00    -0.024 C 
ATOM     13  C   UNL     1      38.220  27.814  38.646  1.00  0.00     0.012 C 
ATOM     14  C   UNL     1      34.560  27.702  36.896  1.00  0.00     0.002 C 
ATOM     15  C   UNL     1      36.846  28.402  36.055  1.00  0.00     0.008 C 
ATOM     16  C   UNL     1      35.809  29.720  37.969  1.00  0.00     0.012 C 
ATOM     17  C   UNL     1      33.851  28.500  35.683  1.00  0.00    -0.026 C 
ATOM     18  C   UNL     1      36.208  29.230  34.916  1.00  0.00     0.005 C 
ATOM     19  C   UNL     1      32.608  27.716  35.127  1.00  0.00     0.010 C 
ATOM     20  C   UNL     1      33.305  29.858  36.247  1.00  0.00     0.012 C 
ATOM     21  C   UNL     1      34.848  28.658  34.471  1.00  0.00     0.003 C 
ATOM     22  C   UNL     1      31.960  28.353  33.884  1.00  0.00     0.033 C 
ATOM     23  C   UNL     1      34.244  29.305  33.153  1.00  0.00    -0.006 C 
ATOM     24  C   UNL     1      32.956  28.522  32.720  1.00  0.00     0.120 C 
ATOM     25  C   UNL     1      35.266  29.204  31.984  1.00  0.00     0.014 C 
ATOM     26  C   UNL     1      33.908  30.814  33.298  1.00  0.00     0.014 C 
ENDROOT
BRANCH   1  27
ATOM     27  C   UNL     1      35.113  24.566  40.875  1.00  0.00     0.048 C 
ATOM     28  O   UNL     1      34.220  25.195  41.508  1.00  0.00    -0.550 OA
ATOM     29  O   UNL     1      34.803  23.320  40.334  1.00  0.00    -0.550 OA
ENDBRANCH   1  27
BRANCH   7  30
ATOM     30  C   UNL     1      39.347  23.954  38.395  1.00  0.00    -0.077 C 
ATOM     31  C   UNL     1      39.195  22.462  38.196  1.00  0.00     0.039 C 
ATOM     32  C   UNL     1      40.134  24.640  37.544  1.00  0.00     0.008 C 
ENDBRANCH   7  30
BRANCH  24  33
ATOM     33  O   UNL     1      33.288  27.245  32.222  1.00  0.00    -0.393 OA
ATOM     34  H   UNL     1      34.250  27.254  31.975  1.00  0.00     0.210 HD
ENDBRANCH  24  33
TORSDOF 3
ENDMDL
