MODEL 1
REMARK VINA RESULT:    -6.052      0.000      0.000
REMARK INTER + INTRA:          -8.601
REMARK INTER:                  -7.644
REMARK INTRA:                  -0.957
REMARK UNBOUND:                -0.957
REMARK SMILES O[C@@H]1OC[C@@H](Cc2ccc3c(c2)OCO3)[C@H]1Cc1ccc2c(c1)OCO2
REMARK SMILES IDX 4 1 5 2 16 3 2 4 3 5 6 6 7 7 12 8 8 9 11 10 9 11 10 12 13 13
REMARK SMILES IDX 15 14 14 15 17 16 18 17 23 18 19 19 22 20 20 21 21 22 24 23
REMARK SMILES IDX 26 24 25 25 1 26
REMARK H PARENT 1 27
REMARK Flexibility Score: inf
ROOT
ATOM      1  C   UNL     1     -17.359   3.548 -38.083  1.00  0.00     0.168 C 
ATOM      2  C   UNL     1     -16.899   4.782 -37.306  1.00  0.00     0.028 C 
ATOM      3  C   UNL     1     -15.418   4.775 -37.652  1.00  0.00     0.055 C 
ATOM      4  C   UNL     1     -15.118   3.286 -37.750  1.00  0.00     0.250 C 
ATOM      5  O   UNL     1     -16.298   2.617 -38.145  1.00  0.00    -0.352 OA
ENDROOT
BRANCH   2   6
ATOM      6  C   UNL     1     -17.216   4.640 -35.794  1.00  0.00     0.042 C 
BRANCH   6   7
ATOM      7  C   UNL     1     -18.449   5.415 -35.406  1.00  0.00    -0.044 A 
ATOM      8  C   UNL     1     -18.362   6.806 -35.172  1.00  0.00     0.054 A 
ATOM      9  C   UNL     1     -19.702   4.760 -35.280  1.00  0.00     0.008 A 
ATOM     10  C   UNL     1     -19.527   7.485 -34.823  1.00  0.00     0.166 A 
ATOM     11  C   UNL     1     -20.855   5.485 -34.926  1.00  0.00     0.051 A 
ATOM     12  C   UNL     1     -20.720   6.852 -34.706  1.00  0.00     0.165 A 
ATOM     13  O   UNL     1     -19.688   8.829 -34.549  1.00  0.00    -0.454 OA
ATOM     14  O   UNL     1     -21.694   7.766 -34.352  1.00  0.00    -0.454 OA
ATOM     15  C   UNL     1     -21.071   9.054 -34.241  1.00  0.00     0.468 C 
ENDBRANCH   6   7
ENDBRANCH   2   6
BRANCH   3  16
ATOM     16  C   UNL     1     -14.456   5.534 -36.708  1.00  0.00     0.044 C 
BRANCH  16  17
ATOM     17  C   UNL     1     -13.579   6.516 -37.449  1.00  0.00    -0.044 A 
ATOM     18  C   UNL     1     -13.716   6.684 -38.846  1.00  0.00     0.054 A 
ATOM     19  C   UNL     1     -12.633   7.306 -36.742  1.00  0.00     0.008 A 
ATOM     20  C   UNL     1     -12.881   7.598 -39.483  1.00  0.00     0.166 A 
ATOM     21  C   UNL     1     -11.810   8.221 -37.425  1.00  0.00     0.051 A 
ATOM     22  C   UNL     1     -11.966   8.332 -38.802  1.00  0.00     0.165 A 
ATOM     23  O   UNL     1     -12.821   7.918 -40.825  1.00  0.00    -0.454 OA
ATOM     24  O   UNL     1     -11.285   9.150 -39.682  1.00  0.00    -0.454 OA
ATOM     25  C   UNL     1     -11.804   8.914 -40.999  1.00  0.00     0.468 C 
ENDBRANCH  16  17
ENDBRANCH   3  16
BRANCH   4  26
ATOM     26  O   UNL     1     -14.104   3.058 -38.691  1.00  0.00    -0.368 OA
ATOM     27  H   UNL     1     -14.522   3.163 -39.584  1.00  0.00     0.213 HD
ENDBRANCH   4  26
TORSDOF 5
ENDMDL
MODEL 2
REMARK VINA RESULT:    -6.021      2.890      5.865
REMARK INTER + INTRA:          -8.562
REMARK INTER:                  -6.799
REMARK INTRA:                  -1.762
REMARK UNBOUND:                -0.957
REMARK SMILES O[C@@H]1OC[C@@H](Cc2ccc3c(c2)OCO3)[C@H]1Cc1ccc2c(c1)OCO2
REMARK SMILES IDX 4 1 5 2 16 3 2 4 3 5 6 6 7 7 12 8 8 9 11 10 9 11 10 12 13 13
REMARK SMILES IDX 15 14 14 15 17 16 18 17 23 18 19 19 22 20 20 21 21 22 24 23
REMARK SMILES IDX 26 24 25 25 1 26
REMARK H PARENT 1 27
REMARK Flexibility Score: inf
ROOT
ATOM      1  C   UNL     1     -16.906   5.770 -35.996  1.00  0.00     0.168 C 
ATOM      2  C   UNL     1     -15.394   5.692 -36.210  1.00  0.00     0.028 C 
ATOM      3  C   UNL     1     -15.356   5.210 -37.652  1.00  0.00     0.055 C 
ATOM      4  C   UNL     1     -16.587   4.318 -37.726  1.00  0.00     0.250 C 
ATOM      5  O   UNL     1     -17.539   4.792 -36.795  1.00  0.00    -0.352 OA
ENDROOT
BRANCH   2   6
ATOM      6  C   UNL     1     -14.735   4.733 -35.184  1.00  0.00     0.042 C 
BRANCH   6   7
ATOM      7  C   UNL     1     -13.324   5.149 -34.857  1.00  0.00    -0.044 A 
ATOM      8  C   UNL     1     -12.439   4.226 -34.254  1.00  0.00     0.054 A 
ATOM      9  C   UNL     1     -12.872   6.461 -35.154  1.00  0.00     0.008 A 
ATOM     10  C   UNL     1     -11.142   4.648 -33.976  1.00  0.00     0.166 A 
ATOM     11  C   UNL     1     -11.551   6.847 -34.856  1.00  0.00     0.051 A 
ATOM     12  C   UNL     1     -10.718   5.903 -34.264  1.00  0.00     0.165 A 
ATOM     13  O   UNL     1     -10.111   3.934 -33.397  1.00  0.00    -0.454 OA
ATOM     14  O   UNL     1      -9.397   6.042 -33.881  1.00  0.00    -0.454 OA
ATOM     15  C   UNL     1      -8.966   4.795 -33.318  1.00  0.00     0.468 C 
ENDBRANCH   6   7
ENDBRANCH   2   6
BRANCH   3  16
ATOM     16  C   UNL     1     -14.065   4.514 -38.143  1.00  0.00     0.044 C 
BRANCH  16  17
ATOM     17  C   UNL     1     -13.070   5.492 -38.726  1.00  0.00    -0.044 A 
ATOM     18  C   UNL     1     -13.514   6.570 -39.526  1.00  0.00     0.054 A 
ATOM     19  C   UNL     1     -11.685   5.356 -38.445  1.00  0.00     0.008 A 
ATOM     20  C   UNL     1     -12.558   7.439 -40.044  1.00  0.00     0.166 A 
ATOM     21  C   UNL     1     -10.752   6.260 -38.987  1.00  0.00     0.051 A 
ATOM     22  C   UNL     1     -11.234   7.289 -39.788  1.00  0.00     0.165 A 
ATOM     23  O   UNL     1     -12.747   8.542 -40.854  1.00  0.00    -0.454 OA
ATOM     24  O   UNL     1     -10.525   8.288 -40.424  1.00  0.00    -0.454 OA
ATOM     25  C   UNL     1     -11.463   9.119 -41.125  1.00  0.00     0.468 C 
ENDBRANCH  16  17
ENDBRANCH   3  16
BRANCH   4  26
ATOM     26  O   UNL     1     -17.129   4.347 -39.018  1.00  0.00    -0.368 OA
ATOM     27  H   UNL     1     -16.897   5.233 -39.398  1.00  0.00     0.213 HD
ENDBRANCH   4  26
TORSDOF 5
ENDMDL
MODEL 3
REMARK VINA RESULT:    -5.971      2.944      8.060
REMARK INTER + INTRA:          -8.499
REMARK INTER:                  -7.011
REMARK INTRA:                  -1.488
REMARK UNBOUND:                -0.957
REMARK SMILES O[C@@H]1OC[C@@H](Cc2ccc3c(c2)OCO3)[C@H]1Cc1ccc2c(c1)OCO2
REMARK SMILES IDX 4 1 5 2 16 3 2 4 3 5 6 6 7 7 12 8 8 9 11 10 9 11 10 12 13 13
REMARK SMILES IDX 15 14 14 15 17 16 18 17 23 18 19 19 22 20 20 21 21 22 24 23
REMARK SMILES IDX 26 24 25 25 1 26
REMARK H PARENT 1 27
REMARK Flexibility Score: inf
ROOT
ATOM      1  C   UNL     1     -13.234   6.702 -41.125  1.00  0.00     0.168 C 
ATOM      2  C   UNL     1     -13.125   6.100 -39.724  1.00  0.00     0.028 C 
ATOM      3  C   UNL     1     -13.352   7.346 -38.882  1.00  0.00     0.055 C 
ATOM      4  C   UNL     1     -12.707   8.431 -39.733  1.00  0.00     0.250 C 
ATOM      5  O   UNL     1     -12.788   8.043 -41.090  1.00  0.00    -0.352 OA
ENDROOT
BRANCH   2   6
ATOM      6  C   UNL     1     -11.748   5.415 -39.516  1.00  0.00     0.042 C 
BRANCH   6   7
ATOM      7  C   UNL     1     -11.815   3.933 -39.782  1.00  0.00    -0.044 A 
ATOM      8  C   UNL     1     -12.594   3.102 -38.944  1.00  0.00     0.054 A 
ATOM      9  C   UNL     1     -11.107   3.363 -40.872  1.00  0.00     0.008 A 
ATOM     10  C   UNL     1     -12.634   1.740 -39.229  1.00  0.00     0.166 A 
ATOM     11  C   UNL     1     -11.177   1.981 -41.125  1.00  0.00     0.051 A 
ATOM     12  C   UNL     1     -11.957   1.204 -40.274  1.00  0.00     0.165 A 
ATOM     13  O   UNL     1     -13.317   0.742 -38.561  1.00  0.00    -0.454 OA
ATOM     14  O   UNL     1     -12.179  -0.160 -40.316  1.00  0.00    -0.454 OA
ATOM     15  C   UNL     1     -13.052  -0.499 -39.229  1.00  0.00     0.468 C 
ENDBRANCH   6   7
ENDBRANCH   2   6
BRANCH   3  16
ATOM     16  C   UNL     1     -12.843   7.329 -37.421  1.00  0.00     0.044 C 
BRANCH  16  17
ATOM     17  C   UNL     1     -13.585   6.329 -36.565  1.00  0.00    -0.044 A 
ATOM     18  C   UNL     1     -14.995   6.377 -36.469  1.00  0.00     0.054 A 
ATOM     19  C   UNL     1     -12.874   5.310 -35.877  1.00  0.00     0.008 A 
ATOM     20  C   UNL     1     -15.630   5.437 -35.663  1.00  0.00     0.166 A 
ATOM     21  C   UNL     1     -13.557   4.377 -35.075  1.00  0.00     0.051 A 
ATOM     22  C   UNL     1     -14.941   4.480 -34.993  1.00  0.00     0.165 A 
ATOM     23  O   UNL     1     -16.980   5.297 -35.406  1.00  0.00    -0.454 OA
ATOM     24  O   UNL     1     -15.822   3.691 -34.280  1.00  0.00    -0.454 OA
ATOM     25  C   UNL     1     -17.149   4.184 -34.517  1.00  0.00     0.468 C 
ENDBRANCH  16  17
ENDBRANCH   3  16
BRANCH   4  26
ATOM     26  O   UNL     1     -13.371   9.651 -39.546  1.00  0.00    -0.368 OA
ATOM     27  H   UNL     1     -14.137   9.652 -40.178  1.00  0.00     0.213 HD
ENDBRANCH   4  26
TORSDOF 5
ENDMDL
MODEL 4
REMARK VINA RESULT:    -5.928     12.389     14.125
REMARK INTER + INTRA:          -8.444
REMARK INTER:                  -6.549
REMARK INTRA:                  -1.896
REMARK UNBOUND:                -0.957
REMARK SMILES O[C@@H]1OC[C@@H](Cc2ccc3c(c2)OCO3)[C@H]1Cc1ccc2c(c1)OCO2
REMARK SMILES IDX 4 1 5 2 16 3 2 4 3 5 6 6 7 7 12 8 8 9 11 10 9 11 10 12 13 13
REMARK SMILES IDX 15 14 14 15 17 16 18 17 23 18 19 19 22 20 20 21 21 22 24 23
REMARK SMILES IDX 26 24 25 25 1 26
REMARK H PARENT 1 27
REMARK Flexibility Score: inf
ROOT
ATOM      1  C   UNL     1      -8.344   4.962 -25.829  1.00  0.00     0.168 C 
ATOM      2  C   UNL     1      -9.839   5.088 -25.534  1.00  0.00     0.028 C 
ATOM      3  C   UNL     1      -9.855   4.679 -24.070  1.00  0.00     0.055 C 
ATOM      4  C   UNL     1      -8.743   3.640 -24.014  1.00  0.00     0.250 C 
ATOM      5  O   UNL     1      -7.795   3.946 -25.016  1.00  0.00    -0.352 OA
ENDROOT
BRANCH   2   6
ATOM      6  C   UNL     1     -10.672   4.178 -26.474  1.00  0.00     0.042 C 
BRANCH   6   7
ATOM      7  C   UNL     1     -11.989   4.811 -26.842  1.00  0.00    -0.044 A 
ATOM      8  C   UNL     1     -13.030   4.013 -27.371  1.00  0.00     0.054 A 
ATOM      9  C   UNL     1     -12.198   6.202 -26.656  1.00  0.00     0.008 A 
ATOM     10  C   UNL     1     -14.233   4.636 -27.691  1.00  0.00     0.166 A 
ATOM     11  C   UNL     1     -13.431   6.791 -26.991  1.00  0.00     0.051 A 
ATOM     12  C   UNL     1     -14.425   5.966 -27.508  1.00  0.00     0.165 A 
ATOM     13  O   UNL     1     -15.381   4.072 -28.214  1.00  0.00    -0.454 OA
ATOM     14  O   UNL     1     -15.704   6.306 -27.908  1.00  0.00    -0.454 OA
ATOM     15  C   UNL     1     -16.355   5.114 -28.369  1.00  0.00     0.468 C 
ENDBRANCH   6   7
ENDBRANCH   2   6
BRANCH   3  16
ATOM     16  C   UNL     1     -11.193   4.177 -23.478  1.00  0.00     0.044 C 
BRANCH  16  17
ATOM     17  C   UNL     1     -12.094   5.312 -23.049  1.00  0.00    -0.044 A 
ATOM     18  C   UNL     1     -11.570   6.402 -22.316  1.00  0.00     0.054 A 
ATOM     19  C   UNL     1     -13.468   5.311 -23.409  1.00  0.00     0.008 A 
ATOM     20  C   UNL     1     -12.442   7.420 -21.940  1.00  0.00     0.166 A 
ATOM     21  C   UNL     1     -14.314   6.362 -23.010  1.00  0.00     0.051 A 
ATOM     22  C   UNL     1     -13.757   7.399 -22.270  1.00  0.00     0.165 A 
ATOM     23  O   UNL     1     -12.167   8.564 -21.217  1.00  0.00    -0.454 OA
ATOM     24  O   UNL     1     -14.376   8.528 -21.771  1.00  0.00    -0.454 OA
ATOM     25  C   UNL     1     -13.386   9.308 -21.083  1.00  0.00     0.468 C 
ENDBRANCH  16  17
ENDBRANCH   3  16
BRANCH   4  26
ATOM     26  O   UNL     1      -8.129   3.656 -22.755  1.00  0.00    -0.368 OA
ATOM     27  H   UNL     1      -7.349   4.265 -22.832  1.00  0.00     0.213 HD
ENDBRANCH   4  26
TORSDOF 5
ENDMDL
MODEL 5
REMARK VINA RESULT:    -5.865     13.328     16.094
REMARK INTER + INTRA:          -8.365
REMARK INTER:                  -7.370
REMARK INTRA:                  -0.995
REMARK UNBOUND:                -0.957
REMARK SMILES O[C@@H]1OC[C@@H](Cc2ccc3c(c2)OCO3)[C@H]1Cc1ccc2c(c1)OCO2
REMARK SMILES IDX 4 1 5 2 16 3 2 4 3 5 6 6 7 7 12 8 8 9 11 10 9 11 10 12 13 13
REMARK SMILES IDX 15 14 14 15 17 16 18 17 23 18 19 19 22 20 20 21 21 22 24 23
REMARK SMILES IDX 26 24 25 25 1 26
REMARK H PARENT 1 27
REMARK Flexibility Score: inf
ROOT
ATOM      1  C   UNL     1      -7.390   3.210 -23.790  1.00  0.00     0.168 C 
ATOM      2  C   UNL     1      -7.889   4.386 -24.629  1.00  0.00     0.028 C 
ATOM      3  C   UNL     1      -9.374   4.331 -24.306  1.00  0.00     0.055 C 
ATOM      4  C   UNL     1      -9.611   2.835 -24.145  1.00  0.00     0.250 C 
ATOM      5  O   UNL     1      -8.410   2.237 -23.702  1.00  0.00    -0.352 OA
ENDROOT
BRANCH   2   6
ATOM      6  C   UNL     1      -7.540   4.191 -26.128  1.00  0.00     0.042 C 
BRANCH   6   7
ATOM      7  C   UNL     1      -6.436   5.117 -26.571  1.00  0.00    -0.044 A 
ATOM      8  C   UNL     1      -6.627   6.516 -26.516  1.00  0.00     0.054 A 
ATOM      9  C   UNL     1      -5.201   4.595 -27.038  1.00  0.00     0.008 A 
ATOM     10  C   UNL     1      -5.579   7.336 -26.927  1.00  0.00     0.166 A 
ATOM     11  C   UNL     1      -4.168   5.461 -27.443  1.00  0.00     0.051 A 
ATOM     12  C   UNL     1      -4.402   6.830 -27.370  1.00  0.00     0.165 A 
ATOM     13  O   UNL     1      -5.531   8.716 -26.963  1.00  0.00    -0.454 OA
ATOM     14  O   UNL     1      -3.553   7.867 -27.708  1.00  0.00    -0.454 OA
ATOM     15  C   UNL     1      -4.242   9.101 -27.460  1.00  0.00     0.468 C 
ENDBRANCH   6   7
ENDBRANCH   2   6
BRANCH   3  16
ATOM     16  C   UNL     1     -10.351   5.003 -25.299  1.00  0.00     0.044 C 
BRANCH  16  17
ATOM     17  C   UNL     1     -11.294   5.965 -24.615  1.00  0.00    -0.044 A 
ATOM     18  C   UNL     1     -11.203   6.185 -23.221  1.00  0.00     0.054 A 
ATOM     19  C   UNL     1     -12.258   6.683 -25.372  1.00  0.00     0.008 A 
ATOM     20  C   UNL     1     -12.099   7.077 -22.637  1.00  0.00     0.166 A 
ATOM     21  C   UNL     1     -13.143   7.578 -24.742  1.00  0.00     0.051 A 
ATOM     22  C   UNL     1     -13.030   7.742 -23.366  1.00  0.00     0.165 A 
ATOM     23  O   UNL     1     -12.210   7.438 -21.309  1.00  0.00    -0.454 OA
ATOM     24  O   UNL     1     -13.773   8.553 -22.532  1.00  0.00    -0.454 OA
ATOM     25  C   UNL     1     -13.279   8.388 -21.195  1.00  0.00     0.468 C 
ENDBRANCH  16  17
ENDBRANCH   3  16
BRANCH   4  26
ATOM     26  O   UNL     1     -10.631   2.606 -23.211  1.00  0.00    -0.368 OA
ATOM     27  H   UNL     1     -10.483   3.251 -22.472  1.00  0.00     0.213 HD
ENDBRANCH   4  26
TORSDOF 5
ENDMDL
MODEL 6
REMARK VINA RESULT:    -5.850      3.974      8.465
REMARK INTER + INTRA:          -8.345
REMARK INTER:                  -6.387
REMARK INTRA:                  -1.959
REMARK UNBOUND:                -0.957
REMARK SMILES O[C@@H]1OC[C@@H](Cc2ccc3c(c2)OCO3)[C@H]1Cc1ccc2c(c1)OCO2
REMARK SMILES IDX 4 1 5 2 16 3 2 4 3 5 6 6 7 7 12 8 8 9 11 10 9 11 10 12 13 13
REMARK SMILES IDX 15 14 14 15 17 16 18 17 23 18 19 19 22 20 20 21 21 22 24 23
REMARK SMILES IDX 26 24 25 25 1 26
REMARK H PARENT 1 27
REMARK Flexibility Score: inf
ROOT
ATOM      1  C   UNL     1     -11.807   7.645 -41.028  1.00  0.00     0.168 C 
ATOM      2  C   UNL     1     -11.507   7.215 -39.592  1.00  0.00     0.028 C 
ATOM      3  C   UNL     1     -12.472   8.117 -38.839  1.00  0.00     0.055 C 
ATOM      4  C   UNL     1     -12.475   9.374 -39.699  1.00  0.00     0.250 C 
ATOM      5  O   UNL     1     -12.199   9.002 -41.034  1.00  0.00    -0.352 OA
ENDROOT
BRANCH   2   6
ATOM      6  C   UNL     1     -10.010   7.430 -39.247  1.00  0.00     0.042 C 
BRANCH   6   7
ATOM      7  C   UNL     1      -9.564   6.541 -38.114  1.00  0.00    -0.044 A 
ATOM      8  C   UNL     1      -8.679   7.042 -37.133  1.00  0.00     0.054 A 
ATOM      9  C   UNL     1     -10.030   5.203 -38.021  1.00  0.00     0.008 A 
ATOM     10  C   UNL     1      -8.298   6.190 -36.099  1.00  0.00     0.166 A 
ATOM     11  C   UNL     1      -9.621   4.376 -36.958  1.00  0.00     0.051 A 
ATOM     12  C   UNL     1      -8.750   4.914 -36.016  1.00  0.00     0.165 A 
ATOM     13  O   UNL     1      -7.453   6.450 -35.038  1.00  0.00    -0.454 OA
ATOM     14  O   UNL     1      -8.212   4.307 -34.897  1.00  0.00    -0.454 OA
ATOM     15  C   UNL     1      -7.370   5.263 -34.237  1.00  0.00     0.468 C 
ENDBRANCH   6   7
ENDBRANCH   2   6
BRANCH   3  16
ATOM     16  C   UNL     1     -12.178   8.398 -37.346  1.00  0.00     0.044 C 
BRANCH  16  17
ATOM     17  C   UNL     1     -12.615   7.262 -36.451  1.00  0.00    -0.044 A 
ATOM     18  C   UNL     1     -13.713   6.448 -36.814  1.00  0.00     0.054 A 
ATOM     19  C   UNL     1     -11.905   6.980 -35.253  1.00  0.00     0.008 A 
ATOM     20  C   UNL     1     -14.079   5.418 -35.952  1.00  0.00     0.166 A 
ATOM     21  C   UNL     1     -12.308   5.927 -34.412  1.00  0.00     0.051 A 
ATOM     22  C   UNL     1     -13.408   5.170 -34.800  1.00  0.00     0.165 A 
ATOM     23  O   UNL     1     -15.114   4.512 -36.086  1.00  0.00    -0.454 OA
ATOM     24  O   UNL     1     -13.986   4.097 -34.151  1.00  0.00    -0.454 OA
ATOM     25  C   UNL     1     -15.092   3.642 -34.946  1.00  0.00     0.468 C 
ENDBRANCH  16  17
ENDBRANCH   3  16
BRANCH   4  26
ATOM     26  O   UNL     1     -13.724  10.005 -39.629  1.00  0.00    -0.368 OA
ATOM     27  H   UNL     1     -13.979  10.015 -38.670  1.00  0.00     0.213 HD
ENDBRANCH   4  26
TORSDOF 5
ENDMDL
MODEL 7
REMARK VINA RESULT:    -5.832      2.953      4.952
REMARK INTER + INTRA:          -8.323
REMARK INTER:                  -6.829
REMARK INTRA:                  -1.494
REMARK UNBOUND:                -0.957
REMARK SMILES O[C@@H]1OC[C@@H](Cc2ccc3c(c2)OCO3)[C@H]1Cc1ccc2c(c1)OCO2
REMARK SMILES IDX 4 1 5 2 16 3 2 4 3 5 6 6 7 7 12 8 8 9 11 10 9 11 10 12 13 13
REMARK SMILES IDX 15 14 14 15 17 16 18 17 23 18 19 19 22 20 20 21 21 22 24 23
REMARK SMILES IDX 26 24 25 25 1 26
REMARK H PARENT 1 27
REMARK Flexibility Score: inf
ROOT
ATOM      1  C   UNL     1     -11.283   3.810 -34.538  1.00  0.00     0.168 C 
ATOM      2  C   UNL     1     -12.250   4.708 -35.310  1.00  0.00     0.028 C 
ATOM      3  C   UNL     1     -11.461   6.008 -35.309  1.00  0.00     0.055 C 
ATOM      4  C   UNL     1     -10.751   5.952 -33.963  1.00  0.00     0.250 C 
ATOM      5  O   UNL     1     -10.554   4.596 -33.618  1.00  0.00    -0.352 OA
ENDROOT
BRANCH   2   6
ATOM      6  C   UNL     1     -13.629   4.781 -34.604  1.00  0.00     0.042 C 
BRANCH   6   7
ATOM      7  C   UNL     1     -14.767   4.665 -35.586  1.00  0.00    -0.044 A 
ATOM      8  C   UNL     1     -14.980   3.450 -36.276  1.00  0.00     0.054 A 
ATOM      9  C   UNL     1     -15.633   5.765 -35.819  1.00  0.00     0.008 A 
ATOM     10  C   UNL     1     -16.047   3.383 -37.168  1.00  0.00     0.166 A 
ATOM     11  C   UNL     1     -16.700   5.654 -36.729  1.00  0.00     0.051 A 
ATOM     12  C   UNL     1     -16.871   4.439 -37.384  1.00  0.00     0.165 A 
ATOM     13  O   UNL     1     -16.449   2.316 -37.948  1.00  0.00    -0.454 OA
ATOM     14  O   UNL     1     -17.834   4.089 -38.311  1.00  0.00    -0.454 OA
ATOM     15  C   UNL     1     -17.599   2.728 -38.701  1.00  0.00     0.468 C 
ENDBRANCH   6   7
ENDBRANCH   2   6
BRANCH   3  16
ATOM     16  C   UNL     1     -12.243   7.323 -35.535  1.00  0.00     0.044 C 
BRANCH  16  17
ATOM     17  C   UNL     1     -12.256   7.743 -36.987  1.00  0.00    -0.044 A 
ATOM     18  C   UNL     1     -11.568   8.907 -37.401  1.00  0.00     0.054 A 
ATOM     19  C   UNL     1     -12.930   6.951 -37.955  1.00  0.00     0.008 A 
ATOM     20  C   UNL     1     -11.615   9.253 -38.748  1.00  0.00     0.166 A 
ATOM     21  C   UNL     1     -12.949   7.336 -39.308  1.00  0.00     0.051 A 
ATOM     22  C   UNL     1     -12.279   8.502 -39.661  1.00  0.00     0.165 A 
ATOM     23  O   UNL     1     -11.039  10.340 -39.377  1.00  0.00    -0.454 OA
ATOM     24  O   UNL     1     -12.156   9.079 -40.910  1.00  0.00    -0.454 OA
ATOM     25  C   UNL     1     -11.364  10.268 -40.772  1.00  0.00     0.468 C 
ENDBRANCH  16  17
ENDBRANCH   3  16
BRANCH   4  26
ATOM     26  O   UNL     1      -9.515   6.609 -34.040  1.00  0.00    -0.368 OA
ATOM     27  H   UNL     1      -9.002   6.333 -33.237  1.00  0.00     0.213 HD
ENDBRANCH   4  26
TORSDOF 5
ENDMDL
MODEL 8
REMARK VINA RESULT:    -5.665      7.369     11.103
REMARK INTER + INTRA:          -8.112
REMARK INTER:                  -7.169
REMARK INTRA:                  -0.943
REMARK UNBOUND:                -0.957
REMARK SMILES O[C@@H]1OC[C@@H](Cc2ccc3c(c2)OCO3)[C@H]1Cc1ccc2c(c1)OCO2
REMARK SMILES IDX 4 1 5 2 16 3 2 4 3 5 6 6 7 7 12 8 8 9 11 10 9 11 10 12 13 13
REMARK SMILES IDX 15 14 14 15 17 16 18 17 23 18 19 19 22 20 20 21 21 22 24 23
REMARK SMILES IDX 26 24 25 25 1 26
REMARK H PARENT 1 27
REMARK Flexibility Score: inf
ROOT
ATOM      1  C   UNL     1     -14.104  -3.538 -39.198  1.00  0.00     0.168 C 
ATOM      2  C   UNL     1     -12.807  -2.810 -38.843  1.00  0.00     0.028 C 
ATOM      3  C   UNL     1     -13.054  -1.477 -39.533  1.00  0.00     0.055 C 
ATOM      4  C   UNL     1     -13.853  -1.894 -40.759  1.00  0.00     0.250 C 
ATOM      5  O   UNL     1     -14.570  -3.072 -40.447  1.00  0.00    -0.352 OA
ENDROOT
BRANCH   2   6
ATOM      6  C   UNL     1     -11.570  -3.591 -39.357  1.00  0.00     0.042 C 
BRANCH   6   7
ATOM      7  C   UNL     1     -10.808  -4.239 -38.229  1.00  0.00    -0.044 A 
ATOM      8  C   UNL     1     -10.020  -5.385 -38.479  1.00  0.00     0.054 A 
ATOM      9  C   UNL     1     -10.870  -3.704 -36.916  1.00  0.00     0.008 A 
ATOM     10  C   UNL     1      -9.327  -5.948 -37.411  1.00  0.00     0.166 A 
ATOM     11  C   UNL     1     -10.152  -4.303 -35.865  1.00  0.00     0.051 A 
ATOM     12  C   UNL     1      -9.390  -5.429 -36.160  1.00  0.00     0.165 A 
ATOM     13  O   UNL     1      -8.502  -7.057 -37.410  1.00  0.00    -0.454 OA
ATOM     14  O   UNL     1      -8.608  -6.185 -35.307  1.00  0.00    -0.454 OA
ATOM     15  C   UNL     1      -8.016  -7.245 -36.073  1.00  0.00     0.468 C 
ENDBRANCH   6   7
ENDBRANCH   2   6
BRANCH   3  16
ATOM     16  C   UNL     1     -11.823  -0.604 -39.871  1.00  0.00     0.044 C 
BRANCH  16  17
ATOM     17  C   UNL     1     -12.088   0.869 -39.663  1.00  0.00    -0.044 A 
ATOM     18  C   UNL     1     -11.589   1.822 -40.581  1.00  0.00     0.054 A 
ATOM     19  C   UNL     1     -12.872   1.306 -38.561  1.00  0.00     0.008 A 
ATOM     20  C   UNL     1     -11.857   3.167 -40.341  1.00  0.00     0.166 A 
ATOM     21  C   UNL     1     -13.120   2.677 -38.358  1.00  0.00     0.051 A 
ATOM     22  C   UNL     1     -12.588   3.576 -39.275  1.00  0.00     0.165 A 
ATOM     23  O   UNL     1     -11.467   4.266 -41.081  1.00  0.00    -0.454 OA
ATOM     24  O   UNL     1     -12.693   4.953 -39.290  1.00  0.00    -0.454 OA
ATOM     25  C   UNL     1     -11.983   5.439 -40.439  1.00  0.00     0.468 C 
ENDBRANCH  16  17
ENDBRANCH   3  16
BRANCH   4  26
ATOM     26  O   UNL     1     -14.745  -0.876 -41.124  1.00  0.00    -0.368 OA
ATOM     27  H   UNL     1     -15.463  -1.311 -41.654  1.00  0.00     0.213 HD
ENDBRANCH   4  26
TORSDOF 5
ENDMDL
MODEL 9
REMARK VINA RESULT:    -5.483      8.371     11.222
REMARK INTER + INTRA:          -7.882
REMARK INTER:                  -5.984
REMARK INTRA:                  -1.897
REMARK UNBOUND:                -0.957
REMARK SMILES O[C@@H]1OC[C@@H](Cc2ccc3c(c2)OCO3)[C@H]1Cc1ccc2c(c1)OCO2
REMARK SMILES IDX 4 1 5 2 16 3 2 4 3 5 6 6 7 7 12 8 8 9 11 10 9 11 10 12 13 13
REMARK SMILES IDX 15 14 14 15 17 16 18 17 23 18 19 19 22 20 20 21 21 22 24 23
REMARK SMILES IDX 26 24 25 25 1 26
REMARK H PARENT 1 27
REMARK Flexibility Score: inf
ROOT
ATOM      1  C   UNL     1     -15.351  -2.745 -38.424  1.00  0.00     0.168 C 
ATOM      2  C   UNL     1     -13.939  -2.411 -38.905  1.00  0.00     0.028 C 
ATOM      3  C   UNL     1     -14.266  -1.441 -40.030  1.00  0.00     0.055 C 
ATOM      4  C   UNL     1     -15.575  -2.003 -40.568  1.00  0.00     0.250 C 
ATOM      5  O   UNL     1     -16.245  -2.663 -39.514  1.00  0.00    -0.352 OA
ENDROOT
BRANCH   2   6
ATOM      6  C   UNL     1     -13.183  -3.691 -39.347  1.00  0.00     0.042 C 
BRANCH   6   7
ATOM      7  C   UNL     1     -11.897  -3.873 -38.583  1.00  0.00    -0.044 A 
ATOM      8  C   UNL     1     -11.051  -4.966 -38.878  1.00  0.00     0.054 A 
ATOM      9  C   UNL     1     -11.523  -2.951 -37.570  1.00  0.00     0.008 A 
ATOM     10  C   UNL     1      -9.869  -5.093 -38.154  1.00  0.00     0.166 A 
ATOM     11  C   UNL     1     -10.318  -3.117 -36.863  1.00  0.00     0.051 A 
ATOM     12  C   UNL     1      -9.518  -4.207 -37.189  1.00  0.00     0.165 A 
ATOM     13  O   UNL     1      -8.895  -6.067 -38.263  1.00  0.00    -0.454 OA
ATOM     14  O   UNL     1      -8.305  -4.578 -36.642  1.00  0.00    -0.454 OA
ATOM     15  C   UNL     1      -7.867  -5.772 -37.306  1.00  0.00     0.468 C 
ENDBRANCH   6   7
ENDBRANCH   2   6
BRANCH   3  16
ATOM     16  C   UNL     1     -13.196  -1.223 -41.125  1.00  0.00     0.044 C 
BRANCH  16  17
ATOM     17  C   UNL     1     -11.915  -0.644 -40.570  1.00  0.00    -0.044 A 
ATOM     18  C   UNL     1     -11.949   0.493 -39.731  1.00  0.00     0.054 A 
ATOM     19  C   UNL     1     -10.668  -1.260 -40.859  1.00  0.00     0.008 A 
ATOM     20  C   UNL     1     -10.741   0.991 -39.250  1.00  0.00     0.166 A 
ATOM     21  C   UNL     1      -9.470  -0.725 -40.349  1.00  0.00     0.051 A 
ATOM     22  C   UNL     1      -9.553   0.409 -39.549  1.00  0.00     0.165 A 
ATOM     23  O   UNL     1     -10.525   2.085 -38.436  1.00  0.00    -0.454 OA
ATOM     24  O   UNL     1      -8.531   1.108 -38.939  1.00  0.00    -0.454 OA
ATOM     25  C   UNL     1      -9.114   2.199 -38.211  1.00  0.00     0.468 C 
ENDBRANCH  16  17
ENDBRANCH   3  16
BRANCH   4  26
ATOM     26  O   UNL     1     -16.376  -0.967 -41.068  1.00  0.00    -0.368 OA
ATOM     27  H   UNL     1     -16.651  -1.242 -41.981  1.00  0.00     0.213 HD
ENDBRANCH   4  26
TORSDOF 5
ENDMDL
