MODEL 1
REMARK VINA RESULT:    -4.669      0.000      0.000
REMARK INTER + INTRA:          -5.924
REMARK INTER:                  -5.761
REMARK INTRA:                  -0.163
REMARK UNBOUND:                -0.163
REMARK SMILES CCCCCC(=O)[O-]
REMARK SMILES IDX 4 1 5 2 6 3 7 4 8 5 3 6 2 7 1 8
REMARK H PARENT
REMARK Flexibility Score: inf
ROOT
ATOM      1  C   UNL     1      14.464  70.752  72.369  1.00  0.00     0.006 C 
ENDROOT
BRANCH   1   2
ATOM      2  C   UNL     1      13.410  71.863  72.290  1.00  0.00     0.053 C 
BRANCH   2   3
ATOM      3  C   UNL     1      12.040  71.274  72.169  1.00  0.00     0.041 C 
ATOM      4  O   UNL     1      11.118  71.650  72.939  1.00  0.00    -0.550 OA
ATOM      5  O   UNL     1      11.768  70.345  71.172  1.00  0.00    -0.550 OA
ENDBRANCH   2   3
ENDBRANCH   1   2
BRANCH   1   6
ATOM      6  C   UNL     1      14.240  69.807  73.560  1.00  0.00     0.000 C 
BRANCH   6   7
ATOM      7  C   UNL     1      14.643  70.439  74.900  1.00  0.00    -0.003 C 
ATOM      8  C   UNL     1      13.888  69.797  76.061  1.00  0.00     0.004 C 
ENDBRANCH   6   7
ENDBRANCH   1   6
TORSDOF 4
ENDMDL
MODEL 2
REMARK VINA RESULT:    -4.625      3.763      4.096
REMARK INTER + INTRA:          -5.869
REMARK INTER:                  -5.792
REMARK INTRA:                  -0.077
REMARK UNBOUND:                -0.163
REMARK SMILES CCCCCC(=O)[O-]
REMARK SMILES IDX 4 1 5 2 6 3 7 4 8 5 3 6 2 7 1 8
REMARK H PARENT
REMARK Flexibility Score: inf
ROOT
ATOM      1  C   UNL     1      15.441  71.199  72.464  1.00  0.00     0.006 C 
ENDROOT
BRANCH   1   2
ATOM      2  C   UNL     1      15.833  72.642  72.120  1.00  0.00     0.053 C 
BRANCH   2   3
ATOM      3  C   UNL     1      17.313  72.749  71.933  1.00  0.00     0.041 C 
ATOM      4  O   UNL     1      17.890  73.861  72.057  1.00  0.00    -0.550 OA
ATOM      5  O   UNL     1      18.065  71.610  71.669  1.00  0.00    -0.550 OA
ENDBRANCH   2   3
ENDBRANCH   1   2
BRANCH   1   6
ATOM      6  C   UNL     1      15.258  70.980  73.974  1.00  0.00     0.000 C 
BRANCH   6   7
ATOM      7  C   UNL     1      14.152  69.965  74.294  1.00  0.00    -0.003 C 
ATOM      8  C   UNL     1      13.962  69.814  75.801  1.00  0.00     0.004 C 
ENDBRANCH   6   7
ENDBRANCH   1   6
TORSDOF 4
ENDMDL
MODEL 3
REMARK VINA RESULT:    -4.564      3.501      4.035
REMARK INTER + INTRA:          -5.795
REMARK INTER:                  -5.695
REMARK INTRA:                  -0.100
REMARK UNBOUND:                -0.163
REMARK SMILES CCCCCC(=O)[O-]
REMARK SMILES IDX 4 1 5 2 6 3 7 4 8 5 3 6 2 7 1 8
REMARK H PARENT
REMARK Flexibility Score: inf
ROOT
ATOM      1  C   UNL     1      15.108  70.962  72.319  1.00  0.00     0.006 C 
ENDROOT
BRANCH   1   2
ATOM      2  C   UNL     1      16.349  71.498  73.045  1.00  0.00     0.053 C 
BRANCH   2   3
ATOM      3  C   UNL     1      17.298  72.115  72.067  1.00  0.00     0.041 C 
ATOM      4  O   UNL     1      18.306  71.474  71.671  1.00  0.00    -0.550 OA
ATOM      5  O   UNL     1      17.042  73.381  71.554  1.00  0.00    -0.550 OA
ENDBRANCH   2   3
ENDBRANCH   1   2
BRANCH   1   6
ATOM      6  C   UNL     1      14.319  69.951  73.165  1.00  0.00     0.000 C 
BRANCH   6   7
ATOM      7  C   UNL     1      13.671  70.591  74.401  1.00  0.00    -0.003 C 
ATOM      8  C   UNL     1      14.003  69.804  75.666  1.00  0.00     0.004 C 
ENDBRANCH   6   7
ENDBRANCH   1   6
TORSDOF 4
ENDMDL
MODEL 4
REMARK VINA RESULT:    -4.412      1.629      2.031
REMARK INTER + INTRA:          -5.606
REMARK INTER:                  -5.528
REMARK INTRA:                  -0.078
REMARK UNBOUND:                -0.163
REMARK SMILES CCCCCC(=O)[O-]
REMARK SMILES IDX 4 1 5 2 6 3 7 4 8 5 3 6 2 7 1 8
REMARK H PARENT
REMARK Flexibility Score: inf
ROOT
ATOM      1  C   UNL     1      13.040  71.064  72.820  1.00  0.00     0.006 C 
ENDROOT
BRANCH   1   2
ATOM      2  C   UNL     1      13.715  72.352  72.333  1.00  0.00     0.053 C 
BRANCH   2   3
ATOM      3  C   UNL     1      12.687  73.342  71.886  1.00  0.00     0.041 C 
ATOM      4  O   UNL     1      12.834  73.964  70.801  1.00  0.00    -0.550 OA
ATOM      5  O   UNL     1      11.538  73.543  72.643  1.00  0.00    -0.550 OA
ENDBRANCH   2   3
ENDBRANCH   1   2
BRANCH   1   6
ATOM      6  C   UNL     1      14.048  70.029  73.342  1.00  0.00     0.000 C 
BRANCH   6   7
ATOM      7  C   UNL     1      14.689  70.446  74.673  1.00  0.00    -0.003 C 
ATOM      8  C   UNL     1      13.947  69.834  75.858  1.00  0.00     0.004 C 
ENDBRANCH   6   7
ENDBRANCH   1   6
TORSDOF 4
ENDMDL
MODEL 5
REMARK VINA RESULT:    -4.385      8.937      9.944
REMARK INTER + INTRA:          -5.574
REMARK INTER:                  -5.518
REMARK INTRA:                  -0.055
REMARK UNBOUND:                -0.163
REMARK SMILES CCCCCC(=O)[O-]
REMARK SMILES IDX 4 1 5 2 6 3 7 4 8 5 3 6 2 7 1 8
REMARK H PARENT
REMARK Flexibility Score: inf
ROOT
ATOM      1  C   UNL     1      13.662  61.489  72.204  1.00  0.00     0.006 C 
ENDROOT
BRANCH   1   2
ATOM      2  C   UNL     1      12.986  61.978  73.491  1.00  0.00     0.053 C 
BRANCH   2   3
ATOM      3  C   UNL     1      13.551  61.268  74.680  1.00  0.00     0.041 C 
ATOM      4  O   UNL     1      13.631  60.012  74.690  1.00  0.00    -0.550 OA
ATOM      5  O   UNL     1      14.038  61.997  75.759  1.00  0.00    -0.550 OA
ENDBRANCH   2   3
ENDBRANCH   1   2
BRANCH   1   6
ATOM      6  C   UNL     1      13.996  62.636  71.238  1.00  0.00     0.000 C 
BRANCH   6   7
ATOM      7  C   UNL     1      14.339  62.140  69.826  1.00  0.00    -0.003 C 
ATOM      8  C   UNL     1      13.313  62.629  68.807  1.00  0.00     0.004 C 
ENDBRANCH   6   7
ENDBRANCH   1   6
TORSDOF 4
ENDMDL
MODEL 6
REMARK VINA RESULT:    -4.352      3.043      4.089
REMARK INTER + INTRA:          -5.532
REMARK INTER:                  -5.438
REMARK INTRA:                  -0.094
REMARK UNBOUND:                -0.163
REMARK SMILES CCCCCC(=O)[O-]
REMARK SMILES IDX 4 1 5 2 6 3 7 4 8 5 3 6 2 7 1 8
REMARK H PARENT
REMARK Flexibility Score: inf
ROOT
ATOM      1  C   UNL     1      15.441  71.857  72.466  1.00  0.00     0.006 C 
ENDROOT
BRANCH   1   2
ATOM      2  C   UNL     1      15.199  71.313  73.880  1.00  0.00     0.053 C 
BRANCH   2   3
ATOM      3  C   UNL     1      14.396  70.052  73.822  1.00  0.00     0.041 C 
ATOM      4  O   UNL     1      13.995  69.506  74.883  1.00  0.00    -0.550 OA
ATOM      5  O   UNL     1      14.046  69.506  72.593  1.00  0.00    -0.550 OA
ENDBRANCH   2   3
ENDBRANCH   1   2
BRANCH   1   6
ATOM      6  C   UNL     1      16.903  71.709  72.017  1.00  0.00     0.000 C 
BRANCH   6   7
ATOM      7  C   UNL     1      17.756  72.937  72.365  1.00  0.00    -0.003 C 
ATOM      8  C   UNL     1      17.773  73.939  71.214  1.00  0.00     0.004 C 
ENDBRANCH   6   7
ENDBRANCH   1   6
TORSDOF 4
ENDMDL
MODEL 7
REMARK VINA RESULT:    -4.309      8.905      9.667
REMARK INTER + INTRA:          -5.480
REMARK INTER:                  -5.384
REMARK INTRA:                  -0.095
REMARK UNBOUND:                -0.163
REMARK SMILES CCCCCC(=O)[O-]
REMARK SMILES IDX 4 1 5 2 6 3 7 4 8 5 3 6 2 7 1 8
REMARK H PARENT
REMARK Flexibility Score: inf
ROOT
ATOM      1  C   UNL     1      21.078  70.913  72.390  1.00  0.00     0.006 C 
ENDROOT
BRANCH   1   2
ATOM      2  C   UNL     1      22.194  71.823  71.861  1.00  0.00     0.053 C 
BRANCH   2   3
ATOM      3  C   UNL     1      23.282  71.958  72.880  1.00  0.00     0.041 C 
ATOM      4  O   UNL     1      23.805  73.081  73.103  1.00  0.00    -0.550 OA
ATOM      5  O   UNL     1      23.684  70.852  73.619  1.00  0.00    -0.550 OA
ENDBRANCH   2   3
ENDBRANCH   1   2
BRANCH   1   6
ATOM      6  C   UNL     1      20.931  69.620  71.573  1.00  0.00     0.000 C 
BRANCH   6   7
ATOM      7  C   UNL     1      20.222  69.846  70.230  1.00  0.00    -0.003 C 
ATOM      8  C   UNL     1      20.199  68.568  69.397  1.00  0.00     0.004 C 
ENDBRANCH   6   7
ENDBRANCH   1   6
TORSDOF 4
ENDMDL
MODEL 8
REMARK VINA RESULT:    -4.241      7.376      8.195
REMARK INTER + INTRA:          -5.396
REMARK INTER:                  -5.195
REMARK INTRA:                  -0.201
REMARK UNBOUND:                -0.163
REMARK SMILES CCCCCC(=O)[O-]
REMARK SMILES IDX 4 1 5 2 6 3 7 4 8 5 3 6 2 7 1 8
REMARK H PARENT
REMARK Flexibility Score: inf
ROOT
ATOM      1  C   UNL     1       6.842  73.777  78.110  1.00  0.00     0.006 C 
ENDROOT
BRANCH   1   2
ATOM      2  C   UNL     1       6.425  73.993  76.649  1.00  0.00     0.053 C 
BRANCH   2   3
ATOM      3  C   UNL     1       5.214  73.177  76.327  1.00  0.00     0.041 C 
ATOM      4  O   UNL     1       4.474  72.746  77.250  1.00  0.00    -0.550 OA
ATOM      5  O   UNL     1       4.873  72.932  75.002  1.00  0.00    -0.550 OA
ENDBRANCH   2   3
ENDBRANCH   1   2
BRANCH   1   6
ATOM      6  C   UNL     1       8.259  73.197  78.240  1.00  0.00     0.000 C 
BRANCH   6   7
ATOM      7  C   UNL     1       8.374  71.780  77.662  1.00  0.00    -0.003 C 
ATOM      8  C   UNL     1       7.600  70.775  78.511  1.00  0.00     0.004 C 
ENDBRANCH   6   7
ENDBRANCH   1   6
TORSDOF 4
ENDMDL
MODEL 9
REMARK VINA RESULT:    -4.127      2.078      3.368
REMARK INTER + INTRA:          -5.255
REMARK INTER:                  -5.163
REMARK INTRA:                  -0.091
REMARK UNBOUND:                -0.163
REMARK SMILES CCCCCC(=O)[O-]
REMARK SMILES IDX 4 1 5 2 6 3 7 4 8 5 3 6 2 7 1 8
REMARK H PARENT
REMARK Flexibility Score: inf
ROOT
ATOM      1  C   UNL     1      15.215  70.551  72.363  1.00  0.00     0.006 C 
ENDROOT
BRANCH   1   2
ATOM      2  C   UNL     1      14.044  70.345  73.333  1.00  0.00     0.053 C 
BRANCH   2   3
ATOM      3  C   UNL     1      12.774  70.863  72.734  1.00  0.00     0.041 C 
ATOM      4  O   UNL     1      12.380  70.438  71.617  1.00  0.00    -0.550 OA
ATOM      5  O   UNL     1      12.000  71.781  73.435  1.00  0.00    -0.550 OA
ENDBRANCH   2   3
ENDBRANCH   1   2
BRANCH   1   6
ATOM      6  C   UNL     1      15.749  71.992  72.379  1.00  0.00     0.000 C 
BRANCH   6   7
ATOM      7  C   UNL     1      17.241  72.073  72.028  1.00  0.00    -0.003 C 
ATOM      8  C   UNL     1      17.644  73.500  71.663  1.00  0.00     0.004 C 
ENDBRANCH   6   7
ENDBRANCH   1   6
TORSDOF 4
ENDMDL
