MODEL 1
REMARK VINA RESULT:    -4.981      0.000      0.000
REMARK INTER + INTRA:         -13.110
REMARK INTER:                 -10.806
REMARK INTRA:                  -2.305
REMARK UNBOUND:                -2.305
REMARK SMILES CCCCCCCCCCCCCCCCCCCCCC(=O)[O-]
REMARK SMILES IDX 12 1 11 2 10 3 9 4 8 5 7 6 6 7 5 8 4 9 3 10 2 11 1 12 13 13
REMARK SMILES IDX 14 14 15 15 16 16 17 17 18 18 19 19 20 20 21 21 22 22 23 23
REMARK SMILES IDX 24 24
REMARK H PARENT
REMARK Flexibility Score: inf
ROOT
ATOM      1  C   UNL     1      -8.249  35.110   5.605  1.00  0.00     0.000 C 
ENDROOT
BRANCH   1   2
ATOM      2  C   UNL     1      -9.075  36.390   5.400  1.00  0.00     0.000 C 
BRANCH   2   3
ATOM      3  C   UNL     1      -8.680  37.521   6.365  1.00  0.00     0.000 C 
BRANCH   3   4
ATOM      4  C   UNL     1      -9.395  38.864   6.118  1.00  0.00    -0.000 C 
BRANCH   4   5
ATOM      5  C   UNL     1     -10.802  38.754   5.503  1.00  0.00    -0.000 C 
BRANCH   5   6
ATOM      6  C   UNL     1     -11.693  39.962   5.830  1.00  0.00    -0.000 C 
BRANCH   6   7
ATOM      7  C   UNL     1     -12.700  39.620   6.940  1.00  0.00    -0.000 C 
BRANCH   7   8
ATOM      8  C   UNL     1     -12.060  39.586   8.341  1.00  0.00    -0.000 C 
BRANCH   8   9
ATOM      9  C   UNL     1     -12.282  38.278   9.122  1.00  0.00    -0.000 C 
BRANCH   9  10
ATOM     10  C   UNL     1     -12.575  37.042   8.252  1.00  0.00    -0.000 C 
BRANCH  10  11
ATOM     11  C   UNL     1     -11.640  35.846   8.532  1.00  0.00    -0.003 C 
ATOM     12  C   UNL     1     -10.375  36.255   9.287  1.00  0.00     0.004 C 
ENDBRANCH  10  11
ENDBRANCH   9  10
ENDBRANCH   8   9
ENDBRANCH   7   8
ENDBRANCH   6   7
ENDBRANCH   5   6
ENDBRANCH   4   5
ENDBRANCH   3   4
ENDBRANCH   2   3
ENDBRANCH   1   2
BRANCH   1  13
ATOM     13  C   UNL     1      -9.041  34.075   6.414  1.00  0.00     0.000 C 
BRANCH  13  14
ATOM     14  C   UNL     1      -8.304  32.729   6.466  1.00  0.00     0.000 C 
BRANCH  14  15
ATOM     15  C   UNL     1      -6.815  32.911   6.156  1.00  0.00     0.000 C 
BRANCH  15  16
ATOM     16  C   UNL     1      -6.076  31.563   6.163  1.00  0.00     0.000 C 
BRANCH  16  17
ATOM     17  C   UNL     1      -7.007  30.386   5.823  1.00  0.00     0.000 C 
BRANCH  17  18
ATOM     18  C   UNL     1      -6.268  29.036   5.799  1.00  0.00     0.000 C 
BRANCH  18  19
ATOM     19  C   UNL     1      -5.107  29.033   4.788  1.00  0.00     0.000 C 
BRANCH  19  20
ATOM     20  C   UNL     1      -3.773  28.577   5.412  1.00  0.00     0.006 C 
BRANCH  20  21
ATOM     21  C   UNL     1      -3.957  28.048   6.843  1.00  0.00     0.053 C 
BRANCH  21  22
ATOM     22  C   UNL     1      -3.142  28.850   7.809  1.00  0.00     0.041 C 
ATOM     23  O   UNL     1      -3.142  30.108   7.745  1.00  0.00    -0.550 OA
ATOM     24  O   UNL     1      -2.337  28.208   8.744  1.00  0.00    -0.550 OA
ENDBRANCH  21  22
ENDBRANCH  20  21
ENDBRANCH  19  20
ENDBRANCH  18  19
ENDBRANCH  17  18
ENDBRANCH  16  17
ENDBRANCH  15  16
ENDBRANCH  14  15
ENDBRANCH  13  14
ENDBRANCH   1  13
TORSDOF 20
ENDMDL
MODEL 2
REMARK VINA RESULT:    -4.907      0.941      2.628
REMARK INTER + INTRA:         -12.949
REMARK INTER:                 -10.574
REMARK INTRA:                  -2.375
REMARK UNBOUND:                -2.305
REMARK SMILES CCCCCCCCCCCCCCCCCCCCCC(=O)[O-]
REMARK SMILES IDX 12 1 11 2 10 3 9 4 8 5 7 6 6 7 5 8 4 9 3 10 2 11 1 12 13 13
REMARK SMILES IDX 14 14 15 15 16 16 17 17 18 18 19 19 20 20 21 21 22 22 23 23
REMARK SMILES IDX 24 24
REMARK H PARENT
REMARK Flexibility Score: inf
ROOT
ATOM      1  C   UNL     1      -8.741  34.959   5.250  1.00  0.00     0.000 C 
ENDROOT
BRANCH   1   2
ATOM      2  C   UNL     1     -10.121  35.170   5.894  1.00  0.00     0.000 C 
BRANCH   2   3
ATOM      3  C   UNL     1     -10.213  34.596   7.319  1.00  0.00     0.000 C 
BRANCH   3   4
ATOM      4  C   UNL     1     -11.133  35.379   8.276  1.00  0.00    -0.000 C 
BRANCH   4   5
ATOM      5  C   UNL     1     -10.432  36.454   9.126  1.00  0.00    -0.000 C 
BRANCH   5   6
ATOM      6  C   UNL     1     -11.406  37.507   9.677  1.00  0.00    -0.000 C 
BRANCH   6   7
ATOM      7  C   UNL     1     -12.252  38.120   8.550  1.00  0.00    -0.000 C 
BRANCH   7   8
ATOM      8  C   UNL     1     -11.588  39.350   7.903  1.00  0.00    -0.000 C 
BRANCH   8   9
ATOM      9  C   UNL     1     -11.570  39.342   6.363  1.00  0.00    -0.000 C 
BRANCH   9  10
ATOM     10  C   UNL     1     -10.233  38.911   5.730  1.00  0.00    -0.000 C 
BRANCH  10  11
ATOM     11  C   UNL     1      -9.074  38.795   6.743  1.00  0.00    -0.003 C 
ATOM     12  C   UNL     1      -7.765  38.351   6.090  1.00  0.00     0.004 C 
ENDBRANCH  10  11
ENDBRANCH   9  10
ENDBRANCH   8   9
ENDBRANCH   7   8
ENDBRANCH   6   7
ENDBRANCH   5   6
ENDBRANCH   4   5
ENDBRANCH   3   4
ENDBRANCH   2   3
ENDBRANCH   1   2
BRANCH   1  13
ATOM     13  C   UNL     1      -7.855  34.077   6.138  1.00  0.00     0.000 C 
BRANCH  13  14
ATOM     14  C   UNL     1      -7.444  32.790   5.409  1.00  0.00     0.000 C 
BRANCH  14  15
ATOM     15  C   UNL     1      -8.542  31.728   5.518  1.00  0.00     0.000 C 
BRANCH  15  16
ATOM     16  C   UNL     1      -7.966  30.375   5.967  1.00  0.00     0.000 C 
BRANCH  16  17
ATOM     17  C   UNL     1      -6.428  30.378   5.996  1.00  0.00     0.000 C 
BRANCH  17  18
ATOM     18  C   UNL     1      -5.818  29.309   5.071  1.00  0.00     0.000 C 
BRANCH  18  19
ATOM     19  C   UNL     1      -5.928  27.895   5.674  1.00  0.00     0.000 C 
BRANCH  19  20
ATOM     20  C   UNL     1      -4.815  27.596   6.698  1.00  0.00     0.006 C 
BRANCH  20  21
ATOM     21  C   UNL     1      -3.522  28.366   6.387  1.00  0.00     0.053 C 
BRANCH  21  22
ATOM     22  C   UNL     1      -3.012  29.054   7.614  1.00  0.00     0.041 C 
ATOM     23  O   UNL     1      -3.210  30.288   7.778  1.00  0.00    -0.550 OA
ATOM     24  O   UNL     1      -2.266  28.347   8.552  1.00  0.00    -0.550 OA
ENDBRANCH  21  22
ENDBRANCH  20  21
ENDBRANCH  19  20
ENDBRANCH  18  19
ENDBRANCH  17  18
ENDBRANCH  16  17
ENDBRANCH  15  16
ENDBRANCH  14  15
ENDBRANCH  13  14
ENDBRANCH   1  13
TORSDOF 20
ENDMDL
MODEL 3
REMARK VINA RESULT:    -4.886      2.790      6.066
REMARK INTER + INTRA:         -12.904
REMARK INTER:                  -9.487
REMARK INTRA:                  -3.417
REMARK UNBOUND:                -2.305
REMARK SMILES CCCCCCCCCCCCCCCCCCCCCC(=O)[O-]
REMARK SMILES IDX 12 1 11 2 10 3 9 4 8 5 7 6 6 7 5 8 4 9 3 10 2 11 1 12 13 13
REMARK SMILES IDX 14 14 15 15 16 16 17 17 18 18 19 19 20 20 21 21 22 22 23 23
REMARK SMILES IDX 24 24
REMARK H PARENT
REMARK Flexibility Score: inf
ROOT
ATOM      1  C   UNL     1     -12.501  39.543   8.852  1.00  0.00     0.000 C 
ENDROOT
BRANCH   1   2
ATOM      2  C   UNL     1     -12.159  38.858  10.185  1.00  0.00     0.000 C 
BRANCH   2   3
ATOM      3  C   UNL     1     -12.191  37.322  10.096  1.00  0.00     0.000 C 
BRANCH   3   4
ATOM      4  C   UNL     1     -10.817  36.656   9.889  1.00  0.00    -0.000 C 
BRANCH   4   5
ATOM      5  C   UNL     1     -10.644  35.911   8.552  1.00  0.00    -0.000 C 
BRANCH   5   6
ATOM      6  C   UNL     1     -11.885  36.009   7.651  1.00  0.00    -0.000 C 
BRANCH   6   7
ATOM      7  C   UNL     1     -12.274  34.629   7.096  1.00  0.00    -0.000 C 
BRANCH   7   8
ATOM      8  C   UNL     1     -11.982  33.482   8.082  1.00  0.00    -0.000 C 
BRANCH   8   9
ATOM      9  C   UNL     1     -13.125  33.165   9.064  1.00  0.00    -0.000 C 
BRANCH   9  10
ATOM     10  C   UNL     1     -12.809  33.449  10.545  1.00  0.00    -0.000 C 
BRANCH  10  11
ATOM     11  C   UNL     1     -11.913  32.380  11.206  1.00  0.00    -0.003 C 
ATOM     12  C   UNL     1     -10.450  32.815  11.299  1.00  0.00     0.004 C 
ENDBRANCH  10  11
ENDBRANCH   9  10
ENDBRANCH   8   9
ENDBRANCH   7   8
ENDBRANCH   6   7
ENDBRANCH   5   6
ENDBRANCH   4   5
ENDBRANCH   3   4
ENDBRANCH   2   3
ENDBRANCH   1   2
BRANCH   1  13
ATOM     13  C   UNL     1     -11.275  39.583   7.931  1.00  0.00     0.000 C 
BRANCH  13  14
ATOM     14  C   UNL     1     -11.682  39.442   6.458  1.00  0.00     0.000 C 
BRANCH  14  15
ATOM     15  C   UNL     1     -10.542  38.834   5.634  1.00  0.00     0.000 C 
BRANCH  15  16
ATOM     16  C   UNL     1      -9.204  38.923   6.384  1.00  0.00     0.000 C 
BRANCH  16  17
ATOM     17  C   UNL     1      -8.334  37.672   6.177  1.00  0.00     0.000 C 
BRANCH  17  18
ATOM     18  C   UNL     1      -9.086  36.544   5.447  1.00  0.00     0.000 C 
BRANCH  18  19
ATOM     19  C   UNL     1      -8.187  35.319   5.198  1.00  0.00     0.000 C 
BRANCH  19  20
ATOM     20  C   UNL     1      -8.637  34.077   5.994  1.00  0.00     0.006 C 
BRANCH  20  21
ATOM     21  C   UNL     1      -8.089  32.775   5.390  1.00  0.00     0.053 C 
BRANCH  21  22
ATOM     22  C   UNL     1      -7.783  31.783   6.468  1.00  0.00     0.041 C 
ATOM     23  O   UNL     1      -6.788  31.955   7.222  1.00  0.00    -0.550 OA
ATOM     24  O   UNL     1      -8.560  30.638   6.605  1.00  0.00    -0.550 OA
ENDBRANCH  21  22
ENDBRANCH  20  21
ENDBRANCH  19  20
ENDBRANCH  18  19
ENDBRANCH  17  18
ENDBRANCH  16  17
ENDBRANCH  15  16
ENDBRANCH  14  15
ENDBRANCH  13  14
ENDBRANCH   1  13
TORSDOF 20
ENDMDL
MODEL 4
REMARK VINA RESULT:    -4.881     14.188     17.008
REMARK INTER + INTRA:         -12.893
REMARK INTER:                  -9.434
REMARK INTRA:                  -3.459
REMARK UNBOUND:                -2.305
REMARK SMILES CCCCCCCCCCCCCCCCCCCCCC(=O)[O-]
REMARK SMILES IDX 12 1 11 2 10 3 9 4 8 5 7 6 6 7 5 8 4 9 3 10 2 11 1 12 13 13
REMARK SMILES IDX 14 14 15 15 16 16 17 17 18 18 19 19 20 20 21 21 22 22 23 23
REMARK SMILES IDX 24 24
REMARK H PARENT
REMARK Flexibility Score: inf
ROOT
ATOM      1  C   UNL     1       0.357  46.257  -0.302  1.00  0.00     0.000 C 
ENDROOT
BRANCH   1   2
ATOM      2  C   UNL     1       1.589  46.041   0.591  1.00  0.00     0.000 C 
BRANCH   2   3
ATOM      3  C   UNL     1       2.772  45.405  -0.161  1.00  0.00     0.000 C 
BRANCH   3   4
ATOM      4  C   UNL     1       3.240  44.046   0.397  1.00  0.00    -0.000 C 
BRANCH   4   5
ATOM      5  C   UNL     1       3.713  43.032  -0.661  1.00  0.00    -0.000 C 
BRANCH   5   6
ATOM      6  C   UNL     1       5.221  42.747  -0.581  1.00  0.00    -0.000 C 
BRANCH   6   7
ATOM      7  C   UNL     1       5.550  41.356  -1.145  1.00  0.00    -0.000 C 
BRANCH   7   8
ATOM      8  C   UNL     1       6.786  40.717  -0.484  1.00  0.00    -0.000 C 
BRANCH   8   9
ATOM      9  C   UNL     1       6.802  40.780   1.055  1.00  0.00    -0.000 C 
BRANCH   9  10
ATOM     10  C   UNL     1       5.874  39.771   1.757  1.00  0.00    -0.000 C 
BRANCH  10  11
ATOM     11  C   UNL     1       4.987  40.398   2.853  1.00  0.00    -0.003 C 
ATOM     12  C   UNL     1       3.651  40.905   2.309  1.00  0.00     0.004 C 
ENDBRANCH  10  11
ENDBRANCH   9  10
ENDBRANCH   8   9
ENDBRANCH   7   8
ENDBRANCH   6   7
ENDBRANCH   5   6
ENDBRANCH   4   5
ENDBRANCH   3   4
ENDBRANCH   2   3
ENDBRANCH   1   2
BRANCH   1  13
ATOM     13  C   UNL     1       0.544  45.575  -1.663  1.00  0.00     0.000 C 
BRANCH  13  14
ATOM     14  C   UNL     1      -0.747  44.883  -2.120  1.00  0.00     0.000 C 
BRANCH  14  15
ATOM     15  C   UNL     1      -1.136  43.760  -1.153  1.00  0.00     0.000 C 
BRANCH  15  16
ATOM     16  C   UNL     1      -0.091  42.633  -1.161  1.00  0.00     0.000 C 
BRANCH  16  17
ATOM     17  C   UNL     1       0.099  42.005   0.230  1.00  0.00     0.000 C 
BRANCH  17  18
ATOM     18  C   UNL     1      -0.327  42.950   1.369  1.00  0.00     0.000 C 
BRANCH  18  19
ATOM     19  C   UNL     1       0.406  42.633   2.685  1.00  0.00     0.000 C 
BRANCH  19  20
ATOM     20  C   UNL     1       0.939  43.897   3.390  1.00  0.00     0.006 C 
BRANCH  20  21
ATOM     21  C   UNL     1      -0.135  44.569   4.260  1.00  0.00     0.053 C 
BRANCH  21  22
ATOM     22  C   UNL     1       0.417  45.788   4.930  1.00  0.00     0.041 C 
ATOM     23  O   UNL     1       1.381  46.413   4.412  1.00  0.00    -0.550 OA
ATOM     24  O   UNL     1      -0.093  46.202   6.155  1.00  0.00    -0.550 OA
ENDBRANCH  21  22
ENDBRANCH  20  21
ENDBRANCH  19  20
ENDBRANCH  18  19
ENDBRANCH  17  18
ENDBRANCH  16  17
ENDBRANCH  15  16
ENDBRANCH  14  15
ENDBRANCH  13  14
ENDBRANCH   1  13
TORSDOF 20
ENDMDL
MODEL 5
REMARK VINA RESULT:    -4.824      2.632      9.188
REMARK INTER + INTRA:         -12.769
REMARK INTER:                 -10.642
REMARK INTRA:                  -2.127
REMARK UNBOUND:                -2.305
REMARK SMILES CCCCCCCCCCCCCCCCCCCCCC(=O)[O-]
REMARK SMILES IDX 12 1 11 2 10 3 9 4 8 5 7 6 6 7 5 8 4 9 3 10 2 11 1 12 13 13
REMARK SMILES IDX 14 14 15 15 16 16 17 17 18 18 19 19 20 20 21 21 22 22 23 23
REMARK SMILES IDX 24 24
REMARK H PARENT
REMARK Flexibility Score: inf
ROOT
ATOM      1  C   UNL     1      -8.657  36.825   5.795  1.00  0.00     0.000 C 
ENDROOT
BRANCH   1   2
ATOM      2  C   UNL     1      -9.703  35.699   5.794  1.00  0.00     0.000 C 
BRANCH   2   3
ATOM      3  C   UNL     1      -9.122  34.341   5.362  1.00  0.00     0.000 C 
BRANCH   3   4
ATOM      4  C   UNL     1      -7.641  34.123   5.727  1.00  0.00    -0.000 C 
BRANCH   4   5
ATOM      5  C   UNL     1      -7.246  32.663   6.019  1.00  0.00    -0.000 C 
BRANCH   5   6
ATOM      6  C   UNL     1      -5.935  32.547   6.811  1.00  0.00    -0.000 C 
BRANCH   6   7
ATOM      7  C   UNL     1      -5.123  31.324   6.356  1.00  0.00    -0.000 C 
BRANCH   7   8
ATOM      8  C   UNL     1      -6.004  30.200   5.778  1.00  0.00    -0.000 C 
BRANCH   8   9
ATOM      9  C   UNL     1      -5.283  28.857   5.564  1.00  0.00    -0.000 C 
BRANCH   9  10
ATOM     10  C   UNL     1      -3.809  28.831   6.012  1.00  0.00    -0.000 C 
BRANCH  10  11
ATOM     11  C   UNL     1      -3.545  27.925   7.234  1.00  0.00    -0.003 C 
ATOM     12  C   UNL     1      -2.446  28.473   8.144  1.00  0.00     0.004 C 
ENDBRANCH  10  11
ENDBRANCH   9  10
ENDBRANCH   8   9
ENDBRANCH   7   8
ENDBRANCH   6   7
ENDBRANCH   5   6
ENDBRANCH   4   5
ENDBRANCH   3   4
ENDBRANCH   2   3
ENDBRANCH   1   2
BRANCH   1  13
ATOM     13  C   UNL     1      -9.286  38.151   6.243  1.00  0.00     0.000 C 
BRANCH  13  14
ATOM     14  C   UNL     1     -10.506  38.506   5.383  1.00  0.00     0.000 C 
BRANCH  14  15
ATOM     15  C   UNL     1     -11.392  39.535   6.093  1.00  0.00     0.000 C 
BRANCH  15  16
ATOM     16  C   UNL     1     -11.564  39.189   7.580  1.00  0.00     0.000 C 
BRANCH  16  17
ATOM     17  C   UNL     1     -12.860  38.407   7.852  1.00  0.00     0.000 C 
BRANCH  17  18
ATOM     18  C   UNL     1     -12.687  37.338   8.946  1.00  0.00     0.000 C 
BRANCH  18  19
ATOM     19  C   UNL     1     -11.222  37.219   9.409  1.00  0.00     0.000 C 
BRANCH  19  20
ATOM     20  C   UNL     1     -10.625  35.822   9.145  1.00  0.00     0.006 C 
BRANCH  20  21
ATOM     21  C   UNL     1     -11.712  34.741   9.036  1.00  0.00     0.053 C 
BRANCH  21  22
ATOM     22  C   UNL     1     -11.114  33.377   9.181  1.00  0.00     0.041 C 
ATOM     23  O   UNL     1     -10.282  32.957   8.332  1.00  0.00    -0.550 OA
ATOM     24  O   UNL     1     -11.516  32.545  10.220  1.00  0.00    -0.550 OA
ENDBRANCH  21  22
ENDBRANCH  20  21
ENDBRANCH  19  20
ENDBRANCH  18  19
ENDBRANCH  17  18
ENDBRANCH  16  17
ENDBRANCH  15  16
ENDBRANCH  14  15
ENDBRANCH  13  14
ENDBRANCH   1  13
TORSDOF 20
ENDMDL
MODEL 6
REMARK VINA RESULT:    -4.808      3.280     10.446
REMARK INTER + INTRA:         -12.733
REMARK INTER:                 -11.106
REMARK INTRA:                  -1.627
REMARK UNBOUND:                -2.305
REMARK SMILES CCCCCCCCCCCCCCCCCCCCCC(=O)[O-]
REMARK SMILES IDX 12 1 11 2 10 3 9 4 8 5 7 6 6 7 5 8 4 9 3 10 2 11 1 12 13 13
REMARK SMILES IDX 14 14 15 15 16 16 17 17 18 18 19 19 20 20 21 21 22 22 23 23
REMARK SMILES IDX 24 24
REMARK H PARENT
REMARK Flexibility Score: inf
ROOT
ATOM      1  C   UNL     1      -7.910  32.817   6.495  1.00  0.00     0.000 C 
ENDROOT
BRANCH   1   2
ATOM      2  C   UNL     1      -8.646  31.472   6.377  1.00  0.00     0.000 C 
BRANCH   2   3
ATOM      3  C   UNL     1      -7.693  30.285   6.146  1.00  0.00     0.000 C 
BRANCH   3   4
ATOM      4  C   UNL     1      -8.389  28.923   5.957  1.00  0.00    -0.000 C 
BRANCH   4   5
ATOM      5  C   UNL     1      -7.737  27.994   4.916  1.00  0.00    -0.000 C 
BRANCH   5   6
ATOM      6  C   UNL     1      -6.793  28.738   3.959  1.00  0.00    -0.000 C 
BRANCH   6   7
ATOM      7  C   UNL     1      -5.330  28.337   4.203  1.00  0.00    -0.000 C 
BRANCH   7   8
ATOM      8  C   UNL     1      -5.186  27.187   5.219  1.00  0.00    -0.000 C 
BRANCH   8   9
ATOM      9  C   UNL     1      -4.415  27.550   6.502  1.00  0.00    -0.000 C 
BRANCH   9  10
ATOM     10  C   UNL     1      -3.553  28.823   6.406  1.00  0.00    -0.000 C 
BRANCH  10  11
ATOM     11  C   UNL     1      -2.921  29.250   7.747  1.00  0.00    -0.003 C 
ATOM     12  C   UNL     1      -2.578  28.058   8.641  1.00  0.00     0.004 C 
ENDBRANCH  10  11
ENDBRANCH   9  10
ENDBRANCH   8   9
ENDBRANCH   7   8
ENDBRANCH   6   7
ENDBRANCH   5   6
ENDBRANCH   4   5
ENDBRANCH   3   4
ENDBRANCH   2   3
ENDBRANCH   1   2
BRANCH   1  13
ATOM     13  C   UNL     1      -8.900  33.986   6.436  1.00  0.00     0.000 C 
BRANCH  13  14
ATOM     14  C   UNL     1      -8.377  35.113   5.536  1.00  0.00     0.000 C 
BRANCH  14  15
ATOM     15  C   UNL     1      -9.224  36.380   5.699  1.00  0.00     0.000 C 
BRANCH  15  16
ATOM     16  C   UNL     1      -8.353  37.586   6.083  1.00  0.00     0.000 C 
BRANCH  16  17
ATOM     17  C   UNL     1      -9.169  38.887   6.179  1.00  0.00     0.000 C 
BRANCH  17  18
ATOM     18  C   UNL     1     -10.548  38.770   5.505  1.00  0.00     0.000 C 
BRANCH  18  19
ATOM     19  C   UNL     1     -11.620  39.598   6.239  1.00  0.00     0.000 C 
BRANCH  19  20
ATOM     20  C   UNL     1     -11.659  39.314   7.754  1.00  0.00     0.006 C 
BRANCH  20  21
ATOM     21  C   UNL     1     -12.041  37.857   8.058  1.00  0.00     0.053 C 
BRANCH  21  22
ATOM     22  C   UNL     1     -11.324  37.368   9.277  1.00  0.00     0.041 C 
ATOM     23  O   UNL     1     -11.711  37.721  10.424  1.00  0.00    -0.550 OA
ATOM     24  O   UNL     1     -10.192  36.570   9.149  1.00  0.00    -0.550 OA
ENDBRANCH  21  22
ENDBRANCH  20  21
ENDBRANCH  19  20
ENDBRANCH  18  19
ENDBRANCH  17  18
ENDBRANCH  16  17
ENDBRANCH  15  16
ENDBRANCH  14  15
ENDBRANCH  13  14
ENDBRANCH   1  13
TORSDOF 20
ENDMDL
MODEL 7
REMARK VINA RESULT:    -4.754      3.051      9.550
REMARK INTER + INTRA:         -12.616
REMARK INTER:                 -10.262
REMARK INTRA:                  -2.354
REMARK UNBOUND:                -2.305
REMARK SMILES CCCCCCCCCCCCCCCCCCCCCC(=O)[O-]
REMARK SMILES IDX 12 1 11 2 10 3 9 4 8 5 7 6 6 7 5 8 4 9 3 10 2 11 1 12 13 13
REMARK SMILES IDX 14 14 15 15 16 16 17 17 18 18 19 19 20 20 21 21 22 22 23 23
REMARK SMILES IDX 24 24
REMARK H PARENT
REMARK Flexibility Score: inf
ROOT
ATOM      1  C   UNL     1     -10.033  35.118   5.829  1.00  0.00     0.000 C 
ENDROOT
BRANCH   1   2
ATOM      2  C   UNL     1      -8.674  34.741   6.441  1.00  0.00     0.000 C 
BRANCH   2   3
ATOM      3  C   UNL     1      -7.775  33.957   5.468  1.00  0.00     0.000 C 
BRANCH   3   4
ATOM      4  C   UNL     1      -8.209  32.500   5.214  1.00  0.00    -0.000 C 
BRANCH   4   5
ATOM      5  C   UNL     1      -7.254  31.426   5.767  1.00  0.00    -0.000 C 
BRANCH   5   6
ATOM      6  C   UNL     1      -5.953  32.018   6.332  1.00  0.00    -0.000 C 
BRANCH   6   7
ATOM      7  C   UNL     1      -4.839  30.960   6.376  1.00  0.00    -0.000 C 
BRANCH   7   8
ATOM      8  C   UNL     1      -5.339  29.548   6.018  1.00  0.00    -0.000 C 
BRANCH   8   9
ATOM      9  C   UNL     1      -4.555  28.850   4.892  1.00  0.00    -0.000 C 
BRANCH   9  10
ATOM     10  C   UNL     1      -5.295  27.681   4.212  1.00  0.00    -0.000 C 
BRANCH  10  11
ATOM     11  C   UNL     1      -6.831  27.759   4.339  1.00  0.00    -0.003 C 
ATOM     12  C   UNL     1      -7.464  28.650   3.271  1.00  0.00     0.004 C 
ENDBRANCH  10  11
ENDBRANCH   9  10
ENDBRANCH   8   9
ENDBRANCH   7   8
ENDBRANCH   6   7
ENDBRANCH   5   6
ENDBRANCH   4   5
ENDBRANCH   3   4
ENDBRANCH   2   3
ENDBRANCH   1   2
BRANCH   1  13
ATOM     13  C   UNL     1     -10.017  36.563   5.315  1.00  0.00     0.000 C 
BRANCH  13  14
ATOM     14  C   UNL     1      -8.982  37.409   6.069  1.00  0.00     0.000 C 
BRANCH  14  15
ATOM     15  C   UNL     1      -9.410  38.880   6.113  1.00  0.00     0.000 C 
BRANCH  15  16
ATOM     16  C   UNL     1     -10.780  39.082   5.446  1.00  0.00     0.000 C 
BRANCH  16  17
ATOM     17  C   UNL     1     -11.827  39.646   6.422  1.00  0.00     0.000 C 
BRANCH  17  18
ATOM     18  C   UNL     1     -11.519  39.291   7.888  1.00  0.00     0.000 C 
BRANCH  18  19
ATOM     19  C   UNL     1     -12.105  37.922   8.285  1.00  0.00     0.000 C 
BRANCH  19  20
ATOM     20  C   UNL     1     -11.550  37.402   9.626  1.00  0.00     0.006 C 
BRANCH  20  21
ATOM     21  C   UNL     1     -10.631  36.186   9.437  1.00  0.00     0.053 C 
BRANCH  21  22
ATOM     22  C   UNL     1     -11.421  34.916   9.495  1.00  0.00     0.041 C 
ATOM     23  O   UNL     1     -12.561  34.903  10.031  1.00  0.00    -0.550 OA
ATOM     24  O   UNL     1     -10.876  33.732   9.009  1.00  0.00    -0.550 OA
ENDBRANCH  21  22
ENDBRANCH  20  21
ENDBRANCH  19  20
ENDBRANCH  18  19
ENDBRANCH  17  18
ENDBRANCH  16  17
ENDBRANCH  15  16
ENDBRANCH  14  15
ENDBRANCH  13  14
ENDBRANCH   1  13
TORSDOF 20
ENDMDL
MODEL 8
REMARK VINA RESULT:    -4.747     13.966     17.105
REMARK INTER + INTRA:         -12.601
REMARK INTER:                  -9.022
REMARK INTRA:                  -3.579
REMARK UNBOUND:                -2.305
REMARK SMILES CCCCCCCCCCCCCCCCCCCCCC(=O)[O-]
REMARK SMILES IDX 12 1 11 2 10 3 9 4 8 5 7 6 6 7 5 8 4 9 3 10 2 11 1 12 13 13
REMARK SMILES IDX 14 14 15 15 16 16 17 17 18 18 19 19 20 20 21 21 22 22 23 23
REMARK SMILES IDX 24 24
REMARK H PARENT
REMARK Flexibility Score: inf
ROOT
ATOM      1  C   UNL     1      -0.757  42.425   0.478  1.00  0.00     0.000 C 
ENDROOT
BRANCH   1   2
ATOM      2  C   UNL     1       0.731  42.050   0.381  1.00  0.00     0.000 C 
BRANCH   2   3
ATOM      3  C   UNL     1       1.287  41.456   1.688  1.00  0.00     0.000 C 
BRANCH   3   4
ATOM      4  C   UNL     1       2.749  41.830   2.000  1.00  0.00    -0.000 C 
BRANCH   4   5
ATOM      5  C   UNL     1       3.630  40.670   2.497  1.00  0.00    -0.000 C 
BRANCH   5   6
ATOM      6  C   UNL     1       5.129  40.920   2.271  1.00  0.00    -0.000 C 
BRANCH   6   7
ATOM      7  C   UNL     1       5.694  39.965   1.208  1.00  0.00    -0.000 C 
BRANCH   7   8
ATOM      8  C   UNL     1       6.397  40.702   0.052  1.00  0.00    -0.000 C 
BRANCH   8   9
ATOM      9  C   UNL     1       5.558  41.806  -0.618  1.00  0.00    -0.000 C 
BRANCH   9  10
ATOM     10  C   UNL     1       6.025  43.245  -0.327  1.00  0.00    -0.000 C 
BRANCH  10  11
ATOM     11  C   UNL     1       4.869  44.238  -0.083  1.00  0.00    -0.003 C 
ATOM     12  C   UNL     1       3.638  43.927  -0.935  1.00  0.00     0.004 C 
ENDBRANCH  10  11
ENDBRANCH   9  10
ENDBRANCH   8   9
ENDBRANCH   7   8
ENDBRANCH   6   7
ENDBRANCH   5   6
ENDBRANCH   4   5
ENDBRANCH   3   4
ENDBRANCH   2   3
ENDBRANCH   1   2
BRANCH   1  13
ATOM     13  C   UNL     1      -1.129  43.459  -0.592  1.00  0.00     0.000 C 
BRANCH  13  14
ATOM     14  C   UNL     1      -0.072  43.514  -1.704  1.00  0.00     0.000 C 
BRANCH  14  15
ATOM     15  C   UNL     1       0.289  44.964  -2.041  1.00  0.00     0.000 C 
BRANCH  15  16
ATOM     16  C   UNL     1       0.056  45.891  -0.837  1.00  0.00     0.000 C 
BRANCH  16  17
ATOM     17  C   UNL     1       1.278  46.774  -0.535  1.00  0.00     0.000 C 
BRANCH  17  18
ATOM     18  C   UNL     1       1.730  46.675   0.933  1.00  0.00     0.000 C 
BRANCH  18  19
ATOM     19  C   UNL     1       1.292  45.348   1.582  1.00  0.00     0.000 C 
BRANCH  19  20
ATOM     20  C   UNL     1       0.415  45.558   2.833  1.00  0.00     0.006 C 
BRANCH  20  21
ATOM     21  C   UNL     1       0.184  44.248   3.602  1.00  0.00     0.053 C 
BRANCH  21  22
ATOM     22  C   UNL     1      -0.454  44.521   4.928  1.00  0.00     0.041 C 
ATOM     23  O   UNL     1      -0.990  45.639   5.153  1.00  0.00    -0.550 OA
ATOM     24  O   UNL     1      -0.408  43.564   5.935  1.00  0.00    -0.550 OA
ENDBRANCH  21  22
ENDBRANCH  20  21
ENDBRANCH  19  20
ENDBRANCH  18  19
ENDBRANCH  17  18
ENDBRANCH  16  17
ENDBRANCH  15  16
ENDBRANCH  14  15
ENDBRANCH  13  14
ENDBRANCH   1  13
TORSDOF 20
ENDMDL
MODEL 9
REMARK VINA RESULT:    -4.743      1.636      3.158
REMARK INTER + INTRA:         -12.593
REMARK INTER:                  -9.636
REMARK INTRA:                  -2.957
REMARK UNBOUND:                -2.305
REMARK SMILES CCCCCCCCCCCCCCCCCCCCCC(=O)[O-]
REMARK SMILES IDX 12 1 11 2 10 3 9 4 8 5 7 6 6 7 5 8 4 9 3 10 2 11 1 12 13 13
REMARK SMILES IDX 14 14 15 15 16 16 17 17 18 18 19 19 20 20 21 21 22 22 23 23
REMARK SMILES IDX 24 24
REMARK H PARENT
REMARK Flexibility Score: inf
ROOT
ATOM      1  C   UNL     1      -9.017  37.409   6.050  1.00  0.00     0.000 C 
ENDROOT
BRANCH   1   2
ATOM      2  C   UNL     1      -9.521  38.857   6.149  1.00  0.00     0.000 C 
BRANCH   2   3
ATOM      3  C   UNL     1     -10.850  39.083   5.407  1.00  0.00     0.000 C 
BRANCH   3   4
ATOM      4  C   UNL     1     -11.938  39.801   6.229  1.00  0.00    -0.000 C 
BRANCH   4   5
ATOM      5  C   UNL     1     -11.714  39.803   7.752  1.00  0.00    -0.000 C 
BRANCH   5   6
ATOM      6  C   UNL     1     -12.755  38.965   8.510  1.00  0.00    -0.000 C 
BRANCH   6   7
ATOM      7  C   UNL     1     -12.430  37.466   8.418  1.00  0.00    -0.000 C 
BRANCH   7   8
ATOM      8  C   UNL     1     -11.148  37.082   9.182  1.00  0.00    -0.000 C 
BRANCH   8   9
ATOM      9  C   UNL     1     -10.821  35.578   9.184  1.00  0.00    -0.000 C 
BRANCH   9  10
ATOM     10  C   UNL     1     -12.026  34.650   9.434  1.00  0.00    -0.000 C 
BRANCH  10  11
ATOM     11  C   UNL     1     -12.000  33.356   8.593  1.00  0.00    -0.003 C 
ATOM     12  C   UNL     1     -10.610  32.724   8.530  1.00  0.00     0.004 C 
ENDBRANCH  10  11
ENDBRANCH   9  10
ENDBRANCH   8   9
ENDBRANCH   7   8
ENDBRANCH   6   7
ENDBRANCH   5   6
ENDBRANCH   4   5
ENDBRANCH   3   4
ENDBRANCH   2   3
ENDBRANCH   1   2
BRANCH   1  13
ATOM     13  C   UNL     1     -10.126  36.480   5.540  1.00  0.00     0.000 C 
BRANCH  13  14
ATOM     14  C   UNL     1      -9.738  35.005   5.712  1.00  0.00     0.000 C 
BRANCH  14  15
ATOM     15  C   UNL     1      -8.257  34.870   6.082  1.00  0.00     0.000 C 
BRANCH  15  16
ATOM     16  C   UNL     1      -7.548  33.851   5.176  1.00  0.00     0.000 C 
BRANCH  16  17
ATOM     17  C   UNL     1      -6.620  32.914   5.968  1.00  0.00     0.000 C 
BRANCH  17  18
ATOM     18  C   UNL     1      -7.397  31.933   6.866  1.00  0.00     0.000 C 
BRANCH  18  19
ATOM     19  C   UNL     1      -8.392  31.078   6.058  1.00  0.00     0.000 C 
BRANCH  19  20
ATOM     20  C   UNL     1      -8.014  29.584   6.036  1.00  0.00     0.006 C 
BRANCH  20  21
ATOM     21  C   UNL     1      -6.977  29.267   4.948  1.00  0.00     0.053 C 
BRANCH  21  22
ATOM     22  C   UNL     1      -5.804  28.544   5.533  1.00  0.00     0.041 C 
ATOM     23  O   UNL     1      -5.986  27.576   6.319  1.00  0.00    -0.550 OA
ATOM     24  O   UNL     1      -4.511  28.972   5.257  1.00  0.00    -0.550 OA
ENDBRANCH  21  22
ENDBRANCH  20  21
ENDBRANCH  19  20
ENDBRANCH  18  19
ENDBRANCH  17  18
ENDBRANCH  16  17
ENDBRANCH  15  16
ENDBRANCH  14  15
ENDBRANCH  13  14
ENDBRANCH   1  13
TORSDOF 20
ENDMDL
