MODEL 1
REMARK VINA RESULT:    -3.940      0.000      0.000
REMARK INTER + INTRA:          -4.737
REMARK INTER:                  -4.631
REMARK INTRA:                  -0.106
REMARK UNBOUND:                -0.106
REMARK SMILES O=C([O-])CCC(=O)[O-]
REMARK SMILES IDX 4 1 2 2 1 3 3 4 5 5 6 6 7 7 8 8
REMARK H PARENT
REMARK Flexibility Score: inf
ROOT
ATOM      1  C   UNL     1      25.993  -2.112  60.009  1.00  0.00     0.059 C 
ENDROOT
BRANCH   1   2
ATOM      2  C   UNL     1      25.752  -1.840  61.460  1.00  0.00     0.042 C 
ATOM      3  O   UNL     1      25.533  -2.792  62.255  1.00  0.00    -0.550 OA
ATOM      4  O   UNL     1      25.816  -0.540  61.945  1.00  0.00    -0.550 OA
ENDBRANCH   1   2
BRANCH   1   5
ATOM      5  C   UNL     1      25.438  -3.483  59.622  1.00  0.00     0.059 C 
BRANCH   5   6
ATOM      6  C   UNL     1      23.992  -3.378  59.256  1.00  0.00     0.042 C 
ATOM      7  O   UNL     1      23.652  -2.892  58.145  1.00  0.00    -0.550 OA
ATOM      8  O   UNL     1      23.018  -3.861  60.123  1.00  0.00    -0.550 OA
ENDBRANCH   5   6
ENDBRANCH   1   5
TORSDOF 3
ENDMDL
MODEL 2
REMARK VINA RESULT:    -3.930      4.978      6.674
REMARK INTER + INTRA:          -4.725
REMARK INTER:                  -4.617
REMARK INTRA:                  -0.108
REMARK UNBOUND:                -0.106
REMARK SMILES O=C([O-])CCC(=O)[O-]
REMARK SMILES IDX 4 1 2 2 1 3 3 4 5 5 6 6 7 7 8 8
REMARK H PARENT
REMARK Flexibility Score: inf
ROOT
ATOM      1  C   UNL     1      25.458   3.471  64.670  1.00  0.00     0.059 C 
ENDROOT
BRANCH   1   2
ATOM      2  C   UNL     1      24.006   3.363  65.014  1.00  0.00     0.042 C 
ATOM      3  O   UNL     1      23.651   2.882  66.122  1.00  0.00    -0.550 OA
ATOM      4  O   UNL     1      23.044   3.836  64.130  1.00  0.00    -0.550 OA
ENDBRANCH   1   2
BRANCH   1   5
ATOM      5  C   UNL     1      26.010   2.109  64.245  1.00  0.00     0.059 C 
BRANCH   5   6
ATOM      6  C   UNL     1      25.713   1.850  62.803  1.00  0.00     0.042 C 
ATOM      7  O   UNL     1      25.539   2.812  62.008  1.00  0.00    -0.550 OA
ATOM      8  O   UNL     1      25.675   0.546  62.323  1.00  0.00    -0.550 OA
ENDBRANCH   5   6
ENDBRANCH   1   5
TORSDOF 3
ENDMDL
MODEL 3
REMARK VINA RESULT:    -3.928      5.692      6.096
REMARK INTER + INTRA:          -4.724
REMARK INTER:                  -4.606
REMARK INTRA:                  -0.118
REMARK UNBOUND:                -0.106
REMARK SMILES O=C([O-])CCC(=O)[O-]
REMARK SMILES IDX 4 1 2 2 1 3 3 4 5 5 6 6 7 7 8 8
REMARK H PARENT
REMARK Flexibility Score: inf
ROOT
ATOM      1  C   UNL     1      25.764   1.754  63.164  1.00  0.00     0.059 C 
ENDROOT
BRANCH   1   2
ATOM      2  C   UNL     1      26.209   2.212  64.517  1.00  0.00     0.042 C 
ATOM      3  O   UNL     1      27.349   1.899  64.949  1.00  0.00    -0.550 OA
ATOM      4  O   UNL     1      25.382   3.025  65.282  1.00  0.00    -0.550 OA
ENDBRANCH   1   2
BRANCH   1   5
ATOM      5  C   UNL     1      25.426   2.954  62.277  1.00  0.00     0.059 C 
BRANCH   5   6
ATOM      6  C   UNL     1      23.968   2.964  61.945  1.00  0.00     0.042 C 
ATOM      7  O   UNL     1      23.536   3.687  61.009  1.00  0.00    -0.550 OA
ATOM      8  O   UNL     1      23.091   2.138  62.638  1.00  0.00    -0.550 OA
ENDBRANCH   5   6
ENDBRANCH   1   5
TORSDOF 3
ENDMDL
MODEL 4
REMARK VINA RESULT:    -3.927      0.089      3.718
REMARK INTER + INTRA:          -4.722
REMARK INTER:                  -4.619
REMARK INTRA:                  -0.103
REMARK UNBOUND:                -0.106
REMARK SMILES O=C([O-])CCC(=O)[O-]
REMARK SMILES IDX 4 1 2 2 1 3 3 4 5 5 6 6 7 7 8 8
REMARK H PARENT
REMARK Flexibility Score: inf
ROOT
ATOM      1  C   UNL     1      25.426  -3.451  59.684  1.00  0.00     0.059 C 
ENDROOT
BRANCH   1   2
ATOM      2  C   UNL     1      23.987  -3.373  59.283  1.00  0.00     0.042 C 
ATOM      3  O   UNL     1      23.669  -2.933  58.147  1.00  0.00    -0.550 OA
ATOM      4  O   UNL     1      22.998  -3.832  60.144  1.00  0.00    -0.550 OA
ENDBRANCH   1   2
BRANCH   1   5
ATOM      5  C   UNL     1      25.944  -2.070  60.090  1.00  0.00     0.059 C 
BRANCH   5   6
ATOM      6  C   UNL     1      25.674  -1.815  61.539  1.00  0.00     0.042 C 
ATOM      7  O   UNL     1      25.437  -2.775  62.318  1.00  0.00    -0.550 OA
ATOM      8  O   UNL     1      25.732  -0.520  62.040  1.00  0.00    -0.550 OA
ENDBRANCH   5   6
ENDBRANCH   1   5
TORSDOF 3
ENDMDL
MODEL 5
REMARK VINA RESULT:    -3.922      4.967      7.135
REMARK INTER + INTRA:          -4.716
REMARK INTER:                  -4.611
REMARK INTRA:                  -0.105
REMARK UNBOUND:                -0.106
REMARK SMILES O=C([O-])CCC(=O)[O-]
REMARK SMILES IDX 4 1 2 2 1 3 3 4 5 5 6 6 7 7 8 8
REMARK H PARENT
REMARK Flexibility Score: inf
ROOT
ATOM      1  C   UNL     1      26.028   2.125  64.259  1.00  0.00     0.059 C 
ENDROOT
BRANCH   1   2
ATOM      2  C   UNL     1      25.746   1.795  62.828  1.00  0.00     0.042 C 
ATOM      3  O   UNL     1      25.481   2.712  62.007  1.00  0.00    -0.550 OA
ATOM      4  O   UNL     1      25.822   0.479  62.389  1.00  0.00    -0.550 OA
ENDBRANCH   1   2
BRANCH   1   5
ATOM      5  C   UNL     1      25.443   3.491  64.620  1.00  0.00     0.059 C 
BRANCH   5   6
ATOM      6  C   UNL     1      24.009   3.356  65.022  1.00  0.00     0.042 C 
ATOM      7  O   UNL     1      23.709   2.937  66.171  1.00  0.00    -0.550 OA
ATOM      8  O   UNL     1      23.002   3.740  64.145  1.00  0.00    -0.550 OA
ENDBRANCH   5   6
ENDBRANCH   1   5
TORSDOF 3
ENDMDL
MODEL 6
REMARK VINA RESULT:    -3.915      5.797      6.968
REMARK INTER + INTRA:          -4.708
REMARK INTER:                  -4.587
REMARK INTRA:                  -0.121
REMARK UNBOUND:                -0.106
REMARK SMILES O=C([O-])CCC(=O)[O-]
REMARK SMILES IDX 4 1 2 2 1 3 3 4 5 5 6 6 7 7 8 8
REMARK H PARENT
REMARK Flexibility Score: inf
ROOT
ATOM      1  C   UNL     1      25.459   2.922  62.254  1.00  0.00     0.059 C 
ENDROOT
BRANCH   1   2
ATOM      2  C   UNL     1      23.990   3.006  61.987  1.00  0.00     0.042 C 
ATOM      3  O   UNL     1      23.561   3.659  61.000  1.00  0.00    -0.550 OA
ATOM      4  O   UNL     1      23.095   2.322  62.801  1.00  0.00    -0.550 OA
ENDBRANCH   1   2
BRANCH   1   5
ATOM      5  C   UNL     1      25.770   1.742  63.178  1.00  0.00     0.059 C 
BRANCH   5   6
ATOM      6  C   UNL     1      26.216   2.231  64.519  1.00  0.00     0.042 C 
ATOM      7  O   UNL     1      27.360   1.936  64.953  1.00  0.00    -0.550 OA
ATOM      8  O   UNL     1      25.386   3.055  65.270  1.00  0.00    -0.550 OA
ENDBRANCH   5   6
ENDBRANCH   1   5
TORSDOF 3
ENDMDL
MODEL 7
REMARK VINA RESULT:    -3.911      2.064      3.169
REMARK INTER + INTRA:          -4.703
REMARK INTER:                  -4.589
REMARK INTRA:                  -0.114
REMARK UNBOUND:                -0.106
REMARK SMILES O=C([O-])CCC(=O)[O-]
REMARK SMILES IDX 4 1 2 2 1 3 3 4 5 5 6 6 7 7 8 8
REMARK H PARENT
REMARK Flexibility Score: inf
ROOT
ATOM      1  C   UNL     1      25.730  -1.752  61.098  1.00  0.00     0.059 C 
ENDROOT
BRANCH   1   2
ATOM      2  C   UNL     1      26.193  -2.230  59.758  1.00  0.00     0.042 C 
ATOM      3  O   UNL     1      27.337  -1.918  59.334  1.00  0.00    -0.550 OA
ATOM      4  O   UNL     1      25.379  -3.059  58.997  1.00  0.00    -0.550 OA
ENDBRANCH   1   2
BRANCH   1   5
ATOM      5  C   UNL     1      25.392  -2.939  62.002  1.00  0.00     0.059 C 
BRANCH   5   6
ATOM      6  C   UNL     1      23.935  -2.943  62.337  1.00  0.00     0.042 C 
ATOM      7  O   UNL     1      23.497  -3.683  63.257  1.00  0.00    -0.550 OA
ATOM      8  O   UNL     1      23.065  -2.092  61.666  1.00  0.00    -0.550 OA
ENDBRANCH   5   6
ENDBRANCH   1   5
TORSDOF 3
ENDMDL
MODEL 8
REMARK VINA RESULT:    -3.904      2.059      2.776
REMARK INTER + INTRA:          -4.695
REMARK INTER:                  -4.576
REMARK INTRA:                  -0.119
REMARK UNBOUND:                -0.106
REMARK SMILES O=C([O-])CCC(=O)[O-]
REMARK SMILES IDX 4 1 2 2 1 3 3 4 5 5 6 6 7 7 8 8
REMARK H PARENT
REMARK Flexibility Score: inf
ROOT
ATOM      1  C   UNL     1      25.432  -2.978  61.993  1.00  0.00     0.059 C 
ENDROOT
BRANCH   1   2
ATOM      2  C   UNL     1      23.971  -2.942  62.312  1.00  0.00     0.042 C 
ATOM      3  O   UNL     1      23.504  -3.674  63.224  1.00  0.00    -0.550 OA
ATOM      4  O   UNL     1      23.132  -2.066  61.634  1.00  0.00    -0.550 OA
ENDBRANCH   1   2
BRANCH   1   5
ATOM      5  C   UNL     1      25.824  -1.768  61.142  1.00  0.00     0.059 C 
BRANCH   5   6
ATOM      6  C   UNL     1      26.239  -2.203  59.773  1.00  0.00     0.042 C 
ATOM      7  O   UNL     1      27.390  -1.926  59.342  1.00  0.00    -0.550 OA
ATOM      8  O   UNL     1      25.373  -2.957  58.991  1.00  0.00    -0.550 OA
ENDBRANCH   5   6
ENDBRANCH   1   5
TORSDOF 3
ENDMDL
MODEL 9
REMARK VINA RESULT:    -3.816      4.718      6.426
REMARK INTER + INTRA:          -4.592
REMARK INTER:                  -4.481
REMARK INTRA:                  -0.111
REMARK UNBOUND:                -0.106
REMARK SMILES O=C([O-])CCC(=O)[O-]
REMARK SMILES IDX 4 1 2 2 1 3 3 4 5 5 6 6 7 7 8 8
REMARK H PARENT
REMARK Flexibility Score: inf
ROOT
ATOM      1  C   UNL     1      23.408   2.623  62.296  1.00  0.00     0.059 C 
ENDROOT
BRANCH   1   2
ATOM      2  C   UNL     1      23.009   3.466  63.466  1.00  0.00     0.042 C 
ATOM      3  O   UNL     1      21.823   3.442  63.889  1.00  0.00    -0.550 OA
ATOM      4  O   UNL     1      23.957   4.243  64.119  1.00  0.00    -0.550 OA
ENDBRANCH   1   2
BRANCH   1   5
ATOM      5  C   UNL     1      24.917   2.714  62.062  1.00  0.00     0.059 C 
BRANCH   5   6
ATOM      6  C   UNL     1      25.615   1.548  62.687  1.00  0.00     0.042 C 
ATOM      7  O   UNL     1      25.605   0.424  62.119  1.00  0.00    -0.550 OA
ATOM      8  O   UNL     1      26.319   1.713  63.873  1.00  0.00    -0.550 OA
ENDBRANCH   5   6
ENDBRANCH   1   5
TORSDOF 3
ENDMDL
