MODEL 1
REMARK VINA RESULT:    -3.744      0.000      0.000
REMARK INTER + INTRA:          -5.207
REMARK INTER:                  -5.495
REMARK INTRA:                   0.289
REMARK UNBOUND:                 0.289
REMARK SMILES C=C1CC=CC(C)(C)CC=C(C)CCC1
REMARK SMILES IDX 2 1 1 2 15 3 14 4 13 5 11 6 12 7 10 8 3 10 4 11 5 12 6 13
REMARK SMILES IDX 7 14 8 15 9 16
REMARK H PARENT
REMARK Flexibility Score: 60.00
ROOT
ATOM      1  C   UNL     1      30.186   6.708  34.834  1.00  0.00    -0.074 C 
ATOM      2  C   UNL     1      29.067   6.006  35.085  1.00  0.00     0.008 C 
ENDROOT
BRANCH   1   3
ATOM      3  C   UNL     1      31.165   6.972  35.968  1.00  0.00     0.031 C 
BRANCH   3   4
ATOM      4  C   UNL     1      30.580   7.877  37.074  1.00  0.00     0.009 C 
BRANCH   4   5
ATOM      5  C   UNL     1      31.182   9.299  37.030  1.00  0.00     0.030 C 
BRANCH   5   6
ATOM      6  C   UNL     1      30.311  10.328  36.327  1.00  0.00    -0.077 C 
ATOM      7  C   UNL     1      28.974  10.681  36.927  1.00  0.00     0.039 C 
ATOM      8  C   UNL     1      30.635  10.874  35.128  1.00  0.00    -0.027 CG0
ATOM      9  G   UNL     1      31.965  10.696  34.433  1.00  0.00     0.000 G0
ENDBRANCH   5   6
ENDBRANCH   4   5
ENDBRANCH   3   4
ENDBRANCH   1   3
BRANCH   1  10
ATOM     10  C   UNL     1      30.422   7.338  33.468  1.00  0.00     0.057 C 
BRANCH  10  11
ATOM     11  C   UNL     1      31.878   7.613  33.116  1.00  0.00    -0.026 C 
ATOM     12  C   UNL     1      32.511   8.794  32.879  1.00  0.00    -0.024 C 
BRANCH  12  13
ATOM     13  C   UNL     1      31.970  10.231  32.952  1.00  0.00    -0.014 C 
ATOM     14  C   UNL     1      32.935  11.147  32.160  1.00  0.00     0.016 C 
ATOM     15  C   UNL     1      30.597  10.328  32.247  1.00  0.00     0.016 C 
BRANCH  13  16
ATOM     16  C   UNL     1      31.974  10.712  34.432  1.00  0.00     0.038 CG0
ATOM     17  G   UNL     1      30.623  10.862  35.093  1.00  0.00     0.000 G0
ENDBRANCH  13  16
ENDBRANCH  12  13
ENDBRANCH  10  11
ENDBRANCH   1  10
TORSDOF 0
ENDMDL
MODEL 2
REMARK VINA RESULT:    -3.560      2.948      6.028
REMARK INTER + INTRA:          -4.936
REMARK INTER:                  -5.239
REMARK INTRA:                   0.303
REMARK UNBOUND:                 0.289
REMARK SMILES C=C1CC=CC(C)(C)CC=C(C)CCC1
REMARK SMILES IDX 2 1 1 2 15 3 14 4 13 5 11 6 12 7 10 8 3 10 4 11 5 12 6 13
REMARK SMILES IDX 7 14 8 15 9 16
REMARK H PARENT
REMARK Flexibility Score: 60.00
ROOT
ATOM      1  C   UNL     1      31.478  11.885  30.179  1.00  0.00    -0.074 C 
ATOM      2  C   UNL     1      30.227  12.198  29.798  1.00  0.00     0.008 C 
ENDROOT
BRANCH   1   3
ATOM      3  C   UNL     1      32.423  11.248  29.170  1.00  0.00     0.031 C 
BRANCH   3   4
ATOM      4  C   UNL     1      31.690  10.399  28.108  1.00  0.00     0.009 C 
BRANCH   4   5
ATOM      5  C   UNL     1      31.476   8.945  28.584  1.00  0.00     0.030 C 
BRANCH   5   6
ATOM      6  C   UNL     1      30.134   8.695  29.257  1.00  0.00    -0.077 C 
ATOM      7  C   UNL     1      28.872   8.898  28.458  1.00  0.00     0.039 C 
ATOM      8  C   UNL     1      30.012   8.394  30.573  1.00  0.00    -0.027 CG0
ATOM      9  G   UNL     1      31.168   8.073  31.493  1.00  0.00     0.000 G0
ENDBRANCH   5   6
ENDBRANCH   4   5
ENDBRANCH   3   4
ENDBRANCH   1   3
BRANCH   1  10
ATOM     10  C   UNL     1      31.917  12.049  31.628  1.00  0.00     0.057 C 
BRANCH  10  11
ATOM     11  C   UNL     1      32.899  11.002  32.138  1.00  0.00    -0.026 C 
ATOM     12  C   UNL     1      32.668   9.752  32.623  1.00  0.00    -0.024 C 
BRANCH  12  13
ATOM     13  C   UNL     1      31.347   8.977  32.753  1.00  0.00    -0.014 C 
ATOM     14  C   UNL     1      31.448   8.063  33.999  1.00  0.00     0.016 C 
ATOM     15  C   UNL     1      30.174   9.949  33.017  1.00  0.00     0.016 C 
BRANCH  13  16
ATOM     16  C   UNL     1      31.160   8.058  31.510  1.00  0.00     0.038 CG0
ATOM     17  G   UNL     1      30.019   8.407  30.582  1.00  0.00     0.000 G0
ENDBRANCH  13  16
ENDBRANCH  12  13
ENDBRANCH  10  11
ENDBRANCH   1  10
TORSDOF 0
ENDMDL
MODEL 3
REMARK VINA RESULT:    -3.546      1.664      4.778
REMARK INTER + INTRA:          -4.915
REMARK INTER:                  -5.251
REMARK INTRA:                   0.336
REMARK UNBOUND:                 0.289
REMARK SMILES C=C1CC=CC(C)(C)CC=C(C)CCC1
REMARK SMILES IDX 2 1 1 2 15 3 14 4 13 5 11 6 12 7 10 8 3 10 4 11 5 12 6 13
REMARK SMILES IDX 7 14 8 15 9 16
REMARK H PARENT
REMARK Flexibility Score: 60.00
ROOT
ATOM      1  C   UNL     1      30.822  11.191  34.195  1.00  0.00    -0.074 C 
ATOM      2  C   UNL     1      29.888  11.121  33.229  1.00  0.00     0.008 C 
ENDROOT
BRANCH   1   3
ATOM      3  C   UNL     1      32.292  11.199  33.805  1.00  0.00     0.031 C 
BRANCH   3   4
ATOM      4  C   UNL     1      32.598  10.313  32.577  1.00  0.00     0.009 C 
BRANCH   4   5
ATOM      5  C   UNL     1      32.711   8.821  32.961  1.00  0.00     0.030 C 
BRANCH   5   6
ATOM      6  C   UNL     1      31.458   8.005  32.685  1.00  0.00    -0.077 C 
ATOM      7  C   UNL     1      30.874   8.018  31.295  1.00  0.00     0.039 C 
ATOM      8  C   UNL     1      30.780   7.341  33.653  1.00  0.00    -0.027 CG0
ATOM      9  G   UNL     1      31.268   7.154  35.072  1.00  0.00     0.000 G0
ENDBRANCH   5   6
ENDBRANCH   4   5
ENDBRANCH   3   4
ENDBRANCH   1   3
BRANCH   1  10
ATOM     10  C   UNL     1      30.429  11.139  35.666  1.00  0.00     0.057 C 
BRANCH  10  11
ATOM     11  C   UNL     1      31.350  10.320  36.561  1.00  0.00    -0.026 C 
ATOM     12  C   UNL     1      31.363   8.983  36.810  1.00  0.00    -0.024 C 
BRANCH  12  13
ATOM     13  C   UNL     1      30.491   7.864  36.217  1.00  0.00    -0.014 C 
ATOM     14  C   UNL     1      30.222   6.825  37.333  1.00  0.00     0.016 C 
ATOM     15  C   UNL     1      29.111   8.421  35.796  1.00  0.00     0.016 C 
BRANCH  13  16
ATOM     16  C   UNL     1      31.273   7.144  35.082  1.00  0.00     0.038 CG0
ATOM     17  G   UNL     1      30.772   7.369  33.673  1.00  0.00     0.000 G0
ENDBRANCH  13  16
ENDBRANCH  12  13
ENDBRANCH  10  11
ENDBRANCH   1  10
TORSDOF 0
ENDMDL
MODEL 4
REMARK VINA RESULT:    -3.412      2.372      4.338
REMARK INTER + INTRA:          -4.719
REMARK INTER:                  -5.366
REMARK INTRA:                   0.647
REMARK UNBOUND:                 0.289
REMARK SMILES C=C1CC=CC(C)(C)CC=C(C)CCC1
REMARK SMILES IDX 2 1 1 2 15 3 14 4 13 5 11 6 12 7 10 8 3 10 4 11 5 12 6 13
REMARK SMILES IDX 7 14 8 15 9 16
REMARK H PARENT
REMARK Flexibility Score: 60.00
ROOT
ATOM      1  C   UNL     1      31.018   9.507  34.269  1.00  0.00    -0.074 C 
ATOM      2  C   UNL     1      29.711   9.768  34.445  1.00  0.00     0.008 C 
ENDROOT
BRANCH   1   3
ATOM      3  C   UNL     1      31.507   8.070  34.376  1.00  0.00     0.031 C 
BRANCH   3   4
ATOM      4  C   UNL     1      31.599   7.359  33.008  1.00  0.00     0.009 C 
BRANCH   4   5
ATOM      5  C   UNL     1      30.283   7.482  32.208  1.00  0.00     0.030 C 
BRANCH   5   6
ATOM      6  C   UNL     1      30.474   7.717  30.717  1.00  0.00    -0.077 C 
ATOM      7  C   UNL     1      30.637   6.525  29.809  1.00  0.00     0.039 C 
ATOM      8  C   UNL     1      30.604   8.953  30.175  1.00  0.00    -0.027 CG0
ATOM      9  G   UNL     1      30.383  10.248  30.922  1.00  0.00     0.000 G0
ENDBRANCH   5   6
ENDBRANCH   4   5
ENDBRANCH   3   4
ENDBRANCH   1   3
BRANCH   1  10
ATOM     10  C   UNL     1      32.023  10.637  34.085  1.00  0.00     0.057 C 
BRANCH  10  11
ATOM     11  C   UNL     1      32.979  10.478  32.910  1.00  0.00    -0.026 C 
ATOM     12  C   UNL     1      32.785  10.726  31.587  1.00  0.00    -0.024 C 
BRANCH  12  13
ATOM     13  C   UNL     1      31.556  11.303  30.865  1.00  0.00    -0.014 C 
ATOM     14  C   UNL     1      31.093  12.562  31.638  1.00  0.00     0.016 C 
ATOM     15  C   UNL     1      31.940  11.778  29.444  1.00  0.00     0.016 C 
BRANCH  13  16
ATOM     16  C   UNL     1      30.395  10.268  30.911  1.00  0.00     0.038 CG0
ATOM     17  G   UNL     1      30.619   8.972  30.167  1.00  0.00     0.000 G0
ENDBRANCH  13  16
ENDBRANCH  12  13
ENDBRANCH  10  11
ENDBRANCH   1  10
TORSDOF 0
ENDMDL
MODEL 5
REMARK VINA RESULT:    -3.314      1.496      4.792
REMARK INTER + INTRA:          -4.576
REMARK INTER:                  -5.084
REMARK INTRA:                   0.508
REMARK UNBOUND:                 0.289
REMARK SMILES C=C1CC=CC(C)(C)CC=C(C)CCC1
REMARK SMILES IDX 2 1 1 2 15 3 14 4 13 5 11 6 12 7 10 8 3 10 4 11 5 12 6 13
REMARK SMILES IDX 7 14 8 15 9 16
REMARK H PARENT
REMARK Flexibility Score: 60.00
ROOT
ATOM      1  C   UNL     1      32.267  10.852  33.371  1.00  0.00    -0.074 C 
ATOM      2  C   UNL     1      32.030  11.969  32.660  1.00  0.00     0.008 C 
ENDROOT
BRANCH   1   3
ATOM      3  C   UNL     1      32.801   9.619  32.657  1.00  0.00     0.031 C 
BRANCH   3   4
ATOM      4  C   UNL     1      31.698   8.594  32.314  1.00  0.00     0.009 C 
BRANCH   4   5
ATOM      5  C   UNL     1      31.616   7.466  33.366  1.00  0.00     0.030 C 
BRANCH   5   6
ATOM      6  C   UNL     1      30.202   7.112  33.799  1.00  0.00    -0.077 C 
ATOM      7  C   UNL     1      29.287   6.432  32.813  1.00  0.00     0.039 C 
ATOM      8  C   UNL     1      29.687   7.469  35.002  1.00  0.00    -0.027 CG0
ATOM      9  G   UNL     1      30.485   8.076  36.134  1.00  0.00     0.000 G0
ENDBRANCH   5   6
ENDBRANCH   4   5
ENDBRANCH   3   4
ENDBRANCH   1   3
BRANCH   1  10
ATOM     10  C   UNL     1      31.897  10.772  34.846  1.00  0.00     0.057 C 
BRANCH  10  11
ATOM     11  C   UNL     1      30.439  11.069  35.173  1.00  0.00    -0.026 C 
ATOM     12  C   UNL     1      29.586  10.427  36.016  1.00  0.00    -0.024 C 
BRANCH  12  13
ATOM     13  C   UNL     1      29.841   9.236  36.953  1.00  0.00    -0.014 C 
ATOM     14  C   UNL     1      30.850   9.687  38.038  1.00  0.00     0.016 C 
ATOM     15  C   UNL     1      28.542   8.849  37.698  1.00  0.00     0.016 C 
BRANCH  13  16
ATOM     16  C   UNL     1      30.499   8.076  36.151  1.00  0.00     0.038 CG0
ATOM     17  G   UNL     1      29.686   7.500  35.014  1.00  0.00     0.000 G0
ENDBRANCH  13  16
ENDBRANCH  12  13
ENDBRANCH  10  11
ENDBRANCH   1  10
TORSDOF 0
ENDMDL
MODEL 6
REMARK VINA RESULT:    -3.221      6.803      8.768
REMARK INTER + INTRA:          -4.438
REMARK INTER:                  -4.971
REMARK INTRA:                   0.533
REMARK UNBOUND:                 0.289
REMARK SMILES C=C1CC=CC(C)(C)CC=C(C)CCC1
REMARK SMILES IDX 2 1 1 2 15 3 14 4 13 5 11 6 12 7 10 8 3 10 4 11 5 12 6 13
REMARK SMILES IDX 7 14 8 15 9 16
REMARK H PARENT
REMARK Flexibility Score: 60.00
ROOT
ATOM      1  C   UNL     1      32.163  10.639  27.506  1.00  0.00    -0.074 C 
ATOM      2  C   UNL     1      32.400  11.226  28.692  1.00  0.00     0.008 C 
ENDROOT
BRANCH   1   3
ATOM      3  C   UNL     1      31.950  11.511  26.277  1.00  0.00     0.031 C 
BRANCH   3   4
ATOM      4  C   UNL     1      30.713  12.429  26.393  1.00  0.00     0.009 C 
BRANCH   4   5
ATOM      5  C   UNL     1      29.517  11.885  25.580  1.00  0.00     0.030 C 
BRANCH   5   6
ATOM      6  C   UNL     1      28.343  11.418  26.426  1.00  0.00    -0.077 C 
ATOM      7  C   UNL     1      27.381  12.446  26.967  1.00  0.00     0.039 C 
ATOM      8  C   UNL     1      28.172  10.127  26.804  1.00  0.00    -0.027 CG0
ATOM      9  G   UNL     1      28.988   8.964  26.286  1.00  0.00     0.000 G0
ENDBRANCH   5   6
ENDBRANCH   4   5
ENDBRANCH   3   4
ENDBRANCH   1   3
BRANCH   1  10
ATOM     10  C   UNL     1      31.987   9.130  27.402  1.00  0.00     0.057 C 
BRANCH  10  11
ATOM     11  C   UNL     1      31.125   8.495  28.486  1.00  0.00    -0.026 C 
ATOM     12  C   UNL     1      29.896   7.919  28.398  1.00  0.00    -0.024 C 
BRANCH  12  13
ATOM     13  C   UNL     1      29.013   7.670  27.165  1.00  0.00    -0.014 C 
ATOM     14  C   UNL     1      29.660   6.535  26.333  1.00  0.00     0.016 C 
ATOM     15  C   UNL     1      27.619   7.157  27.594  1.00  0.00     0.016 C 
BRANCH  13  16
ATOM     16  C   UNL     1      28.989   8.948  26.278  1.00  0.00     0.038 CG0
ATOM     17  G   UNL     1      28.179  10.113  26.800  1.00  0.00     0.000 G0
ENDBRANCH  13  16
ENDBRANCH  12  13
ENDBRANCH  10  11
ENDBRANCH   1  10
TORSDOF 0
ENDMDL
MODEL 7
REMARK VINA RESULT:    -3.154      4.775      7.299
REMARK INTER + INTRA:          -4.340
REMARK INTER:                  -4.628
REMARK INTRA:                   0.288
REMARK UNBOUND:                 0.289
REMARK SMILES C=C1CC=CC(C)(C)CC=C(C)CCC1
REMARK SMILES IDX 2 1 1 2 15 3 14 4 13 5 11 6 12 7 10 8 3 10 4 11 5 12 6 13
REMARK SMILES IDX 7 14 8 15 9 16
REMARK H PARENT
REMARK Flexibility Score: 60.00
ROOT
ATOM      1  C   UNL     1      30.680  10.742  26.349  1.00  0.00    -0.074 C 
ATOM      2  C   UNL     1      29.576  11.475  26.123  1.00  0.00     0.008 C 
ENDROOT
BRANCH   1   3
ATOM      3  C   UNL     1      31.907  11.417  26.945  1.00  0.00     0.031 C 
BRANCH   3   4
ATOM      4  C   UNL     1      32.345  10.796  28.290  1.00  0.00     0.009 C 
BRANCH   4   5
ATOM      5  C   UNL     1      31.439  11.253  29.455  1.00  0.00     0.030 C 
BRANCH   5   6
ATOM      6  C   UNL     1      31.300  10.236  30.578  1.00  0.00    -0.077 C 
ATOM      7  C   UNL     1      32.175  10.375  31.797  1.00  0.00     0.039 C 
ATOM      8  C   UNL     1      30.493   9.149  30.494  1.00  0.00    -0.027 CG0
ATOM      9  G   UNL     1      29.493   8.903  29.389  1.00  0.00     0.000 G0
ENDBRANCH   5   6
ENDBRANCH   4   5
ENDBRANCH   3   4
ENDBRANCH   1   3
BRANCH   1  10
ATOM     10  C   UNL     1      30.757   9.288  25.905  1.00  0.00     0.057 C 
BRANCH  10  11
ATOM     11  C   UNL     1      29.480   8.478  26.092  1.00  0.00    -0.026 C 
ATOM     12  C   UNL     1      29.053   7.758  27.165  1.00  0.00    -0.024 C 
BRANCH  12  13
ATOM     13  C   UNL     1      29.693   7.584  28.551  1.00  0.00    -0.014 C 
ATOM     14  C   UNL     1      28.960   6.429  29.276  1.00  0.00     0.016 C 
ATOM     15  C   UNL     1      31.170   7.147  28.412  1.00  0.00     0.016 C 
BRANCH  13  16
ATOM     16  C   UNL     1      29.476   8.878  29.388  1.00  0.00     0.038 CG0
ATOM     17  G   UNL     1      30.481   9.144  30.486  1.00  0.00     0.000 G0
ENDBRANCH  13  16
ENDBRANCH  12  13
ENDBRANCH  10  11
ENDBRANCH   1  10
TORSDOF 0
ENDMDL
MODEL 8
REMARK VINA RESULT:    -3.072      5.029      7.077
REMARK INTER + INTRA:          -4.220
REMARK INTER:                  -4.426
REMARK INTRA:                   0.206
REMARK UNBOUND:                 0.289
REMARK SMILES C=C1CC=CC(C)(C)CC=C(C)CCC1
REMARK SMILES IDX 2 1 1 2 15 3 14 4 13 5 11 6 12 7 10 8 3 10 4 11 5 12 6 13
REMARK SMILES IDX 7 14 8 15 9 16
REMARK H PARENT
REMARK Flexibility Score: 60.00
ROOT
ATOM      1  C   UNL     1      29.415  10.107  26.411  1.00  0.00    -0.074 C 
ATOM      2  C   UNL     1      28.274   9.704  25.824  1.00  0.00     0.008 C 
ENDROOT
BRANCH   1   3
ATOM      3  C   UNL     1      30.675   9.272  26.232  1.00  0.00     0.031 C 
BRANCH   3   4
ATOM      4  C   UNL     1      30.518   7.823  26.744  1.00  0.00     0.009 C 
BRANCH   4   5
ATOM      5  C   UNL     1      31.168   7.633  28.132  1.00  0.00     0.030 C 
BRANCH   5   6
ATOM      6  C   UNL     1      30.295   8.071  29.299  1.00  0.00    -0.077 C 
ATOM      7  C   UNL     1      29.061   7.268  29.625  1.00  0.00     0.039 C 
ATOM      8  C   UNL     1      30.518   9.208  30.002  1.00  0.00    -0.027 CG0
ATOM      9  G   UNL     1      31.747  10.078  29.864  1.00  0.00     0.000 G0
ENDBRANCH   5   6
ENDBRANCH   4   5
ENDBRANCH   3   4
ENDBRANCH   1   3
BRANCH   1  10
ATOM     10  C   UNL     1      29.431  11.311  27.343  1.00  0.00     0.057 C 
BRANCH  10  11
ATOM     11  C   UNL     1      30.761  12.047  27.439  1.00  0.00    -0.026 C 
ATOM     12  C   UNL     1      31.599  12.200  28.500  1.00  0.00    -0.024 C 
BRANCH  12  13
ATOM     13  C   UNL     1      31.500  11.626  29.922  1.00  0.00    -0.014 C 
ATOM     14  C   UNL     1      32.636  12.248  30.771  1.00  0.00     0.016 C 
ATOM     15  C   UNL     1      30.171  12.055  30.586  1.00  0.00     0.016 C 
BRANCH  13  16
ATOM     16  C   UNL     1      31.735  10.088  29.878  1.00  0.00     0.038 CG0
ATOM     17  G   UNL     1      30.506   9.216  29.997  1.00  0.00     0.000 G0
ENDBRANCH  13  16
ENDBRANCH  12  13
ENDBRANCH  10  11
ENDBRANCH   1  10
TORSDOF 0
ENDMDL
MODEL 9
REMARK VINA RESULT:    -3.032      4.427      7.451
REMARK INTER + INTRA:          -4.162
REMARK INTER:                  -4.436
REMARK INTRA:                   0.274
REMARK UNBOUND:                 0.289
REMARK SMILES C=C1CC=CC(C)(C)CC=C(C)CCC1
REMARK SMILES IDX 2 1 1 2 15 3 14 4 13 5 11 6 12 7 10 8 3 10 4 11 5 12 6 13
REMARK SMILES IDX 7 14 8 15 9 16
REMARK H PARENT
REMARK Flexibility Score: 60.00
ROOT
ATOM      1  C   UNL     1      31.439  12.075  27.465  1.00  0.00    -0.074 C 
ATOM      2  C   UNL     1      30.400  12.626  26.814  1.00  0.00     0.008 C 
ENDROOT
BRANCH   1   3
ATOM      3  C   UNL     1      32.263  11.001  26.769  1.00  0.00     0.031 C 
BRANCH   3   4
ATOM      4  C   UNL     1      31.402   9.857  26.190  1.00  0.00     0.009 C 
BRANCH   4   5
ATOM      5  C   UNL     1      30.896   8.905  27.296  1.00  0.00     0.030 C 
BRANCH   5   6
ATOM      6  C   UNL     1      29.438   9.107  27.680  1.00  0.00    -0.077 C 
ATOM      7  C   UNL     1      28.422   9.329  26.588  1.00  0.00     0.039 C 
ATOM      8  C   UNL     1      29.018   9.196  28.966  1.00  0.00    -0.027 CG0
ATOM      9  G   UNL     1      29.881   8.915  30.175  1.00  0.00     0.000 G0
ENDBRANCH   5   6
ENDBRANCH   4   5
ENDBRANCH   3   4
ENDBRANCH   1   3
BRANCH   1  10
ATOM     10  C   UNL     1      31.724  12.423  28.920  1.00  0.00     0.057 C 
BRANCH  10  11
ATOM     11  C   UNL     1      32.410  11.332  29.733  1.00  0.00    -0.026 C 
ATOM     12  C   UNL     1      31.879  10.418  30.589  1.00  0.00    -0.024 C 
BRANCH  12  13
ATOM     13  C   UNL     1      30.411  10.156  30.963  1.00  0.00    -0.014 C 
ATOM     14  C   UNL     1      30.355   9.811  32.471  1.00  0.00     0.016 C 
ATOM     15  C   UNL     1      29.570  11.440  30.776  1.00  0.00     0.016 C 
BRANCH  13  16
ATOM     16  C   UNL     1      29.889   8.919  30.177  1.00  0.00     0.038 CG0
ATOM     17  G   UNL     1      29.027   9.205  28.968  1.00  0.00     0.000 G0
ENDBRANCH  13  16
ENDBRANCH  12  13
ENDBRANCH  10  11
ENDBRANCH   1  10
TORSDOF 0
ENDMDL
