MODEL 1
REMARK VINA RESULT:    62.953      0.000      0.000
REMARK INTER + INTRA:          83.204
REMARK INTER:                  83.194
REMARK INTRA:                   0.010
REMARK UNBOUND:                 0.010
REMARK SMILES CC[C@@H](C=C[C@@H](C)[C@@H]1CC[C@@H]2C3=CC[C@@H]4C[C@H](O)CC[C@@]4(C)[C@H]3CC[C@@]21C)C(C)C
REMARK SMILES IDX 6 1 7 2 5 3 4 4 3 5 2 6 1 7 28 8 29 9 30 10 8 11 9 12 26 13
REMARK SMILES IDX 10 14 11 15 25 16 27 17 12 18 24 19 23 20 13 21 21 22 14 23
REMARK SMILES IDX 15 24 20 25 22 26 16 27 19 28 17 29 18 30
REMARK H PARENT 18 31
REMARK Flexibility Score: inf
ROOT
ATOM      1  C   UNL     1     -36.218  26.971  -1.032  1.00  0.00     0.012 C 
ATOM      2  C   UNL     1     -34.934  26.493  -0.343  1.00  0.00     0.012 C 
ENDROOT
BRANCH   1   3
ATOM      3  C   UNL     1     -36.041  28.400  -1.506  1.00  0.00    -0.028 C 
ATOM      4  C   UNL     1     -35.019  28.762  -2.299  1.00  0.00    -0.027 C 
BRANCH   4   5
ATOM      5  C   UNL     1     -34.847  30.187  -2.782  1.00  0.00     0.014 C 
BRANCH   5   6
ATOM      6  C   UNL     1     -35.018  30.211  -4.319  1.00  0.00     0.004 C 
ATOM      7  C   UNL     1     -36.001  31.278  -4.803  1.00  0.00     0.004 C 
ENDBRANCH   5   6
BRANCH   5   8
ATOM      8  C   UNL     1     -33.506  30.806  -2.278  1.00  0.00    -0.011 C 
ATOM      9  C   UNL     1     -32.616  29.737  -1.623  1.00  0.00     0.008 C 
ATOM     10  C   UNL     1     -32.718  31.548  -3.371  1.00  0.00     0.008 C 
ENDBRANCH   5   8
ENDBRANCH   4   5
ENDBRANCH   1   3
BRANCH   1  11
ATOM     11  C   UNL     1     -37.508  26.701  -0.182  1.00  0.00     0.002 C 
ATOM     12  C   UNL     1     -37.957  27.921   0.645  1.00  0.00     0.005 C 
ATOM     13  C   UNL     1     -37.593  25.485   0.795  1.00  0.00    -0.023 C 
ATOM     14  C   UNL     1     -38.792  27.388   1.809  1.00  0.00     0.009 C 
ATOM     15  C   UNL     1     -38.830  25.869   1.645  1.00  0.00     0.021 C 
ATOM     16  C   UNL     1     -36.318  25.349   1.684  1.00  0.00     0.008 C 
ATOM     17  C   UNL     1     -37.877  24.152   0.057  1.00  0.00     0.012 C 
ATOM     18  C   UNL     1     -38.904  25.112   2.963  1.00  0.00    -0.067 C 
ATOM     19  C   UNL     1     -36.518  24.486   2.943  1.00  0.00     0.009 C 
ATOM     20  C   UNL     1     -37.646  25.060   3.828  1.00  0.00     0.021 C 
ATOM     21  C   UNL     1     -39.985  24.335   3.206  1.00  0.00    -0.027 C 
ATOM     22  C   UNL     1     -37.874  24.344   5.218  1.00  0.00    -0.023 C 
ATOM     23  C   UNL     1     -40.115  23.432   4.400  1.00  0.00     0.031 C 
ATOM     24  C   UNL     1     -38.750  23.070   5.002  1.00  0.00     0.002 C 
ATOM     25  C   UNL     1     -36.528  23.915   5.882  1.00  0.00     0.010 C 
ATOM     26  C   UNL     1     -38.580  25.376   6.152  1.00  0.00     0.012 C 
ATOM     27  C   UNL     1     -38.935  22.234   6.289  1.00  0.00     0.036 C 
ATOM     28  C   UNL     1     -36.727  23.121   7.183  1.00  0.00     0.032 C 
ATOM     29  C   UNL     1     -37.584  21.868   6.926  1.00  0.00     0.114 C 
BRANCH  29  30
ATOM     30  O   UNL     1     -37.776  21.147   8.116  1.00  0.00    -0.393 OA
ATOM     31  H   UNL     1     -37.392  21.682   8.859  1.00  0.00     0.210 HD
ENDBRANCH  29  30
ENDBRANCH   1  11
TORSDOF 6
ENDMDL
