MODEL 1
REMARK VINA RESULT:   141.943      0.000      0.000
REMARK INTER + INTRA:         154.911
REMARK INTER:                 154.390
REMARK INTRA:                   0.521
REMARK UNBOUND:                 0.521
REMARK SMILES C[C@@H]1[C@H]2C3=CC[C@H]4[C@@]5(C)CC[C@@H](O)C(C)(C)[C@H]5CC[C@@]4(C)[C@@]3(C)CC[C@]2(C(=O)[O-])CC[C@@H]1C
REMARK SMILES IDX 26 1 30 2 25 3 3 4 31 5 24 6 4 7 2 8 32 9 22 10 5 11 1 12
REMARK SMILES IDX 33 13 23 14 20 15 6 16 7 17 19 18 21 19 8 20 18 21 17 22
REMARK SMILES IDX 10 23 9 24 14 25 11 26 12 27 15 28 16 29 27 30 28 31 29 32
REMARK SMILES IDX 13 33
REMARK H PARENT 13 34
REMARK Flexibility Score: inf
ROOT
ATOM      1  C   UNL     1      -6.164  -2.288  20.874  1.00  0.00     0.017 C 
ATOM      2  C   UNL     1      -6.232  -0.912  21.577  1.00  0.00     0.014 C 
ATOM      3  C   UNL     1      -6.101  -3.420  21.962  1.00  0.00     0.014 C 
ATOM      4  C   UNL     1      -7.474  -2.503  20.038  1.00  0.00     0.030 C 
ATOM      5  C   UNL     1      -6.528   0.245  20.600  1.00  0.00     0.004 C 
ATOM      6  C   UNL     1      -6.266  -4.875  21.389  1.00  0.00     0.013 C 
ATOM      7  C   UNL     1      -7.421  -3.916  19.455  1.00  0.00    -0.063 C 
ATOM      8  C   UNL     1      -7.814  -1.340  19.054  1.00  0.00    -0.003 C 
ATOM      9  C   UNL     1      -7.830   0.035  19.789  1.00  0.00    -0.011 C 
ATOM     10  C   UNL     1      -7.522  -5.077  20.454  1.00  0.00    -0.006 C 
ATOM     11  C   UNL     1      -6.720  -4.090  18.321  1.00  0.00    -0.027 C 
ATOM     12  C   UNL     1      -9.121  -1.612  18.280  1.00  0.00     0.008 C 
ATOM     13  C   UNL     1      -9.065   0.266  20.683  1.00  0.00     0.008 C 
ATOM     14  C   UNL     1      -8.789  -4.919  21.375  1.00  0.00     0.017 C 
ATOM     15  C   UNL     1      -7.622  -6.519  19.657  1.00  0.00    -0.020 C 
ATOM     16  C   UNL     1      -5.943  -5.339  18.064  1.00  0.00     0.032 C 
ATOM     17  C   UNL     1      -6.821  -6.577  18.265  1.00  0.00     0.006 C 
ATOM     18  C   UNL     1      -7.199  -7.709  20.581  1.00  0.00     0.008 C 
ATOM     19  C   UNL     1      -9.125  -6.760  19.279  1.00  0.00     0.012 C 
ATOM     20  C   UNL     1      -6.128  -7.985  17.879  1.00  0.00    -0.025 C 
ATOM     21  C   UNL     1      -5.712  -8.058  20.452  1.00  0.00     0.005 C 
ATOM     22  C   UNL     1      -5.354  -8.695  19.080  1.00  0.00     0.003 C 
ATOM     23  C   UNL     1      -5.172  -7.791  16.664  1.00  0.00     0.010 C 
ATOM     24  C   UNL     1      -7.273  -8.947  17.395  1.00  0.00     0.012 C 
ATOM     25  C   UNL     1      -3.778  -8.953  18.906  1.00  0.00    -0.006 C 
ATOM     26  C   UNL     1      -4.375  -9.043  16.318  1.00  0.00     0.033 C 
ATOM     27  C   UNL     1      -3.371  -9.404  17.427  1.00  0.00     0.120 C 
ATOM     28  C   UNL     1      -3.360 -10.113  19.848  1.00  0.00     0.014 C 
ATOM     29  C   UNL     1      -2.923  -7.722  19.347  1.00  0.00     0.014 C 
ENDROOT
BRANCH   1  30
ATOM     30  C   UNL     1      -4.877  -2.348  20.029  1.00  0.00     0.048 C 
ATOM     31  O   UNL     1      -3.810  -2.814  20.507  1.00  0.00    -0.550 OA
ATOM     32  O   UNL     1      -4.872  -1.948  18.702  1.00  0.00    -0.550 OA
ENDBRANCH   1  30
BRANCH  27  33
ATOM     33  O   UNL     1      -2.115  -8.870  17.056  1.00  0.00    -0.393 OA
ATOM     34  H   UNL     1      -1.738  -8.433  17.870  1.00  0.00     0.210 HD
ENDBRANCH  27  33
TORSDOF 2
ENDMDL
