MODEL 1
REMARK VINA RESULT:    -2.616      0.000      0.000
REMARK INTER + INTRA:          -2.616
REMARK INTER:                  -2.616
REMARK INTRA:                   0.000
REMARK UNBOUND:                 0.000
REMARK SMILES CC(=O)[O-]
REMARK SMILES IDX 1 1 2 2 3 3 4 4
REMARK H PARENT
REMARK Flexibility Score: inf
ROOT
ATOM      1  C   UNL     1      -2.216 -33.448  23.396  1.00  0.00     0.063 C 
ATOM      2  C   UNL     1      -1.696 -32.288  24.177  1.00  0.00     0.038 C 
ATOM      3  O   UNL     1      -2.471 -31.356  24.517  1.00  0.00    -0.550 OA
ATOM      4  O   UNL     1      -0.345 -32.208  24.485  1.00  0.00    -0.550 OA
ENDROOT
TORSDOF 0
ENDMDL
MODEL 2
REMARK VINA RESULT:    -2.476     15.746     16.427
REMARK INTER + INTRA:          -2.476
REMARK INTER:                  -2.476
REMARK INTRA:                   0.000
REMARK UNBOUND:                 0.000
REMARK SMILES CC(=O)[O-]
REMARK SMILES IDX 1 1 2 2 3 3 4 4
REMARK H PARENT
REMARK Flexibility Score: inf
ROOT
ATOM      1  C   UNL     1      -9.621 -19.099  27.570  1.00  0.00     0.063 C 
ATOM      2  C   UNL     1     -10.072 -19.196  28.988  1.00  0.00     0.038 C 
ATOM      3  O   UNL     1      -9.934 -20.274  29.623  1.00  0.00    -0.550 OA
ATOM      4  O   UNL     1     -10.695 -18.114  29.596  1.00  0.00    -0.550 OA
ENDROOT
TORSDOF 0
ENDMDL
MODEL 3
REMARK VINA RESULT:    -2.411     15.811     16.330
REMARK INTER + INTRA:          -2.411
REMARK INTER:                  -2.411
REMARK INTRA:                   0.000
REMARK UNBOUND:                 0.000
REMARK SMILES CC(=O)[O-]
REMARK SMILES IDX 1 1 2 2 3 3 4 4
REMARK H PARENT
REMARK Flexibility Score: inf
ROOT
ATOM      1  C   UNL     1     -10.632 -18.249  29.784  1.00  0.00     0.063 C 
ATOM      2  C   UNL     1     -10.022 -19.335  28.964  1.00  0.00     0.038 C 
ATOM      3  O   UNL     1      -9.489 -19.066  27.855  1.00  0.00    -0.550 OA
ATOM      4  O   UNL     1     -10.088 -20.653  29.395  1.00  0.00    -0.550 OA
ENDROOT
TORSDOF 0
ENDMDL
MODEL 4
REMARK VINA RESULT:    -2.404      3.036      3.605
REMARK INTER + INTRA:          -2.404
REMARK INTER:                  -2.404
REMARK INTRA:                   0.000
REMARK UNBOUND:                 0.000
REMARK SMILES CC(=O)[O-]
REMARK SMILES IDX 1 1 2 2 3 3 4 4
REMARK H PARENT
REMARK Flexibility Score: inf
ROOT
ATOM      1  C   UNL     1      -3.382 -35.907  22.198  1.00  0.00     0.063 C 
ATOM      2  C   UNL     1      -2.231 -34.977  22.387  1.00  0.00     0.038 C 
ATOM      3  O   UNL     1      -1.118 -35.232  21.856  1.00  0.00    -0.550 OA
ATOM      4  O   UNL     1      -2.369 -33.854  23.192  1.00  0.00    -0.550 OA
ENDROOT
TORSDOF 0
ENDMDL
MODEL 5
REMARK VINA RESULT:    -2.391     15.859     16.356
REMARK INTER + INTRA:          -2.391
REMARK INTER:                  -2.391
REMARK INTRA:                   0.000
REMARK UNBOUND:                 0.000
REMARK SMILES CC(=O)[O-]
REMARK SMILES IDX 1 1 2 2 3 3 4 4
REMARK H PARENT
REMARK Flexibility Score: inf
ROOT
ATOM      1  C   UNL     1     -10.644 -18.234  29.788  1.00  0.00     0.063 C 
ATOM      2  C   UNL     1     -10.048 -19.323  28.961  1.00  0.00     0.038 C 
ATOM      3  O   UNL     1     -10.033 -20.507  29.390  1.00  0.00    -0.550 OA
ATOM      4  O   UNL     1      -9.461 -19.026  27.738  1.00  0.00    -0.550 OA
ENDROOT
TORSDOF 0
ENDMDL
MODEL 6
REMARK VINA RESULT:    -2.374      3.290      3.654
REMARK INTER + INTRA:          -2.374
REMARK INTER:                  -2.374
REMARK INTRA:                   0.000
REMARK UNBOUND:                 0.000
REMARK SMILES CC(=O)[O-]
REMARK SMILES IDX 1 1 2 2 3 3 4 4
REMARK H PARENT
REMARK Flexibility Score: inf
ROOT
ATOM      1  C   UNL     1      -1.226 -35.438  21.544  1.00  0.00     0.063 C 
ATOM      2  C   UNL     1      -2.338 -34.931  22.401  1.00  0.00     0.038 C 
ATOM      3  O   UNL     1      -2.177 -33.893  23.095  1.00  0.00    -0.550 OA
ATOM      4  O   UNL     1      -3.534 -35.632  22.475  1.00  0.00    -0.550 OA
ENDROOT
TORSDOF 0
ENDMDL
MODEL 7
REMARK VINA RESULT:    -2.365      3.144      3.394
REMARK INTER + INTRA:          -2.365
REMARK INTER:                  -2.365
REMARK INTRA:                   0.000
REMARK UNBOUND:                 0.000
REMARK SMILES CC(=O)[O-]
REMARK SMILES IDX 1 1 2 2 3 3 4 4
REMARK H PARENT
REMARK Flexibility Score: inf
ROOT
ATOM      1  C   UNL     1      -2.235 -33.459  23.350  1.00  0.00     0.063 C 
ATOM      2  C   UNL     1      -2.265 -34.732  22.572  1.00  0.00     0.038 C 
ATOM      3  O   UNL     1      -3.312 -35.432  22.545  1.00  0.00    -0.550 OA
ATOM      4  O   UNL     1      -1.123 -35.176  21.920  1.00  0.00    -0.550 OA
ENDROOT
TORSDOF 0
ENDMDL
MODEL 8
REMARK VINA RESULT:    -2.225     16.002     16.618
REMARK INTER + INTRA:          -2.225
REMARK INTER:                  -2.225
REMARK INTRA:                   0.000
REMARK UNBOUND:                 0.000
REMARK SMILES CC(=O)[O-]
REMARK SMILES IDX 1 1 2 2 3 3 4 4
REMARK H PARENT
REMARK Flexibility Score: inf
ROOT
ATOM      1  C   UNL     1     -10.258 -20.497  30.034  1.00  0.00     0.063 C 
ATOM      2  C   UNL     1      -9.840 -19.093  29.752  1.00  0.00     0.038 C 
ATOM      3  O   UNL     1      -8.622 -18.775  29.798  1.00  0.00    -0.550 OA
ATOM      4  O   UNL     1     -10.796 -18.122  29.490  1.00  0.00    -0.550 OA
ENDROOT
TORSDOF 0
ENDMDL
MODEL 9
REMARK VINA RESULT:    -2.201      3.902      4.270
REMARK INTER + INTRA:          -2.201
REMARK INTER:                  -2.201
REMARK INTRA:                   0.000
REMARK UNBOUND:                 0.000
REMARK SMILES CC(=O)[O-]
REMARK SMILES IDX 1 1 2 2 3 3 4 4
REMARK H PARENT
REMARK Flexibility Score: inf
ROOT
ATOM      1  C   UNL     1      -2.190 -34.509  22.670  1.00  0.00     0.063 C 
ATOM      2  C   UNL     1      -1.619 -35.354  21.582  1.00  0.00     0.038 C 
ATOM      3  O   UNL     1      -2.383 -35.944  20.772  1.00  0.00    -0.550 OA
ATOM      4  O   UNL     1      -0.246 -35.537  21.491  1.00  0.00    -0.550 OA
ENDROOT
TORSDOF 0
ENDMDL
