MODEL 1
REMARK VINA RESULT:    -3.995      0.000      0.000
REMARK INTER + INTRA:          -5.080
REMARK INTER:                  -4.929
REMARK INTRA:                  -0.151
REMARK UNBOUND:                -0.151
REMARK SMILES CCCCCC(=O)[O-]
REMARK SMILES IDX 4 1 5 2 6 3 7 4 8 5 3 6 2 7 1 8
REMARK H PARENT
REMARK Flexibility Score: inf
ROOT
ATOM      1  C   UNL     1      14.072  33.710  14.327  1.00  0.00     0.006 C 
ENDROOT
BRANCH   1   2
ATOM      2  C   UNL     1      14.648  34.602  13.220  1.00  0.00     0.053 C 
BRANCH   2   3
ATOM      3  C   UNL     1      13.735  35.745  12.896  1.00  0.00     0.041 C 
ATOM      4  O   UNL     1      12.862  36.114  13.725  1.00  0.00    -0.550 OA
ATOM      5  O   UNL     1      13.869  36.424  11.691  1.00  0.00    -0.550 OA
ENDBRANCH   2   3
ENDBRANCH   1   2
BRANCH   1   6
ATOM      6  C   UNL     1      13.306  32.504  13.763  1.00  0.00     0.000 C 
BRANCH   6   7
ATOM      7  C   UNL     1      13.883  32.072  12.410  1.00  0.00    -0.003 C 
ATOM      8  C   UNL     1      14.904  30.951  12.578  1.00  0.00     0.004 C 
ENDBRANCH   6   7
ENDBRANCH   1   6
TORSDOF 4
ENDMDL
MODEL 2
REMARK VINA RESULT:    -3.799      2.498      4.260
REMARK INTER + INTRA:          -4.838
REMARK INTER:                  -4.715
REMARK INTRA:                  -0.123
REMARK UNBOUND:                -0.151
REMARK SMILES CCCCCC(=O)[O-]
REMARK SMILES IDX 4 1 5 2 6 3 7 4 8 5 3 6 2 7 1 8
REMARK H PARENT
REMARK Flexibility Score: inf
ROOT
ATOM      1  C   UNL     1      14.657  34.191  13.723  1.00  0.00     0.006 C 
ENDROOT
BRANCH   1   2
ATOM      2  C   UNL     1      13.402  33.505  14.280  1.00  0.00     0.053 C 
BRANCH   2   3
ATOM      3  C   UNL     1      13.108  32.221  13.567  1.00  0.00     0.041 C 
ATOM      4  O   UNL     1      13.716  31.933  12.503  1.00  0.00    -0.550 OA
ATOM      5  O   UNL     1      12.188  31.326  14.098  1.00  0.00    -0.550 OA
ENDBRANCH   2   3
ENDBRANCH   1   2
BRANCH   1   6
ATOM      6  C   UNL     1      14.315  35.335  12.758  1.00  0.00     0.000 C 
BRANCH   6   7
ATOM      7  C   UNL     1      13.132  36.158  13.281  1.00  0.00    -0.003 C 
ATOM      8  C   UNL     1      12.774  37.285  12.316  1.00  0.00     0.004 C 
ENDBRANCH   6   7
ENDBRANCH   1   6
TORSDOF 4
ENDMDL
MODEL 3
REMARK VINA RESULT:    -3.770      2.861      4.191
REMARK INTER + INTRA:          -4.803
REMARK INTER:                  -4.662
REMARK INTRA:                  -0.140
REMARK UNBOUND:                -0.151
REMARK SMILES CCCCCC(=O)[O-]
REMARK SMILES IDX 4 1 5 2 6 3 7 4 8 5 3 6 2 7 1 8
REMARK H PARENT
REMARK Flexibility Score: inf
ROOT
ATOM      1  C   UNL     1      13.595  33.244  14.188  1.00  0.00     0.006 C 
ENDROOT
BRANCH   1   2
ATOM      2  C   UNL     1      13.596  32.387  12.916  1.00  0.00     0.053 C 
BRANCH   2   3
ATOM      3  C   UNL     1      14.863  31.599  12.777  1.00  0.00     0.041 C 
ATOM      4  O   UNL     1      15.051  30.876  11.764  1.00  0.00    -0.550 OA
ATOM      5  O   UNL     1      15.849  31.690  13.750  1.00  0.00    -0.550 OA
ENDBRANCH   2   3
ENDBRANCH   1   2
BRANCH   1   6
ATOM      6  C   UNL     1      13.211  34.704  13.905  1.00  0.00     0.000 C 
BRANCH   6   7
ATOM      7  C   UNL     1      14.167  35.335  12.886  1.00  0.00    -0.003 C 
ATOM      8  C   UNL     1      13.510  36.509  12.167  1.00  0.00     0.004 C 
ENDBRANCH   6   7
ENDBRANCH   1   6
TORSDOF 4
ENDMDL
MODEL 4
REMARK VINA RESULT:    -3.768     11.532     13.290
REMARK INTER + INTRA:          -4.800
REMARK INTER:                  -4.694
REMARK INTRA:                  -0.107
REMARK UNBOUND:                -0.151
REMARK SMILES CCCCCC(=O)[O-]
REMARK SMILES IDX 4 1 5 2 6 3 7 4 8 5 3 6 2 7 1 8
REMARK H PARENT
REMARK Flexibility Score: inf
ROOT
ATOM      1  C   UNL     1       2.784  41.402  11.961  1.00  0.00     0.006 C 
ENDROOT
BRANCH   1   2
ATOM      2  C   UNL     1       4.201  40.986  12.378  1.00  0.00     0.053 C 
BRANCH   2   3
ATOM      3  C   UNL     1       4.233  39.593  12.927  1.00  0.00     0.041 C 
ATOM      4  O   UNL     1       5.116  39.261  13.762  1.00  0.00    -0.550 OA
ATOM      5  O   UNL     1       3.268  38.671  12.544  1.00  0.00    -0.550 OA
ENDBRANCH   2   3
ENDBRANCH   1   2
BRANCH   1   6
ATOM      6  C   UNL     1       2.721  42.863  11.494  1.00  0.00     0.000 C 
BRANCH   6   7
ATOM      7  C   UNL     1       3.754  43.721  12.235  1.00  0.00    -0.003 C 
ATOM      8  C   UNL     1       4.111  44.969  11.433  1.00  0.00     0.004 C 
ENDBRANCH   6   7
ENDBRANCH   1   6
TORSDOF 4
ENDMDL
MODEL 5
REMARK VINA RESULT:    -3.664      1.250      2.101
REMARK INTER + INTRA:          -4.672
REMARK INTER:                  -4.513
REMARK INTRA:                  -0.158
REMARK UNBOUND:                -0.151
REMARK SMILES CCCCCC(=O)[O-]
REMARK SMILES IDX 4 1 5 2 6 3 7 4 8 5 3 6 2 7 1 8
REMARK H PARENT
REMARK Flexibility Score: inf
ROOT
ATOM      1  C   UNL     1      13.512  32.399  12.486  1.00  0.00     0.006 C 
ENDROOT
BRANCH   1   2
ATOM      2  C   UNL     1      13.365  33.224  13.771  1.00  0.00     0.053 C 
BRANCH   2   3
ATOM      3  C   UNL     1      13.692  34.668  13.545  1.00  0.00     0.041 C 
ATOM      4  O   UNL     1      14.800  34.997  13.046  1.00  0.00    -0.550 OA
ATOM      5  O   UNL     1      12.760  35.650  13.855  1.00  0.00    -0.550 OA
ENDBRANCH   2   3
ENDBRANCH   1   2
BRANCH   1   6
ATOM      6  C   UNL     1      14.330  31.118  12.708  1.00  0.00     0.000 C 
BRANCH   6   7
ATOM      7  C   UNL     1      15.614  31.415  13.490  1.00  0.00    -0.003 C 
ATOM      8  C   UNL     1      16.841  30.875  12.762  1.00  0.00     0.004 C 
ENDBRANCH   6   7
ENDBRANCH   1   6
TORSDOF 4
ENDMDL
MODEL 6
REMARK VINA RESULT:    -3.649     14.454     15.531
REMARK INTER + INTRA:          -4.654
REMARK INTER:                  -4.546
REMARK INTRA:                  -0.108
REMARK UNBOUND:                -0.151
REMARK SMILES CCCCCC(=O)[O-]
REMARK SMILES IDX 4 1 5 2 6 3 7 4 8 5 3 6 2 7 1 8
REMARK H PARENT
REMARK Flexibility Score: inf
ROOT
ATOM      1  C   UNL     1       4.095  45.506   9.448  1.00  0.00     0.006 C 
ENDROOT
BRANCH   1   2
ATOM      2  C   UNL     1       4.183  44.162  10.182  1.00  0.00     0.053 C 
BRANCH   2   3
ATOM      3  C   UNL     1       3.506  44.212  11.518  1.00  0.00     0.041 C 
ATOM      4  O   UNL     1       2.249  44.207  11.591  1.00  0.00    -0.550 OA
ATOM      5  O   UNL     1       4.263  44.232  12.682  1.00  0.00    -0.550 OA
ENDBRANCH   2   3
ENDBRANCH   1   2
BRANCH   1   6
ATOM      6  C   UNL     1       4.997  46.575  10.082  1.00  0.00     0.000 C 
BRANCH   6   7
ATOM      7  C   UNL     1       5.724  47.388   9.005  1.00  0.00    -0.003 C 
ATOM      8  C   UNL     1       7.176  47.649   9.396  1.00  0.00     0.004 C 
ENDBRANCH   6   7
ENDBRANCH   1   6
TORSDOF 4
ENDMDL
MODEL 7
REMARK VINA RESULT:    -3.647     15.011     16.375
REMARK INTER + INTRA:          -4.651
REMARK INTER:                  -4.546
REMARK INTRA:                  -0.104
REMARK UNBOUND:                -0.151
REMARK SMILES CCCCCC(=O)[O-]
REMARK SMILES IDX 4 1 5 2 6 3 7 4 8 5 3 6 2 7 1 8
REMARK H PARENT
REMARK Flexibility Score: inf
ROOT
ATOM      1  C   UNL     1       5.266  46.970   9.146  1.00  0.00     0.006 C 
ENDROOT
BRANCH   1   2
ATOM      2  C   UNL     1       4.512  46.685  10.452  1.00  0.00     0.053 C 
BRANCH   2   3
ATOM      3  C   UNL     1       4.314  45.216  10.671  1.00  0.00     0.041 C 
ATOM      4  O   UNL     1       4.175  44.763  11.837  1.00  0.00    -0.550 OA
ATOM      5  O   UNL     1       4.250  44.353   9.584  1.00  0.00    -0.550 OA
ENDBRANCH   2   3
ENDBRANCH   1   2
BRANCH   1   6
ATOM      6  C   UNL     1       6.559  47.764   9.383  1.00  0.00     0.000 C 
BRANCH   6   7
ATOM      7  C   UNL     1       6.382  49.233   8.981  1.00  0.00    -0.003 C 
ATOM      8  C   UNL     1       6.009  50.094  10.184  1.00  0.00     0.004 C 
ENDBRANCH   6   7
ENDBRANCH   1   6
TORSDOF 4
ENDMDL
MODEL 8
REMARK VINA RESULT:    -3.623     11.922     13.112
REMARK INTER + INTRA:          -4.622
REMARK INTER:                  -4.542
REMARK INTRA:                  -0.080
REMARK UNBOUND:                -0.151
REMARK SMILES CCCCCC(=O)[O-]
REMARK SMILES IDX 4 1 5 2 6 3 7 4 8 5 3 6 2 7 1 8
REMARK H PARENT
REMARK Flexibility Score: inf
ROOT
ATOM      1  C   UNL     1       3.501  41.693  12.012  1.00  0.00     0.006 C 
ENDROOT
BRANCH   1   2
ATOM      2  C   UNL     1       2.843  42.554  10.926  1.00  0.00     0.053 C 
BRANCH   2   3
ATOM      3  C   UNL     1       3.780  43.597  10.399  1.00  0.00     0.041 C 
ATOM      4  O   UNL     1       4.243  44.479  11.168  1.00  0.00    -0.550 OA
ATOM      5  O   UNL     1       4.167  43.574   9.065  1.00  0.00    -0.550 OA
ENDBRANCH   2   3
ENDBRANCH   1   2
BRANCH   1   6
ATOM      6  C   UNL     1       2.638  40.482  12.396  1.00  0.00     0.000 C 
BRANCH   6   7
ATOM      7  C   UNL     1       3.514  39.274  12.749  1.00  0.00    -0.003 C 
ATOM      8  C   UNL     1       4.870  39.715  13.292  1.00  0.00     0.004 C 
ENDBRANCH   6   7
ENDBRANCH   1   6
TORSDOF 4
ENDMDL
MODEL 9
REMARK VINA RESULT:    -3.613     14.260     15.589
REMARK INTER + INTRA:          -4.609
REMARK INTER:                  -4.430
REMARK INTRA:                  -0.179
REMARK UNBOUND:                -0.151
REMARK SMILES CCCCCC(=O)[O-]
REMARK SMILES IDX 4 1 5 2 6 3 7 4 8 5 3 6 2 7 1 8
REMARK H PARENT
REMARK Flexibility Score: inf
ROOT
ATOM      1  C   UNL     1       3.726  46.384  10.543  1.00  0.00     0.006 C 
ENDROOT
BRANCH   1   2
ATOM      2  C   UNL     1       4.492  45.170  11.085  1.00  0.00     0.053 C 
BRANCH   2   3
ATOM      3  C   UNL     1       4.114  43.909  10.370  1.00  0.00     0.041 C 
ATOM      4  O   UNL     1       4.230  43.830   9.119  1.00  0.00    -0.550 OA
ATOM      5  O   UNL     1       3.664  42.809  11.090  1.00  0.00    -0.550 OA
ENDBRANCH   2   3
ENDBRANCH   1   2
BRANCH   1   6
ATOM      6  C   UNL     1       4.655  47.568  10.236  1.00  0.00     0.000 C 
BRANCH   6   7
ATOM      7  C   UNL     1       5.581  47.247   9.057  1.00  0.00    -0.003 C 
ATOM      8  C   UNL     1       7.017  47.668   9.352  1.00  0.00     0.004 C 
ENDBRANCH   6   7
ENDBRANCH   1   6
TORSDOF 4
ENDMDL
