MODEL 1
REMARK VINA RESULT:    -4.300      0.000      0.000
REMARK INTER + INTRA:          -4.426
REMARK INTER:                  -4.426
REMARK INTRA:                   0.000
REMARK UNBOUND:                 0.000
REMARK SMILES C=C1[C@@H](O)C[C@@]23C[C@@H]1C(C)(C)[C@@H]2CC[C@@H]3C
REMARK SMILES IDX 16 1 15 2 14 3 13 4 12 5 6 6 7 7 8 8 9 9 10 10 11 11 2 12
REMARK SMILES IDX 1 13 3 14 5 15 4 16
REMARK H PARENT 4 17
REMARK Flexibility Score: inf
ROOT
ATOM      1  C   UNL     1      -3.198   4.856  -4.189  1.00  0.00     0.008 C 
ATOM      2  C   UNL     1      -2.870   3.744  -5.196  1.00  0.00    -0.008 C 
ATOM      3  C   UNL     1      -3.448   4.016  -6.580  1.00  0.00     0.004 C 
ATOM      4  C   UNL     1      -2.657   3.115  -7.519  1.00  0.00     0.005 C 
ATOM      5  C   UNL     1      -1.266   2.915  -6.874  1.00  0.00     0.002 C 
ATOM      6  C   UNL     1      -1.367   3.489  -5.439  1.00  0.00    -0.020 C 
ATOM      7  C   UNL     1      -0.500   4.755  -5.464  1.00  0.00     0.016 C 
ATOM      8  C   UNL     1       0.671   4.300  -6.311  1.00  0.00     0.023 C 
ATOM      9  C   UNL     1      -0.021   3.617  -7.529  1.00  0.00    -0.025 C 
ATOM     10  C   UNL     1      -0.378   4.705  -8.578  1.00  0.00     0.012 C 
ATOM     11  C   UNL     1       0.891   2.584  -8.235  1.00  0.00     0.012 C 
ATOM     12  C   UNL     1       1.485   3.316  -5.470  1.00  0.00    -0.045 C 
ATOM     13  C   UNL     1       2.823   3.291  -5.588  1.00  0.00     0.011 C 
ATOM     14  C   UNL     1       0.773   2.252  -4.624  1.00  0.00     0.140 C 
ATOM     15  C   UNL     1      -0.748   2.520  -4.395  1.00  0.00     0.044 C 
ENDROOT
BRANCH  14  16
ATOM     16  O   UNL     1       1.418   2.085  -3.385  1.00  0.00    -0.389 OA
ATOM     17  H   UNL     1       1.756   1.152  -3.351  1.00  0.00     0.211 HD
ENDBRANCH  14  16
TORSDOF 1
ENDMDL
MODEL 2
REMARK VINA RESULT:    -4.299      2.182      3.890
REMARK INTER + INTRA:          -4.424
REMARK INTER:                  -4.424
REMARK INTRA:                   0.000
REMARK UNBOUND:                 0.000
REMARK SMILES C=C1[C@@H](O)C[C@@]23C[C@@H]1C(C)(C)[C@@H]2CC[C@@H]3C
REMARK SMILES IDX 16 1 15 2 14 3 13 4 12 5 6 6 7 7 8 8 9 9 10 10 11 11 2 12
REMARK SMILES IDX 1 13 3 14 5 15 4 16
REMARK H PARENT 4 17
REMARK Flexibility Score: inf
ROOT
ATOM      1  C   UNL     1       0.773   2.030  -4.072  1.00  0.00     0.008 C 
ATOM      2  C   UNL     1      -0.074   3.284  -4.336  1.00  0.00    -0.008 C 
ATOM      3  C   UNL     1       0.758   4.561  -4.360  1.00  0.00     0.004 C 
ATOM      4  C   UNL     1      -0.112   5.581  -5.080  1.00  0.00     0.005 C 
ATOM      5  C   UNL     1      -1.023   4.787  -6.044  1.00  0.00     0.002 C 
ATOM      6  C   UNL     1      -0.850   3.293  -5.670  1.00  0.00    -0.020 C 
ATOM      7  C   UNL     1      -0.091   2.681  -6.855  1.00  0.00     0.016 C 
ATOM      8  C   UNL     1      -0.750   3.380  -8.027  1.00  0.00     0.023 C 
ATOM      9  C   UNL     1      -0.749   4.876  -7.589  1.00  0.00    -0.025 C 
ATOM     10  C   UNL     1       0.620   5.507  -7.962  1.00  0.00     0.012 C 
ATOM     11  C   UNL     1      -1.843   5.709  -8.300  1.00  0.00     0.012 C 
ATOM     12  C   UNL     1      -2.161   2.808  -8.163  1.00  0.00    -0.045 C 
ATOM     13  C   UNL     1      -2.700   2.654  -9.383  1.00  0.00     0.011 C 
ATOM     14  C   UNL     1      -3.019   2.568  -6.913  1.00  0.00     0.140 C 
ATOM     15  C   UNL     1      -2.221   2.571  -5.571  1.00  0.00     0.044 C 
ENDROOT
BRANCH  14  16
ATOM     16  O   UNL     1      -3.749   1.372  -7.030  1.00  0.00    -0.389 OA
ATOM     17  H   UNL     1      -4.225   1.400  -7.901  1.00  0.00     0.211 HD
ENDBRANCH  14  16
TORSDOF 1
ENDMDL
MODEL 3
REMARK VINA RESULT:    -4.256      0.990      1.135
REMARK INTER + INTRA:          -4.380
REMARK INTER:                  -4.380
REMARK INTRA:                   0.000
REMARK UNBOUND:                 0.000
REMARK SMILES C=C1[C@@H](O)C[C@@]23C[C@@H]1C(C)(C)[C@@H]2CC[C@@H]3C
REMARK SMILES IDX 16 1 15 2 14 3 13 4 12 5 6 6 7 7 8 8 9 9 10 10 11 11 2 12
REMARK SMILES IDX 1 13 3 14 5 15 4 16
REMARK H PARENT 4 17
REMARK Flexibility Score: inf
ROOT
ATOM      1  C   UNL     1      -4.038   5.420  -5.279  1.00  0.00     0.008 C 
ATOM      2  C   UNL     1      -3.752   4.165  -6.117  1.00  0.00    -0.008 C 
ATOM      3  C   UNL     1      -4.088   4.354  -7.591  1.00  0.00     0.004 C 
ATOM      4  C   UNL     1      -3.326   3.250  -8.311  1.00  0.00     0.005 C 
ATOM      5  C   UNL     1      -2.082   2.935  -7.449  1.00  0.00     0.002 C 
ATOM      6  C   UNL     1      -2.287   3.679  -6.105  1.00  0.00    -0.020 C 
ATOM      7  C   UNL     1      -1.240   4.801  -6.118  1.00  0.00     0.016 C 
ATOM      8  C   UNL     1      -0.049   4.094  -6.733  1.00  0.00     0.023 C 
ATOM      9  C   UNL     1      -0.668   3.379  -7.972  1.00  0.00    -0.025 C 
ATOM     10  C   UNL     1      -0.708   4.377  -9.160  1.00  0.00     0.012 C 
ATOM     11  C   UNL     1       0.163   2.156  -8.433  1.00  0.00     0.012 C 
ATOM     12  C   UNL     1       0.483   3.110  -5.691  1.00  0.00    -0.045 C 
ATOM     13  C   UNL     1       1.804   2.887  -5.603  1.00  0.00     0.011 C 
ATOM     14  C   UNL     1      -0.491   2.260  -4.865  1.00  0.00     0.140 C 
ATOM     15  C   UNL     1      -1.971   2.759  -4.894  1.00  0.00     0.044 C 
ENDROOT
BRANCH  14  16
ATOM     16  O   UNL     1      -0.053   2.148  -3.533  1.00  0.00    -0.389 OA
ATOM     17  H   UNL     1       0.375   1.257  -3.437  1.00  0.00     0.211 HD
ENDBRANCH  14  16
TORSDOF 1
ENDMDL
MODEL 4
REMARK VINA RESULT:    -4.186      2.278      4.842
REMARK INTER + INTRA:          -4.308
REMARK INTER:                  -4.308
REMARK INTRA:                   0.000
REMARK UNBOUND:                 0.000
REMARK SMILES C=C1[C@@H](O)C[C@@]23C[C@@H]1C(C)(C)[C@@H]2CC[C@@H]3C
REMARK SMILES IDX 16 1 15 2 14 3 13 4 12 5 6 6 7 7 8 8 9 9 10 10 11 11 2 12
REMARK SMILES IDX 1 13 3 14 5 15 4 16
REMARK H PARENT 4 17
REMARK Flexibility Score: inf
ROOT
ATOM      1  C   UNL     1       0.952   2.881  -8.098  1.00  0.00     0.008 C 
ATOM      2  C   UNL     1       0.128   2.574  -6.838  1.00  0.00    -0.008 C 
ATOM      3  C   UNL     1       0.878   2.900  -5.552  1.00  0.00     0.004 C 
ATOM      4  C   UNL     1      -0.201   2.996  -4.483  1.00  0.00     0.005 C 
ATOM      5  C   UNL     1      -1.498   3.437  -5.199  1.00  0.00     0.002 C 
ATOM      6  C   UNL     1      -1.211   3.333  -6.718  1.00  0.00    -0.020 C 
ATOM      7  C   UNL     1      -1.167   4.787  -7.207  1.00  0.00     0.016 C 
ATOM      8  C   UNL     1      -2.301   5.405  -6.414  1.00  0.00     0.023 C 
ATOM      9  C   UNL     1      -2.031   4.897  -4.965  1.00  0.00    -0.025 C 
ATOM     10  C   UNL     1      -1.013   5.850  -4.280  1.00  0.00     0.012 C 
ATOM     11  C   UNL     1      -3.307   4.888  -4.087  1.00  0.00     0.012 C 
ATOM     12  C   UNL     1      -3.608   4.863  -6.992  1.00  0.00    -0.045 C 
ATOM     13  C   UNL     1      -4.690   5.657  -7.042  1.00  0.00     0.011 C 
ATOM     14  C   UNL     1      -3.733   3.379  -7.359  1.00  0.00     0.140 C 
ATOM     15  C   UNL     1      -2.370   2.623  -7.468  1.00  0.00     0.044 C 
ENDROOT
BRANCH  14  16
ATOM     16  O   UNL     1      -4.462   3.217  -8.551  1.00  0.00    -0.389 OA
ATOM     17  H   UNL     1      -5.121   2.490  -8.398  1.00  0.00     0.211 HD
ENDBRANCH  14  16
TORSDOF 1
ENDMDL
MODEL 5
REMARK VINA RESULT:    -4.101      2.042      4.420
REMARK INTER + INTRA:          -4.221
REMARK INTER:                  -4.221
REMARK INTRA:                   0.000
REMARK UNBOUND:                 0.000
REMARK SMILES C=C1[C@@H](O)C[C@@]23C[C@@H]1C(C)(C)[C@@H]2CC[C@@H]3C
REMARK SMILES IDX 16 1 15 2 14 3 13 4 12 5 6 6 7 7 8 8 9 9 10 10 11 11 2 12
REMARK SMILES IDX 1 13 3 14 5 15 4 16
REMARK H PARENT 4 17
REMARK Flexibility Score: inf
ROOT
ATOM      1  C   UNL     1       3.067   3.724  -5.610  1.00  0.00     0.008 C 
ATOM      2  C   UNL     1       1.903   2.723  -5.544  1.00  0.00    -0.008 C 
ATOM      3  C   UNL     1       1.379   2.525  -4.127  1.00  0.00     0.004 C 
ATOM      4  C   UNL     1      -0.007   1.919  -4.303  1.00  0.00     0.005 C 
ATOM      5  C   UNL     1      -0.540   2.420  -5.665  1.00  0.00     0.002 C 
ATOM      6  C   UNL     1       0.658   3.096  -6.378  1.00  0.00    -0.020 C 
ATOM      7  C   UNL     1       0.315   4.592  -6.381  1.00  0.00     0.016 C 
ATOM      8  C   UNL     1      -1.171   4.558  -6.673  1.00  0.00     0.023 C 
ATOM      9  C   UNL     1      -1.700   3.481  -5.679  1.00  0.00    -0.025 C 
ATOM     10  C   UNL     1      -1.969   4.154  -4.305  1.00  0.00     0.012 C 
ATOM     11  C   UNL     1      -3.032   2.842  -6.141  1.00  0.00     0.012 C 
ATOM     12  C   UNL     1      -1.338   4.142  -8.135  1.00  0.00    -0.045 C 
ATOM     13  C   UNL     1      -2.335   4.668  -8.864  1.00  0.00     0.011 C 
ATOM     14  C   UNL     1      -0.481   3.010  -8.716  1.00  0.00     0.140 C 
ATOM     15  C   UNL     1       0.769   2.639  -7.858  1.00  0.00     0.044 C 
ENDROOT
BRANCH  14  16
ATOM     16  O   UNL     1      -0.082   3.310 -10.031  1.00  0.00    -0.389 OA
ATOM     17  H   UNL     1       0.773   2.831 -10.197  1.00  0.00     0.211 HD
ENDBRANCH  14  16
TORSDOF 1
ENDMDL
MODEL 6
REMARK VINA RESULT:    -4.086      1.846      4.255
REMARK INTER + INTRA:          -4.205
REMARK INTER:                  -4.205
REMARK INTRA:                   0.000
REMARK UNBOUND:                 0.000
REMARK SMILES C=C1[C@@H](O)C[C@@]23C[C@@H]1C(C)(C)[C@@H]2CC[C@@H]3C
REMARK SMILES IDX 16 1 15 2 14 3 13 4 12 5 6 6 7 7 8 8 9 9 10 10 11 11 2 12
REMARK SMILES IDX 1 13 3 14 5 15 4 16
REMARK H PARENT 4 17
REMARK Flexibility Score: inf
ROOT
ATOM      1  C   UNL     1       1.401   2.811  -4.475  1.00  0.00     0.008 C 
ATOM      2  C   UNL     1       0.763   3.522  -5.678  1.00  0.00    -0.008 C 
ATOM      3  C   UNL     1       0.446   2.568  -6.824  1.00  0.00     0.004 C 
ATOM      4  C   UNL     1      -0.571   3.309  -7.681  1.00  0.00     0.005 C 
ATOM      5  C   UNL     1      -1.337   4.262  -6.735  1.00  0.00     0.002 C 
ATOM      6  C   UNL     1      -0.568   4.249  -5.390  1.00  0.00    -0.020 C 
ATOM      7  C   UNL     1      -1.500   3.516  -4.416  1.00  0.00     0.016 C 
ATOM      8  C   UNL     1      -2.852   4.064  -4.823  1.00  0.00     0.023 C 
ATOM      9  C   UNL     1      -2.831   3.930  -6.376  1.00  0.00    -0.025 C 
ATOM     10  C   UNL     1      -3.280   2.494  -6.762  1.00  0.00     0.012 C 
ATOM     11  C   UNL     1      -3.802   4.914  -7.075  1.00  0.00     0.012 C 
ATOM     12  C   UNL     1      -2.911   5.520  -4.360  1.00  0.00    -0.045 C 
ATOM     13  C   UNL     1      -4.075   6.031  -3.927  1.00  0.00     0.011 C 
ATOM     14  C   UNL     1      -1.695   6.437  -4.544  1.00  0.00     0.140 C 
ATOM     15  C   UNL     1      -0.359   5.687  -4.843  1.00  0.00     0.044 C 
ENDROOT
BRANCH  14  16
ATOM     16  O   UNL     1      -1.529   7.278  -3.428  1.00  0.00    -0.389 OA
ATOM     17  H   UNL     1      -0.816   7.931  -3.655  1.00  0.00     0.211 HD
ENDBRANCH  14  16
TORSDOF 1
ENDMDL
MODEL 7
REMARK VINA RESULT:    -4.031      1.696      2.706
REMARK INTER + INTRA:          -4.149
REMARK INTER:                  -4.149
REMARK INTRA:                   0.000
REMARK UNBOUND:                 0.000
REMARK SMILES C=C1[C@@H](O)C[C@@]23C[C@@H]1C(C)(C)[C@@H]2CC[C@@H]3C
REMARK SMILES IDX 16 1 15 2 14 3 13 4 12 5 6 6 7 7 8 8 9 9 10 10 11 11 2 12
REMARK SMILES IDX 1 13 3 14 5 15 4 16
REMARK H PARENT 4 17
REMARK Flexibility Score: inf
ROOT
ATOM      1  C   UNL     1      -1.406   3.113  -4.427  1.00  0.00     0.008 C 
ATOM      2  C   UNL     1      -0.417   2.591  -5.480  1.00  0.00    -0.008 C 
ATOM      3  C   UNL     1      -0.745   3.076  -6.887  1.00  0.00     0.004 C 
ATOM      4  C   UNL     1       0.540   2.881  -7.679  1.00  0.00     0.005 C 
ATOM      5  C   UNL     1       1.705   2.993  -6.669  1.00  0.00     0.002 C 
ATOM      6  C   UNL     1       1.059   2.986  -5.260  1.00  0.00    -0.020 C 
ATOM      7  C   UNL     1       1.266   4.411  -4.730  1.00  0.00     0.016 C 
ATOM      8  C   UNL     1       2.669   4.712  -5.218  1.00  0.00     0.023 C 
ATOM      9  C   UNL     1       2.623   4.268  -6.712  1.00  0.00    -0.025 C 
ATOM     10  C   UNL     1       2.058   5.436  -7.566  1.00  0.00     0.012 C 
ATOM     11  C   UNL     1       4.023   3.926  -7.278  1.00  0.00     0.012 C 
ATOM     12  C   UNL     1       3.632   3.868  -4.383  1.00  0.00    -0.045 C 
ATOM     13  C   UNL     1       4.835   4.365  -4.055  1.00  0.00     0.011 C 
ATOM     14  C   UNL     1       3.296   2.405  -4.064  1.00  0.00     0.140 C 
ATOM     15  C   UNL     1       1.802   2.018  -4.300  1.00  0.00     0.044 C 
ENDROOT
BRANCH  14  16
ATOM     16  O   UNL     1       3.668   2.083  -2.746  1.00  0.00    -0.389 OA
ATOM     17  H   UNL     1       3.142   1.284  -2.478  1.00  0.00     0.211 HD
ENDBRANCH  14  16
TORSDOF 1
ENDMDL
MODEL 8
REMARK VINA RESULT:    -3.991     12.267     14.277
REMARK INTER + INTRA:          -4.108
REMARK INTER:                  -4.108
REMARK INTRA:                   0.000
REMARK UNBOUND:                 0.000
REMARK SMILES C=C1[C@@H](O)C[C@@]23C[C@@H]1C(C)(C)[C@@H]2CC[C@@H]3C
REMARK SMILES IDX 16 1 15 2 14 3 13 4 12 5 6 6 7 7 8 8 9 9 10 10 11 11 2 12
REMARK SMILES IDX 1 13 3 14 5 15 4 16
REMARK H PARENT 4 17
REMARK Flexibility Score: inf
ROOT
ATOM      1  C   UNL     1      -3.480   2.164   7.303  1.00  0.00     0.008 C 
ATOM      2  C   UNL     1      -1.975   2.172   7.612  1.00  0.00    -0.008 C 
ATOM      3  C   UNL     1      -1.680   2.392   9.090  1.00  0.00     0.004 C 
ATOM      4  C   UNL     1      -0.251   1.905   9.281  1.00  0.00     0.005 C 
ATOM      5  C   UNL     1      -0.006   0.816   8.212  1.00  0.00     0.002 C 
ATOM      6  C   UNL     1      -1.215   0.879   7.245  1.00  0.00    -0.020 C 
ATOM      7  C   UNL     1      -1.993  -0.417   7.511  1.00  0.00     0.016 C 
ATOM      8  C   UNL     1      -0.866  -1.414   7.686  1.00  0.00     0.023 C 
ATOM      9  C   UNL     1       0.098  -0.684   8.670  1.00  0.00    -0.025 C 
ATOM     10  C   UNL     1      -0.378  -0.944  10.125  1.00  0.00     0.012 C 
ATOM     11  C   UNL     1       1.556  -1.195   8.570  1.00  0.00     0.012 C 
ATOM     12  C   UNL     1      -0.240  -1.639   6.309  1.00  0.00    -0.045 C 
ATOM     13  C   UNL     1       0.222  -2.856   5.982  1.00  0.00     0.011 C 
ATOM     14  C   UNL     1       0.011  -0.449   5.372  1.00  0.00     0.140 C 
ATOM     15  C   UNL     1      -0.758   0.853   5.761  1.00  0.00     0.044 C 
ENDROOT
BRANCH  14  16
ATOM     16  O   UNL     1      -0.280  -0.792   4.040  1.00  0.00    -0.389 OA
ATOM     17  H   UNL     1      -1.150  -0.372   3.810  1.00  0.00     0.211 HD
ENDBRANCH  14  16
TORSDOF 1
ENDMDL
MODEL 9
REMARK VINA RESULT:    -3.908     10.395     12.469
REMARK INTER + INTRA:          -4.023
REMARK INTER:                  -4.023
REMARK INTRA:                   0.000
REMARK UNBOUND:                 0.000
REMARK SMILES C=C1[C@@H](O)C[C@@]23C[C@@H]1C(C)(C)[C@@H]2CC[C@@H]3C
REMARK SMILES IDX 16 1 15 2 14 3 13 4 12 5 6 6 7 7 8 8 9 9 10 10 11 11 2 12
REMARK SMILES IDX 1 13 3 14 5 15 4 16
REMARK H PARENT 4 17
REMARK Flexibility Score: inf
ROOT
ATOM      1  C   UNL     1       4.784  -9.078  -0.364  1.00  0.00     0.008 C 
ATOM      2  C   UNL     1       3.885  -8.109  -1.146  1.00  0.00    -0.008 C 
ATOM      3  C   UNL     1       2.584  -8.755  -1.605  1.00  0.00     0.004 C 
ATOM      4  C   UNL     1       1.655  -7.589  -1.914  1.00  0.00     0.005 C 
ATOM      5  C   UNL     1       2.098  -6.417  -1.007  1.00  0.00     0.002 C 
ATOM      6  C   UNL     1       3.448  -6.842  -0.378  1.00  0.00    -0.020 C 
ATOM      7  C   UNL     1       3.132  -7.071   1.106  1.00  0.00     0.016 C 
ATOM      8  C   UNL     1       2.178  -5.929   1.389  1.00  0.00     0.023 C 
ATOM      9  C   UNL     1       1.176  -6.004   0.197  1.00  0.00    -0.025 C 
ATOM     10  C   UNL     1       0.066  -7.035   0.539  1.00  0.00     0.012 C 
ATOM     11  C   UNL     1       0.473  -4.652  -0.080  1.00  0.00     0.012 C 
ATOM     12  C   UNL     1       3.000  -4.639   1.386  1.00  0.00    -0.045 C 
ATOM     13  C   UNL     1       2.681  -3.648   2.233  1.00  0.00     0.011 C 
ATOM     14  C   UNL     1       4.072  -4.412   0.312  1.00  0.00     0.140 C 
ATOM     15  C   UNL     1       4.497  -5.700  -0.461  1.00  0.00     0.044 C 
ENDROOT
BRANCH  14  16
ATOM     16  O   UNL     1       5.208  -3.792   0.863  1.00  0.00    -0.389 OA
ATOM     17  H   UNL     1       5.669  -4.468   1.428  1.00  0.00     0.211 HD
ENDBRANCH  14  16
TORSDOF 1
ENDMDL
