MODEL 1
REMARK VINA RESULT:    22.235      0.000      0.000
REMARK INTER + INTRA:          25.916
REMARK INTER:                  26.134
REMARK INTRA:                  -0.219
REMARK UNBOUND:                -0.219
REMARK SMILES O=c1c(O)c(-c2ccc(O)c(O)c2)oc2cc(O)ccc12
REMARK SMILES IDX 5 1 3 2 2 3 1 4 21 5 15 6 14 7 16 8 17 9 19 10 20 11 6 12
REMARK SMILES IDX 7 13 8 14 9 15 13 16 11 17 10 18 12 20 4 22 18 24
REMARK H PARENT 10 19 12 21 4 23 18 25
REMARK Flexibility Score: inf
ROOT
ATOM      1  C   UNL     1       7.321   3.311  18.586  1.00  0.00     0.180 A 
ATOM      2  C   UNL     1       8.690   3.044  18.383  1.00  0.00     0.208 A 
ATOM      3  C   UNL     1       9.560   4.117  18.135  1.00  0.00     0.235 A 
ATOM      4  O   UNL     1      10.788   3.902  17.941  1.00  0.00    -0.285 OA
ATOM      5  C   UNL     1       9.053   5.425  18.115  1.00  0.00     0.069 A 
ATOM      6  C   UNL     1       7.673   5.612  18.350  1.00  0.00     0.142 A 
ATOM      7  O   UNL     1       6.882   4.568  18.572  1.00  0.00    -0.452 OA
ATOM      8  C   UNL     1       7.131   6.902  18.348  1.00  0.00     0.094 A 
ATOM      9  C   UNL     1       7.949   8.011  18.111  1.00  0.00     0.119 A 
ATOM     10  C   UNL     1       9.319   7.830  17.876  1.00  0.00     0.047 A 
ATOM     11  C   UNL     1       9.871   6.545  17.878  1.00  0.00     0.020 A 
ENDROOT
BRANCH   1  12
ATOM     12  C   UNL     1       6.337   2.232  18.833  1.00  0.00     0.025 A 
ATOM     13  C   UNL     1       5.367   1.890  17.875  1.00  0.00     0.016 A 
ATOM     14  C   UNL     1       4.435   0.883  18.141  1.00  0.00     0.051 A 
ATOM     15  C   UNL     1       4.448   0.214  19.372  1.00  0.00     0.157 A 
ATOM     16  C   UNL     1       6.333   1.572  20.074  1.00  0.00     0.062 A 
ATOM     17  C   UNL     1       5.401   0.564  20.343  1.00  0.00     0.158 A 
BRANCH  15  18
ATOM     18  O   UNL     1       3.518  -0.790  19.633  1.00  0.00    -0.504 OA
ATOM     19  H   UNL     1       3.498  -1.277  20.521  1.00  0.00     0.293 HD
ENDBRANCH  15  18
BRANCH  17  20
ATOM     20  O   UNL     1       5.437  -0.077  21.581  1.00  0.00    -0.504 OA
ATOM     21  H   UNL     1       6.265  -0.555  21.916  1.00  0.00     0.293 HD
ENDBRANCH  17  20
ENDBRANCH   1  12
BRANCH   2  22
ATOM     22  O   UNL     1       9.175   1.735  18.459  1.00  0.00    -0.502 OA
ATOM     23  H   UNL     1      10.138   1.527  18.692  1.00  0.00     0.293 HD
ENDBRANCH   2  22
BRANCH   9  24
ATOM     24  O   UNL     1       7.393   9.288  18.111  1.00  0.00    -0.508 OA
ATOM     25  H   UNL     1       7.028   9.706  17.263  1.00  0.00     0.293 HD
ENDBRANCH   9  24
TORSDOF 5
ENDMDL
MODEL 2
REMARK VINA RESULT:    25.081      1.457      6.562
REMARK INTER + INTRA:          29.261
REMARK INTER:                  28.709
REMARK INTRA:                   0.552
REMARK UNBOUND:                -0.219
REMARK SMILES O=c1c(O)c(-c2ccc(O)c(O)c2)oc2cc(O)ccc12
REMARK SMILES IDX 5 1 3 2 2 3 1 4 21 5 15 6 14 7 16 8 17 9 19 10 20 11 6 12
REMARK SMILES IDX 7 13 8 14 9 15 13 16 11 17 10 18 12 20 4 22 18 24
REMARK H PARENT 10 19 12 21 4 23 18 25
REMARK Flexibility Score: inf
ROOT
ATOM      1  C   UNL     1       7.743   4.554  17.985  1.00  0.00     0.180 A 
ATOM      2  C   UNL     1       9.006   3.925  17.963  1.00  0.00     0.208 A 
ATOM      3  C   UNL     1       9.064   2.524  17.989  1.00  0.00     0.235 A 
ATOM      4  O   UNL     1      10.182   1.938  17.979  1.00  0.00    -0.285 OA
ATOM      5  C   UNL     1       7.872   1.783  18.016  1.00  0.00     0.069 A 
ATOM      6  C   UNL     1       6.648   2.486  18.014  1.00  0.00     0.142 A 
ATOM      7  O   UNL     1       6.636   3.815  17.997  1.00  0.00    -0.452 OA
ATOM      8  C   UNL     1       5.437   1.785  18.031  1.00  0.00     0.094 A 
ATOM      9  C   UNL     1       5.432   0.386  18.053  1.00  0.00     0.119 A 
ATOM     10  C   UNL     1       6.646  -0.316  18.058  1.00  0.00     0.047 A 
ATOM     11  C   UNL     1       7.861   0.377  18.039  1.00  0.00     0.020 A 
ENDROOT
BRANCH   1  12
ATOM     12  C   UNL     1       7.599   6.027  17.979  1.00  0.00     0.025 A 
ATOM     13  C   UNL     1       6.334   6.640  17.957  1.00  0.00     0.016 A 
ATOM     14  C   UNL     1       6.224   8.033  17.928  1.00  0.00     0.051 A 
ATOM     15  C   UNL     1       7.373   8.833  17.906  1.00  0.00     0.157 A 
ATOM     16  C   UNL     1       8.748   6.834  17.935  1.00  0.00     0.062 A 
ATOM     17  C   UNL     1       8.641   8.229  17.907  1.00  0.00     0.158 A 
BRANCH  15  18
ATOM     18  O   UNL     1       7.259  10.222  17.879  1.00  0.00    -0.504 OA
ATOM     19  H   UNL     1       8.076  10.822  17.874  1.00  0.00     0.293 HD
ENDBRANCH  15  18
BRANCH  17  20
ATOM     20  O   UNL     1       9.805   8.997  17.878  1.00  0.00    -0.504 OA
ATOM     21  H   UNL     1      10.673   8.673  18.288  1.00  0.00     0.293 HD
ENDBRANCH  17  20
ENDBRANCH   1  12
BRANCH   2  22
ATOM     22  O   UNL     1      10.175   4.687  17.885  1.00  0.00    -0.502 OA
ATOM     23  H   UNL     1      10.650   5.035  18.709  1.00  0.00     0.293 HD
ENDBRANCH   2  22
BRANCH   9  24
ATOM     24  O   UNL     1       4.218  -0.296  18.071  1.00  0.00    -0.508 OA
ATOM     25  H   UNL     1       3.749  -0.564  17.214  1.00  0.00     0.293 HD
ENDBRANCH   9  24
TORSDOF 5
ENDMDL
MODEL 3
REMARK VINA RESULT:    25.151      1.539      6.617
REMARK INTER + INTRA:          29.344
REMARK INTER:                  28.874
REMARK INTRA:                   0.470
REMARK UNBOUND:                -0.219
REMARK SMILES O=c1c(O)c(-c2ccc(O)c(O)c2)oc2cc(O)ccc12
REMARK SMILES IDX 5 1 3 2 2 3 1 4 21 5 15 6 14 7 16 8 17 9 19 10 20 11 6 12
REMARK SMILES IDX 7 13 8 14 9 15 13 16 11 17 10 18 12 20 4 22 18 24
REMARK H PARENT 10 19 12 21 4 23 18 25
REMARK Flexibility Score: inf
ROOT
ATOM      1  C   UNL     1       8.352   3.951  17.938  1.00  0.00     0.180 A 
ATOM      2  C   UNL     1       9.265   2.876  17.975  1.00  0.00     0.208 A 
ATOM      3  C   UNL     1       8.765   1.566  18.029  1.00  0.00     0.235 A 
ATOM      4  O   UNL     1       9.561   0.588  18.072  1.00  0.00    -0.285 OA
ATOM      5  C   UNL     1       7.378   1.356  18.024  1.00  0.00     0.069 A 
ATOM      6  C   UNL     1       6.530   2.483  17.963  1.00  0.00     0.142 A 
ATOM      7  O   UNL     1       7.043   3.708  17.922  1.00  0.00    -0.452 OA
ATOM      8  C   UNL     1       5.141   2.315  17.946  1.00  0.00     0.094 A 
ATOM      9  C   UNL     1       4.585   1.032  17.993  1.00  0.00     0.119 A 
ATOM     10  C   UNL     1       5.423  -0.090  18.057  1.00  0.00     0.047 A 
ATOM     11  C   UNL     1       6.812   0.068  18.072  1.00  0.00     0.020 A 
ENDROOT
BRANCH   1  12
ATOM     12  C   UNL     1       8.800   5.362  17.900  1.00  0.00     0.025 A 
ATOM     13  C   UNL     1      10.165   5.698  17.889  1.00  0.00     0.016 A 
ATOM     14  C   UNL     1      10.563   7.037  17.876  1.00  0.00     0.051 A 
ATOM     15  C   UNL     1       9.606   8.060  17.889  1.00  0.00     0.157 A 
ATOM     16  C   UNL     1       7.844   6.391  17.934  1.00  0.00     0.062 A 
ATOM     17  C   UNL     1       8.240   7.733  17.922  1.00  0.00     0.158 A 
BRANCH  15  18
ATOM     18  O   UNL     1      10.007   9.394  17.875  1.00  0.00    -0.504 OA
ATOM     19  H   UNL     1      10.557   9.791  18.628  1.00  0.00     0.293 HD
ENDBRANCH  15  18
BRANCH  17  20
ATOM     20  O   UNL     1       7.262   8.727  17.942  1.00  0.00    -0.504 OA
ATOM     21  H   UNL     1       7.384   9.611  17.463  1.00  0.00     0.293 HD
ENDBRANCH  17  20
ENDBRANCH   1  12
BRANCH   2  22
ATOM     22  O   UNL     1      10.641   3.114  17.928  1.00  0.00    -0.502 OA
ATOM     23  H   UNL     1      11.033   3.937  17.486  1.00  0.00     0.293 HD
ENDBRANCH   2  22
BRANCH   9  24
ATOM     24  O   UNL     1       3.200   0.883  17.978  1.00  0.00    -0.508 OA
ATOM     25  H   UNL     1       2.699   0.512  18.776  1.00  0.00     0.293 HD
ENDBRANCH   9  24
TORSDOF 5
ENDMDL
