MODEL 1
REMARK VINA RESULT:    -5.230      0.000      0.000
REMARK INTER + INTRA:          -5.717
REMARK INTER:                  -5.688
REMARK INTRA:                  -0.029
REMARK UNBOUND:                -0.029
REMARK SMILES O=C([O-])c1ccc(O)cc1
REMARK SMILES IDX 4 1 5 2 10 3 6 4 9 5 7 6 2 7 1 8 3 9 8 10
REMARK H PARENT 8 11
REMARK Flexibility Score: inf
ROOT
ATOM      1  C   UNL     1      15.418  -5.338  15.947  1.00  0.00    -0.003 A 
ATOM      2  C   UNL     1      14.303  -4.556  16.296  1.00  0.00     0.014 A 
ATOM      3  C   UNL     1      16.705  -4.881  16.284  1.00  0.00     0.014 A 
ATOM      4  C   UNL     1      14.474  -3.342  16.970  1.00  0.00     0.047 A 
ATOM      5  C   UNL     1      16.871  -3.667  16.958  1.00  0.00     0.047 A 
ATOM      6  C   UNL     1      15.759  -2.895  17.302  1.00  0.00     0.115 A 
ENDROOT
BRANCH   1   7
ATOM      7  C   UNL     1      15.236  -6.622  15.233  1.00  0.00     0.071 C 
ATOM      8  O   UNL     1      14.564  -7.554  15.751  1.00  0.00    -0.545 OA
ATOM      9  O   UNL     1      15.805  -6.817  13.980  1.00  0.00    -0.545 OA
ENDBRANCH   1   7
BRANCH   6  10
ATOM     10  O   UNL     1      15.940  -1.688  17.974  1.00  0.00    -0.508 OA
ATOM     11  H   UNL     1      16.567  -0.974  17.621  1.00  0.00     0.293 HD
ENDBRANCH   6  10
TORSDOF 2
ENDMDL
MODEL 2
REMARK VINA RESULT:    -5.228      0.041      1.532
REMARK INTER + INTRA:          -5.716
REMARK INTER:                  -5.687
REMARK INTRA:                  -0.029
REMARK UNBOUND:                -0.029
REMARK SMILES O=C([O-])c1ccc(O)cc1
REMARK SMILES IDX 4 1 5 2 10 3 6 4 9 5 7 6 2 7 1 8 3 9 8 10
REMARK H PARENT 8 11
REMARK Flexibility Score: inf
ROOT
ATOM      1  C   UNL     1      15.439  -5.360  15.960  1.00  0.00    -0.003 A 
ATOM      2  C   UNL     1      16.726  -4.912  16.304  1.00  0.00     0.014 A 
ATOM      3  C   UNL     1      14.327  -4.564  16.293  1.00  0.00     0.014 A 
ATOM      4  C   UNL     1      16.898  -3.693  16.967  1.00  0.00     0.047 A 
ATOM      5  C   UNL     1      14.503  -3.345  16.957  1.00  0.00     0.047 A 
ATOM      6  C   UNL     1      15.786  -2.906  17.295  1.00  0.00     0.115 A 
ENDROOT
BRANCH   1   7
ATOM      7  C   UNL     1      15.259  -6.651  15.259  1.00  0.00     0.071 C 
ATOM      8  O   UNL     1      14.564  -7.568  15.771  1.00  0.00    -0.545 OA
ATOM      9  O   UNL     1      15.856  -6.869  14.022  1.00  0.00    -0.545 OA
ENDBRANCH   1   7
BRANCH   6  10
ATOM     10  O   UNL     1      15.946  -1.690  17.955  1.00  0.00    -0.508 OA
ATOM     11  H   UNL     1      15.223  -1.316  18.560  1.00  0.00     0.293 HD
ENDBRANCH   6  10
TORSDOF 2
ENDMDL
MODEL 3
REMARK VINA RESULT:    -5.113      2.237      2.705
REMARK INTER + INTRA:          -5.590
REMARK INTER:                  -5.555
REMARK INTRA:                  -0.035
REMARK UNBOUND:                -0.029
REMARK SMILES O=C([O-])c1ccc(O)cc1
REMARK SMILES IDX 4 1 5 2 10 3 6 4 9 5 7 6 2 7 1 8 3 9 8 10
REMARK H PARENT 8 11
REMARK Flexibility Score: inf
ROOT
ATOM      1  C   UNL     1      15.498  -3.564  16.560  1.00  0.00    -0.003 A 
ATOM      2  C   UNL     1      15.487  -2.773  17.722  1.00  0.00     0.014 A 
ATOM      3  C   UNL     1      16.708  -4.147  16.141  1.00  0.00     0.014 A 
ATOM      4  C   UNL     1      16.664  -2.571  18.451  1.00  0.00     0.047 A 
ATOM      5  C   UNL     1      17.883  -3.942  16.873  1.00  0.00     0.047 A 
ATOM      6  C   UNL     1      17.865  -3.155  18.027  1.00  0.00     0.115 A 
ENDROOT
BRANCH   1   7
ATOM      7  C   UNL     1      14.252  -3.777  15.790  1.00  0.00     0.071 C 
ATOM      8  O   UNL     1      13.128  -3.562  16.316  1.00  0.00    -0.545 OA
ATOM      9  O   UNL     1      14.306  -4.218  14.472  1.00  0.00    -0.545 OA
ENDBRANCH   1   7
BRANCH   6  10
ATOM     10  O   UNL     1      19.042  -2.960  18.746  1.00  0.00    -0.508 OA
ATOM     11  H   UNL     1      19.869  -2.565  18.312  1.00  0.00     0.293 HD
ENDBRANCH   6  10
TORSDOF 2
ENDMDL
MODEL 4
REMARK VINA RESULT:    -5.090      2.385      4.420
REMARK INTER + INTRA:          -5.565
REMARK INTER:                  -5.532
REMARK INTRA:                  -0.033
REMARK UNBOUND:                -0.029
REMARK SMILES O=C([O-])c1ccc(O)cc1
REMARK SMILES IDX 4 1 5 2 10 3 6 4 9 5 7 6 2 7 1 8 3 9 8 10
REMARK H PARENT 8 11
REMARK Flexibility Score: inf
ROOT
ATOM      1  C   UNL     1      15.608  -5.338  14.507  1.00  0.00    -0.003 A 
ATOM      2  C   UNL     1      15.089  -5.632  15.780  1.00  0.00     0.014 A 
ATOM      3  C   UNL     1      15.863  -6.395  13.614  1.00  0.00     0.014 A 
ATOM      4  C   UNL     1      14.829  -6.955  16.151  1.00  0.00     0.047 A 
ATOM      5  C   UNL     1      15.603  -7.717  13.989  1.00  0.00     0.047 A 
ATOM      6  C   UNL     1      15.087  -8.001  15.255  1.00  0.00     0.115 A 
ENDROOT
BRANCH   1   7
ATOM      7  C   UNL     1      15.882  -3.938  14.116  1.00  0.00     0.071 C 
ATOM      8  O   UNL     1      16.312  -3.108  14.961  1.00  0.00    -0.545 OA
ATOM      9  O   UNL     1      15.668  -3.517  12.808  1.00  0.00    -0.545 OA
ENDBRANCH   1   7
BRANCH   6  10
ATOM     10  O   UNL     1      14.832  -9.323  15.615  1.00  0.00    -0.508 OA
ATOM     11  H   UNL     1      15.149  -9.702  16.500  1.00  0.00     0.293 HD
ENDBRANCH   6  10
TORSDOF 2
ENDMDL
MODEL 5
REMARK VINA RESULT:    -5.082      3.517      5.217
REMARK INTER + INTRA:          -5.557
REMARK INTER:                  -5.530
REMARK INTRA:                  -0.027
REMARK UNBOUND:                -0.029
REMARK SMILES O=C([O-])c1ccc(O)cc1
REMARK SMILES IDX 4 1 5 2 10 3 6 4 9 5 7 6 2 7 1 8 3 9 8 10
REMARK H PARENT 8 11
REMARK Flexibility Score: inf
ROOT
ATOM      1  C   UNL     1      15.552  -6.379  13.035  1.00  0.00    -0.003 A 
ATOM      2  C   UNL     1      14.386  -5.896  12.415  1.00  0.00     0.014 A 
ATOM      3  C   UNL     1      16.764  -6.355  12.322  1.00  0.00     0.014 A 
ATOM      4  C   UNL     1      14.434  -5.398  11.109  1.00  0.00     0.047 A 
ATOM      5  C   UNL     1      16.808  -5.858  11.016  1.00  0.00     0.047 A 
ATOM      6  C   UNL     1      15.646  -5.378  10.406  1.00  0.00     0.115 A 
ENDROOT
BRANCH   1   7
ATOM      7  C   UNL     1      15.500  -6.905  14.418  1.00  0.00     0.071 C 
ATOM      8  O   UNL     1      15.556  -8.145  14.635  1.00  0.00    -0.545 OA
ATOM      9  O   UNL     1      15.388  -6.036  15.498  1.00  0.00    -0.545 OA
ENDBRANCH   1   7
BRANCH   6  10
ATOM     10  O   UNL     1      15.704  -4.885   9.105  1.00  0.00    -0.508 OA
ATOM     11  H   UNL     1      15.424  -5.449   8.311  1.00  0.00     0.293 HD
ENDBRANCH   6  10
TORSDOF 2
ENDMDL
MODEL 6
REMARK VINA RESULT:    -5.062      4.703      6.435
REMARK INTER + INTRA:          -5.535
REMARK INTER:                  -5.503
REMARK INTRA:                  -0.032
REMARK UNBOUND:                -0.029
REMARK SMILES O=C([O-])c1ccc(O)cc1
REMARK SMILES IDX 4 1 5 2 10 3 6 4 9 5 7 6 2 7 1 8 3 9 8 10
REMARK H PARENT 8 11
REMARK Flexibility Score: inf
ROOT
ATOM      1  C   UNL     1      15.888  -5.570  11.326  1.00  0.00    -0.003 A 
ATOM      2  C   UNL     1      14.629  -5.540  11.948  1.00  0.00     0.014 A 
ATOM      3  C   UNL     1      15.955  -5.599   9.920  1.00  0.00     0.014 A 
ATOM      4  C   UNL     1      13.459  -5.538  11.180  1.00  0.00     0.047 A 
ATOM      5  C   UNL     1      14.784  -5.597   9.156  1.00  0.00     0.047 A 
ATOM      6  C   UNL     1      13.535  -5.566   9.782  1.00  0.00     0.115 A 
ENDROOT
BRANCH   1   7
ATOM      7  C   UNL     1      17.125  -5.573  12.139  1.00  0.00     0.071 C 
ATOM      8  O   UNL     1      17.199  -4.890  13.195  1.00  0.00    -0.545 OA
ATOM      9  O   UNL     1      18.223  -6.331  11.748  1.00  0.00    -0.545 OA
ENDBRANCH   1   7
BRANCH   6  10
ATOM     10  O   UNL     1      12.377  -5.564   9.008  1.00  0.00    -0.508 OA
ATOM     11  H   UNL     1      11.630  -4.898   9.173  1.00  0.00     0.293 HD
ENDBRANCH   6  10
TORSDOF 2
ENDMDL
MODEL 7
REMARK VINA RESULT:    -5.001      1.779      3.963
REMARK INTER + INTRA:          -5.469
REMARK INTER:                  -5.437
REMARK INTRA:                  -0.031
REMARK UNBOUND:                -0.029
REMARK SMILES O=C([O-])c1ccc(O)cc1
REMARK SMILES IDX 4 1 5 2 10 3 6 4 9 5 7 6 2 7 1 8 3 9 8 10
REMARK H PARENT 8 11
REMARK Flexibility Score: inf
ROOT
ATOM      1  C   UNL     1      16.716  -3.554  17.206  1.00  0.00    -0.003 A 
ATOM      2  C   UNL     1      15.472  -2.932  17.411  1.00  0.00     0.014 A 
ATOM      3  C   UNL     1      16.810  -4.600  16.269  1.00  0.00     0.014 A 
ATOM      4  C   UNL     1      14.346  -3.348  16.693  1.00  0.00     0.047 A 
ATOM      5  C   UNL     1      15.681  -5.014  15.554  1.00  0.00     0.047 A 
ATOM      6  C   UNL     1      14.448  -4.391  15.763  1.00  0.00     0.115 A 
ENDROOT
BRANCH   1   7
ATOM      7  C   UNL     1      17.907  -3.113  17.966  1.00  0.00     0.071 C 
ATOM      8  O   UNL     1      17.826  -2.867  19.198  1.00  0.00    -0.545 OA
ATOM      9  O   UNL     1      19.133  -2.964  17.328  1.00  0.00    -0.545 OA
ENDBRANCH   1   7
BRANCH   6  10
ATOM     10  O   UNL     1      13.333  -4.812  15.043  1.00  0.00    -0.508 OA
ATOM     11  H   UNL     1      12.803  -4.171  14.462  1.00  0.00     0.293 HD
ENDBRANCH   6  10
TORSDOF 2
ENDMDL
MODEL 8
REMARK VINA RESULT:    -4.939      1.418      1.889
REMARK INTER + INTRA:          -5.401
REMARK INTER:                  -5.374
REMARK INTRA:                  -0.027
REMARK UNBOUND:                -0.029
REMARK SMILES O=C([O-])c1ccc(O)cc1
REMARK SMILES IDX 4 1 5 2 10 3 6 4 9 5 7 6 2 7 1 8 3 9 8 10
REMARK H PARENT 8 11
REMARK Flexibility Score: inf
ROOT
ATOM      1  C   UNL     1      15.915  -4.230  15.923  1.00  0.00    -0.003 A 
ATOM      2  C   UNL     1      15.124  -3.348  16.680  1.00  0.00     0.014 A 
ATOM      3  C   UNL     1      17.256  -4.434  16.295  1.00  0.00     0.014 A 
ATOM      4  C   UNL     1      15.665  -2.684  17.786  1.00  0.00     0.047 A 
ATOM      5  C   UNL     1      17.793  -3.768  17.401  1.00  0.00     0.047 A 
ATOM      6  C   UNL     1      17.002  -2.893  18.149  1.00  0.00     0.115 A 
ENDROOT
BRANCH   1   7
ATOM      7  C   UNL     1      15.341  -4.931  14.753  1.00  0.00     0.071 C 
ATOM      8  O   UNL     1      15.558  -4.513  13.585  1.00  0.00    -0.545 OA
ATOM      9  O   UNL     1      14.553  -6.063  14.928  1.00  0.00    -0.545 OA
ENDBRANCH   1   7
BRANCH   6  10
ATOM     10  O   UNL     1      17.550  -2.238  19.249  1.00  0.00    -0.508 OA
ATOM     11  H   UNL     1      17.937  -1.304  19.171  1.00  0.00     0.293 HD
ENDBRANCH   6  10
TORSDOF 2
ENDMDL
MODEL 9
REMARK VINA RESULT:    -4.902      4.415      5.669
REMARK INTER + INTRA:          -5.361
REMARK INTER:                  -5.327
REMARK INTRA:                  -0.034
REMARK UNBOUND:                -0.029
REMARK SMILES O=C([O-])c1ccc(O)cc1
REMARK SMILES IDX 4 1 5 2 10 3 6 4 9 5 7 6 2 7 1 8 3 9 8 10
REMARK H PARENT 8 11
REMARK Flexibility Score: inf
ROOT
ATOM      1  C   UNL     1      14.668  -5.467  10.823  1.00  0.00    -0.003 A 
ATOM      2  C   UNL     1      14.400  -5.347  12.198  1.00  0.00     0.014 A 
ATOM      3  C   UNL     1      15.994  -5.671  10.401  1.00  0.00     0.014 A 
ATOM      4  C   UNL     1      15.439  -5.429  13.131  1.00  0.00     0.047 A 
ATOM      5  C   UNL     1      17.030  -5.752  11.337  1.00  0.00     0.047 A 
ATOM      6  C   UNL     1      16.757  -5.632  12.702  1.00  0.00     0.115 A 
ENDROOT
BRANCH   1   7
ATOM      7  C   UNL     1      13.568  -5.380   9.837  1.00  0.00     0.071 C 
ATOM      8  O   UNL     1      13.655  -5.965   8.725  1.00  0.00    -0.545 OA
ATOM      9  O   UNL     1      12.420  -4.649  10.125  1.00  0.00    -0.545 OA
ENDBRANCH   1   7
BRANCH   6  10
ATOM     10  O   UNL     1      17.798  -5.715  13.623  1.00  0.00    -0.508 OA
ATOM     11  H   UNL     1      18.149  -6.610  13.948  1.00  0.00     0.293 HD
ENDBRANCH   6  10
TORSDOF 2
ENDMDL
