MODEL 1
REMARK VINA RESULT:    -4.670      0.000      0.000
REMARK INTER + INTRA:          -7.352
REMARK INTER:                  -6.581
REMARK INTRA:                  -0.771
REMARK UNBOUND:                -0.771
REMARK SMILES COc1ccc(-c2cc(=O)c3c(OC)c(OC)c(OC)c(OC)c3o2)cc1OC
REMARK SMILES IDX 7 1 8 2 9 3 10 4 11 5 24 6 25 7 21 8 18 9 15 10 12 11 6 12
REMARK SMILES IDX 3 13 27 14 4 15 26 16 5 17 2 18 1 19 28 20 29 21 22 22 23 23
REMARK SMILES IDX 13 24 14 25 19 26 20 27 16 28 17 29
REMARK H PARENT
REMARK Flexibility Score: inf
ROOT
ATOM      1  C   UNL     1     122.320 121.952 146.265  1.00  0.00     0.138 A 
ATOM      2  C   UNL     1     123.391 121.622 147.097  1.00  0.00     0.100 A 
ATOM      3  C   UNL     1     124.680 121.607 146.573  1.00  0.00     0.197 A 
ATOM      4  O   UNL     1     125.635 121.315 147.342  1.00  0.00    -0.289 OA
ATOM      5  C   UNL     1     124.890 121.916 145.207  1.00  0.00     0.115 A 
ATOM      6  C   UNL     1     123.756 122.241 144.426  1.00  0.00     0.188 A 
ATOM      7  O   UNL     1     122.550 122.253 144.990  1.00  0.00    -0.452 OA
ATOM      8  C   UNL     1     123.894 122.540 143.051  1.00  0.00     0.209 A 
ATOM      9  C   UNL     1     125.186 122.540 142.460  1.00  0.00     0.211 A 
ATOM     10  C   UNL     1     126.326 122.253 143.254  1.00  0.00     0.208 A 
ATOM     11  C   UNL     1     126.173 121.893 144.614  1.00  0.00     0.179 A 
ENDROOT
BRANCH   1  12
ATOM     12  C   UNL     1     120.927 121.977 146.771  1.00  0.00     0.021 A 
ATOM     13  C   UNL     1     118.251 122.025 147.668  1.00  0.00     0.160 A 
ATOM     14  C   UNL     1     118.702 122.996 146.761  1.00  0.00     0.161 A 
ATOM     15  C   UNL     1     119.141 121.036 148.125  1.00  0.00     0.051 A 
ATOM     16  C   UNL     1     120.039 122.964 146.316  1.00  0.00     0.062 A 
ATOM     17  C   UNL     1     120.464 121.012 147.679  1.00  0.00     0.016 A 
BRANCH  13  18
ATOM     18  O   UNL     1     116.913 122.078 148.092  1.00  0.00    -0.493 OA
ATOM     19  C   UNL     1     115.878 121.230 147.600  1.00  0.00     0.278 C 
ENDBRANCH  13  18
BRANCH  14  20
ATOM     20  O   UNL     1     117.794 123.975 146.325  1.00  0.00    -0.493 OA
ATOM     21  C   UNL     1     117.105 123.939 145.078  1.00  0.00     0.278 C 
ENDBRANCH  14  20
ENDBRANCH   1  12
BRANCH   8  22
ATOM     22  O   UNL     1     122.785 122.833 142.234  1.00  0.00    -0.490 OA
ATOM     23  C   UNL     1     122.179 124.099 142.008  1.00  0.00     0.278 C 
ENDBRANCH   8  22
BRANCH  11  24
ATOM     24  O   UNL     1     127.270 121.517 145.418  1.00  0.00    -0.492 OA
ATOM     25  C   UNL     1     128.361 122.349 145.807  1.00  0.00     0.278 C 
ENDBRANCH  11  24
BRANCH   9  26
ATOM     26  O   UNL     1     125.390 122.793 141.089  1.00  0.00    -0.490 OA
ATOM     27  C   UNL     1     125.649 124.044 140.453  1.00  0.00     0.279 C 
ENDBRANCH   9  26
BRANCH  10  28
ATOM     28  O   UNL     1     127.637 122.319 142.742  1.00  0.00    -0.490 OA
ATOM     29  C   UNL     1     128.350 121.308 142.038  1.00  0.00     0.278 C 
ENDBRANCH  10  28
TORSDOF 7
ENDMDL
MODEL 2
REMARK VINA RESULT:    -4.461     19.036     22.098
REMARK INTER + INTRA:          -7.058
REMARK INTER:                  -6.376
REMARK INTRA:                  -0.682
REMARK UNBOUND:                -0.771
REMARK SMILES COc1ccc(-c2cc(=O)c3c(OC)c(OC)c(OC)c(OC)c3o2)cc1OC
REMARK SMILES IDX 7 1 8 2 9 3 10 4 11 5 24 6 25 7 21 8 18 9 15 10 12 11 6 12
REMARK SMILES IDX 3 13 27 14 4 15 26 16 5 17 2 18 1 19 28 20 29 21 22 22 23 23
REMARK SMILES IDX 13 24 14 25 19 26 20 27 16 28 17 29
REMARK H PARENT
REMARK Flexibility Score: inf
ROOT
ATOM      1  C   UNL     1     134.597 137.460 134.146  1.00  0.00     0.138 A 
ATOM      2  C   UNL     1     135.413 137.901 133.103  1.00  0.00     0.100 A 
ATOM      3  C   UNL     1     135.284 137.319 131.845  1.00  0.00     0.197 A 
ATOM      4  O   UNL     1     136.023 137.737 130.914  1.00  0.00    -0.289 OA
ATOM      5  C   UNL     1     134.337 136.285 131.641  1.00  0.00     0.115 A 
ATOM      6  C   UNL     1     133.546 135.892 132.745  1.00  0.00     0.188 A 
ATOM      7  O   UNL     1     133.707 136.498 133.920  1.00  0.00    -0.452 OA
ATOM      8  C   UNL     1     132.596 134.852 132.614  1.00  0.00     0.209 A 
ATOM      9  C   UNL     1     132.419 134.221 131.354  1.00  0.00     0.211 A 
ATOM     10  C   UNL     1     133.186 134.644 130.237  1.00  0.00     0.208 A 
ATOM     11  C   UNL     1     134.178 135.641 130.393  1.00  0.00     0.179 A 
ENDROOT
BRANCH   1  12
ATOM     12  C   UNL     1     134.698 138.042 135.505  1.00  0.00     0.021 A 
ATOM     13  C   UNL     1     134.828 139.121 138.111  1.00  0.00     0.160 A 
ATOM     14  C   UNL     1     133.698 139.352 137.314  1.00  0.00     0.161 A 
ATOM     15  C   UNL     1     135.892 138.353 137.600  1.00  0.00     0.051 A 
ATOM     16  C   UNL     1     133.639 138.808 136.015  1.00  0.00     0.062 A 
ATOM     17  C   UNL     1     135.825 137.819 136.312  1.00  0.00     0.016 A 
BRANCH  13  18
ATOM     18  O   UNL     1     134.859 139.670 139.403  1.00  0.00    -0.493 OA
ATOM     19  C   UNL     1     134.566 138.945 140.595  1.00  0.00     0.278 C 
ENDBRANCH  13  18
BRANCH  14  20
ATOM     20  O   UNL     1     132.652 140.125 137.847  1.00  0.00    -0.493 OA
ATOM     21  C   UNL     1     131.388 139.606 138.250  1.00  0.00     0.278 C 
ENDBRANCH  14  20
ENDBRANCH   1  12
BRANCH   8  22
ATOM     22  O   UNL     1     131.816 134.410 133.699  1.00  0.00    -0.490 OA
ATOM     23  C   UNL     1     130.550 134.901 134.121  1.00  0.00     0.278 C 
ENDBRANCH   8  22
BRANCH  11  24
ATOM     24  O   UNL     1     135.021 136.032 129.331  1.00  0.00    -0.492 OA
ATOM     25  C   UNL     1     134.652 136.820 128.201  1.00  0.00     0.278 C 
ENDBRANCH  11  24
BRANCH   9  26
ATOM     26  O   UNL     1     131.518 133.155 131.162  1.00  0.00    -0.490 OA
ATOM     27  C   UNL     1     130.126 133.223 130.855  1.00  0.00     0.279 C 
ENDBRANCH   9  26
BRANCH  10  28
ATOM     28  O   UNL     1     132.996 134.111 128.946  1.00  0.00    -0.490 OA
ATOM     29  C   UNL     1     132.010 134.481 127.988  1.00  0.00     0.278 C 
ENDBRANCH  10  28
TORSDOF 7
ENDMDL
MODEL 3
REMARK VINA RESULT:    -4.460     19.036     22.288
REMARK INTER + INTRA:          -7.057
REMARK INTER:                  -6.431
REMARK INTRA:                  -0.626
REMARK UNBOUND:                -0.771
REMARK SMILES COc1ccc(-c2cc(=O)c3c(OC)c(OC)c(OC)c(OC)c3o2)cc1OC
REMARK SMILES IDX 7 1 8 2 9 3 10 4 11 5 24 6 25 7 21 8 18 9 15 10 12 11 6 12
REMARK SMILES IDX 3 13 27 14 4 15 26 16 5 17 2 18 1 19 28 20 29 21 22 22 23 23
REMARK SMILES IDX 13 24 14 25 19 26 20 27 16 28 17 29
REMARK H PARENT
REMARK Flexibility Score: inf
ROOT
ATOM      1  C   UNL     1     134.504 137.942 135.114  1.00  0.00     0.138 A 
ATOM      2  C   UNL     1     135.485 138.365 136.013  1.00  0.00     0.100 A 
ATOM      3  C   UNL     1     135.106 138.784 137.285  1.00  0.00     0.197 A 
ATOM      4  O   UNL     1     136.006 139.154 138.086  1.00  0.00    -0.289 OA
ATOM      5  C   UNL     1     133.737 138.783 137.649  1.00  0.00     0.115 A 
ATOM      6  C   UNL     1     132.801 138.340 136.685  1.00  0.00     0.188 A 
ATOM      7  O   UNL     1     133.228 137.938 135.490  1.00  0.00    -0.452 OA
ATOM      8  C   UNL     1     131.418 138.334 136.978  1.00  0.00     0.209 A 
ATOM      9  C   UNL     1     130.972 138.750 138.261  1.00  0.00     0.211 A 
ATOM     10  C   UNL     1     131.915 139.156 139.240  1.00  0.00     0.208 A 
ATOM     11  C   UNL     1     133.291 139.220 138.918  1.00  0.00     0.179 A 
ENDROOT
BRANCH   1  12
ATOM     12  C   UNL     1     134.853 137.492 133.745  1.00  0.00     0.021 A 
ATOM     13  C   UNL     1     135.449 136.639 131.121  1.00  0.00     0.160 A 
ATOM     14  C   UNL     1     134.487 135.954 131.877  1.00  0.00     0.161 A 
ATOM     15  C   UNL     1     136.111 137.747 131.681  1.00  0.00     0.051 A 
ATOM     16  C   UNL     1     134.193 136.386 133.186  1.00  0.00     0.062 A 
ATOM     17  C   UNL     1     135.814 138.169 132.978  1.00  0.00     0.016 A 
BRANCH  13  18
ATOM     18  O   UNL     1     135.719 136.189 129.818  1.00  0.00    -0.493 OA
ATOM     19  C   UNL     1     135.007 136.608 128.657  1.00  0.00     0.278 C 
ENDBRANCH  13  18
BRANCH  14  20
ATOM     20  O   UNL     1     133.844 134.848 131.296  1.00  0.00    -0.493 OA
ATOM     21  C   UNL     1     134.223 133.491 131.506  1.00  0.00     0.278 C 
ENDBRANCH  14  20
ENDBRANCH   1  12
BRANCH   8  22
ATOM     22  O   UNL     1     130.455 137.933 136.032  1.00  0.00    -0.490 OA
ATOM     23  C   UNL     1     129.952 136.624 135.800  1.00  0.00     0.278 C 
ENDBRANCH   8  22
BRANCH  11  24
ATOM     24  O   UNL     1     134.254 139.698 139.832  1.00  0.00    -0.492 OA
ATOM     25  C   UNL     1     134.696 139.042 141.018  1.00  0.00     0.278 C 
ENDBRANCH  11  24
BRANCH   9  26
ATOM     26  O   UNL     1     129.607 138.803 138.606  1.00  0.00    -0.490 OA
ATOM     27  C   UNL     1     128.718 139.915 138.516  1.00  0.00     0.279 C 
ENDBRANCH   9  26
BRANCH  10  28
ATOM     28  O   UNL     1     131.538 139.499 140.553  1.00  0.00    -0.490 OA
ATOM     29  C   UNL     1     131.102 138.628 141.591  1.00  0.00     0.278 C 
ENDBRANCH  10  28
TORSDOF 7
ENDMDL
MODEL 4
REMARK VINA RESULT:    -4.350     12.929     15.982
REMARK INTER + INTRA:          -6.902
REMARK INTER:                  -6.127
REMARK INTRA:                  -0.775
REMARK UNBOUND:                -0.771
REMARK SMILES COc1ccc(-c2cc(=O)c3c(OC)c(OC)c(OC)c(OC)c3o2)cc1OC
REMARK SMILES IDX 7 1 8 2 9 3 10 4 11 5 24 6 25 7 21 8 18 9 15 10 12 11 6 12
REMARK SMILES IDX 3 13 27 14 4 15 26 16 5 17 2 18 1 19 28 20 29 21 22 22 23 23
REMARK SMILES IDX 13 24 14 25 19 26 20 27 16 28 17 29
REMARK H PARENT
REMARK Flexibility Score: inf
ROOT
ATOM      1  C   UNL     1     121.884 127.787 130.723  1.00  0.00     0.138 A 
ATOM      2  C   UNL     1     121.997 127.505 132.086  1.00  0.00     0.100 A 
ATOM      3  C   UNL     1     123.172 127.838 132.754  1.00  0.00     0.197 A 
ATOM      4  O   UNL     1     123.252 127.584 133.985  1.00  0.00    -0.289 OA
ATOM      5  C   UNL     1     124.236 128.448 132.046  1.00  0.00     0.115 A 
ATOM      6  C   UNL     1     124.048 128.704 130.668  1.00  0.00     0.188 A 
ATOM      7  O   UNL     1     122.895 128.375 130.089  1.00  0.00    -0.452 OA
ATOM      8  C   UNL     1     125.079 129.293 129.900  1.00  0.00     0.209 A 
ATOM      9  C   UNL     1     126.301 129.655 130.527  1.00  0.00     0.211 A 
ATOM     10  C   UNL     1     126.473 129.435 131.919  1.00  0.00     0.208 A 
ATOM     11  C   UNL     1     125.461 128.787 132.667  1.00  0.00     0.179 A 
ENDROOT
BRANCH   1  12
ATOM     12  C   UNL     1     120.657 127.448 129.963  1.00  0.00     0.021 A 
ATOM     13  C   UNL     1     118.282 126.818 128.574  1.00  0.00     0.160 A 
ATOM     14  C   UNL     1     118.574 126.177 129.787  1.00  0.00     0.161 A 
ATOM     15  C   UNL     1     119.181 127.769 128.058  1.00  0.00     0.051 A 
ATOM     16  C   UNL     1     119.761 126.499 130.476  1.00  0.00     0.062 A 
ATOM     17  C   UNL     1     120.354 128.082 128.747  1.00  0.00     0.016 A 
BRANCH  13  18
ATOM     18  O   UNL     1     117.091 126.481 127.910  1.00  0.00    -0.493 OA
ATOM     19  C   UNL     1     115.928 127.304 127.875  1.00  0.00     0.278 C 
ENDBRANCH  13  18
BRANCH  14  20
ATOM     20  O   UNL     1     117.661 125.228 130.277  1.00  0.00    -0.493 OA
ATOM     21  C   UNL     1     117.696 124.677 131.590  1.00  0.00     0.278 C 
ENDBRANCH  14  20
ENDBRANCH   1  12
BRANCH   8  22
ATOM     22  O   UNL     1     124.940 129.530 128.519  1.00  0.00    -0.490 OA
ATOM     23  C   UNL     1     124.552 130.736 127.875  1.00  0.00     0.278 C 
ENDBRANCH   8  22
BRANCH  11  24
ATOM     24  O   UNL     1     125.624 128.471 134.032  1.00  0.00    -0.492 OA
ATOM     25  C   UNL     1     126.481 127.469 134.575  1.00  0.00     0.278 C 
ENDBRANCH  11  24
BRANCH   9  26
ATOM     26  O   UNL     1     127.381 130.211 129.814  1.00  0.00    -0.490 OA
ATOM     27  C   UNL     1     128.433 129.528 129.135  1.00  0.00     0.279 C 
ENDBRANCH   9  26
BRANCH  10  28
ATOM     28  O   UNL     1     127.629 129.848 132.610  1.00  0.00    -0.490 OA
ATOM     29  C   UNL     1     127.874 131.109 133.223  1.00  0.00     0.278 C 
ENDBRANCH  10  28
TORSDOF 7
ENDMDL
MODEL 5
REMARK VINA RESULT:    -4.304      3.096      5.699
REMARK INTER + INTRA:          -6.836
REMARK INTER:                  -6.003
REMARK INTRA:                  -0.833
REMARK UNBOUND:                -0.771
REMARK SMILES COc1ccc(-c2cc(=O)c3c(OC)c(OC)c(OC)c(OC)c3o2)cc1OC
REMARK SMILES IDX 7 1 8 2 9 3 10 4 11 5 24 6 25 7 21 8 18 9 15 10 12 11 6 12
REMARK SMILES IDX 3 13 27 14 4 15 26 16 5 17 2 18 1 19 28 20 29 21 22 22 23 23
REMARK SMILES IDX 13 24 14 25 19 26 20 27 16 28 17 29
REMARK H PARENT
REMARK Flexibility Score: inf
ROOT
ATOM      1  C   UNL     1     121.245 124.142 142.466  1.00  0.00     0.138 A 
ATOM      2  C   UNL     1     121.104 124.372 143.837  1.00  0.00     0.100 A 
ATOM      3  C   UNL     1     122.026 123.817 144.718  1.00  0.00     0.197 A 
ATOM      4  O   UNL     1     121.887 124.043 145.950  1.00  0.00    -0.289 OA
ATOM      5  C   UNL     1     123.086 123.021 144.220  1.00  0.00     0.115 A 
ATOM      6  C   UNL     1     123.165 122.832 142.821  1.00  0.00     0.188 A 
ATOM      7  O   UNL     1     122.260 123.403 142.028  1.00  0.00    -0.452 OA
ATOM      8  C   UNL     1     124.188 122.033 142.261  1.00  0.00     0.209 A 
ATOM      9  C   UNL     1     125.159 121.439 143.112  1.00  0.00     0.211 A 
ATOM     10  C   UNL     1     125.102 121.663 144.512  1.00  0.00     0.208 A 
ATOM     11  C   UNL     1     124.038 122.412 145.070  1.00  0.00     0.179 A 
ENDROOT
BRANCH   1  12
ATOM     12  C   UNL     1     120.288 124.705 141.485  1.00  0.00     0.021 A 
ATOM     13  C   UNL     1     118.489 125.733 139.568  1.00  0.00     0.160 A 
ATOM     14  C   UNL     1     119.862 125.686 139.284  1.00  0.00     0.161 A 
ATOM     15  C   UNL     1     118.021 125.268 140.811  1.00  0.00     0.051 A 
ATOM     16  C   UNL     1     120.754 125.169 140.246  1.00  0.00     0.062 A 
ATOM     17  C   UNL     1     118.912 124.758 141.757  1.00  0.00     0.016 A 
BRANCH  13  18
ATOM     18  O   UNL     1     117.622 126.248 138.590  1.00  0.00    -0.493 OA
ATOM     19  C   UNL     1     116.201 126.274 138.706  1.00  0.00     0.278 C 
ENDBRANCH  13  18
BRANCH  14  20
ATOM     20  O   UNL     1     120.302 126.160 138.037  1.00  0.00    -0.493 OA
ATOM     21  C   UNL     1     121.389 125.606 137.301  1.00  0.00     0.278 C 
ENDBRANCH  14  20
ENDBRANCH   1  12
BRANCH   8  22
ATOM     22  O   UNL     1     124.277 121.794 140.876  1.00  0.00    -0.490 OA
ATOM     23  C   UNL     1     124.884 122.614 139.887  1.00  0.00     0.278 C 
ENDBRANCH   8  22
BRANCH  11  24
ATOM     24  O   UNL     1     123.895 122.587 146.463  1.00  0.00    -0.492 OA
ATOM     25  C   UNL     1     123.539 121.584 147.412  1.00  0.00     0.278 C 
ENDBRANCH  11  24
BRANCH   9  26
ATOM     26  O   UNL     1     126.182 120.603 142.624  1.00  0.00    -0.490 OA
ATOM     27  C   UNL     1     127.469 120.978 142.135  1.00  0.00     0.279 C 
ENDBRANCH   9  26
BRANCH  10  28
ATOM     28  O   UNL     1     126.083 121.169 145.395  1.00  0.00    -0.490 OA
ATOM     29  C   UNL     1     127.280 121.814 145.816  1.00  0.00     0.278 C 
ENDBRANCH  10  28
TORSDOF 7
ENDMDL
MODEL 6
REMARK VINA RESULT:    -4.250      1.663      8.004
REMARK INTER + INTRA:          -6.760
REMARK INTER:                  -6.143
REMARK INTRA:                  -0.617
REMARK UNBOUND:                -0.771
REMARK SMILES COc1ccc(-c2cc(=O)c3c(OC)c(OC)c(OC)c(OC)c3o2)cc1OC
REMARK SMILES IDX 7 1 8 2 9 3 10 4 11 5 24 6 25 7 21 8 18 9 15 10 12 11 6 12
REMARK SMILES IDX 3 13 27 14 4 15 26 16 5 17 2 18 1 19 28 20 29 21 22 22 23 23
REMARK SMILES IDX 13 24 14 25 19 26 20 27 16 28 17 29
REMARK H PARENT
REMARK Flexibility Score: inf
ROOT
ATOM      1  C   UNL     1     122.510 122.178 145.785  1.00  0.00     0.138 A 
ATOM      2  C   UNL     1     122.017 121.325 146.775  1.00  0.00     0.100 A 
ATOM      3  C   UNL     1     120.707 121.481 147.217  1.00  0.00     0.197 A 
ATOM      4  O   UNL     1     120.277 120.697 148.105  1.00  0.00    -0.289 OA
ATOM      5  C   UNL     1     119.894 122.502 146.666  1.00  0.00     0.115 A 
ATOM      6  C   UNL     1     120.462 123.326 145.666  1.00  0.00     0.188 A 
ATOM      7  O   UNL     1     121.717 123.117 145.276  1.00  0.00    -0.452 OA
ATOM      8  C   UNL     1     119.710 124.377 145.090  1.00  0.00     0.209 A 
ATOM      9  C   UNL     1     118.367 124.584 145.501  1.00  0.00     0.211 A 
ATOM     10  C   UNL     1     117.785 123.731 146.475  1.00  0.00     0.208 A 
ATOM     11  C   UNL     1     118.564 122.723 147.092  1.00  0.00     0.179 A 
ENDROOT
BRANCH   1  12
ATOM     12  C   UNL     1     123.899 122.058 145.283  1.00  0.00     0.021 A 
ATOM     13  C   UNL     1     126.541 121.896 144.301  1.00  0.00     0.160 A 
ATOM     14  C   UNL     1     125.488 122.206 143.428  1.00  0.00     0.161 A 
ATOM     15  C   UNL     1     126.268 121.665 145.662  1.00  0.00     0.051 A 
ATOM     16  C   UNL     1     124.172 122.287 143.926  1.00  0.00     0.062 A 
ATOM     17  C   UNL     1     124.962 121.748 146.147  1.00  0.00     0.016 A 
BRANCH  13  18
ATOM     18  O   UNL     1     127.843 121.825 143.779  1.00  0.00    -0.493 OA
ATOM     19  C   UNL     1     128.759 122.917 143.747  1.00  0.00     0.278 C 
ENDBRANCH  13  18
BRANCH  14  20
ATOM     20  O   UNL     1     125.787 122.426 142.073  1.00  0.00    -0.493 OA
ATOM     21  C   UNL     1     125.510 121.503 141.024  1.00  0.00     0.278 C 
ENDBRANCH  14  20
ENDBRANCH   1  12
BRANCH   8  22
ATOM     22  O   UNL     1     120.254 125.239 144.119  1.00  0.00    -0.490 OA
ATOM     23  C   UNL     1     120.189 125.111 142.705  1.00  0.00     0.278 C 
ENDBRANCH   8  22
BRANCH  11  24
ATOM     24  O   UNL     1     118.053 121.908 148.125  1.00  0.00    -0.492 OA
ATOM     25  C   UNL     1     116.940 121.022 148.034  1.00  0.00     0.278 C 
ENDBRANCH  11  24
BRANCH   9  26
ATOM     26  O   UNL     1     117.575 125.634 144.994  1.00  0.00    -0.490 OA
ATOM     27  C   UNL     1     116.484 125.551 144.078  1.00  0.00     0.279 C 
ENDBRANCH   9  26
BRANCH  10  28
ATOM     28  O   UNL     1     116.434 123.837 146.860  1.00  0.00    -0.490 OA
ATOM     29  C   UNL     1     115.875 124.698 147.846  1.00  0.00     0.278 C 
ENDBRANCH  10  28
TORSDOF 7
ENDMDL
MODEL 7
REMARK VINA RESULT:    -4.247     19.023     22.029
REMARK INTER + INTRA:          -6.757
REMARK INTER:                  -6.271
REMARK INTRA:                  -0.486
REMARK UNBOUND:                -0.771
REMARK SMILES COc1ccc(-c2cc(=O)c3c(OC)c(OC)c(OC)c(OC)c3o2)cc1OC
REMARK SMILES IDX 7 1 8 2 9 3 10 4 11 5 24 6 25 7 21 8 18 9 15 10 12 11 6 12
REMARK SMILES IDX 3 13 27 14 4 15 26 16 5 17 2 18 1 19 28 20 29 21 22 22 23 23
REMARK SMILES IDX 13 24 14 25 19 26 20 27 16 28 17 29
REMARK H PARENT
REMARK Flexibility Score: inf
ROOT
ATOM      1  C   UNL     1     133.907 136.315 133.562  1.00  0.00     0.138 A 
ATOM      2  C   UNL     1     135.014 137.164 133.629  1.00  0.00     0.100 A 
ATOM      3  C   UNL     1     135.087 138.108 134.648  1.00  0.00     0.197 A 
ATOM      4  O   UNL     1     136.099 138.859 134.696  1.00  0.00    -0.289 OA
ATOM      5  C   UNL     1     134.041 138.203 135.597  1.00  0.00     0.115 A 
ATOM      6  C   UNL     1     132.952 137.309 135.467  1.00  0.00     0.188 A 
ATOM      7  O   UNL     1     132.948 136.418 134.478  1.00  0.00    -0.452 OA
ATOM      8  C   UNL     1     131.865 137.365 136.370  1.00  0.00     0.209 A 
ATOM      9  C   UNL     1     131.884 138.309 137.431  1.00  0.00     0.211 A 
ATOM     10  C   UNL     1     132.996 139.177 137.585  1.00  0.00     0.208 A 
ATOM     11  C   UNL     1     134.049 139.158 136.640  1.00  0.00     0.179 A 
ENDROOT
BRANCH   1  12
ATOM     12  C   UNL     1     133.777 135.296 132.494  1.00  0.00     0.021 A 
ATOM     13  C   UNL     1     133.586 133.385 130.426  1.00  0.00     0.160 A 
ATOM     14  C   UNL     1     133.578 134.753 130.116  1.00  0.00     0.161 A 
ATOM     15  C   UNL     1     133.686 132.978 131.769  1.00  0.00     0.051 A 
ATOM     16  C   UNL     1     133.676 135.701 131.154  1.00  0.00     0.062 A 
ATOM     17  C   UNL     1     133.782 133.924 132.791  1.00  0.00     0.016 A 
BRANCH  13  18
ATOM     18  O   UNL     1     133.491 132.461 129.372  1.00  0.00    -0.493 OA
ATOM     19  C   UNL     1     133.817 131.078 129.481  1.00  0.00     0.278 C 
ENDBRANCH  13  18
BRANCH  14  20
ATOM     20  O   UNL     1     133.473 135.131 128.768  1.00  0.00    -0.493 OA
ATOM     21  C   UNL     1     133.830 136.413 128.258  1.00  0.00     0.278 C 
ENDBRANCH  14  20
ENDBRANCH   1  12
BRANCH   8  22
ATOM     22  O   UNL     1     130.749 136.516 136.249  1.00  0.00    -0.490 OA
ATOM     23  C   UNL     1     129.489 136.809 135.660  1.00  0.00     0.278 C 
ENDBRANCH   8  22
BRANCH  11  24
ATOM     24  O   UNL     1     135.132 140.061 136.705  1.00  0.00    -0.492 OA
ATOM     25  C   UNL     1     136.123 140.123 137.728  1.00  0.00     0.278 C 
ENDBRANCH  11  24
BRANCH   9  26
ATOM     26  O   UNL     1     130.819 138.442 138.343  1.00  0.00    -0.490 OA
ATOM     27  C   UNL     1     129.881 139.512 138.452  1.00  0.00     0.279 C 
ENDBRANCH   9  26
BRANCH  10  28
ATOM     28  O   UNL     1     133.108 140.075 138.665  1.00  0.00    -0.490 OA
ATOM     29  C   UNL     1     133.409 139.771 140.023  1.00  0.00     0.278 C 
ENDBRANCH  10  28
TORSDOF 7
ENDMDL
MODEL 8
REMARK VINA RESULT:    -4.226     15.811     20.551
REMARK INTER + INTRA:          -6.727
REMARK INTER:                  -5.977
REMARK INTRA:                  -0.750
REMARK UNBOUND:                -0.771
REMARK SMILES COc1ccc(-c2cc(=O)c3c(OC)c(OC)c(OC)c(OC)c3o2)cc1OC
REMARK SMILES IDX 7 1 8 2 9 3 10 4 11 5 24 6 25 7 21 8 18 9 15 10 12 11 6 12
REMARK SMILES IDX 3 13 27 14 4 15 26 16 5 17 2 18 1 19 28 20 29 21 22 22 23 23
REMARK SMILES IDX 13 24 14 25 19 26 20 27 16 28 17 29
REMARK H PARENT
REMARK Flexibility Score: inf
ROOT
ATOM      1  C   UNL     1     134.684 133.214 134.318  1.00  0.00     0.138 A 
ATOM      2  C   UNL     1     135.423 134.349 134.659  1.00  0.00     0.100 A 
ATOM      3  C   UNL     1     135.267 135.512 133.911  1.00  0.00     0.197 A 
ATOM      4  O   UNL     1     135.936 136.529 134.239  1.00  0.00    -0.289 OA
ATOM      5  C   UNL     1     134.371 135.530 132.814  1.00  0.00     0.115 A 
ATOM      6  C   UNL     1     133.656 134.343 132.530  1.00  0.00     0.188 A 
ATOM      7  O   UNL     1     133.839 133.267 133.292  1.00  0.00    -0.452 OA
ATOM      8  C   UNL     1     132.762 134.288 131.436  1.00  0.00     0.209 A 
ATOM      9  C   UNL     1     132.561 135.445 130.637  1.00  0.00     0.211 A 
ATOM     10  C   UNL     1     133.248 136.647 130.947  1.00  0.00     0.208 A 
ATOM     11  C   UNL     1     134.190 136.675 132.004  1.00  0.00     0.179 A 
ENDROOT
BRANCH   1  12
ATOM     12  C   UNL     1     134.816 131.949 135.078  1.00  0.00     0.021 A 
ATOM     13  C   UNL     1     135.052 129.502 136.466  1.00  0.00     0.160 A 
ATOM     14  C   UNL     1     133.863 129.810 135.788  1.00  0.00     0.161 A 
ATOM     15  C   UNL     1     136.117 130.421 136.450  1.00  0.00     0.051 A 
ATOM     16  C   UNL     1     133.754 131.033 135.095  1.00  0.00     0.062 A 
ATOM     17  C   UNL     1     136.000 131.630 135.761  1.00  0.00     0.016 A 
BRANCH  13  18
ATOM     18  O   UNL     1     135.135 128.275 137.145  1.00  0.00    -0.493 OA
ATOM     19  C   UNL     1     135.822 127.127 136.653  1.00  0.00     0.278 C 
ENDBRANCH  13  18
BRANCH  14  20
ATOM     20  O   UNL     1     132.813 128.877 135.824  1.00  0.00    -0.493 OA
ATOM     21  C   UNL     1     132.487 127.986 134.761  1.00  0.00     0.278 C 
ENDBRANCH  14  20
ENDBRANCH   1  12
BRANCH   8  22
ATOM     22  O   UNL     1     132.060 133.114 131.102  1.00  0.00    -0.490 OA
ATOM     23  C   UNL     1     132.517 132.017 130.322  1.00  0.00     0.278 C 
ENDBRANCH   8  22
BRANCH  11  24
ATOM     24  O   UNL     1     134.958 137.823 132.294  1.00  0.00    -0.492 OA
ATOM     25  C   UNL     1     136.125 138.259 131.601  1.00  0.00     0.278 C 
ENDBRANCH  11  24
BRANCH   9  26
ATOM     26  O   UNL     1     131.713 135.449 129.512  1.00  0.00    -0.490 OA
ATOM     27  C   UNL     1     132.004 135.007 128.187  1.00  0.00     0.279 C 
ENDBRANCH   9  26
BRANCH  10  28
ATOM     28  O   UNL     1     133.027 137.846 130.241  1.00  0.00    -0.490 OA
ATOM     29  C   UNL     1     133.517 138.201 128.952  1.00  0.00     0.278 C 
ENDBRANCH  10  28
TORSDOF 7
ENDMDL
MODEL 9
REMARK VINA RESULT:    -4.201      2.538      8.077
REMARK INTER + INTRA:          -6.692
REMARK INTER:                  -6.025
REMARK INTRA:                  -0.667
REMARK UNBOUND:                -0.771
REMARK SMILES COc1ccc(-c2cc(=O)c3c(OC)c(OC)c(OC)c(OC)c3o2)cc1OC
REMARK SMILES IDX 7 1 8 2 9 3 10 4 11 5 24 6 25 7 21 8 18 9 15 10 12 11 6 12
REMARK SMILES IDX 3 13 27 14 4 15 26 16 5 17 2 18 1 19 28 20 29 21 22 22 23 23
REMARK SMILES IDX 13 24 14 25 19 26 20 27 16 28 17 29
REMARK H PARENT
REMARK Flexibility Score: inf
ROOT
ATOM      1  C   UNL     1     122.633 123.221 142.956  1.00  0.00     0.138 A 
ATOM      2  C   UNL     1     123.065 122.503 144.073  1.00  0.00     0.100 A 
ATOM      3  C   UNL     1     122.309 122.542 145.241  1.00  0.00     0.197 A 
ATOM      4  O   UNL     1     122.711 121.881 146.235  1.00  0.00    -0.289 OA
ATOM      5  C   UNL     1     121.121 123.310 145.286  1.00  0.00     0.115 A 
ATOM      6  C   UNL     1     120.746 124.010 144.115  1.00  0.00     0.188 A 
ATOM      7  O   UNL     1     121.504 123.921 143.024  1.00  0.00    -0.452 OA
ATOM      8  C   UNL     1     119.581 124.812 144.100  1.00  0.00     0.209 A 
ATOM      9  C   UNL     1     118.769 124.889 145.263  1.00  0.00     0.211 A 
ATOM     10  C   UNL     1     119.124 124.155 146.423  1.00  0.00     0.208 A 
ATOM     11  C   UNL     1     120.325 123.406 146.451  1.00  0.00     0.179 A 
ENDROOT
BRANCH   1  12
ATOM     12  C   UNL     1     123.403 123.219 141.690  1.00  0.00     0.021 A 
ATOM     13  C   UNL     1     124.837 123.273 139.259  1.00  0.00     0.160 A 
ATOM     14  C   UNL     1     123.435 123.297 139.244  1.00  0.00     0.161 A 
ATOM     15  C   UNL     1     125.518 123.219 140.489  1.00  0.00     0.051 A 
ATOM     16  C   UNL     1     122.726 123.272 140.462  1.00  0.00     0.062 A 
ATOM     17  C   UNL     1     124.807 123.194 141.691  1.00  0.00     0.016 A 
BRANCH  13  18
ATOM     18  O   UNL     1     125.519 123.304 138.031  1.00  0.00    -0.493 OA
ATOM     19  C   UNL     1     126.444 124.318 137.648  1.00  0.00     0.278 C 
ENDBRANCH  13  18
BRANCH  14  20
ATOM     20  O   UNL     1     122.781 123.347 138.002  1.00  0.00    -0.493 OA
ATOM     21  C   UNL     1     121.793 124.309 137.647  1.00  0.00     0.278 C 
ENDBRANCH  14  20
ENDBRANCH   1  12
BRANCH   8  22
ATOM     22  O   UNL     1     119.196 125.550 142.964  1.00  0.00    -0.490 OA
ATOM     23  C   UNL     1     118.413 125.110 141.862  1.00  0.00     0.278 C 
ENDBRANCH   8  22
BRANCH  11  24
ATOM     24  O   UNL     1     120.761 122.730 147.610  1.00  0.00    -0.492 OA
ATOM     25  C   UNL     1     120.264 121.489 148.106  1.00  0.00     0.278 C 
ENDBRANCH  11  24
BRANCH   9  26
ATOM     26  O   UNL     1     117.616 125.697 145.327  1.00  0.00    -0.490 OA
ATOM     27  C   UNL     1     116.286 125.367 144.928  1.00  0.00     0.279 C 
ENDBRANCH   9  26
BRANCH  10  28
ATOM     28  O   UNL     1     118.315 124.128 147.576  1.00  0.00    -0.490 OA
ATOM     29  C   UNL     1     117.190 123.294 147.832  1.00  0.00     0.278 C 
ENDBRANCH  10  28
TORSDOF 7
ENDMDL
