MODEL 1
REMARK VINA RESULT:    12.297      0.000      0.000
REMARK INTER + INTRA:          21.561
REMARK INTER:                  22.361
REMARK INTRA:                  -0.800
REMARK UNBOUND:                -0.800
REMARK SMILES CCCCCCCCCCCCCCCC(=O)[O-]
REMARK SMILES IDX 9 1 10 2 11 3 12 4 13 5 14 6 15 7 16 8 17 9 18 10 8 11 7 12
REMARK SMILES IDX 6 13 5 14 4 15 3 16 2 17 1 18
REMARK H PARENT
REMARK Flexibility Score: inf
ROOT
ATOM      1  C   UNL     1      17.945  17.063  20.530  1.00  0.00     0.000 C 
ENDROOT
BRANCH   1   2
ATOM      2  C   UNL     1      19.054  18.008  20.037  1.00  0.00     0.000 C 
BRANCH   2   3
ATOM      3  C   UNL     1      19.899  18.592  21.184  1.00  0.00     0.000 C 
BRANCH   3   4
ATOM      4  C   UNL     1      19.480  18.140  22.596  1.00  0.00     0.000 C 
BRANCH   4   5
ATOM      5  C   UNL     1      20.352  18.685  23.743  1.00  0.00     0.000 C 
BRANCH   5   6
ATOM      6  C   UNL     1      21.090  19.999  23.399  1.00  0.00     0.006 C 
BRANCH   6   7
ATOM      7  C   UNL     1      21.542  20.801  24.630  1.00  0.00     0.053 C 
BRANCH   7   8
ATOM      8  C   UNL     1      23.034  20.908  24.713  1.00  0.00     0.041 C 
ATOM      9  O   UNL     1      23.680  20.176  25.509  1.00  0.00    -0.550 OA
ATOM     10  O   UNL     1      23.711  21.829  23.922  1.00  0.00    -0.550 OA
ENDBRANCH   7   8
ENDBRANCH   6   7
ENDBRANCH   5   6
ENDBRANCH   4   5
ENDBRANCH   3   4
ENDBRANCH   2   3
ENDBRANCH   1   2
BRANCH   1  11
ATOM     11  C   UNL     1      16.907  16.762  19.438  1.00  0.00     0.000 C 
BRANCH  11  12
ATOM     12  C   UNL     1      16.486  18.025  18.664  1.00  0.00    -0.000 C 
BRANCH  12  13
ATOM     13  C   UNL     1      16.131  17.717  17.193  1.00  0.00    -0.000 C 
BRANCH  13  14
ATOM     14  C   UNL     1      17.341  17.287  16.343  1.00  0.00    -0.000 C 
BRANCH  14  15
ATOM     15  C   UNL     1      17.059  17.155  14.836  1.00  0.00    -0.000 C 
BRANCH  15  16
ATOM     16  C   UNL     1      17.970  18.006  13.931  1.00  0.00    -0.000 C 
BRANCH  16  17
ATOM     17  C   UNL     1      17.728  19.524  14.059  1.00  0.00    -0.003 C 
ATOM     18  C   UNL     1      19.029  20.325  14.090  1.00  0.00     0.004 C 
ENDBRANCH  16  17
ENDBRANCH  15  16
ENDBRANCH  14  15
ENDBRANCH  13  14
ENDBRANCH  12  13
ENDBRANCH  11  12
ENDBRANCH   1  11
TORSDOF 14
ENDMDL
MODEL 2
REMARK VINA RESULT:    12.563      2.255      2.684
REMARK INTER + INTRA:          22.044
REMARK INTER:                  22.808
REMARK INTRA:                  -0.764
REMARK UNBOUND:                -0.800
REMARK SMILES CCCCCCCCCCCCCCCC(=O)[O-]
REMARK SMILES IDX 9 1 10 2 11 3 12 4 13 5 14 6 15 7 16 8 17 9 18 10 8 11 7 12
REMARK SMILES IDX 6 13 5 14 4 15 3 16 2 17 1 18
REMARK H PARENT
REMARK Flexibility Score: inf
ROOT
ATOM      1  C   UNL     1      18.131  17.209  19.733  1.00  0.00     0.000 C 
ENDROOT
BRANCH   1   2
ATOM      2  C   UNL     1      18.681  17.930  20.975  1.00  0.00     0.000 C 
BRANCH   2   3
ATOM      3  C   UNL     1      20.092  18.508  20.758  1.00  0.00     0.000 C 
BRANCH   3   4
ATOM      4  C   UNL     1      20.970  17.725  19.764  1.00  0.00     0.000 C 
BRANCH   4   5
ATOM      5  C   UNL     1      22.460  18.117  19.758  1.00  0.00     0.000 C 
BRANCH   5   6
ATOM      6  C   UNL     1      23.245  17.614  20.990  1.00  0.00     0.006 C 
BRANCH   6   7
ATOM      7  C   UNL     1      24.567  18.361  21.234  1.00  0.00     0.053 C 
BRANCH   7   8
ATOM      8  C   UNL     1      25.050  18.199  22.644  1.00  0.00     0.041 C 
ATOM      9  O   UNL     1      25.091  19.191  23.418  1.00  0.00    -0.550 OA
ATOM     10  O   UNL     1      25.470  16.955  23.096  1.00  0.00    -0.550 OA
ENDBRANCH   7   8
ENDBRANCH   6   7
ENDBRANCH   5   6
ENDBRANCH   4   5
ENDBRANCH   3   4
ENDBRANCH   2   3
ENDBRANCH   1   2
BRANCH   1  11
ATOM     11  C   UNL     1      16.601  17.309  19.631  1.00  0.00     0.000 C 
BRANCH  11  12
ATOM     12  C   UNL     1      16.120  17.508  18.182  1.00  0.00    -0.000 C 
BRANCH  12  13
ATOM     13  C   UNL     1      17.293  17.702  17.198  1.00  0.00    -0.000 C 
BRANCH  13  14
ATOM     14  C   UNL     1      17.226  16.775  15.968  1.00  0.00    -0.000 C 
BRANCH  14  15
ATOM     15  C   UNL     1      16.926  17.487  14.637  1.00  0.00    -0.000 C 
BRANCH  15  16
ATOM     16  C   UNL     1      18.103  18.295  14.057  1.00  0.00    -0.000 C 
BRANCH  16  17
ATOM     17  C   UNL     1      17.860  19.819  14.040  1.00  0.00    -0.003 C 
ATOM     18  C   UNL     1      19.161  20.619  14.005  1.00  0.00     0.004 C 
ENDBRANCH  16  17
ENDBRANCH  15  16
ENDBRANCH  14  15
ENDBRANCH  13  14
ENDBRANCH  12  13
ENDBRANCH  11  12
ENDBRANCH   1  11
TORSDOF 14
ENDMDL
MODEL 3
REMARK VINA RESULT:    12.627      6.121      8.914
REMARK INTER + INTRA:          22.161
REMARK INTER:                  22.796
REMARK INTRA:                  -0.635
REMARK UNBOUND:                -0.800
REMARK SMILES CCCCCCCCCCCCCCCC(=O)[O-]
REMARK SMILES IDX 9 1 10 2 11 3 12 4 13 5 14 6 15 7 16 8 17 9 18 10 8 11 7 12
REMARK SMILES IDX 6 13 5 14 4 15 3 16 2 17 1 18
REMARK H PARENT
REMARK Flexibility Score: inf
ROOT
ATOM      1  C   UNL     1      15.484  14.011  20.672  1.00  0.00     0.000 C 
ENDROOT
BRANCH   1   2
ATOM      2  C   UNL     1      15.482  15.422  20.058  1.00  0.00     0.000 C 
BRANCH   2   3
ATOM      3  C   UNL     1      16.845  16.128  20.172  1.00  0.00     0.000 C 
BRANCH   3   4
ATOM      4  C   UNL     1      16.930  17.497  19.471  1.00  0.00     0.000 C 
BRANCH   4   5
ATOM      5  C   UNL     1      16.223  17.577  18.105  1.00  0.00     0.000 C 
BRANCH   5   6
ATOM      6  C   UNL     1      17.115  17.159  16.913  1.00  0.00     0.006 C 
BRANCH   6   7
ATOM      7  C   UNL     1      16.518  17.502  15.538  1.00  0.00     0.053 C 
BRANCH   7   8
ATOM      8  C   UNL     1      17.558  17.494  14.458  1.00  0.00     0.041 C 
ATOM      9  O   UNL     1      18.072  18.574  14.064  1.00  0.00    -0.550 OA
ATOM     10  O   UNL     1      17.945  16.294  13.876  1.00  0.00    -0.550 OA
ENDBRANCH   7   8
ENDBRANCH   6   7
ENDBRANCH   5   6
ENDBRANCH   4   5
ENDBRANCH   3   4
ENDBRANCH   2   3
ENDBRANCH   1   2
BRANCH   1  11
ATOM     11  C   UNL     1      14.240  13.201  20.275  1.00  0.00     0.000 C 
BRANCH  11  12
ATOM     12  C   UNL     1      14.595  11.926  19.490  1.00  0.00    -0.000 C 
BRANCH  12  13
ATOM     13  C   UNL     1      15.188  10.826  20.396  1.00  0.00    -0.000 C 
BRANCH  13  14
ATOM     14  C   UNL     1      16.086   9.825  19.644  1.00  0.00    -0.000 C 
BRANCH  14  15
ATOM     15  C   UNL     1      17.398   9.467  20.363  1.00  0.00    -0.000 C 
BRANCH  15  16
ATOM     16  C   UNL     1      18.551   9.044  19.432  1.00  0.00    -0.000 C 
BRANCH  16  17
ATOM     17  C   UNL     1      19.836   9.877  19.620  1.00  0.00    -0.003 C 
ATOM     18  C   UNL     1      19.703  10.916  20.733  1.00  0.00     0.004 C 
ENDBRANCH  16  17
ENDBRANCH  15  16
ENDBRANCH  14  15
ENDBRANCH  13  14
ENDBRANCH  12  13
ENDBRANCH  11  12
ENDBRANCH   1  11
TORSDOF 14
ENDMDL
MODEL 4
REMARK VINA RESULT:    12.635      5.828      7.964
REMARK INTER + INTRA:          22.175
REMARK INTER:                  22.759
REMARK INTRA:                  -0.583
REMARK UNBOUND:                -0.800
REMARK SMILES CCCCCCCCCCCCCCCC(=O)[O-]
REMARK SMILES IDX 9 1 10 2 11 3 12 4 13 5 14 6 15 7 16 8 17 9 18 10 8 11 7 12
REMARK SMILES IDX 6 13 5 14 4 15 3 16 2 17 1 18
REMARK H PARENT
REMARK Flexibility Score: inf
ROOT
ATOM      1  C   UNL     1      15.583  14.067  20.565  1.00  0.00     0.000 C 
ENDROOT
BRANCH   1   2
ATOM      2  C   UNL     1      14.264  13.322  20.297  1.00  0.00     0.000 C 
BRANCH   2   3
ATOM      3  C   UNL     1      14.475  11.952  19.627  1.00  0.00     0.000 C 
BRANCH   3   4
ATOM      4  C   UNL     1      15.591  11.090  20.246  1.00  0.00     0.000 C 
BRANCH   4   5
ATOM      5  C   UNL     1      15.690   9.654  19.696  1.00  0.00     0.000 C 
BRANCH   5   6
ATOM      6  C   UNL     1      17.138   9.125  19.582  1.00  0.00     0.006 C 
BRANCH   6   7
ATOM      7  C   UNL     1      18.076   9.632  20.691  1.00  0.00     0.053 C 
BRANCH   7   8
ATOM      8  C   UNL     1      19.405  10.061  20.148  1.00  0.00     0.041 C 
ATOM      9  O   UNL     1      20.032  11.012  20.684  1.00  0.00    -0.550 OA
ATOM     10  O   UNL     1      19.942   9.421  19.038  1.00  0.00    -0.550 OA
ENDBRANCH   7   8
ENDBRANCH   6   7
ENDBRANCH   5   6
ENDBRANCH   4   5
ENDBRANCH   3   4
ENDBRANCH   2   3
ENDBRANCH   1   2
BRANCH   1  11
ATOM     11  C   UNL     1      15.533  15.529  20.095  1.00  0.00     0.000 C 
BRANCH  11  12
ATOM     12  C   UNL     1      16.911  16.213  20.155  1.00  0.00    -0.000 C 
BRANCH  12  13
ATOM     13  C   UNL     1      16.934  17.552  19.387  1.00  0.00    -0.000 C 
BRANCH  13  14
ATOM     14  C   UNL     1      16.311  17.465  17.980  1.00  0.00    -0.000 C 
BRANCH  14  15
ATOM     15  C   UNL     1      17.327  17.454  16.823  1.00  0.00    -0.000 C 
BRANCH  15  16
ATOM     16  C   UNL     1      16.741  17.814  15.444  1.00  0.00    -0.000 C 
BRANCH  16  17
ATOM     17  C   UNL     1      17.684  17.492  14.267  1.00  0.00    -0.003 C 
ATOM     18  C   UNL     1      17.730  15.998  13.946  1.00  0.00     0.004 C 
ENDBRANCH  16  17
ENDBRANCH  15  16
ENDBRANCH  14  15
ENDBRANCH  13  14
ENDBRANCH  12  13
ENDBRANCH  11  12
ENDBRANCH   1  11
TORSDOF 14
ENDMDL
MODEL 5
REMARK VINA RESULT:    12.670      2.478      2.892
REMARK INTER + INTRA:          22.240
REMARK INTER:                  22.981
REMARK INTRA:                  -0.742
REMARK UNBOUND:                -0.800
REMARK SMILES CCCCCCCCCCCCCCCC(=O)[O-]
REMARK SMILES IDX 9 1 10 2 11 3 12 4 13 5 14 6 15 7 16 8 17 9 18 10 8 11 7 12
REMARK SMILES IDX 6 13 5 14 4 15 3 16 2 17 1 18
REMARK H PARENT
REMARK Flexibility Score: inf
ROOT
ATOM      1  C   UNL     1      18.378  17.942  21.009  1.00  0.00     0.000 C 
ENDROOT
BRANCH   1   2
ATOM      2  C   UNL     1      19.882  18.265  20.975  1.00  0.00     0.000 C 
BRANCH   2   3
ATOM      3  C   UNL     1      20.553  17.856  19.651  1.00  0.00     0.000 C 
BRANCH   3   4
ATOM      4  C   UNL     1      22.093  17.902  19.660  1.00  0.00     0.000 C 
BRANCH   4   5
ATOM      5  C   UNL     1      22.741  17.829  21.056  1.00  0.00     0.000 C 
BRANCH   5   6
ATOM      6  C   UNL     1      24.251  18.156  21.063  1.00  0.00     0.006 C 
BRANCH   6   7
ATOM      7  C   UNL     1      24.772  18.665  22.417  1.00  0.00     0.053 C 
BRANCH   7   8
ATOM      8  C   UNL     1      25.375  17.565  23.236  1.00  0.00     0.041 C 
ATOM      9  O   UNL     1      25.418  16.390  22.787  1.00  0.00    -0.550 OA
ATOM     10  O   UNL     1      25.873  17.835  24.505  1.00  0.00    -0.550 OA
ENDBRANCH   7   8
ENDBRANCH   6   7
ENDBRANCH   5   6
ENDBRANCH   4   5
ENDBRANCH   3   4
ENDBRANCH   2   3
ENDBRANCH   1   2
BRANCH   1  11
ATOM     11  C   UNL     1      17.942  17.065  19.826  1.00  0.00     0.000 C 
BRANCH  11  12
ATOM     12  C   UNL     1      16.455  17.248  19.475  1.00  0.00    -0.000 C 
BRANCH  12  13
ATOM     13  C   UNL     1      16.256  18.000  18.141  1.00  0.00    -0.000 C 
BRANCH  13  14
ATOM     14  C   UNL     1      16.994  17.353  16.953  1.00  0.00    -0.000 C 
BRANCH  14  15
ATOM     15  C   UNL     1      16.300  17.526  15.590  1.00  0.00    -0.000 C 
BRANCH  15  16
ATOM     16  C   UNL     1      17.120  17.035  14.381  1.00  0.00    -0.000 C 
BRANCH  16  17
ATOM     17  C   UNL     1      18.262  17.991  13.977  1.00  0.00    -0.003 C 
ATOM     18  C   UNL     1      17.878  19.461  14.135  1.00  0.00     0.004 C 
ENDBRANCH  16  17
ENDBRANCH  15  16
ENDBRANCH  14  15
ENDBRANCH  13  14
ENDBRANCH  12  13
ENDBRANCH  11  12
ENDBRANCH   1  11
TORSDOF 14
ENDMDL
MODEL 6
REMARK VINA RESULT:    13.023      4.483      9.164
REMARK INTER + INTRA:          22.881
REMARK INTER:                  23.635
REMARK INTRA:                  -0.754
REMARK UNBOUND:                -0.800
REMARK SMILES CCCCCCCCCCCCCCCC(=O)[O-]
REMARK SMILES IDX 9 1 10 2 11 3 12 4 13 5 14 6 15 7 16 8 17 9 18 10 8 11 7 12
REMARK SMILES IDX 6 13 5 14 4 15 3 16 2 17 1 18
REMARK H PARENT
REMARK Flexibility Score: inf
ROOT
ATOM      1  C   UNL     1      19.650  18.130  21.968  1.00  0.00     0.000 C 
ENDROOT
BRANCH   1   2
ATOM      2  C   UNL     1      19.227  18.249  20.494  1.00  0.00     0.000 C 
BRANCH   2   3
ATOM      3  C   UNL     1      18.147  17.227  20.095  1.00  0.00     0.000 C 
BRANCH   3   4
ATOM      4  C   UNL     1      16.873  17.833  19.478  1.00  0.00     0.000 C 
BRANCH   4   5
ATOM      5  C   UNL     1      16.398  17.170  18.172  1.00  0.00     0.000 C 
BRANCH   5   6
ATOM      6  C   UNL     1      17.283  17.495  16.947  1.00  0.00     0.006 C 
BRANCH   6   7
ATOM      7  C   UNL     1      16.556  17.355  15.598  1.00  0.00     0.053 C 
BRANCH   7   8
ATOM      8  C   UNL     1      17.515  17.308  14.448  1.00  0.00     0.041 C 
ATOM      9  O   UNL     1      17.948  18.375  13.938  1.00  0.00    -0.550 OA
ATOM     10  O   UNL     1      17.917  16.085  13.927  1.00  0.00    -0.550 OA
ENDBRANCH   7   8
ENDBRANCH   6   7
ENDBRANCH   5   6
ENDBRANCH   4   5
ENDBRANCH   3   4
ENDBRANCH   2   3
ENDBRANCH   1   2
BRANCH   1  11
ATOM     11  C   UNL     1      20.690  19.189  22.364  1.00  0.00     0.000 C 
BRANCH  11  12
ATOM     12  C   UNL     1      20.871  19.293  23.889  1.00  0.00    -0.000 C 
BRANCH  12  13
ATOM     13  C   UNL     1      21.395  20.679  24.323  1.00  0.00    -0.000 C 
BRANCH  13  14
ATOM     14  C   UNL     1      22.858  20.662  24.806  1.00  0.00    -0.000 C 
BRANCH  14  15
ATOM     15  C   UNL     1      23.909  20.771  23.687  1.00  0.00    -0.000 C 
BRANCH  15  16
ATOM     16  C   UNL     1      24.747  19.497  23.462  1.00  0.00    -0.000 C 
BRANCH  16  17
ATOM     17  C   UNL     1      24.767  19.020  21.995  1.00  0.00    -0.003 C 
ATOM     18  C   UNL     1      24.612  17.504  21.870  1.00  0.00     0.004 C 
ENDBRANCH  16  17
ENDBRANCH  15  16
ENDBRANCH  14  15
ENDBRANCH  13  14
ENDBRANCH  12  13
ENDBRANCH  11  12
ENDBRANCH   1  11
TORSDOF 14
ENDMDL
MODEL 7
REMARK VINA RESULT:    13.418      1.794      2.921
REMARK INTER + INTRA:          23.599
REMARK INTER:                  24.074
REMARK INTRA:                  -0.475
REMARK UNBOUND:                -0.800
REMARK SMILES CCCCCCCCCCCCCCCC(=O)[O-]
REMARK SMILES IDX 9 1 10 2 11 3 12 4 13 5 14 6 15 7 16 8 17 9 18 10 8 11 7 12
REMARK SMILES IDX 6 13 5 14 4 15 3 16 2 17 1 18
REMARK H PARENT
REMARK Flexibility Score: inf
ROOT
ATOM      1  C   UNL     1      19.883  18.931  21.237  1.00  0.00     0.000 C 
ENDROOT
BRANCH   1   2
ATOM      2  C   UNL     1      19.867  18.741  22.764  1.00  0.00     0.000 C 
BRANCH   2   3
ATOM      3  C   UNL     1      21.201  19.126  23.430  1.00  0.00     0.000 C 
BRANCH   3   4
ATOM      4  C   UNL     1      21.228  20.527  24.071  1.00  0.00     0.000 C 
BRANCH   4   5
ATOM      5  C   UNL     1      22.596  20.966  24.625  1.00  0.00     0.000 C 
BRANCH   5   6
ATOM      6  C   UNL     1      23.700  19.892  24.491  1.00  0.00     0.006 C 
BRANCH   6   7
ATOM      7  C   UNL     1      24.497  19.978  23.179  1.00  0.00     0.053 C 
BRANCH   7   8
ATOM      8  C   UNL     1      24.835  18.622  22.638  1.00  0.00     0.041 C 
ATOM      9  O   UNL     1      24.463  18.288  21.483  1.00  0.00    -0.550 OA
ATOM     10  O   UNL     1      25.547  17.720  23.420  1.00  0.00    -0.550 OA
ENDBRANCH   7   8
ENDBRANCH   6   7
ENDBRANCH   5   6
ENDBRANCH   4   5
ENDBRANCH   3   4
ENDBRANCH   2   3
ENDBRANCH   1   2
BRANCH   1  11
ATOM     11  C   UNL     1      19.191  17.776  20.498  1.00  0.00     0.000 C 
BRANCH  11  12
ATOM     12  C   UNL     1      17.685  18.024  20.299  1.00  0.00    -0.000 C 
BRANCH  12  13
ATOM     13  C   UNL     1      17.050  17.015  19.318  1.00  0.00    -0.000 C 
BRANCH  13  14
ATOM     14  C   UNL     1      16.594  17.651  17.990  1.00  0.00    -0.000 C 
BRANCH  14  15
ATOM     15  C   UNL     1      17.523  17.385  16.793  1.00  0.00    -0.000 C 
BRANCH  15  16
ATOM     16  C   UNL     1      16.806  17.244  15.437  1.00  0.00    -0.000 C 
BRANCH  16  17
ATOM     17  C   UNL     1      17.674  17.661  14.231  1.00  0.00    -0.003 C 
ATOM     18  C   UNL     1      17.995  19.155  14.230  1.00  0.00     0.004 C 
ENDBRANCH  16  17
ENDBRANCH  15  16
ENDBRANCH  14  15
ENDBRANCH  13  14
ENDBRANCH  12  13
ENDBRANCH  11  12
ENDBRANCH   1  11
TORSDOF 14
ENDMDL
MODEL 8
REMARK VINA RESULT:    13.660      4.587      9.166
REMARK INTER + INTRA:          24.039
REMARK INTER:                  24.626
REMARK INTRA:                  -0.587
REMARK UNBOUND:                -0.800
REMARK SMILES CCCCCCCCCCCCCCCC(=O)[O-]
REMARK SMILES IDX 9 1 10 2 11 3 12 4 13 5 14 6 15 7 16 8 17 9 18 10 8 11 7 12
REMARK SMILES IDX 6 13 5 14 4 15 3 16 2 17 1 18
REMARK H PARENT
REMARK Flexibility Score: inf
ROOT
ATOM      1  C   UNL     1      20.150  18.290  20.454  1.00  0.00     0.000 C 
ENDROOT
BRANCH   1   2
ATOM      2  C   UNL     1      18.983  17.493  19.847  1.00  0.00     0.000 C 
BRANCH   2   3
ATOM      3  C   UNL     1      17.609  18.120  20.145  1.00  0.00     0.000 C 
BRANCH   3   4
ATOM      4  C   UNL     1      16.449  17.587  19.283  1.00  0.00     0.000 C 
BRANCH   4   5
ATOM      5  C   UNL     1      16.868  16.950  17.945  1.00  0.00     0.000 C 
BRANCH   5   6
ATOM      6  C   UNL     1      16.931  17.949  16.767  1.00  0.00     0.006 C 
BRANCH   6   7
ATOM      7  C   UNL     1      16.406  17.381  15.439  1.00  0.00     0.053 C 
BRANCH   7   8
ATOM      8  C   UNL     1      17.477  17.320  14.393  1.00  0.00     0.041 C 
ATOM      9  O   UNL     1      18.010  18.378  13.967  1.00  0.00    -0.550 OA
ATOM     10  O   UNL     1      17.875  16.093  13.875  1.00  0.00    -0.550 OA
ENDBRANCH   7   8
ENDBRANCH   6   7
ENDBRANCH   5   6
ENDBRANCH   4   5
ENDBRANCH   3   4
ENDBRANCH   2   3
ENDBRANCH   1   2
BRANCH   1  11
ATOM     11  C   UNL     1      21.506  17.885  19.856  1.00  0.00     0.000 C 
BRANCH  11  12
ATOM     12  C   UNL     1      22.538  17.515  20.937  1.00  0.00    -0.000 C 
BRANCH  12  13
ATOM     13  C   UNL     1      23.888  18.234  20.728  1.00  0.00    -0.000 C 
BRANCH  13  14
ATOM     14  C   UNL     1      24.802  18.204  21.968  1.00  0.00    -0.000 C 
BRANCH  14  15
ATOM     15  C   UNL     1      24.942  19.550  22.701  1.00  0.00    -0.000 C 
BRANCH  15  16
ATOM     16  C   UNL     1      24.104  19.676  23.988  1.00  0.00    -0.000 C 
BRANCH  16  17
ATOM     17  C   UNL     1      23.443  21.059  24.164  1.00  0.00    -0.003 C 
ATOM     18  C   UNL     1      21.997  20.959  24.651  1.00  0.00     0.004 C 
ENDBRANCH  16  17
ENDBRANCH  15  16
ENDBRANCH  14  15
ENDBRANCH  13  14
ENDBRANCH  12  13
ENDBRANCH  11  12
ENDBRANCH   1  11
TORSDOF 14
ENDMDL
