MODEL 1
REMARK VINA RESULT:    -3.294      0.000      0.000
REMARK INTER + INTRA:          -4.001
REMARK INTER:                  -3.968
REMARK INTRA:                  -0.033
REMARK UNBOUND:                -0.033
REMARK SMILES Oc1cc(O)c2c(c1)O[C@H](c1ccc(O)c(O)c1)[C@H](O)C2
REMARK SMILES IDX 21 1 19 2 10 3 9 4 7 5 8 6 2 7 3 8 4 9 6 10 20 11 11 13
REMARK SMILES IDX 18 14 12 15 16 16 13 17 14 18 17 19 15 21 5 23 1 25
REMARK H PARENT 20 12 17 20 15 22 5 24 1 26
REMARK Flexibility Score: inf
ROOT
ATOM      1  C   UNL     1      -2.718   9.460   1.894  1.00  0.00     0.079 C 
ATOM      2  C   UNL     1      -1.385  10.125   1.509  1.00  0.00     0.164 C 
ATOM      3  C   UNL     1      -0.786   9.485   0.241  1.00  0.00     0.232 C 
ATOM      4  O   UNL     1      -1.751   9.474  -0.816  1.00  0.00    -0.482 OA
ATOM      5  C   UNL     1      -3.131   9.361  -0.596  1.00  0.00     0.131 A 
ATOM      6  C   UNL     1      -3.982   9.266  -1.699  1.00  0.00     0.093 A 
ATOM      7  C   UNL     1      -5.358   9.120  -1.519  1.00  0.00     0.122 A 
ATOM      8  C   UNL     1      -5.887   9.056  -0.224  1.00  0.00     0.092 A 
ATOM      9  C   UNL     1      -5.049   9.145   0.893  1.00  0.00     0.126 A 
ATOM     10  C   UNL     1      -3.658   9.341   0.714  1.00  0.00     0.039 A 
ENDROOT
BRANCH   2  11
ATOM     11  O   UNL     1      -0.473  10.045   2.573  1.00  0.00    -0.389 OA
ATOM     12  H   UNL     1      -0.955   9.626   3.334  1.00  0.00     0.211 HD
ENDBRANCH   2  11
BRANCH   3  13
ATOM     13  C   UNL     1      -0.224   8.093   0.490  1.00  0.00    -0.001 A 
ATOM     14  C   UNL     1       1.168   7.904   0.499  1.00  0.00     0.057 A 
ATOM     15  C   UNL     1      -1.058   6.993   0.756  1.00  0.00     0.012 A 
ATOM     16  C   UNL     1       1.726   6.645   0.751  1.00  0.00     0.157 A 
ATOM     17  C   UNL     1      -0.509   5.735   1.008  1.00  0.00     0.050 A 
ATOM     18  C   UNL     1       0.876   5.545   1.008  1.00  0.00     0.157 A 
BRANCH  16  19
ATOM     19  O   UNL     1       3.119   6.536   0.739  1.00  0.00    -0.504 OA
ATOM     20  H   UNL     1       3.732   7.061   1.347  1.00  0.00     0.293 HD
ENDBRANCH  16  19
BRANCH  18  21
ATOM     21  O   UNL     1       1.360   4.261   1.266  1.00  0.00    -0.504 OA
ATOM     22  H   UNL     1       1.236   3.475   0.644  1.00  0.00     0.293 HD
ENDBRANCH  18  21
ENDBRANCH   3  13
BRANCH   9  23
ATOM     23  O   UNL     1      -5.628   9.022   2.158  1.00  0.00    -0.507 OA
ATOM     24  H   UNL     1      -5.242   9.448   2.991  1.00  0.00     0.293 HD
ENDBRANCH   9  23
BRANCH   7  25
ATOM     25  O   UNL     1      -6.192   9.030  -2.631  1.00  0.00    -0.508 OA
ATOM     26  H   UNL     1      -6.363   9.828  -3.232  1.00  0.00     0.293 HD
ENDBRANCH   7  25
TORSDOF 6
ENDMDL
MODEL 2
REMARK VINA RESULT:    -2.359      1.913      6.183
REMARK INTER + INTRA:          -2.874
REMARK INTER:                  -2.987
REMARK INTRA:                   0.113
REMARK UNBOUND:                -0.033
REMARK SMILES Oc1cc(O)c2c(c1)O[C@H](c1ccc(O)c(O)c1)[C@H](O)C2
REMARK SMILES IDX 21 1 19 2 10 3 9 4 7 5 8 6 2 7 3 8 4 9 6 10 20 11 11 13
REMARK SMILES IDX 18 14 12 15 16 16 13 17 14 18 17 19 15 21 5 23 1 25
REMARK H PARENT 20 12 17 20 15 22 5 24 1 26
REMARK Flexibility Score: inf
ROOT
ATOM      1  C   UNL     1       0.325   9.623   1.006  1.00  0.00     0.079 C 
ATOM      2  C   UNL     1      -0.759   9.151   1.991  1.00  0.00     0.164 C 
ATOM      3  C   UNL     1      -1.370   7.806   1.550  1.00  0.00     0.232 C 
ATOM      4  O   UNL     1      -0.338   6.841   1.324  1.00  0.00    -0.482 OA
ATOM      5  C   UNL     1       0.942   7.177   0.864  1.00  0.00     0.131 A 
ATOM      6  C   UNL     1       1.849   6.151   0.585  1.00  0.00     0.093 A 
ATOM      7  C   UNL     1       3.121   6.447   0.096  1.00  0.00     0.122 A 
ATOM      8  C   UNL     1       3.488   7.779  -0.127  1.00  0.00     0.092 A 
ATOM      9  C   UNL     1       2.593   8.820   0.142  1.00  0.00     0.126 A 
ATOM     10  C   UNL     1       1.318   8.527   0.683  1.00  0.00     0.039 A 
ENDROOT
BRANCH   2  11
ATOM     11  O   UNL     1      -1.763  10.125   2.117  1.00  0.00    -0.389 OA
ATOM     12  H   UNL     1      -2.591   9.649   2.389  1.00  0.00     0.211 HD
ENDBRANCH   2  11
BRANCH   3  13
ATOM     13  C   UNL     1      -2.279   7.939   0.338  1.00  0.00    -0.001 A 
ATOM     14  C   UNL     1      -2.043   7.136  -0.791  1.00  0.00     0.057 A 
ATOM     15  C   UNL     1      -3.379   8.814   0.327  1.00  0.00     0.012 A 
ATOM     16  C   UNL     1      -2.872   7.209  -1.917  1.00  0.00     0.157 A 
ATOM     17  C   UNL     1      -4.210   8.892  -0.791  1.00  0.00     0.050 A 
ATOM     18  C   UNL     1      -3.970   8.100  -1.917  1.00  0.00     0.157 A 
BRANCH  16  19
ATOM     19  O   UNL     1      -2.572   6.381  -3.002  1.00  0.00    -0.504 OA
ATOM     20  H   UNL     1      -1.649   6.284  -3.400  1.00  0.00     0.293 HD
ENDBRANCH  16  19
BRANCH  18  21
ATOM     21  O   UNL     1      -4.839   8.227  -3.003  1.00  0.00    -0.504 OA
ATOM     22  H   UNL     1      -4.557   8.127  -3.968  1.00  0.00     0.293 HD
ENDBRANCH  18  21
ENDBRANCH   3  13
BRANCH   9  23
ATOM     23  O   UNL     1       2.997  10.125  -0.151  1.00  0.00    -0.507 OA
ATOM     24  H   UNL     1       2.910  10.894   0.501  1.00  0.00     0.293 HD
ENDBRANCH   9  23
BRANCH   7  25
ATOM     25  O   UNL     1       4.013   5.411  -0.174  1.00  0.00    -0.508 OA
ATOM     26  H   UNL     1       4.963   5.423   0.181  1.00  0.00     0.293 HD
ENDBRANCH   7  25
TORSDOF 6
ENDMDL
MODEL 3
REMARK VINA RESULT:    -1.114      1.736      3.368
REMARK INTER + INTRA:          -1.374
REMARK INTER:                  -1.335
REMARK INTRA:                  -0.040
REMARK UNBOUND:                -0.033
REMARK SMILES Oc1cc(O)c2c(c1)O[C@H](c1ccc(O)c(O)c1)[C@H](O)C2
REMARK SMILES IDX 21 1 19 2 10 3 9 4 7 5 8 6 2 7 3 8 4 9 6 10 20 11 11 13
REMARK SMILES IDX 18 14 12 15 16 16 13 17 14 18 17 19 15 21 5 23 1 25
REMARK H PARENT 20 12 17 20 15 22 5 24 1 26
REMARK Flexibility Score: inf
ROOT
ATOM      1  C   UNL     1      -3.131   7.971  -1.968  1.00  0.00     0.079 C 
ATOM      2  C   UNL     1      -2.640   6.600  -1.469  1.00  0.00     0.164 C 
ATOM      3  C   UNL     1      -2.299   6.641   0.034  1.00  0.00     0.232 C 
ATOM      4  O   UNL     1      -3.401   7.165   0.781  1.00  0.00    -0.482 OA
ATOM      5  C   UNL     1      -4.292   8.119   0.271  1.00  0.00     0.131 A 
ATOM      6  C   UNL     1      -5.279   8.637   1.112  1.00  0.00     0.093 A 
ATOM      7  C   UNL     1      -6.163   9.612   0.648  1.00  0.00     0.122 A 
ATOM      8  C   UNL     1      -6.052  10.082  -0.665  1.00  0.00     0.092 A 
ATOM      9  C   UNL     1      -5.067   9.579  -1.522  1.00  0.00     0.126 A 
ATOM     10  C   UNL     1      -4.199   8.556  -1.070  1.00  0.00     0.039 A 
ENDROOT
BRANCH   2  11
ATOM     11  O   UNL     1      -1.525   6.180  -2.211  1.00  0.00    -0.389 OA
ATOM     12  H   UNL     1      -1.874   5.676  -2.992  1.00  0.00     0.211 HD
ENDBRANCH   2  11
BRANCH   3  13
ATOM     13  C   UNL     1      -1.018   7.405   0.329  1.00  0.00    -0.001 A 
ATOM     14  C   UNL     1       0.214   6.731   0.276  1.00  0.00     0.057 A 
ATOM     15  C   UNL     1      -1.023   8.782   0.613  1.00  0.00     0.012 A 
ATOM     16  C   UNL     1       1.418   7.403   0.514  1.00  0.00     0.157 A 
ATOM     17  C   UNL     1       0.173   9.459   0.852  1.00  0.00     0.050 A 
ATOM     18  C   UNL     1       1.398   8.786   0.808  1.00  0.00     0.157 A 
BRANCH  16  19
ATOM     19  O   UNL     1       2.602   6.664   0.446  1.00  0.00    -0.504 OA
ATOM     20  H   UNL     1       3.308   6.793  -0.264  1.00  0.00     0.293 HD
ENDBRANCH  16  19
BRANCH  18  21
ATOM     21  O   UNL     1       2.558   9.523   1.057  1.00  0.00    -0.504 OA
ATOM     22  H   UNL     1       2.772   9.956   1.944  1.00  0.00     0.293 HD
ENDBRANCH  18  21
ENDBRANCH   3  13
BRANCH   9  23
ATOM     23  O   UNL     1      -4.971  10.125  -2.804  1.00  0.00    -0.507 OA
ATOM     24  H   UNL     1      -4.217  10.733  -3.096  1.00  0.00     0.293 HD
ENDBRANCH   9  23
BRANCH   7  25
ATOM     25  O   UNL     1      -7.143  10.114   1.501  1.00  0.00    -0.508 OA
ATOM     26  H   UNL     1      -7.943   9.556   1.778  1.00  0.00     0.293 HD
ENDBRANCH   7  25
TORSDOF 6
ENDMDL
MODEL 4
REMARK VINA RESULT:    -0.775      1.927      3.516
REMARK INTER + INTRA:          -0.966
REMARK INTER:                  -1.570
REMARK INTRA:                   0.604
REMARK UNBOUND:                -0.033
REMARK SMILES Oc1cc(O)c2c(c1)O[C@H](c1ccc(O)c(O)c1)[C@H](O)C2
REMARK SMILES IDX 21 1 19 2 10 3 9 4 7 5 8 6 2 7 3 8 4 9 6 10 20 11 11 13
REMARK SMILES IDX 18 14 12 15 16 16 13 17 14 18 17 19 15 21 5 23 1 25
REMARK H PARENT 20 12 17 20 15 22 5 24 1 26
REMARK Flexibility Score: inf
ROOT
ATOM      1  C   UNL     1      -1.519   6.303  -1.013  1.00  0.00     0.079 C 
ATOM      2  C   UNL     1      -1.245   6.066   0.482  1.00  0.00     0.164 C 
ATOM      3  C   UNL     1      -1.104   7.399   1.244  1.00  0.00     0.232 C 
ATOM      4  O   UNL     1      -2.234   8.239   0.992  1.00  0.00    -0.482 OA
ATOM      5  C   UNL     1      -2.945   8.231  -0.216  1.00  0.00     0.131 A 
ATOM      6  C   UNL     1      -3.976   9.156  -0.397  1.00  0.00     0.093 A 
ATOM      7  C   UNL     1      -4.683   9.198  -1.599  1.00  0.00     0.122 A 
ATOM      8  C   UNL     1      -4.351   8.315  -2.633  1.00  0.00     0.092 A 
ATOM      9  C   UNL     1      -3.319   7.384  -2.471  1.00  0.00     0.126 A 
ATOM     10  C   UNL     1      -2.630   7.307  -1.237  1.00  0.00     0.039 A 
ENDROOT
BRANCH   2  11
ATOM     11  O   UNL     1      -0.091   5.284   0.650  1.00  0.00    -0.389 OA
ATOM     12  H   UNL     1      -0.191   4.494   0.056  1.00  0.00     0.211 HD
ENDBRANCH   2  11
BRANCH   3  13
ATOM     13  C   UNL     1       0.200   8.119   0.938  1.00  0.00    -0.001 A 
ATOM     14  C   UNL     1       1.250   7.413   0.326  1.00  0.00     0.057 A 
ATOM     15  C   UNL     1       0.374   9.487   1.210  1.00  0.00     0.012 A 
ATOM     16  C   UNL     1       2.456   8.046   0.003  1.00  0.00     0.157 A 
ATOM     17  C   UNL     1       1.573  10.125   0.891  1.00  0.00     0.050 A 
ATOM     18  C   UNL     1       2.621   9.420   0.291  1.00  0.00     0.157 A 
BRANCH  16  19
ATOM     19  O   UNL     1       3.454   7.277  -0.601  1.00  0.00    -0.504 OA
ATOM     20  H   UNL     1       3.778   6.390  -0.243  1.00  0.00     0.293 HD
ENDBRANCH  16  19
BRANCH  18  21
ATOM     21  O   UNL     1       3.796  10.118  -0.001  1.00  0.00    -0.504 OA
ATOM     22  H   UNL     1       4.479   9.815  -0.680  1.00  0.00     0.293 HD
ENDBRANCH  18  21
ENDBRANCH   3  13
BRANCH   9  23
ATOM     23  O   UNL     1      -2.998   6.566  -3.557  1.00  0.00    -0.507 OA
ATOM     24  H   UNL     1      -3.021   5.555  -3.518  1.00  0.00     0.293 HD
ENDBRANCH   9  23
BRANCH   7  25
ATOM     25  O   UNL     1      -5.710  10.125  -1.761  1.00  0.00    -0.508 OA
ATOM     26  H   UNL     1      -5.706  11.013  -1.271  1.00  0.00     0.293 HD
ENDBRANCH   7  25
TORSDOF 6
ENDMDL
MODEL 5
REMARK VINA RESULT:    -0.593      1.755      6.614
REMARK INTER + INTRA:          -0.748
REMARK INTER:                  -0.706
REMARK INTRA:                  -0.041
REMARK UNBOUND:                -0.033
REMARK SMILES Oc1cc(O)c2c(c1)O[C@H](c1ccc(O)c(O)c1)[C@H](O)C2
REMARK SMILES IDX 21 1 19 2 10 3 9 4 7 5 8 6 2 7 3 8 4 9 6 10 20 11 11 13
REMARK SMILES IDX 18 14 12 15 16 16 13 17 14 18 17 19 15 21 5 23 1 25
REMARK H PARENT 20 12 17 20 15 22 5 24 1 26
REMARK Flexibility Score: inf
ROOT
ATOM      1  C   UNL     1      -2.203   7.273  -0.906  1.00  0.00     0.079 C 
ATOM      2  C   UNL     1      -2.636   8.059  -2.155  1.00  0.00     0.164 C 
ATOM      3  C   UNL     1      -2.934   9.533  -1.814  1.00  0.00     0.232 C 
ATOM      4  O   UNL     1      -1.827  10.118  -1.121  1.00  0.00    -0.482 OA
ATOM      5  C   UNL     1      -0.982   9.392  -0.271  1.00  0.00     0.131 A 
ATOM      6  C   UNL     1       0.014  10.074   0.432  1.00  0.00     0.093 A 
ATOM      7  C   UNL     1       0.853   9.389   1.312  1.00  0.00     0.122 A 
ATOM      8  C   UNL     1       0.689   8.012   1.498  1.00  0.00     0.092 A 
ATOM      9  C   UNL     1      -0.305   7.311   0.806  1.00  0.00     0.126 A 
ATOM     10  C   UNL     1      -1.127   7.994  -0.122  1.00  0.00     0.039 A 
ENDROOT
BRANCH   2  11
ATOM     11  O   UNL     1      -3.760   7.459  -2.746  1.00  0.00    -0.389 OA
ATOM     12  H   UNL     1      -3.758   7.727  -3.702  1.00  0.00     0.211 HD
ENDBRANCH   2  11
BRANCH   3  13
ATOM     13  C   UNL     1      -4.229   9.710  -1.037  1.00  0.00    -0.001 A 
ATOM     14  C   UNL     1      -5.439   9.849  -1.737  1.00  0.00     0.057 A 
ATOM     15  C   UNL     1      -4.259   9.696   0.369  1.00  0.00     0.012 A 
ATOM     16  C   UNL     1      -6.656   9.987  -1.059  1.00  0.00     0.157 A 
ATOM     17  C   UNL     1      -5.468   9.833   1.052  1.00  0.00     0.050 A 
ATOM     18  C   UNL     1      -6.671   9.980   0.355  1.00  0.00     0.157 A 
BRANCH  16  19
ATOM     19  O   UNL     1      -7.817  10.124  -1.825  1.00  0.00    -0.504 OA
ATOM     20  H   UNL     1      -8.550   9.431  -1.868  1.00  0.00     0.293 HD
ENDBRANCH  16  19
BRANCH  18  21
ATOM     21  O   UNL     1      -7.845  10.114   1.099  1.00  0.00    -0.504 OA
ATOM     22  H   UNL     1      -7.942   9.822   2.060  1.00  0.00     0.293 HD
ENDBRANCH  18  21
ENDBRANCH   3  13
BRANCH   9  23
ATOM     23  O   UNL     1      -0.455   5.949   1.074  1.00  0.00    -0.507 OA
ATOM     24  H   UNL     1       0.245   5.256   0.841  1.00  0.00     0.293 HD
ENDBRANCH   9  23
BRANCH   7  25
ATOM     25  O   UNL     1       1.842  10.085   2.002  1.00  0.00    -0.508 OA
ATOM     26  H   UNL     1       1.612  10.811   2.671  1.00  0.00     0.293 HD
ENDBRANCH   7  25
TORSDOF 6
ENDMDL
