MODEL 1
REMARK VINA RESULT:    -8.796      0.000      0.000
REMARK INTER + INTRA:         -11.113
REMARK INTER:                 -10.852
REMARK INTRA:                  -0.261
REMARK UNBOUND:                -0.261
REMARK SMILES Oc1cc(O)c2cc(O)c(-c3cc(O)c(O)c(O)c3)[o+]c2c1
REMARK SMILES IDX 10 1 20 2 21 3 22 4 2 5 3 6 4 7 6 8 7 9 8 10 11 11 12 12
REMARK SMILES IDX 13 13 19 14 15 15 17 16 14 17 16 19 18 21 9 23 1 25 5 27
REMARK H PARENT 14 18 16 20 18 22 9 24 1 26 5 28
REMARK Flexibility Score: inf
ROOT
ATOM      1  C   UNL     1      57.682  -0.943  15.700  1.00  0.00     0.402 A 
ATOM      2  O   UNL     1      57.769  -0.498  16.951  1.00  0.00    -0.202 OA
ATOM      3  C   UNL     1      57.896   0.788  17.262  1.00  0.00     0.368 A 
ATOM      4  C   UNL     1      57.978   1.157  18.607  1.00  0.00     0.162 A 
ATOM      5  C   UNL     1      58.108   2.500  18.963  1.00  0.00     0.128 A 
ATOM      6  C   UNL     1      58.157   3.482  17.968  1.00  0.00     0.093 A 
ATOM      7  C   UNL     1      58.076   3.139  16.613  1.00  0.00     0.136 A 
ATOM      8  C   UNL     1      57.946   1.774  16.247  1.00  0.00     0.125 A 
ATOM      9  C   UNL     1      57.872   1.335  14.915  1.00  0.00     0.078 A 
ATOM     10  C   UNL     1      57.749  -0.029  14.632  1.00  0.00     0.223 A 
ENDROOT
BRANCH   1  11
ATOM     11  C   UNL     1      57.533  -2.400  15.483  1.00  0.00     0.091 A 
ATOM     12  C   UNL     1      56.338  -2.898  14.943  1.00  0.00     0.068 A 
ATOM     13  C   UNL     1      56.178  -4.271  14.710  1.00  0.00     0.162 A 
ATOM     14  C   UNL     1      58.585  -3.292  15.756  1.00  0.00     0.068 A 
ATOM     15  C   UNL     1      57.227  -5.158  15.005  1.00  0.00     0.200 A 
ATOM     16  C   UNL     1      58.431  -4.665  15.523  1.00  0.00     0.162 A 
BRANCH  13  17
ATOM     17  O   UNL     1      54.980  -4.757  14.186  1.00  0.00    -0.504 OA
ATOM     18  H   UNL     1      54.139  -4.192  14.173  1.00  0.00     0.293 HD
ENDBRANCH  13  17
BRANCH  15  19
ATOM     19  O   UNL     1      57.091  -6.528  14.784  1.00  0.00    -0.502 OA
ATOM     20  H   UNL     1      56.911  -6.911  13.863  1.00  0.00     0.293 HD
ENDBRANCH  15  19
BRANCH  16  21
ATOM     21  O   UNL     1      59.475  -5.547  15.800  1.00  0.00    -0.504 OA
ATOM     22  H   UNL     1      59.532  -6.455  15.356  1.00  0.00     0.293 HD
ENDBRANCH  16  21
ENDBRANCH   1  11
BRANCH  10  23
ATOM     23  O   UNL     1      57.726  -0.470  13.308  1.00  0.00    -0.500 OA
ATOM     24  H   UNL     1      57.855  -1.446  13.070  1.00  0.00     0.294 HD
ENDBRANCH  10  23
BRANCH   5  25
ATOM     25  O   UNL     1      58.188   2.849  20.309  1.00  0.00    -0.507 OA
ATOM     26  H   UNL     1      58.489   3.771  20.601  1.00  0.00     0.293 HD
ENDBRANCH   5  25
BRANCH   7  27
ATOM     27  O   UNL     1      58.128   4.179  15.681  1.00  0.00    -0.507 OA
ATOM     28  H   UNL     1      57.458   4.312  14.937  1.00  0.00     0.293 HD
ENDBRANCH   7  27
TORSDOF 7
ENDMDL
MODEL 2
REMARK VINA RESULT:    -7.865      1.167      3.200
REMARK INTER + INTRA:          -9.965
REMARK INTER:                  -9.795
REMARK INTRA:                  -0.170
REMARK UNBOUND:                -0.261
REMARK SMILES Oc1cc(O)c2cc(O)c(-c3cc(O)c(O)c(O)c3)[o+]c2c1
REMARK SMILES IDX 10 1 20 2 21 3 22 4 2 5 3 6 4 7 6 8 7 9 8 10 11 11 12 12
REMARK SMILES IDX 13 13 19 14 15 15 17 16 14 17 16 19 18 21 9 23 1 25 5 27
REMARK H PARENT 14 18 16 20 18 22 9 24 1 26 5 28
REMARK Flexibility Score: inf
ROOT
ATOM      1  C   UNL     1      58.290  -1.205  16.855  1.00  0.00     0.402 A 
ATOM      2  O   UNL     1      58.165  -0.118  16.098  1.00  0.00    -0.202 OA
ATOM      3  C   UNL     1      58.144   1.117  16.591  1.00  0.00     0.368 A 
ATOM      4  C   UNL     1      58.011   2.197  15.714  1.00  0.00     0.162 A 
ATOM      5  C   UNL     1      57.989   3.503  16.203  1.00  0.00     0.128 A 
ATOM      6  C   UNL     1      58.100   3.734  17.578  1.00  0.00     0.093 A 
ATOM      7  C   UNL     1      58.235   2.669  18.478  1.00  0.00     0.136 A 
ATOM      8  C   UNL     1      58.256   1.339  17.985  1.00  0.00     0.125 A 
ATOM      9  C   UNL     1      58.374   0.210  18.812  1.00  0.00     0.078 A 
ATOM     10  C   UNL     1      58.382  -1.071  18.253  1.00  0.00     0.223 A 
ENDROOT
BRANCH   1  11
ATOM     11  C   UNL     1      58.311  -2.526  16.186  1.00  0.00     0.091 A 
ATOM     12  C   UNL     1      59.421  -3.368  16.356  1.00  0.00     0.068 A 
ATOM     13  C   UNL     1      59.458  -4.630  15.748  1.00  0.00     0.162 A 
ATOM     14  C   UNL     1      57.218  -2.979  15.427  1.00  0.00     0.068 A 
ATOM     15  C   UNL     1      58.370  -5.067  14.974  1.00  0.00     0.200 A 
ATOM     16  C   UNL     1      57.249  -4.241  14.820  1.00  0.00     0.162 A 
BRANCH  13  17
ATOM     17  O   UNL     1      60.573  -5.453  15.912  1.00  0.00    -0.504 OA
ATOM     18  H   UNL     1      61.509  -5.071  15.977  1.00  0.00     0.293 HD
ENDBRANCH  13  17
BRANCH  15  19
ATOM     19  O   UNL     1      58.384  -6.318  14.359  1.00  0.00    -0.502 OA
ATOM     20  H   UNL     1      58.920  -7.095  14.729  1.00  0.00     0.293 HD
ENDBRANCH  15  19
BRANCH  16  21
ATOM     21  O   UNL     1      56.165  -4.685  14.063  1.00  0.00    -0.504 OA
ATOM     22  H   UNL     1      56.298  -5.180  13.189  1.00  0.00     0.293 HD
ENDBRANCH  16  21
ENDBRANCH   1  11
BRANCH  10  23
ATOM     23  O   UNL     1      58.448  -2.195  19.078  1.00  0.00    -0.500 OA
ATOM     24  H   UNL     1      58.682  -3.111  18.712  1.00  0.00     0.294 HD
ENDBRANCH  10  23
BRANCH   5  25
ATOM     25  O   UNL     1      57.855   4.567  15.313  1.00  0.00    -0.507 OA
ATOM     26  H   UNL     1      58.649   5.131  15.039  1.00  0.00     0.293 HD
ENDBRANCH   5  25
BRANCH   7  27
ATOM     27  O   UNL     1      58.345   2.984  19.836  1.00  0.00    -0.507 OA
ATOM     28  H   UNL     1      57.590   2.907  20.502  1.00  0.00     0.293 HD
ENDBRANCH   7  27
TORSDOF 7
ENDMDL
MODEL 3
REMARK VINA RESULT:    -7.578      3.146      5.371
REMARK INTER + INTRA:          -9.610
REMARK INTER:                  -9.241
REMARK INTRA:                  -0.369
REMARK UNBOUND:                -0.261
REMARK SMILES Oc1cc(O)c2cc(O)c(-c3cc(O)c(O)c(O)c3)[o+]c2c1
REMARK SMILES IDX 10 1 20 2 21 3 22 4 2 5 3 6 4 7 6 8 7 9 8 10 11 11 12 12
REMARK SMILES IDX 13 13 19 14 15 15 17 16 14 17 16 19 18 21 9 23 1 25 5 27
REMARK H PARENT 14 18 16 20 18 22 9 24 1 26 5 28
REMARK Flexibility Score: inf
ROOT
ATOM      1  C   UNL     1      59.744  -0.358  15.179  1.00  0.00     0.402 A 
ATOM      2  O   UNL     1      59.486   0.718  15.917  1.00  0.00    -0.202 OA
ATOM      3  C   UNL     1      59.025   0.656  17.162  1.00  0.00     0.368 A 
ATOM      4  C   UNL     1      58.786   1.844  17.859  1.00  0.00     0.162 A 
ATOM      5  C   UNL     1      58.307   1.809  19.169  1.00  0.00     0.128 A 
ATOM      6  C   UNL     1      58.064   0.578  19.788  1.00  0.00     0.093 A 
ATOM      7  C   UNL     1      58.296  -0.626  19.113  1.00  0.00     0.136 A 
ATOM      8  C   UNL     1      58.782  -0.595  17.780  1.00  0.00     0.125 A 
ATOM      9  C   UNL     1      59.031  -1.749  17.021  1.00  0.00     0.078 A 
ATOM     10  C   UNL     1      59.504  -1.639  15.710  1.00  0.00     0.223 A 
ENDROOT
BRANCH   1  11
ATOM     11  C   UNL     1      60.264  -0.158  13.806  1.00  0.00     0.091 A 
ATOM     12  C   UNL     1      61.646  -0.024  13.605  1.00  0.00     0.068 A 
ATOM     13  C   UNL     1      62.165   0.148  12.315  1.00  0.00     0.162 A 
ATOM     14  C   UNL     1      59.406  -0.153  12.693  1.00  0.00     0.068 A 
ATOM     15  C   UNL     1      61.299   0.172  11.209  1.00  0.00     0.200 A 
ATOM     16  C   UNL     1      59.921   0.015  11.401  1.00  0.00     0.162 A 
BRANCH  13  17
ATOM     17  O   UNL     1      63.540   0.294  12.128  1.00  0.00    -0.504 OA
ATOM     18  H   UNL     1      63.933   1.127  11.706  1.00  0.00     0.293 HD
ENDBRANCH  13  17
BRANCH  15  19
ATOM     19  O   UNL     1      61.792   0.343   9.916  1.00  0.00    -0.502 OA
ATOM     20  H   UNL     1      62.484  -0.280   9.515  1.00  0.00     0.293 HD
ENDBRANCH  15  19
BRANCH  16  21
ATOM     21  O   UNL     1      59.066   0.026  10.298  1.00  0.00    -0.504 OA
ATOM     22  H   UNL     1      58.701  -0.833   9.904  1.00  0.00     0.293 HD
ENDBRANCH  16  21
ENDBRANCH   1  11
BRANCH  10  23
ATOM     23  O   UNL     1      59.704  -2.784  14.938  1.00  0.00    -0.500 OA
ATOM     24  H   UNL     1      60.061  -2.732  13.992  1.00  0.00     0.294 HD
ENDBRANCH  10  23
BRANCH   5  25
ATOM     25  O   UNL     1      58.074   3.003  19.847  1.00  0.00    -0.507 OA
ATOM     26  H   UNL     1      58.531   3.212  20.725  1.00  0.00     0.293 HD
ENDBRANCH   5  25
BRANCH   7  27
ATOM     27  O   UNL     1      58.033  -1.813  19.803  1.00  0.00    -0.507 OA
ATOM     28  H   UNL     1      58.493  -2.089  20.658  1.00  0.00     0.293 HD
ENDBRANCH   7  27
TORSDOF 7
ENDMDL
MODEL 4
REMARK VINA RESULT:    -7.576      3.160      5.091
REMARK INTER + INTRA:          -9.608
REMARK INTER:                  -9.242
REMARK INTRA:                  -0.366
REMARK UNBOUND:                -0.261
REMARK SMILES Oc1cc(O)c2cc(O)c(-c3cc(O)c(O)c(O)c3)[o+]c2c1
REMARK SMILES IDX 10 1 20 2 21 3 22 4 2 5 3 6 4 7 6 8 7 9 8 10 11 11 12 12
REMARK SMILES IDX 13 13 19 14 15 15 17 16 14 17 16 19 18 21 9 23 1 25 5 27
REMARK H PARENT 14 18 16 20 18 22 9 24 1 26 5 28
REMARK Flexibility Score: inf
ROOT
ATOM      1  C   UNL     1      59.798  -0.383  15.181  1.00  0.00     0.402 A 
ATOM      2  O   UNL     1      59.552   0.702  15.911  1.00  0.00    -0.202 OA
ATOM      3  C   UNL     1      59.080   0.655  17.153  1.00  0.00     0.368 A 
ATOM      4  C   UNL     1      58.856   1.850  17.841  1.00  0.00     0.162 A 
ATOM      5  C   UNL     1      58.365   1.831  19.147  1.00  0.00     0.128 A 
ATOM      6  C   UNL     1      58.096   0.609  19.771  1.00  0.00     0.093 A 
ATOM      7  C   UNL     1      58.312  -0.603  19.104  1.00  0.00     0.136 A 
ATOM      8  C   UNL     1      58.810  -0.588  17.776  1.00  0.00     0.125 A 
ATOM      9  C   UNL     1      59.044  -1.751  17.025  1.00  0.00     0.078 A 
ATOM     10  C   UNL     1      59.531  -1.656  15.718  1.00  0.00     0.223 A 
ENDROOT
BRANCH   1  11
ATOM     11  C   UNL     1      60.332  -0.200  13.812  1.00  0.00     0.091 A 
ATOM     12  C   UNL     1      59.447  -0.170  12.724  1.00  0.00     0.068 A 
ATOM     13  C   UNL     1      59.925   0.021  11.421  1.00  0.00     0.162 A 
ATOM     14  C   UNL     1      61.705   0.002  13.584  1.00  0.00     0.068 A 
ATOM     15  C   UNL     1      61.300   0.200  11.199  1.00  0.00     0.200 A 
ATOM     16  C   UNL     1      62.187   0.196  12.283  1.00  0.00     0.162 A 
BRANCH  13  17
ATOM     17  O   UNL     1      59.037   0.033  10.345  1.00  0.00    -0.504 OA
ATOM     18  H   UNL     1      58.209   0.617  10.347  1.00  0.00     0.293 HD
ENDBRANCH  13  17
BRANCH  15  19
ATOM     19  O   UNL     1      61.800   0.391   9.910  1.00  0.00    -0.502 OA
ATOM     20  H   UNL     1      62.176  -0.372   9.360  1.00  0.00     0.293 HD
ENDBRANCH  15  19
BRANCH  16  21
ATOM     21  O   UNL     1      63.550   0.389  12.059  1.00  0.00    -0.504 OA
ATOM     22  H   UNL     1      64.181  -0.393  11.934  1.00  0.00     0.293 HD
ENDBRANCH  16  21
ENDBRANCH   1  11
BRANCH  10  23
ATOM     23  O   UNL     1      59.716  -2.809  14.954  1.00  0.00    -0.500 OA
ATOM     24  H   UNL     1      60.640  -3.185  14.773  1.00  0.00     0.294 HD
ENDBRANCH  10  23
BRANCH   5  25
ATOM     25  O   UNL     1      58.148   3.034  19.816  1.00  0.00    -0.507 OA
ATOM     26  H   UNL     1      57.796   3.055  20.765  1.00  0.00     0.293 HD
ENDBRANCH   5  25
BRANCH   7  27
ATOM     27  O   UNL     1      58.022  -1.781  19.799  1.00  0.00    -0.507 OA
ATOM     28  H   UNL     1      58.643  -2.575  19.859  1.00  0.00     0.293 HD
ENDBRANCH   7  27
TORSDOF 7
ENDMDL
MODEL 5
REMARK VINA RESULT:    -7.391      1.156      7.126
REMARK INTER + INTRA:          -9.380
REMARK INTER:                  -9.085
REMARK INTRA:                  -0.296
REMARK UNBOUND:                -0.261
REMARK SMILES Oc1cc(O)c2cc(O)c(-c3cc(O)c(O)c(O)c3)[o+]c2c1
REMARK SMILES IDX 10 1 20 2 21 3 22 4 2 5 3 6 4 7 6 8 7 9 8 10 11 11 12 12
REMARK SMILES IDX 13 13 19 14 15 15 17 16 14 17 16 19 18 21 9 23 1 25 5 27
REMARK H PARENT 14 18 16 20 18 22 9 24 1 26 5 28
REMARK Flexibility Score: inf
ROOT
ATOM      1  C   UNL     1      57.451  -0.563  16.195  1.00  0.00     0.402 A 
ATOM      2  O   UNL     1      58.450  -1.431  16.330  1.00  0.00    -0.202 OA
ATOM      3  C   UNL     1      58.397  -2.681  15.883  1.00  0.00     0.368 A 
ATOM      4  C   UNL     1      59.500  -3.518  16.070  1.00  0.00     0.162 A 
ATOM      5  C   UNL     1      59.474  -4.834  15.608  1.00  0.00     0.128 A 
ATOM      6  C   UNL     1      58.336  -5.319  14.954  1.00  0.00     0.093 A 
ATOM      7  C   UNL     1      57.217  -4.501  14.753  1.00  0.00     0.136 A 
ATOM      8  C   UNL     1      57.240  -3.163  15.223  1.00  0.00     0.125 A 
ATOM      9  C   UNL     1      56.162  -2.275  15.079  1.00  0.00     0.078 A 
ATOM     10  C   UNL     1      56.256  -0.971  15.573  1.00  0.00     0.223 A 
ENDROOT
BRANCH   1  11
ATOM     11  C   UNL     1      57.636   0.807  16.727  1.00  0.00     0.091 A 
ATOM     12  C   UNL     1      57.766   0.997  18.111  1.00  0.00     0.068 A 
ATOM     13  C   UNL     1      57.960   2.281  18.639  1.00  0.00     0.162 A 
ATOM     14  C   UNL     1      57.740   1.917  15.870  1.00  0.00     0.068 A 
ATOM     15  C   UNL     1      58.043   3.387  17.778  1.00  0.00     0.200 A 
ATOM     16  C   UNL     1      57.938   3.201  16.393  1.00  0.00     0.162 A 
BRANCH  13  17
ATOM     17  O   UNL     1      58.073   2.460  20.018  1.00  0.00    -0.504 OA
ATOM     18  H   UNL     1      57.525   3.156  20.510  1.00  0.00     0.293 HD
ENDBRANCH  13  17
BRANCH  15  19
ATOM     19  O   UNL     1      58.235   4.674  18.279  1.00  0.00    -0.502 OA
ATOM     20  H   UNL     1      57.719   5.024  19.079  1.00  0.00     0.293 HD
ENDBRANCH  15  19
BRANCH  16  21
ATOM     21  O   UNL     1      58.034   4.301  15.541  1.00  0.00    -0.504 OA
ATOM     22  H   UNL     1      57.418   4.409  14.745  1.00  0.00     0.293 HD
ENDBRANCH  16  21
ENDBRANCH   1  11
BRANCH  10  23
ATOM     23  O   UNL     1      55.167  -0.104  15.475  1.00  0.00    -0.500 OA
ATOM     24  H   UNL     1      55.189   0.712  14.875  1.00  0.00     0.294 HD
ENDBRANCH  10  23
BRANCH   5  25
ATOM     25  O   UNL     1      60.583  -5.653  15.804  1.00  0.00    -0.507 OA
ATOM     26  H   UNL     1      61.110  -6.028  15.025  1.00  0.00     0.293 HD
ENDBRANCH   5  25
BRANCH   7  27
ATOM     27  O   UNL     1      56.123  -5.060  14.087  1.00  0.00    -0.507 OA
ATOM     28  H   UNL     1      56.194  -5.673  13.288  1.00  0.00     0.293 HD
ENDBRANCH   7  27
TORSDOF 7
ENDMDL
MODEL 6
REMARK VINA RESULT:    -7.287      3.728      5.406
REMARK INTER + INTRA:          -9.251
REMARK INTER:                  -8.887
REMARK INTRA:                  -0.364
REMARK UNBOUND:                -0.261
REMARK SMILES Oc1cc(O)c2cc(O)c(-c3cc(O)c(O)c(O)c3)[o+]c2c1
REMARK SMILES IDX 10 1 20 2 21 3 22 4 2 5 3 6 4 7 6 8 7 9 8 10 11 11 12 12
REMARK SMILES IDX 13 13 19 14 15 15 17 16 14 17 16 19 18 21 9 23 1 25 5 27
REMARK H PARENT 14 18 16 20 18 22 9 24 1 26 5 28
REMARK Flexibility Score: inf
ROOT
ATOM      1  C   UNL     1      59.733  -0.310  14.410  1.00  0.00     0.402 A 
ATOM      2  O   UNL     1      60.064  -0.348  15.698  1.00  0.00    -0.202 OA
ATOM      3  C   UNL     1      59.170  -0.369  16.682  1.00  0.00     0.368 A 
ATOM      4  C   UNL     1      59.616  -0.411  18.005  1.00  0.00     0.162 A 
ATOM      5  C   UNL     1      58.701  -0.437  19.057  1.00  0.00     0.128 A 
ATOM      6  C   UNL     1      57.329  -0.421  18.787  1.00  0.00     0.093 A 
ATOM      7  C   UNL     1      56.855  -0.379  17.469  1.00  0.00     0.136 A 
ATOM      8  C   UNL     1      57.783  -0.350  16.397  1.00  0.00     0.125 A 
ATOM      9  C   UNL     1      57.402  -0.294  15.046  1.00  0.00     0.078 A 
ATOM     10  C   UNL     1      58.375  -0.264  14.043  1.00  0.00     0.223 A 
ENDROOT
BRANCH   1  11
ATOM     11  C   UNL     1      60.822  -0.301  13.407  1.00  0.00     0.091 A 
ATOM     12  C   UNL     1      61.370  -1.517  12.973  1.00  0.00     0.068 A 
ATOM     13  C   UNL     1      62.389  -1.537  12.011  1.00  0.00     0.162 A 
ATOM     14  C   UNL     1      61.282   0.900  12.837  1.00  0.00     0.068 A 
ATOM     15  C   UNL     1      62.858  -0.332  11.462  1.00  0.00     0.200 A 
ATOM     16  C   UNL     1      62.299   0.884  11.873  1.00  0.00     0.162 A 
BRANCH  13  17
ATOM     17  O   UNL     1      62.937  -2.752  11.597  1.00  0.00    -0.504 OA
ATOM     18  H   UNL     1      63.937  -2.914  11.607  1.00  0.00     0.293 HD
ENDBRANCH  13  17
BRANCH  15  19
ATOM     19  O   UNL     1      63.872  -0.326  10.504  1.00  0.00    -0.502 OA
ATOM     20  H   UNL     1      64.656   0.314  10.553  1.00  0.00     0.293 HD
ENDBRANCH  15  19
BRANCH  16  21
ATOM     21  O   UNL     1      62.757   2.077  11.315  1.00  0.00    -0.504 OA
ATOM     22  H   UNL     1      63.588   2.106  10.736  1.00  0.00     0.293 HD
ENDBRANCH  16  21
ENDBRANCH   1  11
BRANCH  10  23
ATOM     23  O   UNL     1      57.997  -0.157  12.704  1.00  0.00    -0.500 OA
ATOM     24  H   UNL     1      58.003   0.732  12.219  1.00  0.00     0.294 HD
ENDBRANCH  10  23
BRANCH   5  25
ATOM     25  O   UNL     1      59.165  -0.479  20.370  1.00  0.00    -0.507 OA
ATOM     26  H   UNL     1      59.528   0.347  20.831  1.00  0.00     0.293 HD
ENDBRANCH   5  25
BRANCH   7  27
ATOM     27  O   UNL     1      55.470  -0.369  17.283  1.00  0.00    -0.507 OA
ATOM     28  H   UNL     1      54.794  -0.490  18.023  1.00  0.00     0.293 HD
ENDBRANCH   7  27
TORSDOF 7
ENDMDL
MODEL 7
REMARK VINA RESULT:    -7.285      4.474      6.585
REMARK INTER + INTRA:          -9.250
REMARK INTER:                  -8.954
REMARK INTRA:                  -0.296
REMARK UNBOUND:                -0.261
REMARK SMILES Oc1cc(O)c2cc(O)c(-c3cc(O)c(O)c(O)c3)[o+]c2c1
REMARK SMILES IDX 10 1 20 2 21 3 22 4 2 5 3 6 4 7 6 8 7 9 8 10 11 11 12 12
REMARK SMILES IDX 13 13 19 14 15 15 17 16 14 17 16 19 18 21 9 23 1 25 5 27
REMARK H PARENT 14 18 16 20 18 22 9 24 1 26 5 28
REMARK Flexibility Score: inf
ROOT
ATOM      1  C   UNL     1      60.278  -0.366  12.706  1.00  0.00     0.402 A 
ATOM      2  O   UNL     1      59.268   0.405  13.102  1.00  0.00    -0.202 OA
ATOM      3  C   UNL     1      58.538   0.153  14.185  1.00  0.00     0.368 A 
ATOM      4  C   UNL     1      57.499   1.023  14.521  1.00  0.00     0.162 A 
ATOM      5  C   UNL     1      56.719   0.786  15.653  1.00  0.00     0.128 A 
ATOM      6  C   UNL     1      56.979  -0.330  16.456  1.00  0.00     0.093 A 
ATOM      7  C   UNL     1      58.015  -1.217  16.141  1.00  0.00     0.136 A 
ATOM      8  C   UNL     1      58.809  -0.980  14.990  1.00  0.00     0.125 A 
ATOM      9  C   UNL     1      59.859  -1.822  14.589  1.00  0.00     0.078 A 
ATOM     10  C   UNL     1      60.595  -1.526  13.437  1.00  0.00     0.223 A 
ENDROOT
BRANCH   1  11
ATOM     11  C   UNL     1      61.022   0.027  11.487  1.00  0.00     0.091 A 
ATOM     12  C   UNL     1      60.369   0.011  10.245  1.00  0.00     0.068 A 
ATOM     13  C   UNL     1      61.045   0.396   9.079  1.00  0.00     0.162 A 
ATOM     14  C   UNL     1      62.355   0.469  11.554  1.00  0.00     0.068 A 
ATOM     15  C   UNL     1      62.383   0.816   9.152  1.00  0.00     0.200 A 
ATOM     16  C   UNL     1      63.034   0.857  10.392  1.00  0.00     0.162 A 
BRANCH  13  17
ATOM     17  O   UNL     1      60.389   0.363   7.848  1.00  0.00    -0.504 OA
ATOM     18  H   UNL     1      59.523   0.865   7.694  1.00  0.00     0.293 HD
ENDBRANCH  13  17
BRANCH  15  19
ATOM     19  O   UNL     1      63.077   1.203   8.006  1.00  0.00    -0.502 OA
ATOM     20  H   UNL     1      62.644   1.754   7.274  1.00  0.00     0.293 HD
ENDBRANCH  15  19
BRANCH  16  21
ATOM     21  O   UNL     1      64.358   1.289  10.461  1.00  0.00    -0.504 OA
ATOM     22  H   UNL     1      65.118   0.724  10.104  1.00  0.00     0.293 HD
ENDBRANCH  16  21
ENDBRANCH   1  11
BRANCH  10  23
ATOM     23  O   UNL     1      61.605  -2.389  13.010  1.00  0.00    -0.500 OA
ATOM     24  H   UNL     1      62.103  -2.236  12.141  1.00  0.00     0.294 HD
ENDBRANCH  10  23
BRANCH   5  25
ATOM     25  O   UNL     1      55.686   1.665  15.973  1.00  0.00    -0.507 OA
ATOM     26  H   UNL     1      55.857   2.515  16.495  1.00  0.00     0.293 HD
ENDBRANCH   5  25
BRANCH   7  27
ATOM     27  O   UNL     1      58.213  -2.305  16.996  1.00  0.00    -0.507 OA
ATOM     28  H   UNL     1      59.109  -2.737  17.171  1.00  0.00     0.293 HD
ENDBRANCH   7  27
TORSDOF 7
ENDMDL
MODEL 8
REMARK VINA RESULT:    -7.274      3.426      6.523
REMARK INTER + INTRA:          -9.236
REMARK INTER:                  -9.156
REMARK INTRA:                  -0.080
REMARK UNBOUND:                -0.261
REMARK SMILES Oc1cc(O)c2cc(O)c(-c3cc(O)c(O)c(O)c3)[o+]c2c1
REMARK SMILES IDX 10 1 20 2 21 3 22 4 2 5 3 6 4 7 6 8 7 9 8 10 11 11 12 12
REMARK SMILES IDX 13 13 19 14 15 15 17 16 14 17 16 19 18 21 9 23 1 25 5 27
REMARK H PARENT 14 18 16 20 18 22 9 24 1 26 5 28
REMARK Flexibility Score: inf
ROOT
ATOM      1  C   UNL     1      59.239   0.263  14.932  1.00  0.00     0.402 A 
ATOM      2  O   UNL     1      60.250  -0.534  14.594  1.00  0.00    -0.202 OA
ATOM      3  C   UNL     1      60.651  -0.712  13.339  1.00  0.00     0.368 A 
ATOM      4  C   UNL     1      61.725  -1.568  13.083  1.00  0.00     0.162 A 
ATOM      5  C   UNL     1      62.170  -1.771  11.777  1.00  0.00     0.128 A 
ATOM      6  C   UNL     1      61.537  -1.114  10.716  1.00  0.00     0.093 A 
ATOM      7  C   UNL     1      60.458  -0.251  10.945  1.00  0.00     0.136 A 
ATOM      8  C   UNL     1      60.003  -0.043  12.273  1.00  0.00     0.125 A 
ATOM      9  C   UNL     1      58.922   0.793  12.596  1.00  0.00     0.078 A 
ATOM     10  C   UNL     1      58.526   0.944  13.929  1.00  0.00     0.223 A 
ENDROOT
BRANCH   1  11
ATOM     11  C   UNL     1      58.895   0.385  16.367  1.00  0.00     0.091 A 
ATOM     12  C   UNL     1      58.797  -0.772  17.154  1.00  0.00     0.068 A 
ATOM     13  C   UNL     1      58.491  -0.682  18.519  1.00  0.00     0.162 A 
ATOM     14  C   UNL     1      58.718   1.642  16.972  1.00  0.00     0.068 A 
ATOM     15  C   UNL     1      58.295   0.576  19.111  1.00  0.00     0.200 A 
ATOM     16  C   UNL     1      58.414   1.737  18.337  1.00  0.00     0.162 A 
BRANCH  13  17
ATOM     17  O   UNL     1      58.382  -1.841  19.289  1.00  0.00    -0.504 OA
ATOM     18  H   UNL     1      57.864  -1.853  20.159  1.00  0.00     0.293 HD
ENDBRANCH  13  17
BRANCH  15  19
ATOM     19  O   UNL     1      57.988   0.690  20.467  1.00  0.00    -0.502 OA
ATOM     20  H   UNL     1      58.005  -0.106  21.093  1.00  0.00     0.293 HD
ENDBRANCH  15  19
BRANCH  16  21
ATOM     21  O   UNL     1      58.233   2.984  18.933  1.00  0.00    -0.504 OA
ATOM     22  H   UNL     1      58.718   3.807  18.596  1.00  0.00     0.293 HD
ENDBRANCH  16  21
ENDBRANCH   1  11
BRANCH  10  23
ATOM     23  O   UNL     1      57.421   1.735  14.246  1.00  0.00    -0.500 OA
ATOM     24  H   UNL     1      57.302   2.663  13.858  1.00  0.00     0.294 HD
ENDBRANCH  10  23
BRANCH   5  25
ATOM     25  O   UNL     1      63.242  -2.629  11.541  1.00  0.00    -0.507 OA
ATOM     26  H   UNL     1      64.153  -2.278  11.273  1.00  0.00     0.293 HD
ENDBRANCH   5  25
BRANCH   7  27
ATOM     27  O   UNL     1      59.884   0.371   9.833  1.00  0.00    -0.507 OA
ATOM     28  H   UNL     1      60.303   1.139   9.329  1.00  0.00     0.293 HD
ENDBRANCH   7  27
TORSDOF 7
ENDMDL
MODEL 9
REMARK VINA RESULT:    -7.226      4.002      6.370
REMARK INTER + INTRA:          -9.177
REMARK INTER:                  -8.904
REMARK INTRA:                  -0.272
REMARK UNBOUND:                -0.261
REMARK SMILES Oc1cc(O)c2cc(O)c(-c3cc(O)c(O)c(O)c3)[o+]c2c1
REMARK SMILES IDX 10 1 20 2 21 3 22 4 2 5 3 6 4 7 6 8 7 9 8 10 11 11 12 12
REMARK SMILES IDX 13 13 19 14 15 15 17 16 14 17 16 19 18 21 9 23 1 25 5 27
REMARK H PARENT 14 18 16 20 18 22 9 24 1 26 5 28
REMARK Flexibility Score: inf
ROOT
ATOM      1  C   UNL     1      60.082  -1.319  14.515  1.00  0.00     0.402 A 
ATOM      2  O   UNL     1      60.640  -0.272  13.912  1.00  0.00    -0.202 OA
ATOM      3  C   UNL     1      61.475  -0.382  12.883  1.00  0.00     0.368 A 
ATOM      4  C   UNL     1      62.008   0.777  12.314  1.00  0.00     0.162 A 
ATOM      5  C   UNL     1      62.884   0.693  11.231  1.00  0.00     0.128 A 
ATOM      6  C   UNL     1      63.230  -0.560  10.712  1.00  0.00     0.093 A 
ATOM      7  C   UNL     1      62.708  -1.736  11.263  1.00  0.00     0.136 A 
ATOM      8  C   UNL     1      61.819  -1.654  12.366  1.00  0.00     0.125 A 
ATOM      9  C   UNL     1      61.258  -2.780  12.991  1.00  0.00     0.078 A 
ATOM     10  C   UNL     1      60.393  -2.620  14.078  1.00  0.00     0.223 A 
ENDROOT
BRANCH   1  11
ATOM     11  C   UNL     1      59.160  -1.066  15.646  1.00  0.00     0.091 A 
ATOM     12  C   UNL     1      57.885  -0.536  15.391  1.00  0.00     0.068 A 
ATOM     13  C   UNL     1      56.986  -0.304  16.441  1.00  0.00     0.162 A 
ATOM     14  C   UNL     1      59.512  -1.396  16.966  1.00  0.00     0.068 A 
ATOM     15  C   UNL     1      57.355  -0.618  17.760  1.00  0.00     0.200 A 
ATOM     16  C   UNL     1      58.616  -1.169  18.019  1.00  0.00     0.162 A 
BRANCH  13  17
ATOM     17  O   UNL     1      55.728   0.236  16.177  1.00  0.00    -0.504 OA
ATOM     18  H   UNL     1      55.445   1.132  16.556  1.00  0.00     0.293 HD
ENDBRANCH  13  17
BRANCH  15  19
ATOM     19  O   UNL     1      56.478  -0.395  18.822  1.00  0.00    -0.502 OA
ATOM     20  H   UNL     1      55.482  -0.567  18.744  1.00  0.00     0.293 HD
ENDBRANCH  15  19
BRANCH  16  21
ATOM     21  O   UNL     1      58.972  -1.492  19.328  1.00  0.00    -0.504 OA
ATOM     22  H   UNL     1      59.303  -2.417  19.573  1.00  0.00     0.293 HD
ENDBRANCH  16  21
ENDBRANCH   1  11
BRANCH  10  23
ATOM     23  O   UNL     1      59.875  -3.739  14.731  1.00  0.00    -0.500 OA
ATOM     24  H   UNL     1      59.999  -3.878  15.727  1.00  0.00     0.294 HD
ENDBRANCH  10  23
BRANCH   5  25
ATOM     25  O   UNL     1      63.406   1.860  10.678  1.00  0.00    -0.507 OA
ATOM     26  H   UNL     1      63.593   1.938   9.686  1.00  0.00     0.293 HD
ENDBRANCH   5  25
BRANCH   7  27
ATOM     27  O   UNL     1      63.099  -2.947  10.684  1.00  0.00    -0.507 OA
ATOM     28  H   UNL     1      62.459  -3.634  10.312  1.00  0.00     0.293 HD
ENDBRANCH   7  27
TORSDOF 7
ENDMDL
