MODEL 1
REMARK VINA RESULT:    -4.258      0.000      0.000
REMARK INTER + INTRA:         -12.163
REMARK INTER:                  -9.237
REMARK INTRA:                  -2.925
REMARK UNBOUND:                -2.925
REMARK SMILES CCCCCCCCCCCCCCCCCCCCCC(=O)[O-]
REMARK SMILES IDX 12 1 11 2 10 3 9 4 8 5 7 6 6 7 5 8 4 9 3 10 2 11 1 12 13 13
REMARK SMILES IDX 14 14 15 15 16 16 17 17 18 18 19 19 20 20 21 21 22 22 23 23
REMARK SMILES IDX 24 24
REMARK H PARENT
REMARK Flexibility Score: inf
ROOT
ATOM      1  C   UNL     1      40.208  -6.991   8.286  1.00  0.00     0.000 C 
ENDROOT
BRANCH   1   2
ATOM      2  C   UNL     1      41.384  -7.755   7.651  1.00  0.00     0.000 C 
BRANCH   2   3
ATOM      3  C   UNL     1      41.274  -9.289   7.724  1.00  0.00     0.000 C 
BRANCH   3   4
ATOM      4  C   UNL     1      42.566  -9.962   8.222  1.00  0.00    -0.000 C 
BRANCH   4   5
ATOM      5  C   UNL     1      43.825  -9.126   7.905  1.00  0.00    -0.000 C 
BRANCH   5   6
ATOM      6  C   UNL     1      44.993  -9.949   7.325  1.00  0.00    -0.000 C 
BRANCH   6   7
ATOM      7  C   UNL     1      45.069  -9.980   5.790  1.00  0.00    -0.000 C 
BRANCH   7   8
ATOM      8  C   UNL     1      44.295  -8.854   5.076  1.00  0.00    -0.000 C 
BRANCH   8   9
ATOM      9  C   UNL     1      43.009  -9.334   4.371  1.00  0.00    -0.000 C 
BRANCH   9  10
ATOM     10  C   UNL     1      42.346  -8.224   3.541  1.00  0.00    -0.000 C 
BRANCH  10  11
ATOM     11  C   UNL     1      40.938  -7.869   4.043  1.00  0.00    -0.003 C 
ATOM     12  C   UNL     1      40.717  -6.362   4.167  1.00  0.00     0.004 C 
ENDBRANCH  10  11
ENDBRANCH   9  10
ENDBRANCH   8   9
ENDBRANCH   7   8
ENDBRANCH   6   7
ENDBRANCH   5   6
ENDBRANCH   4   5
ENDBRANCH   3   4
ENDBRANCH   2   3
ENDBRANCH   1   2
BRANCH   1  13
ATOM     13  C   UNL     1      40.432  -6.675   9.774  1.00  0.00     0.000 C 
BRANCH  13  14
ATOM     14  C   UNL     1      39.423  -7.389  10.687  1.00  0.00     0.000 C 
BRANCH  14  15
ATOM     15  C   UNL     1      38.313  -8.094   9.894  1.00  0.00     0.000 C 
BRANCH  15  16
ATOM     16  C   UNL     1      38.380  -9.614  10.084  1.00  0.00     0.000 C 
BRANCH  16  17
ATOM     17  C   UNL     1      39.482  -9.993  11.079  1.00  0.00     0.000 C 
BRANCH  17  18
ATOM     18  C   UNL     1      38.882 -10.492  12.402  1.00  0.00     0.000 C 
BRANCH  18  19
ATOM     19  C   UNL     1      37.342 -10.443  12.419  1.00  0.00     0.000 C 
BRANCH  19  20
ATOM     20  C   UNL     1      36.727  -9.582  13.542  1.00  0.00     0.006 C 
BRANCH  20  21
ATOM     21  C   UNL     1      36.057  -8.285  13.059  1.00  0.00     0.053 C 
BRANCH  21  22
ATOM     22  C   UNL     1      36.435  -7.108  13.907  1.00  0.00     0.041 C 
ATOM     23  O   UNL     1      37.349  -6.326  13.535  1.00  0.00    -0.550 OA
ATOM     24  O   UNL     1      35.800  -6.893  15.123  1.00  0.00    -0.550 OA
ENDBRANCH  21  22
ENDBRANCH  20  21
ENDBRANCH  19  20
ENDBRANCH  18  19
ENDBRANCH  17  18
ENDBRANCH  16  17
ENDBRANCH  15  16
ENDBRANCH  14  15
ENDBRANCH  13  14
ENDBRANCH   1  13
TORSDOF 20
ENDMDL
MODEL 2
REMARK VINA RESULT:    -4.247      4.061     10.996
REMARK INTER + INTRA:         -12.137
REMARK INTER:                  -9.651
REMARK INTRA:                  -2.486
REMARK UNBOUND:                -2.925
REMARK SMILES CCCCCCCCCCCCCCCCCCCCCC(=O)[O-]
REMARK SMILES IDX 12 1 11 2 10 3 9 4 8 5 7 6 6 7 5 8 4 9 3 10 2 11 1 12 13 13
REMARK SMILES IDX 14 14 15 15 16 16 17 17 18 18 19 19 20 20 21 21 22 22 23 23
REMARK SMILES IDX 24 24
REMARK H PARENT
REMARK Flexibility Score: inf
ROOT
ATOM      1  C   UNL     1      35.339  -6.623  13.783  1.00  0.00     0.000 C 
ENDROOT
BRANCH   1   2
ATOM      2  C   UNL     1      34.994  -7.424  15.051  1.00  0.00     0.000 C 
BRANCH   2   3
ATOM      3  C   UNL     1      33.691  -8.242  14.965  1.00  0.00     0.000 C 
BRANCH   3   4
ATOM      4  C   UNL     1      32.610  -7.756  15.946  1.00  0.00    -0.000 C 
BRANCH   4   5
ATOM      5  C   UNL     1      31.918  -8.922  16.684  1.00  0.00    -0.000 C 
BRANCH   5   6
ATOM      6  C   UNL     1      32.278  -9.016  18.181  1.00  0.00    -0.000 C 
BRANCH   6   7
ATOM      7  C   UNL     1      33.654  -9.631  18.482  1.00  0.00    -0.000 C 
BRANCH   7   8
ATOM      8  C   UNL     1      34.500  -8.859  19.515  1.00  0.00    -0.000 C 
BRANCH   8   9
ATOM      9  C   UNL     1      34.120  -7.369  19.640  1.00  0.00    -0.000 C 
BRANCH   9  10
ATOM     10  C   UNL     1      34.878  -6.484  18.638  1.00  0.00    -0.000 C 
BRANCH  10  11
ATOM     11  C   UNL     1      35.046  -5.039  19.133  1.00  0.00    -0.003 C 
ATOM     12  C   UNL     1      35.183  -4.948  20.653  1.00  0.00     0.004 C 
ENDBRANCH  10  11
ENDBRANCH   9  10
ENDBRANCH   8   9
ENDBRANCH   7   8
ENDBRANCH   6   7
ENDBRANCH   5   6
ENDBRANCH   4   5
ENDBRANCH   3   4
ENDBRANCH   2   3
ENDBRANCH   1   2
BRANCH   1  13
ATOM     13  C   UNL     1      36.847  -6.357  13.634  1.00  0.00     0.000 C 
BRANCH  13  14
ATOM     14  C   UNL     1      37.511  -7.286  12.605  1.00  0.00     0.000 C 
BRANCH  14  15
ATOM     15  C   UNL     1      36.488  -7.954  11.674  1.00  0.00     0.000 C 
BRANCH  15  16
ATOM     16  C   UNL     1      36.546  -9.481  11.794  1.00  0.00     0.000 C 
BRANCH  16  17
ATOM     17  C   UNL     1      37.612  -9.910  12.808  1.00  0.00     0.000 C 
BRANCH  17  18
ATOM     18  C   UNL     1      38.630 -10.866  12.168  1.00  0.00     0.000 C 
BRANCH  18  19
ATOM     19  C   UNL     1      38.781 -10.652  10.650  1.00  0.00     0.000 C 
BRANCH  19  20
ATOM     20  C   UNL     1      39.715  -9.493  10.242  1.00  0.00     0.006 C 
BRANCH  20  21
ATOM     21  C   UNL     1      39.175  -8.606   9.109  1.00  0.00     0.053 C 
BRANCH  21  22
ATOM     22  C   UNL     1      39.409  -7.149   9.376  1.00  0.00     0.041 C 
ATOM     23  O   UNL     1      38.650  -6.281   8.870  1.00  0.00    -0.550 OA
ATOM     24  O   UNL     1      40.485  -6.749  10.159  1.00  0.00    -0.550 OA
ENDBRANCH  21  22
ENDBRANCH  20  21
ENDBRANCH  19  20
ENDBRANCH  18  19
ENDBRANCH  17  18
ENDBRANCH  16  17
ENDBRANCH  15  16
ENDBRANCH  14  15
ENDBRANCH  13  14
ENDBRANCH   1  13
TORSDOF 20
ENDMDL
MODEL 3
REMARK VINA RESULT:    -4.212      1.645      3.844
REMARK INTER + INTRA:         -12.062
REMARK INTER:                  -9.843
REMARK INTRA:                  -2.219
REMARK UNBOUND:                -2.925
REMARK SMILES CCCCCCCCCCCCCCCCCCCCCC(=O)[O-]
REMARK SMILES IDX 12 1 11 2 10 3 9 4 8 5 7 6 6 7 5 8 4 9 3 10 2 11 1 12 13 13
REMARK SMILES IDX 14 14 15 15 16 16 17 17 18 18 19 19 20 20 21 21 22 22 23 23
REMARK SMILES IDX 24 24
REMARK H PARENT
REMARK Flexibility Score: inf
ROOT
ATOM      1  C   UNL     1      40.469  -6.552   5.359  1.00  0.00     0.000 C 
ENDROOT
BRANCH   1   2
ATOM      2  C   UNL     1      41.237  -5.954   4.167  1.00  0.00     0.000 C 
BRANCH   2   3
ATOM      3  C   UNL     1      40.924  -6.600   2.805  1.00  0.00     0.000 C 
BRANCH   3   4
ATOM      4  C   UNL     1      41.614  -7.962   2.612  1.00  0.00    -0.000 C 
BRANCH   4   5
ATOM      5  C   UNL     1      40.662  -9.148   2.879  1.00  0.00    -0.000 C 
BRANCH   5   6
ATOM      6  C   UNL     1      41.377 -10.432   3.345  1.00  0.00    -0.000 C 
BRANCH   6   7
ATOM      7  C   UNL     1      42.132 -10.310   4.679  1.00  0.00    -0.000 C 
BRANCH   7   8
ATOM      8  C   UNL     1      43.656 -10.521   4.587  1.00  0.00    -0.000 C 
BRANCH   8   9
ATOM      9  C   UNL     1      44.479  -9.421   5.291  1.00  0.00    -0.000 C 
BRANCH   9  10
ATOM     10  C   UNL     1      45.050  -9.888   6.639  1.00  0.00    -0.000 C 
BRANCH  10  11
ATOM     11  C   UNL     1      44.246  -9.360   7.837  1.00  0.00    -0.003 C 
ATOM     12  C   UNL     1      43.169 -10.340   8.303  1.00  0.00     0.004 C 
ENDBRANCH  10  11
ENDBRANCH   9  10
ENDBRANCH   8   9
ENDBRANCH   7   8
ENDBRANCH   6   7
ENDBRANCH   5   6
ENDBRANCH   4   5
ENDBRANCH   3   4
ENDBRANCH   2   3
ENDBRANCH   1   2
BRANCH   1  13
ATOM     13  C   UNL     1      41.381  -7.312   6.339  1.00  0.00     0.000 C 
BRANCH  13  14
ATOM     14  C   UNL     1      40.681  -7.628   7.670  1.00  0.00     0.000 C 
BRANCH  14  15
ATOM     15  C   UNL     1      39.446  -6.746   7.907  1.00  0.00     0.000 C 
BRANCH  15  16
ATOM     16  C   UNL     1      39.400  -6.236   9.351  1.00  0.00     0.000 C 
BRANCH  16  17
ATOM     17  C   UNL     1      40.264  -7.109  10.268  1.00  0.00     0.000 C 
BRANCH  17  18
ATOM     18  C   UNL     1      39.429  -7.701  11.413  1.00  0.00     0.000 C 
BRANCH  18  19
ATOM     19  C   UNL     1      37.933  -7.348  11.309  1.00  0.00     0.000 C 
BRANCH  19  20
ATOM     20  C   UNL     1      37.233  -7.060  12.654  1.00  0.00     0.006 C 
BRANCH  20  21
ATOM     21  C   UNL     1      35.700  -7.170  12.613  1.00  0.00     0.053 C 
BRANCH  21  22
ATOM     22  C   UNL     1      35.113  -7.335  13.983  1.00  0.00     0.041 C 
ATOM     23  O   UNL     1      35.644  -6.767  14.973  1.00  0.00    -0.550 OA
ATOM     24  O   UNL     1      33.997  -8.141  14.169  1.00  0.00    -0.550 OA
ENDBRANCH  21  22
ENDBRANCH  20  21
ENDBRANCH  19  20
ENDBRANCH  18  19
ENDBRANCH  17  18
ENDBRANCH  16  17
ENDBRANCH  15  16
ENDBRANCH  14  15
ENDBRANCH  13  14
ENDBRANCH   1  13
TORSDOF 20
ENDMDL
MODEL 4
REMARK VINA RESULT:    -4.188      1.492      2.457
REMARK INTER + INTRA:         -12.010
REMARK INTER:                  -8.751
REMARK INTRA:                  -3.258
REMARK UNBOUND:                -2.925
REMARK SMILES CCCCCCCCCCCCCCCCCCCCCC(=O)[O-]
REMARK SMILES IDX 12 1 11 2 10 3 9 4 8 5 7 6 6 7 5 8 4 9 3 10 2 11 1 12 13 13
REMARK SMILES IDX 14 14 15 15 16 16 17 17 18 18 19 19 20 20 21 21 22 22 23 23
REMARK SMILES IDX 24 24
REMARK H PARENT
REMARK Flexibility Score: inf
ROOT
ATOM      1  C   UNL     1      41.148  -8.909   7.551  1.00  0.00     0.000 C 
ENDROOT
BRANCH   1   2
ATOM      2  C   UNL     1      42.313  -8.245   8.307  1.00  0.00     0.000 C 
BRANCH   2   3
ATOM      3  C   UNL     1      43.616  -8.111   7.497  1.00  0.00     0.000 C 
BRANCH   3   4
ATOM      4  C   UNL     1      44.752  -9.003   8.031  1.00  0.00    -0.000 C 
BRANCH   4   5
ATOM      5  C   UNL     1      44.808 -10.372   7.320  1.00  0.00    -0.000 C 
BRANCH   5   6
ATOM      6  C   UNL     1      45.611 -10.361   6.003  1.00  0.00    -0.000 C 
BRANCH   6   7
ATOM      7  C   UNL     1      44.761 -10.379   4.722  1.00  0.00    -0.000 C 
BRANCH   7   8
ATOM      8  C   UNL     1      43.361 -11.007   4.878  1.00  0.00    -0.000 C 
BRANCH   8   9
ATOM      9  C   UNL     1      42.236 -10.194   4.202  1.00  0.00    -0.000 C 
BRANCH   9  10
ATOM     10  C   UNL     1      42.575  -8.698   4.101  1.00  0.00    -0.000 C 
BRANCH  10  11
ATOM     11  C   UNL     1      41.388  -7.854   3.612  1.00  0.00    -0.003 C 
ATOM     12  C   UNL     1      41.081  -6.676   4.537  1.00  0.00     0.004 C 
ENDBRANCH  10  11
ENDBRANCH   9  10
ENDBRANCH   8   9
ENDBRANCH   7   8
ENDBRANCH   6   7
ENDBRANCH   5   6
ENDBRANCH   4   5
ENDBRANCH   3   4
ENDBRANCH   2   3
ENDBRANCH   1   2
BRANCH   1  13
ATOM     13  C   UNL     1      41.034 -10.417   7.830  1.00  0.00     0.000 C 
BRANCH  13  14
ATOM     14  C   UNL     1      41.652 -10.815   9.179  1.00  0.00     0.000 C 
BRANCH  14  15
ATOM     15  C   UNL     1      40.607 -10.899  10.301  1.00  0.00     0.000 C 
BRANCH  15  16
ATOM     16  C   UNL     1      39.184 -10.919   9.729  1.00  0.00     0.000 C 
BRANCH  16  17
ATOM     17  C   UNL     1      38.302  -9.873  10.419  1.00  0.00     0.000 C 
BRANCH  17  18
ATOM     18  C   UNL     1      38.353  -8.531   9.672  1.00  0.00     0.000 C 
BRANCH  18  19
ATOM     19  C   UNL     1      38.354  -7.317  10.621  1.00  0.00     0.000 C 
BRANCH  19  20
ATOM     20  C   UNL     1      38.248  -7.659  12.122  1.00  0.00     0.006 C 
BRANCH  20  21
ATOM     21  C   UNL     1      37.195  -6.843  12.891  1.00  0.00     0.053 C 
BRANCH  21  22
ATOM     22  C   UNL     1      35.850  -7.504  12.870  1.00  0.00     0.041 C 
ATOM     23  O   UNL     1      34.822  -6.860  13.209  1.00  0.00    -0.550 OA
ATOM     24  O   UNL     1      35.735  -8.840  12.507  1.00  0.00    -0.550 OA
ENDBRANCH  21  22
ENDBRANCH  20  21
ENDBRANCH  19  20
ENDBRANCH  18  19
ENDBRANCH  17  18
ENDBRANCH  16  17
ENDBRANCH  15  16
ENDBRANCH  14  15
ENDBRANCH  13  14
ENDBRANCH   1  13
TORSDOF 20
ENDMDL
MODEL 5
REMARK VINA RESULT:    -4.152      3.395      6.718
REMARK INTER + INTRA:         -11.932
REMARK INTER:                  -8.947
REMARK INTRA:                  -2.985
REMARK UNBOUND:                -2.925
REMARK SMILES CCCCCCCCCCCCCCCCCCCCCC(=O)[O-]
REMARK SMILES IDX 12 1 11 2 10 3 9 4 8 5 7 6 6 7 5 8 4 9 3 10 2 11 1 12 13 13
REMARK SMILES IDX 14 14 15 15 16 16 17 17 18 18 19 19 20 20 21 21 22 22 23 23
REMARK SMILES IDX 24 24
REMARK H PARENT
REMARK Flexibility Score: inf
ROOT
ATOM      1  C   UNL     1      35.308  -7.389  13.701  1.00  0.00     0.000 C 
ENDROOT
BRANCH   1   2
ATOM      2  C   UNL     1      36.702  -6.754  13.554  1.00  0.00     0.000 C 
BRANCH   2   3
ATOM      3  C   UNL     1      37.483  -7.190  12.301  1.00  0.00     0.000 C 
BRANCH   3   4
ATOM      4  C   UNL     1      36.577  -7.760  11.195  1.00  0.00    -0.000 C 
BRANCH   4   5
ATOM      5  C   UNL     1      36.938  -9.217  10.832  1.00  0.00    -0.000 C 
BRANCH   5   6
ATOM      6  C   UNL     1      38.081  -9.809  11.680  1.00  0.00    -0.000 C 
BRANCH   6   7
ATOM      7  C   UNL     1      39.439  -9.909  10.965  1.00  0.00    -0.000 C 
BRANCH   7   8
ATOM      8  C   UNL     1      39.361  -9.969   9.426  1.00  0.00    -0.000 C 
BRANCH   8   9
ATOM      9  C   UNL     1      40.035  -8.772   8.723  1.00  0.00    -0.000 C 
BRANCH   9  10
ATOM     10  C   UNL     1      40.496  -7.693   9.716  1.00  0.00    -0.000 C 
BRANCH  10  11
ATOM     11  C   UNL     1      39.971  -6.295   9.357  1.00  0.00    -0.003 C 
ATOM     12  C   UNL     1      38.630  -6.337   8.625  1.00  0.00     0.004 C 
ENDBRANCH  10  11
ENDBRANCH   9  10
ENDBRANCH   8   9
ENDBRANCH   7   8
ENDBRANCH   6   7
ENDBRANCH   5   6
ENDBRANCH   4   5
ENDBRANCH   3   4
ENDBRANCH   2   3
ENDBRANCH   1   2
BRANCH   1  13
ATOM     13  C   UNL     1      35.342  -8.752  14.415  1.00  0.00     0.000 C 
BRANCH  13  14
ATOM     14  C   UNL     1      34.613  -9.849  13.624  1.00  0.00     0.000 C 
BRANCH  14  15
ATOM     15  C   UNL     1      33.977 -10.906  14.539  1.00  0.00     0.000 C 
BRANCH  15  16
ATOM     16  C   UNL     1      32.469 -11.018  14.288  1.00  0.00     0.000 C 
BRANCH  16  17
ATOM     17  C   UNL     1      31.675 -10.598  15.529  1.00  0.00     0.000 C 
BRANCH  17  18
ATOM     18  C   UNL     1      31.654  -9.070  15.680  1.00  0.00     0.000 C 
BRANCH  18  19
ATOM     19  C   UNL     1      32.022  -8.602  17.101  1.00  0.00     0.000 C 
BRANCH  19  20
ATOM     20  C   UNL     1      33.431  -9.013  17.581  1.00  0.00     0.006 C 
BRANCH  20  21
ATOM     21  C   UNL     1      33.910  -8.289  18.849  1.00  0.00     0.053 C 
BRANCH  21  22
ATOM     22  C   UNL     1      34.503  -6.947  18.540  1.00  0.00     0.041 C 
ATOM     23  O   UNL     1      34.554  -6.056  19.427  1.00  0.00    -0.550 OA
ATOM     24  O   UNL     1      34.973  -6.672  17.261  1.00  0.00    -0.550 OA
ENDBRANCH  21  22
ENDBRANCH  20  21
ENDBRANCH  19  20
ENDBRANCH  18  19
ENDBRANCH  17  18
ENDBRANCH  16  17
ENDBRANCH  15  16
ENDBRANCH  14  15
ENDBRANCH  13  14
ENDBRANCH   1  13
TORSDOF 20
ENDMDL
MODEL 6
REMARK VINA RESULT:    -4.136      3.517      8.563
REMARK INTER + INTRA:         -11.898
REMARK INTER:                  -8.955
REMARK INTRA:                  -2.943
REMARK UNBOUND:                -2.925
REMARK SMILES CCCCCCCCCCCCCCCCCCCCCC(=O)[O-]
REMARK SMILES IDX 12 1 11 2 10 3 9 4 8 5 7 6 6 7 5 8 4 9 3 10 2 11 1 12 13 13
REMARK SMILES IDX 14 14 15 15 16 16 17 17 18 18 19 19 20 20 21 21 22 22 23 23
REMARK SMILES IDX 24 24
REMARK H PARENT
REMARK Flexibility Score: inf
ROOT
ATOM      1  C   UNL     1      39.225  -6.368   7.987  1.00  0.00     0.000 C 
ENDROOT
BRANCH   1   2
ATOM      2  C   UNL     1      39.490  -6.239   9.498  1.00  0.00     0.000 C 
BRANCH   2   3
ATOM      3  C   UNL     1      38.585  -7.109  10.391  1.00  0.00     0.000 C 
BRANCH   3   4
ATOM      4  C   UNL     1      39.369  -7.898  11.455  1.00  0.00    -0.000 C 
BRANCH   4   5
ATOM      5  C   UNL     1      38.752  -9.285  11.732  1.00  0.00    -0.000 C 
BRANCH   5   6
ATOM      6  C   UNL     1      37.575  -9.644  10.803  1.00  0.00    -0.000 C 
BRANCH   6   7
ATOM      7  C   UNL     1      36.303 -10.127  11.519  1.00  0.00    -0.000 C 
BRANCH   7   8
ATOM      8  C   UNL     1      36.507 -10.563  12.984  1.00  0.00    -0.000 C 
BRANCH   8   9
ATOM      9  C   UNL     1      35.720  -9.709  14.002  1.00  0.00    -0.000 C 
BRANCH   9  10
ATOM     10  C   UNL     1      35.390  -8.310  13.459  1.00  0.00    -0.000 C 
BRANCH  10  11
ATOM     11  C   UNL     1      35.880  -7.185  14.385  1.00  0.00    -0.003 C 
ATOM     12  C   UNL     1      36.939  -6.300  13.728  1.00  0.00     0.004 C 
ENDBRANCH  10  11
ENDBRANCH   9  10
ENDBRANCH   8   9
ENDBRANCH   7   8
ENDBRANCH   6   7
ENDBRANCH   5   6
ENDBRANCH   4   5
ENDBRANCH   3   4
ENDBRANCH   2   3
ENDBRANCH   1   2
BRANCH   1  13
ATOM     13  C   UNL     1      40.395  -7.016   7.227  1.00  0.00     0.000 C 
BRANCH  13  14
ATOM     14  C   UNL     1      41.213  -7.972   8.108  1.00  0.00     0.000 C 
BRANCH  14  15
ATOM     15  C   UNL     1      40.681  -9.412   8.061  1.00  0.00     0.000 C 
BRANCH  15  16
ATOM     16  C   UNL     1      41.526 -10.342   8.939  1.00  0.00     0.000 C 
BRANCH  16  17
ATOM     17  C   UNL     1      42.570 -11.087   8.101  1.00  0.00     0.000 C 
BRANCH  17  18
ATOM     18  C   UNL     1      43.995 -10.738   8.557  1.00  0.00     0.000 C 
BRANCH  18  19
ATOM     19  C   UNL     1      44.637  -9.620   7.715  1.00  0.00     0.000 C 
BRANCH  19  20
ATOM     20  C   UNL     1      44.847  -9.960   6.224  1.00  0.00     0.006 C 
BRANCH  20  21
ATOM     21  C   UNL     1      44.358  -8.879   5.247  1.00  0.00     0.053 C 
BRANCH  21  22
ATOM     22  C   UNL     1      42.955  -9.134   4.784  1.00  0.00     0.041 C 
ATOM     23  O   UNL     1      42.180  -8.170   4.548  1.00  0.00    -0.550 OA
ATOM     24  O   UNL     1      42.494 -10.437   4.644  1.00  0.00    -0.550 OA
ENDBRANCH  21  22
ENDBRANCH  20  21
ENDBRANCH  19  20
ENDBRANCH  18  19
ENDBRANCH  17  18
ENDBRANCH  16  17
ENDBRANCH  15  16
ENDBRANCH  14  15
ENDBRANCH  13  14
ENDBRANCH   1  13
TORSDOF 20
ENDMDL
MODEL 7
REMARK VINA RESULT:    -4.101      1.155      2.124
REMARK INTER + INTRA:         -11.821
REMARK INTER:                  -9.442
REMARK INTRA:                  -2.379
REMARK UNBOUND:                -2.925
REMARK SMILES CCCCCCCCCCCCCCCCCCCCCC(=O)[O-]
REMARK SMILES IDX 12 1 11 2 10 3 9 4 8 5 7 6 6 7 5 8 4 9 3 10 2 11 1 12 13 13
REMARK SMILES IDX 14 14 15 15 16 16 17 17 18 18 19 19 20 20 21 21 22 22 23 23
REMARK SMILES IDX 24 24
REMARK H PARENT
REMARK Flexibility Score: inf
ROOT
ATOM      1  C   UNL     1      39.175  -6.382   8.803  1.00  0.00     0.000 C 
ENDROOT
BRANCH   1   2
ATOM      2  C   UNL     1      39.919  -7.003   7.607  1.00  0.00     0.000 C 
BRANCH   2   3
ATOM      3  C   UNL     1      41.220  -7.744   7.968  1.00  0.00     0.000 C 
BRANCH   3   4
ATOM      4  C   UNL     1      41.118  -9.268   7.776  1.00  0.00    -0.000 C 
BRANCH   4   5
ATOM      5  C   UNL     1      42.056  -9.784   6.663  1.00  0.00    -0.000 C 
BRANCH   5   6
ATOM      6  C   UNL     1      42.920  -8.685   6.013  1.00  0.00    -0.000 C 
BRANCH   6   7
ATOM      7  C   UNL     1      42.757  -8.542   4.491  1.00  0.00    -0.000 C 
BRANCH   7   8
ATOM      8  C   UNL     1      41.357  -8.094   4.026  1.00  0.00    -0.000 C 
BRANCH   8   9
ATOM      9  C   UNL     1      41.071  -6.596   4.268  1.00  0.00    -0.000 C 
BRANCH   9  10
ATOM     10  C   UNL     1      40.771  -5.839   2.965  1.00  0.00    -0.000 C 
BRANCH  10  11
ATOM     11  C   UNL     1      40.348  -4.382   3.210  1.00  0.00    -0.003 C 
ATOM     12  C   UNL     1      39.396  -3.855   2.137  1.00  0.00     0.004 C 
ENDBRANCH  10  11
ENDBRANCH   9  10
ENDBRANCH   8   9
ENDBRANCH   7   8
ENDBRANCH   6   7
ENDBRANCH   5   6
ENDBRANCH   4   5
ENDBRANCH   3   4
ENDBRANCH   2   3
ENDBRANCH   1   2
BRANCH   1  13
ATOM     13  C   UNL     1      39.883  -6.634  10.146  1.00  0.00     0.000 C 
BRANCH  13  14
ATOM     14  C   UNL     1      39.015  -7.435  11.128  1.00  0.00     0.000 C 
BRANCH  14  15
ATOM     15  C   UNL     1      37.983  -8.318  10.412  1.00  0.00     0.000 C 
BRANCH  15  16
ATOM     16  C   UNL     1      38.376  -9.798  10.487  1.00  0.00     0.000 C 
BRANCH  16  17
ATOM     17  C   UNL     1      38.691 -10.209  11.929  1.00  0.00     0.000 C 
BRANCH  17  18
ATOM     18  C   UNL     1      37.422 -10.675  12.659  1.00  0.00     0.000 C 
BRANCH  18  19
ATOM     19  C   UNL     1      36.860  -9.612  13.622  1.00  0.00     0.000 C 
BRANCH  19  20
ATOM     20  C   UNL     1      35.462  -9.071  13.257  1.00  0.00     0.006 C 
BRANCH  20  21
ATOM     21  C   UNL     1      35.382  -7.541  13.126  1.00  0.00     0.053 C 
BRANCH  21  22
ATOM     22  C   UNL     1      36.109  -6.845  14.237  1.00  0.00     0.041 C 
ATOM     23  O   UNL     1      35.612  -6.806  15.394  1.00  0.00    -0.550 OA
ATOM     24  O   UNL     1      37.320  -6.211  13.988  1.00  0.00    -0.550 OA
ENDBRANCH  21  22
ENDBRANCH  20  21
ENDBRANCH  19  20
ENDBRANCH  18  19
ENDBRANCH  17  18
ENDBRANCH  16  17
ENDBRANCH  15  16
ENDBRANCH  14  15
ENDBRANCH  13  14
ENDBRANCH   1  13
TORSDOF 20
ENDMDL
MODEL 8
REMARK VINA RESULT:    -4.082      3.972      9.210
REMARK INTER + INTRA:         -11.779
REMARK INTER:                  -9.763
REMARK INTRA:                  -2.016
REMARK UNBOUND:                -2.925
REMARK SMILES CCCCCCCCCCCCCCCCCCCCCC(=O)[O-]
REMARK SMILES IDX 12 1 11 2 10 3 9 4 8 5 7 6 6 7 5 8 4 9 3 10 2 11 1 12 13 13
REMARK SMILES IDX 14 14 15 15 16 16 17 17 18 18 19 19 20 20 21 21 22 22 23 23
REMARK SMILES IDX 24 24
REMARK H PARENT
REMARK Flexibility Score: inf
ROOT
ATOM      1  C   UNL     1      39.610  -6.562   8.668  1.00  0.00     0.000 C 
ENDROOT
BRANCH   1   2
ATOM      2  C   UNL     1      40.168  -6.976  10.042  1.00  0.00     0.000 C 
BRANCH   2   3
ATOM      3  C   UNL     1      39.121  -7.534  11.024  1.00  0.00     0.000 C 
BRANCH   3   4
ATOM      4  C   UNL     1      37.948  -8.237  10.318  1.00  0.00    -0.000 C 
BRANCH   4   5
ATOM      5  C   UNL     1      38.290  -9.686   9.909  1.00  0.00    -0.000 C 
BRANCH   5   6
ATOM      6  C   UNL     1      37.584 -10.760  10.761  1.00  0.00    -0.000 C 
BRANCH   6   7
ATOM      7  C   UNL     1      36.131 -10.435  11.146  1.00  0.00    -0.000 C 
BRANCH   7   8
ATOM      8  C   UNL     1      35.813 -10.556  12.650  1.00  0.00    -0.000 C 
BRANCH   8   9
ATOM      9  C   UNL     1      36.381  -9.400  13.500  1.00  0.00    -0.000 C 
BRANCH   9  10
ATOM     10  C   UNL     1      35.320  -8.338  13.830  1.00  0.00    -0.000 C 
BRANCH  10  11
ATOM     11  C   UNL     1      35.568  -7.008  13.103  1.00  0.00    -0.003 C 
ATOM     12  C   UNL     1      36.805  -6.274  13.621  1.00  0.00     0.004 C 
ENDBRANCH  10  11
ENDBRANCH   9  10
ENDBRANCH   8   9
ENDBRANCH   7   8
ENDBRANCH   6   7
ENDBRANCH   5   6
ENDBRANCH   4   5
ENDBRANCH   3   4
ENDBRANCH   2   3
ENDBRANCH   1   2
BRANCH   1  13
ATOM     13  C   UNL     1      40.419  -7.140   7.494  1.00  0.00     0.000 C 
BRANCH  13  14
ATOM     14  C   UNL     1      41.337  -8.296   7.924  1.00  0.00     0.000 C 
BRANCH  14  15
ATOM     15  C   UNL     1      42.231  -8.790   6.778  1.00  0.00     0.000 C 
BRANCH  15  16
ATOM     16  C   UNL     1      42.245  -7.789   5.617  1.00  0.00     0.000 C 
BRANCH  16  17
ATOM     17  C   UNL     1      41.715  -8.433   4.332  1.00  0.00     0.000 C 
BRANCH  17  18
ATOM     18  C   UNL     1      41.646  -7.409   3.189  1.00  0.00     0.000 C 
BRANCH  18  19
ATOM     19  C   UNL     1      40.653  -6.265   3.468  1.00  0.00     0.000 C 
BRANCH  19  20
ATOM     20  C   UNL     1      40.475  -5.256   2.314  1.00  0.00     0.006 C 
BRANCH  20  21
ATOM     21  C   UNL     1      40.336  -3.792   2.761  1.00  0.00     0.053 C 
BRANCH  21  22
ATOM     22  C   UNL     1      39.006  -3.214   2.381  1.00  0.00     0.041 C 
ATOM     23  O   UNL     1      38.077  -3.966   1.985  1.00  0.00    -0.550 OA
ATOM     24  O   UNL     1      38.803  -1.840   2.434  1.00  0.00    -0.550 OA
ENDBRANCH  21  22
ENDBRANCH  20  21
ENDBRANCH  19  20
ENDBRANCH  18  19
ENDBRANCH  17  18
ENDBRANCH  16  17
ENDBRANCH  15  16
ENDBRANCH  14  15
ENDBRANCH  13  14
ENDBRANCH   1  13
TORSDOF 20
ENDMDL
MODEL 9
REMARK VINA RESULT:    -4.076      3.350      8.741
REMARK INTER + INTRA:         -11.767
REMARK INTER:                  -9.036
REMARK INTRA:                  -2.731
REMARK UNBOUND:                -2.925
REMARK SMILES CCCCCCCCCCCCCCCCCCCCCC(=O)[O-]
REMARK SMILES IDX 12 1 11 2 10 3 9 4 8 5 7 6 6 7 5 8 4 9 3 10 2 11 1 12 13 13
REMARK SMILES IDX 14 14 15 15 16 16 17 17 18 18 19 19 20 20 21 21 22 22 23 23
REMARK SMILES IDX 24 24
REMARK H PARENT
REMARK Flexibility Score: inf
ROOT
ATOM      1  C   UNL     1      40.237  -7.272   7.558  1.00  0.00     0.000 C 
ENDROOT
BRANCH   1   2
ATOM      2  C   UNL     1      39.637  -6.265   8.556  1.00  0.00     0.000 C 
BRANCH   2   3
ATOM      3  C   UNL     1      38.376  -6.757   9.292  1.00  0.00     0.000 C 
BRANCH   3   4
ATOM      4  C   UNL     1      38.617  -7.021  10.789  1.00  0.00    -0.000 C 
BRANCH   4   5
ATOM      5  C   UNL     1      39.127  -8.453  11.060  1.00  0.00    -0.000 C 
BRANCH   5   6
ATOM      6  C   UNL     1      38.200  -9.559  10.517  1.00  0.00    -0.000 C 
BRANCH   6   7
ATOM      7  C   UNL     1      36.962  -9.855  11.380  1.00  0.00    -0.000 C 
BRANCH   7   8
ATOM      8  C   UNL     1      37.219  -9.876  12.901  1.00  0.00    -0.000 C 
BRANCH   8   9
ATOM      9  C   UNL     1      36.274  -8.957  13.703  1.00  0.00    -0.000 C 
BRANCH   9  10
ATOM     10  C   UNL     1      35.481  -8.000  12.799  1.00  0.00    -0.000 C 
BRANCH  10  11
ATOM     11  C   UNL     1      35.640  -6.529  13.211  1.00  0.00    -0.003 C 
ATOM     12  C   UNL     1      36.951  -6.262  13.951  1.00  0.00     0.004 C 
ENDBRANCH  10  11
ENDBRANCH   9  10
ENDBRANCH   8   9
ENDBRANCH   7   8
ENDBRANCH   6   7
ENDBRANCH   5   6
ENDBRANCH   4   5
ENDBRANCH   3   4
ENDBRANCH   2   3
ENDBRANCH   1   2
BRANCH   1  13
ATOM     13  C   UNL     1      41.515  -7.948   8.084  1.00  0.00     0.000 C 
BRANCH  13  14
ATOM     14  C   UNL     1      41.463  -9.479   7.965  1.00  0.00     0.000 C 
BRANCH  14  15
ATOM     15  C   UNL     1      42.788 -10.143   8.366  1.00  0.00     0.000 C 
BRANCH  15  16
ATOM     16  C   UNL     1      43.418 -10.878   7.177  1.00  0.00     0.000 C 
BRANCH  16  17
ATOM     17  C   UNL     1      44.387  -9.964   6.419  1.00  0.00     0.000 C 
BRANCH  17  18
ATOM     18  C   UNL     1      44.158 -10.054   4.903  1.00  0.00     0.000 C 
BRANCH  18  19
ATOM     19  C   UNL     1      43.371  -8.854   4.343  1.00  0.00     0.000 C 
BRANCH  19  20
ATOM     20  C   UNL     1      41.836  -9.009   4.367  1.00  0.00     0.006 C 
BRANCH  20  21
ATOM     21  C   UNL     1      41.117  -8.443   3.131  1.00  0.00     0.053 C 
BRANCH  21  22
ATOM     22  C   UNL     1      41.064  -6.945   3.150  1.00  0.00     0.041 C 
ATOM     23  O   UNL     1      40.850  -6.332   4.228  1.00  0.00    -0.550 OA
ATOM     24  O   UNL     1      41.219  -6.228   1.970  1.00  0.00    -0.550 OA
ENDBRANCH  21  22
ENDBRANCH  20  21
ENDBRANCH  19  20
ENDBRANCH  18  19
ENDBRANCH  17  18
ENDBRANCH  16  17
ENDBRANCH  15  16
ENDBRANCH  14  15
ENDBRANCH  13  14
ENDBRANCH   1  13
TORSDOF 20
ENDMDL
