MODEL 1
REMARK VINA RESULT:    -3.734      0.000      0.000
REMARK INTER + INTRA:          -8.673
REMARK INTER:                  -7.226
REMARK INTRA:                  -1.447
REMARK UNBOUND:                -1.447
REMARK SMILES CCCCCCCCCCCCCCCCCC(=O)[O-]
REMARK SMILES IDX 10 1 11 2 12 3 13 4 14 5 15 6 16 7 17 8 18 9 19 10 20 11
REMARK SMILES IDX 9 12 8 13 7 14 6 15 5 16 4 17 3 18 2 19 1 20
REMARK H PARENT
REMARK Flexibility Score: inf
ROOT
ATOM      1  C   UNL     1       6.394  -6.383   6.413  1.00  0.00     0.000 C 
ENDROOT
BRANCH   1   2
ATOM      2  C   UNL     1       6.807  -5.799   7.775  1.00  0.00     0.000 C 
BRANCH   2   3
ATOM      3  C   UNL     1       7.937  -4.764   7.655  1.00  0.00     0.000 C 
BRANCH   3   4
ATOM      4  C   UNL     1       9.001  -4.919   8.752  1.00  0.00     0.000 C 
BRANCH   4   5
ATOM      5  C   UNL     1       8.951  -3.737   9.732  1.00  0.00     0.000 C 
BRANCH   5   6
ATOM      6  C   UNL     1       8.599  -2.404   9.049  1.00  0.00     0.000 C 
BRANCH   6   7
ATOM      7  C   UNL     1       8.257  -1.245  10.006  1.00  0.00     0.006 C 
BRANCH   7   8
ATOM      8  C   UNL     1       9.110   0.018   9.792  1.00  0.00     0.053 C 
BRANCH   8   9
ATOM      9  C   UNL     1       8.280   1.265   9.720  1.00  0.00     0.041 C 
ATOM     10  O   UNL     1       7.041   1.191   9.507  1.00  0.00    -0.550 OA
ATOM     11  O   UNL     1       8.866   2.507   9.929  1.00  0.00    -0.550 OA
ENDBRANCH   8   9
ENDBRANCH   7   8
ENDBRANCH   6   7
ENDBRANCH   5   6
ENDBRANCH   4   5
ENDBRANCH   3   4
ENDBRANCH   2   3
ENDBRANCH   1   2
BRANCH   1  12
ATOM     12  C   UNL     1       5.772  -7.784   6.537  1.00  0.00     0.000 C 
BRANCH  12  13
ATOM     13  C   UNL     1       5.211  -8.061   7.943  1.00  0.00    -0.000 C 
BRANCH  13  14
ATOM     14  C   UNL     1       3.711  -8.400   7.924  1.00  0.00    -0.000 C 
BRANCH  14  15
ATOM     15  C   UNL     1       2.914  -7.611   8.972  1.00  0.00    -0.000 C 
BRANCH  15  16
ATOM     16  C   UNL     1       3.653  -6.330   9.376  1.00  0.00    -0.000 C 
BRANCH  16  17
ATOM     17  C   UNL     1       2.817  -5.085   9.048  1.00  0.00    -0.000 C 
BRANCH  17  18
ATOM     18  C   UNL     1       2.392  -5.019   7.570  1.00  0.00    -0.000 C 
BRANCH  18  19
ATOM     19  C   UNL     1       0.911  -4.674   7.338  1.00  0.00    -0.003 C 
ATOM     20  C   UNL     1       0.008  -5.906   7.305  1.00  0.00     0.004 C 
ENDBRANCH  18  19
ENDBRANCH  17  18
ENDBRANCH  16  17
ENDBRANCH  15  16
ENDBRANCH  14  15
ENDBRANCH  13  14
ENDBRANCH  12  13
ENDBRANCH   1  12
TORSDOF 16
ENDMDL
MODEL 2
REMARK VINA RESULT:    -3.443      3.065      7.240
REMARK INTER + INTRA:          -8.109
REMARK INTER:                  -7.035
REMARK INTRA:                  -1.074
REMARK UNBOUND:                -1.447
REMARK SMILES CCCCCCCCCCCCCCCCCC(=O)[O-]
REMARK SMILES IDX 10 1 11 2 12 3 13 4 14 5 15 6 16 7 17 8 18 9 19 10 20 11
REMARK SMILES IDX 9 12 8 13 7 14 6 15 5 16 4 17 3 18 2 19 1 20
REMARK H PARENT
REMARK Flexibility Score: inf
ROOT
ATOM      1  C   UNL     1       6.127  -8.791   5.658  1.00  0.00     0.000 C 
ENDROOT
BRANCH   1   2
ATOM      2  C   UNL     1       5.925  -9.125   7.146  1.00  0.00     0.000 C 
BRANCH   2   3
ATOM      3  C   UNL     1       4.717 -10.046   7.385  1.00  0.00     0.000 C 
BRANCH   3   4
ATOM      4  C   UNL     1       3.418  -9.265   7.635  1.00  0.00     0.000 C 
BRANCH   4   5
ATOM      5  C   UNL     1       3.365  -8.742   9.078  1.00  0.00     0.000 C 
BRANCH   5   6
ATOM      6  C   UNL     1       3.786  -7.268   9.200  1.00  0.00     0.000 C 
BRANCH   6   7
ATOM      7  C   UNL     1       3.185  -6.322   8.141  1.00  0.00     0.006 C 
BRANCH   7   8
ATOM      8  C   UNL     1       1.668  -6.491   7.936  1.00  0.00     0.053 C 
BRANCH   8   9
ATOM      9  C   UNL     1       1.025  -5.258   7.378  1.00  0.00     0.041 C 
ATOM     10  O   UNL     1       1.698  -4.205   7.223  1.00  0.00    -0.550 OA
ATOM     11  O   UNL     1      -0.309  -5.280   6.991  1.00  0.00    -0.550 OA
ENDBRANCH   8   9
ENDBRANCH   7   8
ENDBRANCH   6   7
ENDBRANCH   5   6
ENDBRANCH   4   5
ENDBRANCH   3   4
ENDBRANCH   2   3
ENDBRANCH   1   2
BRANCH   1  12
ATOM     12  C   UNL     1       6.663  -7.366   5.441  1.00  0.00     0.000 C 
BRANCH  12  13
ATOM     13  C   UNL     1       6.299  -6.415   6.595  1.00  0.00    -0.000 C 
BRANCH  13  14
ATOM     14  C   UNL     1       7.432  -5.429   6.926  1.00  0.00    -0.000 C 
BRANCH  14  15
ATOM     15  C   UNL     1       7.642  -5.256   8.437  1.00  0.00    -0.000 C 
BRANCH  15  16
ATOM     16  C   UNL     1       8.933  -4.482   8.729  1.00  0.00    -0.000 C 
BRANCH  16  17
ATOM     17  C   UNL     1       8.688  -3.369   9.758  1.00  0.00    -0.000 C 
BRANCH  17  18
ATOM     18  C   UNL     1       8.473  -1.990   9.109  1.00  0.00    -0.000 C 
BRANCH  18  19
ATOM     19  C   UNL     1       8.631  -0.795  10.065  1.00  0.00    -0.003 C 
ATOM     20  C   UNL     1       7.650   0.340   9.771  1.00  0.00     0.004 C 
ENDBRANCH  18  19
ENDBRANCH  17  18
ENDBRANCH  16  17
ENDBRANCH  15  16
ENDBRANCH  14  15
ENDBRANCH  13  14
ENDBRANCH  12  13
ENDBRANCH   1  12
TORSDOF 16
ENDMDL
MODEL 3
REMARK VINA RESULT:    -3.329      3.299      7.191
REMARK INTER + INTRA:          -7.890
REMARK INTER:                  -6.557
REMARK INTRA:                  -1.333
REMARK UNBOUND:                -1.447
REMARK SMILES CCCCCCCCCCCCCCCCCC(=O)[O-]
REMARK SMILES IDX 10 1 11 2 12 3 13 4 14 5 15 6 16 7 17 8 18 9 19 10 20 11
REMARK SMILES IDX 9 12 8 13 7 14 6 15 5 16 4 17 3 18 2 19 1 20
REMARK H PARENT
REMARK Flexibility Score: inf
ROOT
ATOM      1  C   UNL     1       6.322  -7.459   5.922  1.00  0.00     0.000 C 
ENDROOT
BRANCH   1   2
ATOM      2  C   UNL     1       5.891  -8.698   6.726  1.00  0.00     0.000 C 
BRANCH   2   3
ATOM      3  C   UNL     1       4.742  -8.397   7.703  1.00  0.00     0.000 C 
BRANCH   3   4
ATOM      4  C   UNL     1       5.133  -8.639   9.169  1.00  0.00     0.000 C 
BRANCH   4   5
ATOM      5  C   UNL     1       4.359  -7.699  10.103  1.00  0.00     0.000 C 
BRANCH   5   6
ATOM      6  C   UNL     1       4.432  -6.225   9.669  1.00  0.00     0.000 C 
BRANCH   6   7
ATOM      7  C   UNL     1       3.072  -5.547   9.409  1.00  0.00     0.006 C 
BRANCH   7   8
ATOM      8  C   UNL     1       2.825  -5.180   7.934  1.00  0.00     0.053 C 
BRANCH   8   9
ATOM      9  C   UNL     1       1.402  -5.407   7.518  1.00  0.00     0.041 C 
ATOM     10  O   UNL     1       0.706  -4.450   7.088  1.00  0.00    -0.550 OA
ATOM     11  O   UNL     1       0.856  -6.684   7.567  1.00  0.00    -0.550 OA
ENDBRANCH   8   9
ENDBRANCH   7   8
ENDBRANCH   6   7
ENDBRANCH   5   6
ENDBRANCH   4   5
ENDBRANCH   3   4
ENDBRANCH   2   3
ENDBRANCH   1   2
BRANCH   1  12
ATOM     12  C   UNL     1       6.279  -6.170   6.759  1.00  0.00     0.000 C 
BRANCH  12  13
ATOM     13  C   UNL     1       7.671  -5.542   6.952  1.00  0.00    -0.000 C 
BRANCH  13  14
ATOM     14  C   UNL     1       7.846  -4.912   8.344  1.00  0.00    -0.000 C 
BRANCH  14  15
ATOM     15  C   UNL     1       8.644  -3.601   8.303  1.00  0.00    -0.000 C 
BRANCH  15  16
ATOM     16  C   UNL     1       8.984  -3.119   9.718  1.00  0.00    -0.000 C 
BRANCH  16  17
ATOM     17  C   UNL     1       8.099  -1.932  10.124  1.00  0.00    -0.000 C 
BRANCH  17  18
ATOM     18  C   UNL     1       8.685  -0.574   9.698  1.00  0.00    -0.000 C 
BRANCH  18  19
ATOM     19  C   UNL     1       7.724   0.619   9.843  1.00  0.00    -0.003 C 
ATOM     20  C   UNL     1       8.427   1.971   9.725  1.00  0.00     0.004 C 
ENDBRANCH  18  19
ENDBRANCH  17  18
ENDBRANCH  16  17
ENDBRANCH  15  16
ENDBRANCH  14  15
ENDBRANCH  13  14
ENDBRANCH  12  13
ENDBRANCH   1  12
TORSDOF 16
ENDMDL
MODEL 4
REMARK VINA RESULT:    -2.914     12.716     15.919
REMARK INTER + INTRA:          -7.087
REMARK INTER:                  -5.638
REMARK INTRA:                  -1.449
REMARK UNBOUND:                -1.447
REMARK SMILES CCCCCCCCCCCCCCCCCC(=O)[O-]
REMARK SMILES IDX 10 1 11 2 12 3 13 4 14 5 15 6 16 7 17 8 18 9 19 10 20 11
REMARK SMILES IDX 9 12 8 13 7 14 6 15 5 16 4 17 3 18 2 19 1 20
REMARK H PARENT
REMARK Flexibility Score: inf
ROOT
ATOM      1  C   UNL     1      -1.894   9.000   7.117  1.00  0.00     0.000 C 
ENDROOT
BRANCH   1   2
ATOM      2  C   UNL     1      -2.982   9.433   6.119  1.00  0.00     0.000 C 
BRANCH   2   3
ATOM      3  C   UNL     1      -3.045   8.520   4.883  1.00  0.00     0.000 C 
BRANCH   3   4
ATOM      4  C   UNL     1      -2.221   7.234   5.054  1.00  0.00     0.000 C 
BRANCH   4   5
ATOM      5  C   UNL     1      -3.059   5.998   4.699  1.00  0.00     0.000 C 
BRANCH   5   6
ATOM      6  C   UNL     1      -3.391   5.124   5.921  1.00  0.00     0.000 C 
BRANCH   6   7
ATOM      7  C   UNL     1      -3.184   5.802   7.290  1.00  0.00     0.006 C 
BRANCH   7   8
ATOM      8  C   UNL     1      -4.476   6.355   7.918  1.00  0.00     0.053 C 
BRANCH   8   9
ATOM      9  C   UNL     1      -4.207   7.225   9.109  1.00  0.00     0.041 C 
ATOM     10  O   UNL     1      -3.383   6.860   9.989  1.00  0.00    -0.550 OA
ATOM     11  O   UNL     1      -4.837   8.457   9.230  1.00  0.00    -0.550 OA
ENDBRANCH   8   9
ENDBRANCH   7   8
ENDBRANCH   6   7
ENDBRANCH   5   6
ENDBRANCH   4   5
ENDBRANCH   3   4
ENDBRANCH   2   3
ENDBRANCH   1   2
BRANCH   1  12
ATOM     12  C   UNL     1      -1.517  10.121   8.099  1.00  0.00     0.000 C 
BRANCH  12  13
ATOM     13  C   UNL     1      -0.950   9.582   9.425  1.00  0.00    -0.000 C 
BRANCH  13  14
ATOM     14  C   UNL     1       0.455  10.125   9.731  1.00  0.00    -0.000 C 
BRANCH  14  15
ATOM     15  C   UNL     1       1.550   9.421   8.916  1.00  0.00    -0.000 C 
BRANCH  15  16
ATOM     16  C   UNL     1       2.723   9.008   9.813  1.00  0.00    -0.000 C 
BRANCH  16  17
ATOM     17  C   UNL     1       3.968   8.679   8.976  1.00  0.00    -0.000 C 
BRANCH  17  18
ATOM     18  C   UNL     1       3.624   8.192   7.557  1.00  0.00    -0.000 C 
BRANCH  18  19
ATOM     19  C   UNL     1       4.815   7.638   6.757  1.00  0.00    -0.003 C 
ATOM     20  C   UNL     1       6.041   8.550   6.800  1.00  0.00     0.004 C 
ENDBRANCH  18  19
ENDBRANCH  17  18
ENDBRANCH  16  17
ENDBRANCH  15  16
ENDBRANCH  14  15
ENDBRANCH  13  14
ENDBRANCH  12  13
ENDBRANCH   1  12
TORSDOF 16
ENDMDL
MODEL 5
REMARK VINA RESULT:    -2.885     12.463     14.481
REMARK INTER + INTRA:          -7.031
REMARK INTER:                  -5.745
REMARK INTRA:                  -1.285
REMARK UNBOUND:                -1.447
REMARK SMILES CCCCCCCCCCCCCCCCCC(=O)[O-]
REMARK SMILES IDX 10 1 11 2 12 3 13 4 14 5 15 6 16 7 17 8 18 9 19 10 20 11
REMARK SMILES IDX 9 12 8 13 7 14 6 15 5 16 4 17 3 18 2 19 1 20
REMARK H PARENT
REMARK Flexibility Score: inf
ROOT
ATOM      1  C   UNL     1      -2.991   8.987   5.485  1.00  0.00     0.000 C 
ENDROOT
BRANCH   1   2
ATOM      2  C   UNL     1      -2.673   9.602   6.859  1.00  0.00     0.000 C 
BRANCH   2   3
ATOM      3  C   UNL     1      -1.433   8.973   7.514  1.00  0.00     0.000 C 
BRANCH   3   4
ATOM      4  C   UNL     1      -1.250   9.410   8.976  1.00  0.00     0.000 C 
BRANCH   4   5
ATOM      5  C   UNL     1       0.187   9.146   9.449  1.00  0.00     0.000 C 
BRANCH   5   6
ATOM      6  C   UNL     1       1.247   9.561   8.414  1.00  0.00     0.000 C 
BRANCH   6   7
ATOM      7  C   UNL     1       2.700   9.194   8.777  1.00  0.00     0.006 C 
BRANCH   7   8
ATOM      8  C   UNL     1       3.371   8.229   7.783  1.00  0.00     0.053 C 
BRANCH   8   9
ATOM      9  C   UNL     1       4.865   8.221   7.912  1.00  0.00     0.041 C 
ATOM     10  O   UNL     1       5.591   8.209   6.883  1.00  0.00    -0.550 OA
ATOM     11  O   UNL     1       5.457   8.267   9.168  1.00  0.00    -0.550 OA
ENDBRANCH   8   9
ENDBRANCH   7   8
ENDBRANCH   6   7
ENDBRANCH   5   6
ENDBRANCH   4   5
ENDBRANCH   3   4
ENDBRANCH   2   3
ENDBRANCH   1   2
BRANCH   1  12
ATOM     12  C   UNL     1      -2.134   7.747   5.182  1.00  0.00     0.000 C 
BRANCH  12  13
ATOM     13  C   UNL     1      -2.931   6.632   4.483  1.00  0.00    -0.000 C 
BRANCH  13  14
ATOM     14  C   UNL     1      -2.737   5.261   5.152  1.00  0.00    -0.000 C 
BRANCH  14  15
ATOM     15  C   UNL     1      -3.667   5.055   6.356  1.00  0.00    -0.000 C 
BRANCH  15  16
ATOM     16  C   UNL     1      -3.342   6.050   7.478  1.00  0.00    -0.000 C 
BRANCH  16  17
ATOM     17  C   UNL     1      -4.621   6.515   8.188  1.00  0.00    -0.000 C 
BRANCH  17  18
ATOM     18  C   UNL     1      -4.336   7.358   9.444  1.00  0.00    -0.000 C 
BRANCH  18  19
ATOM     19  C   UNL     1      -5.447   8.354   9.820  1.00  0.00    -0.003 C 
ATOM     20  C   UNL     1      -6.852   7.795   9.599  1.00  0.00     0.004 C 
ENDBRANCH  18  19
ENDBRANCH  17  18
ENDBRANCH  16  17
ENDBRANCH  15  16
ENDBRANCH  14  15
ENDBRANCH  13  14
ENDBRANCH  12  13
ENDBRANCH   1  12
TORSDOF 16
ENDMDL
MODEL 6
REMARK VINA RESULT:    -2.561     13.147     15.971
REMARK INTER + INTRA:          -6.403
REMARK INTER:                  -5.262
REMARK INTRA:                  -1.141
REMARK UNBOUND:                -1.447
REMARK SMILES CCCCCCCCCCCCCCCCCC(=O)[O-]
REMARK SMILES IDX 10 1 11 2 12 3 13 4 14 5 15 6 16 7 17 8 18 9 19 10 20 11
REMARK SMILES IDX 9 12 8 13 7 14 6 15 5 16 4 17 3 18 2 19 1 20
REMARK H PARENT
REMARK Flexibility Score: inf
ROOT
ATOM      1  C   UNL     1       0.764   9.853   8.301  1.00  0.00     0.000 C 
ENDROOT
BRANCH   1   2
ATOM      2  C   UNL     1      -0.670  10.029   8.828  1.00  0.00     0.000 C 
BRANCH   2   3
ATOM      3  C   UNL     1      -1.047   8.970   9.877  1.00  0.00     0.000 C 
BRANCH   3   4
ATOM      4  C   UNL     1      -2.563   8.885  10.113  1.00  0.00     0.000 C 
BRANCH   4   5
ATOM      5  C   UNL     1      -3.323   9.754   9.101  1.00  0.00     0.000 C 
BRANCH   5   6
ATOM      6  C   UNL     1      -4.022   8.930   8.006  1.00  0.00     0.000 C 
BRANCH   6   7
ATOM      7  C   UNL     1      -3.183   7.783   7.409  1.00  0.00     0.006 C 
BRANCH   7   8
ATOM      8  C   UNL     1      -2.175   8.234   6.336  1.00  0.00     0.053 C 
BRANCH   8   9
ATOM      9  C   UNL     1      -2.479   7.657   4.986  1.00  0.00     0.041 C 
ATOM     10  O   UNL     1      -3.166   8.309   4.156  1.00  0.00    -0.550 OA
ATOM     11  O   UNL     1      -1.970   6.415   4.627  1.00  0.00    -0.550 OA
ENDBRANCH   8   9
ENDBRANCH   7   8
ENDBRANCH   6   7
ENDBRANCH   5   6
ENDBRANCH   4   5
ENDBRANCH   3   4
ENDBRANCH   2   3
ENDBRANCH   1   2
BRANCH   1  12
ATOM     12  C   UNL     1       1.608   8.924   9.188  1.00  0.00     0.000 C 
BRANCH  12  13
ATOM     13  C   UNL     1       2.555   9.697  10.125  1.00  0.00    -0.000 C 
BRANCH  13  14
ATOM     14  C   UNL     1       3.856  10.125   9.426  1.00  0.00    -0.000 C 
BRANCH  14  15
ATOM     15  C   UNL     1       5.044   9.221   9.786  1.00  0.00    -0.000 C 
BRANCH  15  16
ATOM     16  C   UNL     1       6.194   9.401   8.787  1.00  0.00    -0.000 C 
BRANCH  16  17
ATOM     17  C   UNL     1       6.341   8.165   7.888  1.00  0.00    -0.000 C 
BRANCH  17  18
ATOM     18  C   UNL     1       5.045   7.813   7.136  1.00  0.00    -0.000 C 
BRANCH  18  19
ATOM     19  C   UNL     1       5.028   8.220   5.653  1.00  0.00    -0.003 C 
ATOM     20  C   UNL     1       6.400   8.648   5.134  1.00  0.00     0.004 C 
ENDBRANCH  18  19
ENDBRANCH  17  18
ENDBRANCH  16  17
ENDBRANCH  15  16
ENDBRANCH  14  15
ENDBRANCH  13  14
ENDBRANCH  12  13
ENDBRANCH   1  12
TORSDOF 16
ENDMDL
MODEL 7
REMARK VINA RESULT:    -2.493      3.733      6.063
REMARK INTER + INTRA:          -6.271
REMARK INTER:                  -4.580
REMARK INTRA:                  -1.691
REMARK UNBOUND:                -1.447
REMARK SMILES CCCCCCCCCCCCCCCCCC(=O)[O-]
REMARK SMILES IDX 10 1 11 2 12 3 13 4 14 5 15 6 16 7 17 8 18 9 19 10 20 11
REMARK SMILES IDX 9 12 8 13 7 14 6 15 5 16 4 17 3 18 2 19 1 20
REMARK H PARENT
REMARK Flexibility Score: inf
ROOT
ATOM      1  C   UNL     1       7.846  -4.432   7.332  1.00  0.00     0.000 C 
ENDROOT
BRANCH   1   2
ATOM      2  C   UNL     1       8.807  -4.894   8.442  1.00  0.00     0.000 C 
BRANCH   2   3
ATOM      3  C   UNL     1       8.128  -4.961   9.820  1.00  0.00     0.000 C 
BRANCH   3   4
ATOM      4  C   UNL     1       7.077  -6.078   9.908  1.00  0.00     0.000 C 
BRANCH   4   5
ATOM      5  C   UNL     1       5.667  -5.490  10.072  1.00  0.00     0.000 C 
BRANCH   5   6
ATOM      6  C   UNL     1       4.604  -6.237   9.249  1.00  0.00     0.000 C 
BRANCH   6   7
ATOM      7  C   UNL     1       3.364  -5.405   8.865  1.00  0.00     0.006 C 
BRANCH   7   8
ATOM      8  C   UNL     1       2.111  -6.248   8.568  1.00  0.00     0.053 C 
BRANCH   8   9
ATOM      9  C   UNL     1       1.222  -5.610   7.542  1.00  0.00     0.041 C 
ATOM     10  O   UNL     1       0.208  -6.221   7.112  1.00  0.00    -0.550 OA
ATOM     11  O   UNL     1       1.491  -4.325   7.088  1.00  0.00    -0.550 OA
ENDBRANCH   8   9
ENDBRANCH   7   8
ENDBRANCH   6   7
ENDBRANCH   5   6
ENDBRANCH   4   5
ENDBRANCH   3   4
ENDBRANCH   2   3
ENDBRANCH   1   2
BRANCH   1  12
ATOM     12  C   UNL     1       7.770  -5.431   6.166  1.00  0.00     0.000 C 
BRANCH  12  13
ATOM     13  C   UNL     1       6.696  -6.512   6.380  1.00  0.00    -0.000 C 
BRANCH  13  14
ATOM     14  C   UNL     1       6.650  -7.534   5.233  1.00  0.00    -0.000 C 
BRANCH  14  15
ATOM     15  C   UNL     1       6.086  -8.892   5.674  1.00  0.00    -0.000 C 
BRANCH  15  16
ATOM     16  C   UNL     1       5.497  -8.810   7.087  1.00  0.00    -0.000 C 
BRANCH  16  17
ATOM     17  C   UNL     1       4.400  -9.865   7.289  1.00  0.00    -0.000 C 
BRANCH  17  18
ATOM     18  C   UNL     1       3.430  -9.512   8.430  1.00  0.00    -0.000 C 
BRANCH  18  19
ATOM     19  C   UNL     1       3.826 -10.067   9.810  1.00  0.00    -0.003 C 
ATOM     20  C   UNL     1       5.310  -9.883  10.125  1.00  0.00     0.004 C 
ENDBRANCH  18  19
ENDBRANCH  17  18
ENDBRANCH  16  17
ENDBRANCH  15  16
ENDBRANCH  14  15
ENDBRANCH  13  14
ENDBRANCH  12  13
ENDBRANCH   1  12
TORSDOF 16
ENDMDL
MODEL 8
REMARK VINA RESULT:    -2.408     13.483     16.322
REMARK INTER + INTRA:          -6.107
REMARK INTER:                  -4.839
REMARK INTRA:                  -1.268
REMARK UNBOUND:                -1.447
REMARK SMILES CCCCCCCCCCCCCCCCCC(=O)[O-]
REMARK SMILES IDX 10 1 11 2 12 3 13 4 14 5 15 6 16 7 17 8 18 9 19 10 20 11
REMARK SMILES IDX 9 12 8 13 7 14 6 15 5 16 4 17 3 18 2 19 1 20
REMARK H PARENT
REMARK Flexibility Score: inf
ROOT
ATOM      1  C   UNL     1      -1.405  10.085   7.988  1.00  0.00     0.000 C 
ENDROOT
BRANCH   1   2
ATOM      2  C   UNL     1      -2.855   9.875   8.459  1.00  0.00     0.000 C 
BRANCH   2   3
ATOM      3  C   UNL     1      -2.949   8.941   9.677  1.00  0.00     0.000 C 
BRANCH   3   4
ATOM      4  C   UNL     1      -3.621   7.600   9.345  1.00  0.00     0.000 C 
BRANCH   4   5
ATOM      5  C   UNL     1      -3.938   7.505   7.845  1.00  0.00     0.000 C 
BRANCH   5   6
ATOM      6  C   UNL     1      -3.414   6.210   7.201  1.00  0.00     0.000 C 
BRANCH   6   7
ATOM      7  C   UNL     1      -3.086   6.309   5.698  1.00  0.00     0.006 C 
BRANCH   7   8
ATOM      8  C   UNL     1      -2.252   7.546   5.317  1.00  0.00     0.053 C 
BRANCH   8   9
ATOM      9  C   UNL     1      -3.034   8.536   4.508  1.00  0.00     0.041 C 
ATOM     10  O   UNL     1      -3.308   8.296   3.302  1.00  0.00    -0.550 OA
ATOM     11  O   UNL     1      -3.496   9.708   5.095  1.00  0.00    -0.550 OA
ENDBRANCH   8   9
ENDBRANCH   7   8
ENDBRANCH   6   7
ENDBRANCH   5   6
ENDBRANCH   4   5
ENDBRANCH   3   4
ENDBRANCH   2   3
ENDBRANCH   1   2
BRANCH   1  12
ATOM     12  C   UNL     1      -0.412   9.156   8.704  1.00  0.00     0.000 C 
BRANCH  12  13
ATOM     13  C   UNL     1       0.417   9.887   9.776  1.00  0.00    -0.000 C 
BRANCH  13  14
ATOM     14  C   UNL     1       1.907   9.977   9.409  1.00  0.00    -0.000 C 
BRANCH  14  15
ATOM     15  C   UNL     1       2.427   8.701   8.730  1.00  0.00    -0.000 C 
BRANCH  15  16
ATOM     16  C   UNL     1       3.862   8.893   8.224  1.00  0.00    -0.000 C 
BRANCH  16  17
ATOM     17  C   UNL     1       4.882   8.465   9.288  1.00  0.00    -0.000 C 
BRANCH  17  18
ATOM     18  C   UNL     1       6.339   8.591   8.807  1.00  0.00    -0.000 C 
BRANCH  18  19
ATOM     19  C   UNL     1       7.381   8.732   9.930  1.00  0.00    -0.003 C 
ATOM     20  C   UNL     1       8.186  10.029   9.839  1.00  0.00     0.004 C 
ENDBRANCH  18  19
ENDBRANCH  17  18
ENDBRANCH  16  17
ENDBRANCH  15  16
ENDBRANCH  14  15
ENDBRANCH  13  14
ENDBRANCH  12  13
ENDBRANCH   1  12
TORSDOF 16
ENDMDL
MODEL 9
REMARK VINA RESULT:    -2.343      4.108      6.790
REMARK INTER + INTRA:          -5.981
REMARK INTER:                  -3.905
REMARK INTRA:                  -2.076
REMARK UNBOUND:                -1.447
REMARK SMILES CCCCCCCCCCCCCCCCCC(=O)[O-]
REMARK SMILES IDX 10 1 11 2 12 3 13 4 14 5 15 6 16 7 17 8 18 9 19 10 20 11
REMARK SMILES IDX 9 12 8 13 7 14 6 15 5 16 4 17 3 18 2 19 1 20
REMARK H PARENT
REMARK Flexibility Score: inf
ROOT
ATOM      1  C   UNL     1       7.600  -4.706   9.339  1.00  0.00     0.000 C 
ENDROOT
BRANCH   1   2
ATOM      2  C   UNL     1       7.472  -6.022  10.125  1.00  0.00     0.000 C 
BRANCH   2   3
ATOM      3  C   UNL     1       6.132  -6.732   9.873  1.00  0.00     0.000 C 
BRANCH   3   4
ATOM      4  C   UNL     1       5.013  -5.759   9.471  1.00  0.00     0.000 C 
BRANCH   4   5
ATOM      5  C   UNL     1       4.197  -6.320   8.297  1.00  0.00     0.000 C 
BRANCH   5   6
ATOM      6  C   UNL     1       3.394  -5.240   7.552  1.00  0.00     0.000 C 
BRANCH   6   7
ATOM      7  C   UNL     1       1.981  -4.971   8.106  1.00  0.00     0.006 C 
BRANCH   7   8
ATOM      8  C   UNL     1       0.973  -6.101   7.828  1.00  0.00     0.053 C 
BRANCH   8   9
ATOM      9  C   UNL     1      -0.267  -5.607   7.145  1.00  0.00     0.041 C 
ATOM     10  O   UNL     1      -1.236  -6.386   6.946  1.00  0.00    -0.550 OA
ATOM     11  O   UNL     1      -0.370  -4.275   6.762  1.00  0.00    -0.550 OA
ENDBRANCH   8   9
ENDBRANCH   7   8
ENDBRANCH   6   7
ENDBRANCH   5   6
ENDBRANCH   4   5
ENDBRANCH   3   4
ENDBRANCH   2   3
ENDBRANCH   1   2
BRANCH   1  12
ATOM     12  C   UNL     1       8.500  -4.845   8.100  1.00  0.00     0.000 C 
BRANCH  12  13
ATOM     13  C   UNL     1       7.712  -4.753   6.781  1.00  0.00    -0.000 C 
BRANCH  13  14
ATOM     14  C   UNL     1       7.718  -6.076   5.997  1.00  0.00    -0.000 C 
BRANCH  14  15
ATOM     15  C   UNL     1       6.317  -6.694   5.872  1.00  0.00    -0.000 C 
BRANCH  15  16
ATOM     16  C   UNL     1       6.404  -8.199   5.592  1.00  0.00    -0.000 C 
BRANCH  16  17
ATOM     17  C   UNL     1       6.021  -9.013   6.837  1.00  0.00    -0.000 C 
BRANCH  17  18
ATOM     18  C   UNL     1       4.953 -10.083   6.548  1.00  0.00    -0.000 C 
BRANCH  18  19
ATOM     19  C   UNL     1       3.616  -9.876   7.280  1.00  0.00    -0.003 C 
ATOM     20  C   UNL     1       3.757  -9.904   8.802  1.00  0.00     0.004 C 
ENDBRANCH  18  19
ENDBRANCH  17  18
ENDBRANCH  16  17
ENDBRANCH  15  16
ENDBRANCH  14  15
ENDBRANCH  13  14
ENDBRANCH  12  13
ENDBRANCH   1  12
TORSDOF 16
ENDMDL
