MODEL 1
REMARK VINA RESULT:    -8.844      0.000      0.000
REMARK INTER + INTRA:         -13.980
REMARK INTER:                 -11.947
REMARK INTRA:                  -2.034
REMARK UNBOUND:                -2.034
REMARK SMILES CC[C@H](CC[C@H](C)[C@@H]1CC[C@H]2[C@@H]3CC(=O)C4=CC(=O)CC[C@]4(C)[C@H]3CC[C@]21C)C(C)C
REMARK SMILES IDX 4 1 3 2 2 3 1 4 29 5 30 6 31 7 5 8 6 9 7 10 8 11 9 12 27 13
REMARK SMILES IDX 10 14 11 15 26 16 28 17 12 18 25 19 24 20 13 21 22 22 14 23
REMARK SMILES IDX 16 24 21 25 23 26 15 27 17 28 20 29 18 30 19 31
REMARK H PARENT
REMARK Flexibility Score: inf
ROOT
ATOM      1  C   UNL     1     118.987 177.801 128.817  1.00  0.00     0.004 C 
ENDROOT
BRANCH   1   2
ATOM      2  C   UNL     1     118.000 176.609 128.622  1.00  0.00    -0.009 C 
BRANCH   2   3
ATOM      3  C   UNL     1     117.701 176.336 127.118  1.00  0.00     0.000 C 
ATOM      4  C   UNL     1     117.503 174.856 126.780  1.00  0.00     0.004 C 
ENDBRANCH   2   3
BRANCH   2   5
ATOM      5  C   UNL     1     118.455 175.298 129.358  1.00  0.00    -0.014 C 
ATOM      6  C   UNL     1     117.736 175.122 130.710  1.00  0.00     0.007 C 
ATOM      7  C   UNL     1     119.976 175.256 129.601  1.00  0.00     0.007 C 
ENDBRANCH   2   5
ENDBRANCH   1   2
BRANCH   1   8
ATOM      8  C   UNL     1     119.534 178.387 127.501  1.00  0.00     0.004 C 
BRANCH   8   9
ATOM      9  C   UNL     1     121.004 177.980 127.234  1.00  0.00    -0.011 C 
ATOM     10  C   UNL     1     121.997 178.960 127.901  1.00  0.00     0.008 C 
BRANCH   9  11
ATOM     11  C   UNL     1     121.254 177.680 125.714  1.00  0.00    -0.002 C 
ATOM     12  C   UNL     1     120.062 178.033 124.808  1.00  0.00     0.005 C 
ATOM     13  C   UNL     1     121.795 176.279 125.249  1.00  0.00    -0.026 C 
ATOM     14  C   UNL     1     119.963 176.933 123.765  1.00  0.00     0.005 C 
ATOM     15  C   UNL     1     121.301 176.177 123.773  1.00  0.00    -0.001 C 
ATOM     16  C   UNL     1     123.356 176.222 125.349  1.00  0.00     0.007 C 
ATOM     17  C   UNL     1     121.198 175.087 126.039  1.00  0.00     0.012 C 
ATOM     18  C   UNL     1     122.382 176.715 122.782  1.00  0.00     0.004 C 
ATOM     19  C   UNL     1     123.976 175.318 124.281  1.00  0.00     0.005 C 
ATOM     20  C   UNL     1     123.623 175.761 122.824  1.00  0.00     0.003 C 
ATOM     21  C   UNL     1     121.879 176.835 121.333  1.00  0.00     0.085 C 
ATOM     22  C   UNL     1     124.843 176.306 121.986  1.00  0.00    -0.000 C 
ATOM     23  C   UNL     1     122.980 177.214 120.388  1.00  0.00     0.159 C 
ATOM     24  C   UNL     1     124.365 176.720 120.587  1.00  0.00     0.005 C 
ATOM     25  C   UNL     1     125.914 175.176 121.831  1.00  0.00     0.020 C 
ATOM     26  C   UNL     1     125.479 177.545 122.669  1.00  0.00     0.017 C 
ATOM     27  O   UNL     1     122.690 177.902 119.371  1.00  0.00    -0.295 OA
ATOM     28  C   UNL     1     125.209 176.707 119.534  1.00  0.00     0.055 C 
ATOM     29  C   UNL     1     127.074 175.563 120.904  1.00  0.00     0.081 C 
ATOM     30  C   UNL     1     126.577 176.177 119.634  1.00  0.00     0.156 C 
ATOM     31  O   UNL     1     127.349 176.265 118.644  1.00  0.00    -0.295 OA
ENDBRANCH   9  11
ENDBRANCH   8   9
ENDBRANCH   1   8
TORSDOF 6
ENDMDL
MODEL 2
REMARK VINA RESULT:    -8.535      3.951      8.671
REMARK INTER + INTRA:         -13.562
REMARK INTER:                 -12.600
REMARK INTRA:                  -0.963
REMARK UNBOUND:                -2.034
REMARK SMILES CC[C@H](CC[C@H](C)[C@@H]1CC[C@H]2[C@@H]3CC(=O)C4=CC(=O)CC[C@]4(C)[C@H]3CC[C@]21C)C(C)C
REMARK SMILES IDX 4 1 3 2 2 3 1 4 29 5 30 6 31 7 5 8 6 9 7 10 8 11 9 12 27 13
REMARK SMILES IDX 10 14 11 15 26 16 28 17 12 18 25 19 24 20 13 21 22 22 14 23
REMARK SMILES IDX 16 24 21 25 23 26 15 27 17 28 20 29 18 30 19 31
REMARK H PARENT
REMARK Flexibility Score: inf
ROOT
ATOM      1  C   UNL     1     123.187 176.445 125.885  1.00  0.00     0.004 C 
ENDROOT
BRANCH   1   2
ATOM      2  C   UNL     1     123.423 175.780 124.494  1.00  0.00    -0.009 C 
BRANCH   2   3
ATOM      3  C   UNL     1     123.398 176.820 123.336  1.00  0.00     0.000 C 
ATOM      4  C   UNL     1     122.204 176.673 122.389  1.00  0.00     0.004 C 
ENDBRANCH   2   3
BRANCH   2   5
ATOM      5  C   UNL     1     124.722 174.899 124.439  1.00  0.00    -0.014 C 
ATOM      6  C   UNL     1     125.198 174.671 122.990  1.00  0.00     0.007 C 
ATOM      7  C   UNL     1     124.532 173.527 125.114  1.00  0.00     0.007 C 
ENDBRANCH   2   5
ENDBRANCH   1   2
BRANCH   1   8
ATOM      8  C   UNL     1     122.523 177.834 125.814  1.00  0.00     0.004 C 
BRANCH   8   9
ATOM      9  C   UNL     1     121.398 178.010 126.864  1.00  0.00    -0.011 C 
ATOM     10  C   UNL     1     121.973 178.236 128.282  1.00  0.00     0.008 C 
BRANCH   9  11
ATOM     11  C   UNL     1     120.307 176.890 126.737  1.00  0.00    -0.002 C 
ATOM     12  C   UNL     1     119.602 176.865 125.370  1.00  0.00     0.005 C 
ATOM     13  C   UNL     1     119.198 176.718 127.837  1.00  0.00    -0.026 C 
ATOM     14  C   UNL     1     118.135 176.576 125.639  1.00  0.00     0.005 C 
ATOM     15  C   UNL     1     118.035 176.018 127.067  1.00  0.00    -0.001 C 
ATOM     16  C   UNL     1     119.723 175.843 129.025  1.00  0.00     0.007 C 
ATOM     17  C   UNL     1     118.665 178.059 128.399  1.00  0.00     0.012 C 
ATOM     18  C   UNL     1     118.137 174.464 127.191  1.00  0.00     0.004 C 
ATOM     19  C   UNL     1     118.609 175.023 129.681  1.00  0.00     0.005 C 
ATOM     20  C   UNL     1     117.889 174.060 128.684  1.00  0.00     0.003 C 
ATOM     21  C   UNL     1     117.145 173.712 126.286  1.00  0.00     0.085 C 
ATOM     22  C   UNL     1     118.136 172.525 128.951  1.00  0.00    -0.000 C 
ATOM     23  C   UNL     1     117.170 172.234 126.537  1.00  0.00     0.159 C 
ATOM     24  C   UNL     1     117.391 171.690 127.900  1.00  0.00     0.005 C 
ATOM     25  C   UNL     1     117.584 172.149 130.367  1.00  0.00     0.020 C 
ATOM     26  C   UNL     1     119.646 172.182 128.865  1.00  0.00     0.017 C 
ATOM     27  O   UNL     1     116.920 171.456 125.575  1.00  0.00    -0.295 OA
ATOM     28  C   UNL     1     116.988 170.432 128.172  1.00  0.00     0.055 C 
ATOM     29  C   UNL     1     117.644 170.645 130.661  1.00  0.00     0.081 C 
ATOM     30  C   UNL     1     117.117 169.843 129.514  1.00  0.00     0.156 C 
ATOM     31  O   UNL     1     116.801 168.638 129.693  1.00  0.00    -0.295 OA
ENDBRANCH   9  11
ENDBRANCH   8   9
ENDBRANCH   1   8
TORSDOF 6
ENDMDL
MODEL 3
REMARK VINA RESULT:    -8.522      2.138      4.706
REMARK INTER + INTRA:         -13.545
REMARK INTER:                 -11.417
REMARK INTRA:                  -2.128
REMARK UNBOUND:                -2.034
REMARK SMILES CC[C@H](CC[C@H](C)[C@@H]1CC[C@H]2[C@@H]3CC(=O)C4=CC(=O)CC[C@]4(C)[C@H]3CC[C@]21C)C(C)C
REMARK SMILES IDX 4 1 3 2 2 3 1 4 29 5 30 6 31 7 5 8 6 9 7 10 8 11 9 12 27 13
REMARK SMILES IDX 10 14 11 15 26 16 28 17 12 18 25 19 24 20 13 21 22 22 14 23
REMARK SMILES IDX 16 24 21 25 23 26 15 27 17 28 20 29 18 30 19 31
REMARK H PARENT
REMARK Flexibility Score: inf
ROOT
ATOM      1  C   UNL     1     117.424 173.591 129.280  1.00  0.00     0.004 C 
ENDROOT
BRANCH   1   2
ATOM      2  C   UNL     1     118.796 172.900 129.012  1.00  0.00    -0.009 C 
BRANCH   2   3
ATOM      3  C   UNL     1     118.867 171.475 129.635  1.00  0.00     0.000 C 
ATOM      4  C   UNL     1     117.549 170.698 129.569  1.00  0.00     0.004 C 
ENDBRANCH   2   3
BRANCH   2   5
ATOM      5  C   UNL     1     119.194 172.876 127.493  1.00  0.00    -0.014 C 
ATOM      6  C   UNL     1     120.423 173.763 127.208  1.00  0.00     0.007 C 
ATOM      7  C   UNL     1     118.042 173.325 126.574  1.00  0.00     0.007 C 
ENDBRANCH   2   5
ENDBRANCH   1   2
BRANCH   1   8
ATOM      8  C   UNL     1     117.532 174.939 130.020  1.00  0.00     0.004 C 
BRANCH   8   9
ATOM      9  C   UNL     1     117.365 176.153 129.074  1.00  0.00    -0.011 C 
ATOM     10  C   UNL     1     116.147 175.981 128.136  1.00  0.00     0.008 C 
BRANCH   9  11
ATOM     11  C   UNL     1     118.718 176.534 128.377  1.00  0.00    -0.002 C 
ATOM     12  C   UNL     1     119.860 176.835 129.364  1.00  0.00     0.005 C 
ATOM     13  C   UNL     1     118.765 177.638 127.259  1.00  0.00    -0.026 C 
ATOM     14  C   UNL     1     120.632 178.014 128.795  1.00  0.00     0.005 C 
ATOM     15  C   UNL     1     120.241 178.142 127.315  1.00  0.00    -0.001 C 
ATOM     16  C   UNL     1     118.405 177.032 125.861  1.00  0.00     0.007 C 
ATOM     17  C   UNL     1     117.834 178.845 127.536  1.00  0.00     0.012 C 
ATOM     18  C   UNL     1     121.140 177.351 126.311  1.00  0.00     0.004 C 
ATOM     19  C   UNL     1     119.131 177.741 124.715  1.00  0.00     0.005 C 
ATOM     20  C   UNL     1     120.686 177.693 124.851  1.00  0.00     0.003 C 
ATOM     21  C   UNL     1     122.641 177.655 126.464  1.00  0.00     0.085 C 
ATOM     22  C   UNL     1     121.419 176.817 123.762  1.00  0.00    -0.000 C 
ATOM     23  C   UNL     1     123.457 176.994 125.395  1.00  0.00     0.159 C 
ATOM     24  C   UNL     1     122.933 176.840 124.014  1.00  0.00     0.005 C 
ATOM     25  C   UNL     1     121.143 177.416 122.343  1.00  0.00     0.020 C 
ATOM     26  C   UNL     1     120.937 175.344 123.817  1.00  0.00     0.017 C 
ATOM     27  O   UNL     1     124.636 176.637 125.670  1.00  0.00    -0.295 OA
ATOM     28  C   UNL     1     123.807 176.651 123.004  1.00  0.00     0.055 C 
ATOM     29  C   UNL     1     121.934 176.720 121.227  1.00  0.00     0.081 C 
ATOM     30  C   UNL     1     123.372 176.551 121.603  1.00  0.00     0.156 C 
ATOM     31  O   UNL     1     124.220 176.294 120.709  1.00  0.00    -0.295 OA
ENDBRANCH   9  11
ENDBRANCH   8   9
ENDBRANCH   1   8
TORSDOF 6
ENDMDL
MODEL 4
REMARK VINA RESULT:    -7.863      3.894      8.857
REMARK INTER + INTRA:         -12.654
REMARK INTER:                 -12.528
REMARK INTRA:                  -0.127
REMARK UNBOUND:                -2.034
REMARK SMILES CC[C@H](CC[C@H](C)[C@@H]1CC[C@H]2[C@@H]3CC(=O)C4=CC(=O)CC[C@]4(C)[C@H]3CC[C@]21C)C(C)C
REMARK SMILES IDX 4 1 3 2 2 3 1 4 29 5 30 6 31 7 5 8 6 9 7 10 8 11 9 12 27 13
REMARK SMILES IDX 10 14 11 15 26 16 28 17 12 18 25 19 24 20 13 21 22 22 14 23
REMARK SMILES IDX 16 24 21 25 23 26 15 27 17 28 20 29 18 30 19 31
REMARK H PARENT
REMARK Flexibility Score: inf
ROOT
ATOM      1  C   UNL     1     121.778 177.264 121.156  1.00  0.00     0.004 C 
ENDROOT
BRANCH   1   2
ATOM      2  C   UNL     1     123.301 177.092 120.871  1.00  0.00    -0.009 C 
BRANCH   2   3
ATOM      3  C   UNL     1     123.835 178.158 119.870  1.00  0.00     0.000 C 
ATOM      4  C   UNL     1     123.835 177.699 118.410  1.00  0.00     0.004 C 
ENDBRANCH   2   3
BRANCH   2   5
ATOM      5  C   UNL     1     124.177 177.048 122.175  1.00  0.00    -0.014 C 
ATOM      6  C   UNL     1     125.398 177.985 122.077  1.00  0.00     0.007 C 
ATOM      7  C   UNL     1     124.673 175.627 122.504  1.00  0.00     0.007 C 
ENDBRANCH   2   5
ENDBRANCH   1   2
BRANCH   1   8
ATOM      8  C   UNL     1     121.438 177.498 122.642  1.00  0.00     0.004 C 
BRANCH   8   9
ATOM      9  C   UNL     1     119.919 177.676 122.884  1.00  0.00    -0.011 C 
ATOM     10  C   UNL     1     119.409 179.029 122.337  1.00  0.00     0.008 C 
BRANCH   9  11
ATOM     11  C   UNL     1     119.527 177.344 124.367  1.00  0.00    -0.002 C 
ATOM     12  C   UNL     1     118.940 178.541 125.134  1.00  0.00     0.005 C 
ATOM     13  C   UNL     1     120.543 176.627 125.327  1.00  0.00    -0.026 C 
ATOM     14  C   UNL     1     119.503 178.477 126.544  1.00  0.00     0.005 C 
ATOM     15  C   UNL     1     120.060 177.059 126.747  1.00  0.00    -0.001 C 
ATOM     16  C   UNL     1     120.488 175.073 125.138  1.00  0.00     0.007 C 
ATOM     17  C   UNL     1     122.007 177.101 125.152  1.00  0.00     0.012 C 
ATOM     18  C   UNL     1     119.054 176.019 127.337  1.00  0.00     0.004 C 
ATOM     19  C   UNL     1     120.794 174.318 126.434  1.00  0.00     0.005 C 
ATOM     20  C   UNL     1     119.815 174.675 127.598  1.00  0.00     0.003 C 
ATOM     21  C   UNL     1     118.384 176.488 128.640  1.00  0.00     0.085 C 
ATOM     22  C   UNL     1     118.854 173.504 128.036  1.00  0.00    -0.000 C 
ATOM     23  C   UNL     1     117.540 175.412 129.253  1.00  0.00     0.159 C 
ATOM     24  C   UNL     1     117.937 173.984 129.171  1.00  0.00     0.005 C 
ATOM     25  C   UNL     1     119.707 172.301 128.562  1.00  0.00     0.020 C 
ATOM     26  C   UNL     1     117.964 173.042 126.853  1.00  0.00     0.017 C 
ATOM     27  O   UNL     1     116.518 175.750 129.913  1.00  0.00    -0.295 OA
ATOM     28  C   UNL     1     117.425 173.113 130.064  1.00  0.00     0.055 C 
ATOM     29  C   UNL     1     118.857 171.167 129.151  1.00  0.00     0.081 C 
ATOM     30  C   UNL     1     117.815 171.695 130.086  1.00  0.00     0.156 C 
ATOM     31  O   UNL     1     117.246 170.909 130.887  1.00  0.00    -0.295 OA
ENDBRANCH   9  11
ENDBRANCH   8   9
ENDBRANCH   1   8
TORSDOF 6
ENDMDL
MODEL 5
REMARK VINA RESULT:    -7.797      8.521     11.695
REMARK INTER + INTRA:         -12.565
REMARK INTER:                 -10.938
REMARK INTRA:                  -1.627
REMARK UNBOUND:                -2.034
REMARK SMILES CC[C@H](CC[C@H](C)[C@@H]1CC[C@H]2[C@@H]3CC(=O)C4=CC(=O)CC[C@]4(C)[C@H]3CC[C@]21C)C(C)C
REMARK SMILES IDX 4 1 3 2 2 3 1 4 29 5 30 6 31 7 5 8 6 9 7 10 8 11 9 12 27 13
REMARK SMILES IDX 10 14 11 15 26 16 28 17 12 18 25 19 24 20 13 21 22 22 14 23
REMARK SMILES IDX 16 24 21 25 23 26 15 27 17 28 20 29 18 30 19 31
REMARK H PARENT
REMARK Flexibility Score: inf
ROOT
ATOM      1  C   UNL     1     125.616 173.911 123.929  1.00  0.00     0.004 C 
ENDROOT
BRANCH   1   2
ATOM      2  C   UNL     1     125.919 173.361 122.502  1.00  0.00    -0.009 C 
BRANCH   2   3
ATOM      3  C   UNL     1     125.377 174.299 121.384  1.00  0.00     0.000 C 
ATOM      4  C   UNL     1     124.473 175.423 121.896  1.00  0.00     0.004 C 
ENDBRANCH   2   3
BRANCH   2   5
ATOM      5  C   UNL     1     127.437 173.024 122.275  1.00  0.00    -0.014 C 
ATOM      6  C   UNL     1     127.995 173.717 121.015  1.00  0.00     0.007 C 
ATOM      7  C   UNL     1     127.693 171.509 122.156  1.00  0.00     0.007 C 
ENDBRANCH   2   5
ENDBRANCH   1   2
BRANCH   1   8
ATOM      8  C   UNL     1     125.840 172.887 125.060  1.00  0.00     0.004 C 
BRANCH   8   9
ATOM      9  C   UNL     1     124.733 171.806 125.110  1.00  0.00    -0.011 C 
ATOM     10  C   UNL     1     123.470 172.316 125.843  1.00  0.00     0.008 C 
BRANCH   9  11
ATOM     11  C   UNL     1     125.296 170.424 125.597  1.00  0.00    -0.002 C 
ATOM     12  C   UNL     1     126.831 170.378 125.690  1.00  0.00     0.005 C 
ATOM     13  C   UNL     1     124.829 169.083 124.923  1.00  0.00    -0.026 C 
ATOM     14  C   UNL     1     127.260 169.009 125.191  1.00  0.00     0.005 C 
ATOM     15  C   UNL     1     126.015 168.109 125.206  1.00  0.00    -0.001 C 
ATOM     16  C   UNL     1     123.491 168.576 125.558  1.00  0.00     0.007 C 
ATOM     17  C   UNL     1     124.648 169.186 123.388  1.00  0.00     0.012 C 
ATOM     18  C   UNL     1     125.780 167.309 126.528  1.00  0.00     0.004 C 
ATOM     19  C   UNL     1     123.388 167.048 125.556  1.00  0.00     0.005 C 
ATOM     20  C   UNL     1     124.555 166.354 126.327  1.00  0.00     0.003 C 
ATOM     21  C   UNL     1     127.003 166.487 126.971  1.00  0.00     0.085 C 
ATOM     22  C   UNL     1     124.126 165.622 127.657  1.00  0.00    -0.000 C 
ATOM     23  C   UNL     1     126.695 165.623 128.157  1.00  0.00     0.159 C 
ATOM     24  C   UNL     1     125.359 164.997 128.325  1.00  0.00     0.005 C 
ATOM     25  C   UNL     1     123.112 164.479 127.318  1.00  0.00     0.020 C 
ATOM     26  C   UNL     1     123.483 166.619 128.657  1.00  0.00     0.017 C 
ATOM     27  O   UNL     1     127.622 165.372 128.976  1.00  0.00    -0.295 OA
ATOM     28  C   UNL     1     125.242 163.918 129.125  1.00  0.00     0.055 C 
ATOM     29  C   UNL     1     122.748 163.612 128.530  1.00  0.00     0.081 C 
ATOM     30  C   UNL     1     123.967 163.206 129.296  1.00  0.00     0.156 C 
ATOM     31  O   UNL     1     123.894 162.255 130.118  1.00  0.00    -0.295 OA
ENDBRANCH   9  11
ENDBRANCH   8   9
ENDBRANCH   1   8
TORSDOF 6
ENDMDL
MODEL 6
REMARK VINA RESULT:    -7.780      1.905      3.382
REMARK INTER + INTRA:         -12.542
REMARK INTER:                 -10.761
REMARK INTRA:                  -1.782
REMARK UNBOUND:                -2.034
REMARK SMILES CC[C@H](CC[C@H](C)[C@@H]1CC[C@H]2[C@@H]3CC(=O)C4=CC(=O)CC[C@]4(C)[C@H]3CC[C@]21C)C(C)C
REMARK SMILES IDX 4 1 3 2 2 3 1 4 29 5 30 6 31 7 5 8 6 9 7 10 8 11 9 12 27 13
REMARK SMILES IDX 10 14 11 15 26 16 28 17 12 18 25 19 24 20 13 21 22 22 14 23
REMARK SMILES IDX 16 24 21 25 23 26 15 27 17 28 20 29 18 30 19 31
REMARK H PARENT
REMARK Flexibility Score: inf
ROOT
ATOM      1  C   UNL     1     118.789 175.922 126.791  1.00  0.00     0.004 C 
ENDROOT
BRANCH   1   2
ATOM      2  C   UNL     1     119.441 177.202 127.397  1.00  0.00    -0.009 C 
BRANCH   2   3
ATOM      3  C   UNL     1     118.377 178.256 127.824  1.00  0.00     0.000 C 
ATOM      4  C   UNL     1     117.745 179.014 126.654  1.00  0.00     0.004 C 
ENDBRANCH   2   3
BRANCH   2   5
ATOM      5  C   UNL     1     120.438 176.895 128.572  1.00  0.00    -0.014 C 
ATOM      6  C   UNL     1     119.698 176.604 129.892  1.00  0.00     0.007 C 
ATOM      7  C   UNL     1     121.436 178.044 128.812  1.00  0.00     0.007 C 
ENDBRANCH   2   5
ENDBRANCH   1   2
BRANCH   1   8
ATOM      8  C   UNL     1     119.244 175.606 125.351  1.00  0.00     0.004 C 
BRANCH   8   9
ATOM      9  C   UNL     1     120.313 176.599 124.834  1.00  0.00    -0.011 C 
ATOM     10  C   UNL     1     119.740 177.536 123.745  1.00  0.00     0.008 C 
BRANCH   9  11
ATOM     11  C   UNL     1     121.654 175.869 124.473  1.00  0.00    -0.002 C 
ATOM     12  C   UNL     1     121.863 174.547 125.232  1.00  0.00     0.005 C 
ATOM     13  C   UNL     1     123.023 176.642 124.497  1.00  0.00    -0.026 C 
ATOM     14  C   UNL     1     123.335 174.481 125.601  1.00  0.00     0.005 C 
ATOM     15  C   UNL     1     124.070 175.508 124.725  1.00  0.00    -0.001 C 
ATOM     16  C   UNL     1     123.261 177.396 123.146  1.00  0.00     0.007 C 
ATOM     17  C   UNL     1     123.147 177.653 125.664  1.00  0.00     0.012 C 
ATOM     18  C   UNL     1     124.613 174.965 123.364  1.00  0.00     0.004 C 
ATOM     19  C   UNL     1     124.746 177.493 122.787  1.00  0.00     0.005 C 
ATOM     20  C   UNL     1     125.439 176.098 122.664  1.00  0.00     0.003 C 
ATOM     21  C   UNL     1     125.491 173.710 123.512  1.00  0.00     0.085 C 
ATOM     22  C   UNL     1     125.891 175.710 121.203  1.00  0.00    -0.000 C 
ATOM     23  C   UNL     1     126.110 173.305 122.209  1.00  0.00     0.159 C 
ATOM     24  C   UNL     1     126.540 174.319 121.215  1.00  0.00     0.005 C 
ATOM     25  C   UNL     1     126.948 176.747 120.695  1.00  0.00     0.020 C 
ATOM     26  C   UNL     1     124.679 175.675 120.237  1.00  0.00     0.017 C 
ATOM     27  O   UNL     1     126.333 172.079 122.003  1.00  0.00    -0.295 OA
ATOM     28  C   UNL     1     127.455 173.973 120.286  1.00  0.00     0.055 C 
ATOM     29  C   UNL     1     127.560 176.373 119.338  1.00  0.00     0.081 C 
ATOM     30  C   UNL     1     127.977 174.937 119.305  1.00  0.00     0.156 C 
ATOM     31  O   UNL     1     128.768 174.542 118.409  1.00  0.00    -0.295 OA
ENDBRANCH   9  11
ENDBRANCH   8   9
ENDBRANCH   1   8
TORSDOF 6
ENDMDL
MODEL 7
REMARK VINA RESULT:    -7.767      3.558      9.051
REMARK INTER + INTRA:         -12.525
REMARK INTER:                 -11.599
REMARK INTRA:                  -0.926
REMARK UNBOUND:                -2.034
REMARK SMILES CC[C@H](CC[C@H](C)[C@@H]1CC[C@H]2[C@@H]3CC(=O)C4=CC(=O)CC[C@]4(C)[C@H]3CC[C@]21C)C(C)C
REMARK SMILES IDX 4 1 3 2 2 3 1 4 29 5 30 6 31 7 5 8 6 9 7 10 8 11 9 12 27 13
REMARK SMILES IDX 10 14 11 15 26 16 28 17 12 18 25 19 24 20 13 21 22 22 14 23
REMARK SMILES IDX 16 24 21 25 23 26 15 27 17 28 20 29 18 30 19 31
REMARK H PARENT
REMARK Flexibility Score: inf
ROOT
ATOM      1  C   UNL     1     122.963 176.516 119.621  1.00  0.00     0.004 C 
ENDROOT
BRANCH   1   2
ATOM      2  C   UNL     1     123.740 177.597 118.810  1.00  0.00    -0.009 C 
BRANCH   2   3
ATOM      3  C   UNL     1     125.244 177.661 119.207  1.00  0.00     0.000 C 
ATOM      4  C   UNL     1     126.006 176.353 118.980  1.00  0.00     0.004 C 
ENDBRANCH   2   3
BRANCH   2   5
ATOM      5  C   UNL     1     123.569 177.449 117.255  1.00  0.00    -0.014 C 
ATOM      6  C   UNL     1     123.498 178.821 116.553  1.00  0.00     0.007 C 
ATOM      7  C   UNL     1     122.316 176.638 116.874  1.00  0.00     0.007 C 
ENDBRANCH   2   5
ENDBRANCH   1   2
BRANCH   1   8
ATOM      8  C   UNL     1     121.997 177.093 120.674  1.00  0.00     0.004 C 
BRANCH   8   9
ATOM      9  C   UNL     1     122.547 176.973 122.116  1.00  0.00    -0.011 C 
ATOM     10  C   UNL     1     123.703 175.949 122.202  1.00  0.00     0.008 C 
BRANCH   9  11
ATOM     11  C   UNL     1     121.392 176.792 123.163  1.00  0.00    -0.002 C 
ATOM     12  C   UNL     1     120.230 177.783 122.981  1.00  0.00     0.005 C 
ATOM     13  C   UNL     1     121.705 176.717 124.702  1.00  0.00    -0.026 C 
ATOM     14  C   UNL     1     119.789 178.202 124.373  1.00  0.00     0.005 C 
ATOM     15  C   UNL     1     120.368 177.179 125.362  1.00  0.00    -0.001 C 
ATOM     16  C   UNL     1     122.093 175.260 125.122  1.00  0.00     0.007 C 
ATOM     17  C   UNL     1     122.825 177.685 125.158  1.00  0.00     0.012 C 
ATOM     18  C   UNL     1     119.449 175.956 125.679  1.00  0.00     0.004 C 
ATOM     19  C   UNL     1     121.668 174.935 126.557  1.00  0.00     0.005 C 
ATOM     20  C   UNL     1     120.131 175.087 126.790  1.00  0.00     0.003 C 
ATOM     21  C   UNL     1     118.036 176.355 126.137  1.00  0.00     0.085 C 
ATOM     22  C   UNL     1     119.366 173.735 127.065  1.00  0.00    -0.000 C 
ATOM     23  C   UNL     1     117.232 175.166 126.570  1.00  0.00     0.159 C 
ATOM     24  C   UNL     1     117.870 174.018 127.262  1.00  0.00     0.005 C 
ATOM     25  C   UNL     1     119.924 173.080 128.372  1.00  0.00     0.020 C 
ATOM     26  C   UNL     1     119.525 172.754 125.874  1.00  0.00     0.017 C 
ATOM     27  O   UNL     1     115.981 175.192 126.405  1.00  0.00    -0.295 OA
ATOM     28  C   UNL     1     117.101 173.195 128.004  1.00  0.00     0.055 C 
ATOM     29  C   UNL     1     119.142 171.833 128.806  1.00  0.00     0.081 C 
ATOM     30  C   UNL     1     117.666 172.073 128.767  1.00  0.00     0.156 C 
ATOM     31  O   UNL     1     116.894 171.288 129.377  1.00  0.00    -0.295 OA
ENDBRANCH   9  11
ENDBRANCH   8   9
ENDBRANCH   1   8
TORSDOF 6
ENDMDL
MODEL 8
REMARK VINA RESULT:    -7.438      8.297      9.974
REMARK INTER + INTRA:         -12.081
REMARK INTER:                 -10.516
REMARK INTRA:                  -1.565
REMARK UNBOUND:                -2.034
REMARK SMILES CC[C@H](CC[C@H](C)[C@@H]1CC[C@H]2[C@@H]3CC(=O)C4=CC(=O)CC[C@]4(C)[C@H]3CC[C@]21C)C(C)C
REMARK SMILES IDX 4 1 3 2 2 3 1 4 29 5 30 6 31 7 5 8 6 9 7 10 8 11 9 12 27 13
REMARK SMILES IDX 10 14 11 15 26 16 28 17 12 18 25 19 24 20 13 21 22 22 14 23
REMARK SMILES IDX 16 24 21 25 23 26 15 27 17 28 20 29 18 30 19 31
REMARK H PARENT
REMARK Flexibility Score: inf
ROOT
ATOM      1  C   UNL     1     125.104 164.101 129.127  1.00  0.00     0.004 C 
ENDROOT
BRANCH   1   2
ATOM      2  C   UNL     1     123.628 163.996 128.635  1.00  0.00    -0.009 C 
BRANCH   2   3
ATOM      3  C   UNL     1     123.347 162.649 127.904  1.00  0.00     0.000 C 
ATOM      4  C   UNL     1     124.601 161.961 127.359  1.00  0.00     0.004 C 
ENDBRANCH   2   3
BRANCH   2   5
ATOM      5  C   UNL     1     122.574 164.256 129.770  1.00  0.00    -0.014 C 
ATOM      6  C   UNL     1     122.366 165.763 130.024  1.00  0.00     0.007 C 
ATOM      7  C   UNL     1     122.962 163.583 131.100  1.00  0.00     0.007 C 
ENDBRANCH   2   5
ENDBRANCH   1   2
BRANCH   1   8
ATOM      8  C   UNL     1     125.895 165.267 128.501  1.00  0.00     0.004 C 
BRANCH   8   9
ATOM      9  C   UNL     1     125.664 165.392 126.975  1.00  0.00    -0.011 C 
ATOM     10  C   UNL     1     126.844 164.800 126.170  1.00  0.00     0.008 C 
BRANCH   9  11
ATOM     11  C   UNL     1     125.219 166.842 126.574  1.00  0.00    -0.002 C 
ATOM     12  C   UNL     1     124.236 167.485 127.567  1.00  0.00     0.005 C 
ATOM     13  C   UNL     1     124.689 167.150 125.127  1.00  0.00    -0.026 C 
ATOM     14  C   UNL     1     123.213 168.247 126.741  1.00  0.00     0.005 C 
ATOM     15  C   UNL     1     123.803 168.418 125.332  1.00  0.00    -0.001 C 
ATOM     16  C   UNL     1     125.876 167.418 124.142  1.00  0.00     0.007 C 
ATOM     17  C   UNL     1     123.795 166.029 124.539  1.00  0.00     0.012 C 
ATOM     18  C   UNL     1     124.632 169.722 125.104  1.00  0.00     0.004 C 
ATOM     19  C   UNL     1     125.506 168.413 123.040  1.00  0.00     0.005 C 
ATOM     20  C   UNL     1     125.046 169.799 123.595  1.00  0.00     0.003 C 
ATOM     21  C   UNL     1     123.875 171.004 125.493  1.00  0.00     0.085 C 
ATOM     22  C   UNL     1     126.030 170.994 123.291  1.00  0.00    -0.000 C 
ATOM     23  C   UNL     1     124.641 172.239 125.126  1.00  0.00     0.159 C 
ATOM     24  C   UNL     1     125.475 172.289 123.899  1.00  0.00     0.005 C 
ATOM     25  C   UNL     1     126.153 171.184 121.743  1.00  0.00     0.020 C 
ATOM     26  C   UNL     1     127.431 170.729 123.903  1.00  0.00     0.017 C 
ATOM     27  O   UNL     1     124.503 173.269 125.843  1.00  0.00    -0.295 OA
ATOM     28  C   UNL     1     125.790 173.491 123.374  1.00  0.00     0.055 C 
ATOM     29  C   UNL     1     126.975 172.418 121.347  1.00  0.00     0.081 C 
ATOM     30  C   UNL     1     126.559 173.624 122.129  1.00  0.00     0.156 C 
ATOM     31  O   UNL     1     126.895 174.769 121.727  1.00  0.00    -0.295 OA
ENDBRANCH   9  11
ENDBRANCH   8   9
ENDBRANCH   1   8
TORSDOF 6
ENDMDL
MODEL 9
REMARK VINA RESULT:    -7.338      8.375     11.153
REMARK INTER + INTRA:         -11.945
REMARK INTER:                 -10.667
REMARK INTRA:                  -1.278
REMARK UNBOUND:                -2.034
REMARK SMILES CC[C@H](CC[C@H](C)[C@@H]1CC[C@H]2[C@@H]3CC(=O)C4=CC(=O)CC[C@]4(C)[C@H]3CC[C@]21C)C(C)C
REMARK SMILES IDX 4 1 3 2 2 3 1 4 29 5 30 6 31 7 5 8 6 9 7 10 8 11 9 12 27 13
REMARK SMILES IDX 10 14 11 15 26 16 28 17 12 18 25 19 24 20 13 21 22 22 14 23
REMARK SMILES IDX 16 24 21 25 23 26 15 27 17 28 20 29 18 30 19 31
REMARK H PARENT
REMARK Flexibility Score: inf
ROOT
ATOM      1  C   UNL     1     125.351 174.343 125.043  1.00  0.00     0.004 C 
ENDROOT
BRANCH   1   2
ATOM      2  C   UNL     1     125.199 175.282 123.808  1.00  0.00    -0.009 C 
BRANCH   2   3
ATOM      3  C   UNL     1     125.021 174.485 122.482  1.00  0.00     0.000 C 
ATOM      4  C   UNL     1     126.148 174.699 121.469  1.00  0.00     0.004 C 
ENDBRANCH   2   3
BRANCH   2   5
ATOM      5  C   UNL     1     124.066 176.357 123.980  1.00  0.00    -0.014 C 
ATOM      6  C   UNL     1     123.667 176.537 125.458  1.00  0.00     0.007 C 
ATOM      7  C   UNL     1     122.802 176.016 123.169  1.00  0.00     0.007 C 
ENDBRANCH   2   5
ENDBRANCH   1   2
BRANCH   1   8
ATOM      8  C   UNL     1     125.747 172.896 124.688  1.00  0.00     0.004 C 
BRANCH   8   9
ATOM      9  C   UNL     1     124.622 171.878 124.997  1.00  0.00    -0.011 C 
ATOM     10  C   UNL     1     123.508 172.507 125.866  1.00  0.00     0.008 C 
BRANCH   9  11
ATOM     11  C   UNL     1     125.201 170.512 125.507  1.00  0.00    -0.002 C 
ATOM     12  C   UNL     1     126.735 170.494 125.624  1.00  0.00     0.005 C 
ATOM     13  C   UNL     1     124.768 169.156 124.842  1.00  0.00    -0.026 C 
ATOM     14  C   UNL     1     127.195 169.128 125.147  1.00  0.00     0.005 C 
ATOM     15  C   UNL     1     125.966 168.206 125.154  1.00  0.00    -0.001 C 
ATOM     16  C   UNL     1     123.429 168.632 125.463  1.00  0.00     0.007 C 
ATOM     17  C   UNL     1     124.609 169.239 123.304  1.00  0.00     0.012 C 
ATOM     18  C   UNL     1     125.725 167.417 126.482  1.00  0.00     0.004 C 
ATOM     19  C   UNL     1     123.352 167.104 125.477  1.00  0.00     0.005 C 
ATOM     20  C   UNL     1     124.520 166.439 126.274  1.00  0.00     0.003 C 
ATOM     21  C   UNL     1     126.954 166.621 126.953  1.00  0.00     0.085 C 
ATOM     22  C   UNL     1     124.083 165.715 127.606  1.00  0.00    -0.000 C 
ATOM     23  C   UNL     1     126.643 165.766 128.144  1.00  0.00     0.159 C 
ATOM     24  C   UNL     1     125.316 165.119 128.299  1.00  0.00     0.005 C 
ATOM     25  C   UNL     1     123.094 164.551 127.264  1.00  0.00     0.020 C 
ATOM     26  C   UNL     1     123.407 166.711 128.584  1.00  0.00     0.017 C 
ATOM     27  O   UNL     1     127.562 165.540 128.980  1.00  0.00    -0.295 OA
ATOM     28  C   UNL     1     125.205 164.047 129.110  1.00  0.00     0.055 C 
ATOM     29  C   UNL     1     122.726 163.691 128.481  1.00  0.00     0.081 C 
ATOM     30  C   UNL     1     123.940 163.314 129.270  1.00  0.00     0.156 C 
ATOM     31  O   UNL     1     123.871 162.372 130.102  1.00  0.00    -0.295 OA
ENDBRANCH   9  11
ENDBRANCH   8   9
ENDBRANCH   1   8
TORSDOF 6
ENDMDL
