MODEL 1
REMARK VINA RESULT:    -6.351      0.000      0.000
REMARK INTER + INTRA:          -7.888
REMARK INTER:                  -8.022
REMARK INTRA:                   0.134
REMARK UNBOUND:                 0.134
REMARK SMILES O=C(C=Cc1ccc(O)cc1)c1ccc(O)cc1O
REMARK SMILES IDX 4 1 3 2 5 3 6 4 7 5 8 6 11 7 10 8 9 9 2 11 1 12 12 13 18 14
REMARK SMILES IDX 13 15 17 16 14 17 15 18 19 19 16 21
REMARK H PARENT 9 10 19 20 16 22
REMARK Flexibility Score: inf
ROOT
ATOM      1  C   UNL     1      31.910 -94.245  38.108  1.00  0.00     0.012 C 
ATOM      2  C   UNL     1      32.001 -92.994  37.627  1.00  0.00     0.053 C 
ENDROOT
BRANCH   1   3
ATOM      3  C   UNL     1      30.654 -94.953  38.421  1.00  0.00    -0.025 A 
ATOM      4  C   UNL     1      30.374 -95.307  39.748  1.00  0.00     0.012 A 
ATOM      5  C   UNL     1      29.213 -96.023  40.058  1.00  0.00     0.047 A 
ATOM      6  C   UNL     1      28.335 -96.412  39.042  1.00  0.00     0.115 A 
ATOM      7  C   UNL     1      29.784 -95.372  37.399  1.00  0.00     0.012 A 
ATOM      8  C   UNL     1      28.624 -96.088  37.711  1.00  0.00     0.047 A 
BRANCH   6   9
ATOM      9  O   UNL     1      27.182 -97.125  39.365  1.00  0.00    -0.508 OA
ATOM     10  H   UNL     1      26.305 -96.959  38.886  1.00  0.00     0.293 HD
ENDBRANCH   6   9
ENDBRANCH   1   3
BRANCH   2  11
ATOM     11  C   UNL     1      30.876 -92.036  37.487  1.00  0.00     0.189 C 
ATOM     12  O   UNL     1      29.682 -92.438  37.502  1.00  0.00    -0.289 OA
BRANCH  11  13
ATOM     13  C   UNL     1      31.133 -90.589  37.333  1.00  0.00     0.064 A 
ATOM     14  C   UNL     1      30.540 -89.632  38.185  1.00  0.00     0.130 A 
ATOM     15  C   UNL     1      31.967 -90.154  36.289  1.00  0.00     0.020 A 
ATOM     16  C   UNL     1      30.825 -88.270  38.009  1.00  0.00     0.093 A 
ATOM     17  C   UNL     1      32.237 -88.795  36.116  1.00  0.00     0.047 A 
ATOM     18  C   UNL     1      31.670 -87.850  36.979  1.00  0.00     0.119 A 
BRANCH  14  19
ATOM     19  O   UNL     1      29.653 -90.029  39.185  1.00  0.00    -0.507 OA
ATOM     20  H   UNL     1      28.979 -90.771  39.032  1.00  0.00     0.293 HD
ENDBRANCH  14  19
BRANCH  18  21
ATOM     21  O   UNL     1      31.937 -86.492  36.819  1.00  0.00    -0.508 OA
ATOM     22  H   UNL     1      32.864 -86.112  36.979  1.00  0.00     0.293 HD
ENDBRANCH  18  21
ENDBRANCH  11  13
ENDBRANCH   2  11
TORSDOF 6
ENDMDL
MODEL 2
REMARK VINA RESULT:    -6.294     15.343     16.397
REMARK INTER + INTRA:          -7.816
REMARK INTER:                  -6.731
REMARK INTRA:                  -1.084
REMARK UNBOUND:                 0.134
REMARK SMILES O=C(C=Cc1ccc(O)cc1)c1ccc(O)cc1O
REMARK SMILES IDX 4 1 3 2 5 3 6 4 7 5 8 6 11 7 10 8 9 9 2 11 1 12 12 13 18 14
REMARK SMILES IDX 13 15 17 16 14 17 15 18 19 19 16 21
REMARK H PARENT 9 10 19 20 16 22
REMARK Flexibility Score: inf
ROOT
ATOM      1  C   UNL     1      38.265 -77.169  39.867  1.00  0.00     0.012 C 
ATOM      2  C   UNL     1      37.299 -76.888  38.978  1.00  0.00     0.053 C 
ENDROOT
BRANCH   1   3
ATOM      3  C   UNL     1      39.036 -78.426  39.926  1.00  0.00    -0.025 A 
ATOM      4  C   UNL     1      38.647 -79.432  40.823  1.00  0.00     0.012 A 
ATOM      5  C   UNL     1      39.395 -80.609  40.930  1.00  0.00     0.047 A 
ATOM      6  C   UNL     1      40.549 -80.782  40.160  1.00  0.00     0.115 A 
ATOM      7  C   UNL     1      40.214 -78.591  39.176  1.00  0.00     0.012 A 
ATOM      8  C   UNL     1      40.959 -79.769  39.285  1.00  0.00     0.047 A 
BRANCH   6   9
ATOM      9  O   UNL     1      41.283 -81.960  40.276  1.00  0.00    -0.508 OA
ATOM     10  H   UNL     1      41.034 -82.676  40.948  1.00  0.00     0.293 HD
ENDBRANCH   6   9
ENDBRANCH   1   3
BRANCH   2  11
ATOM     11  C   UNL     1      36.710 -77.844  38.008  1.00  0.00     0.189 C 
ATOM     12  O   UNL     1      35.996 -78.804  38.404  1.00  0.00    -0.289 OA
BRANCH  11  13
ATOM     13  C   UNL     1      36.942 -77.687  36.558  1.00  0.00     0.064 A 
ATOM     14  C   UNL     1      35.900 -77.831  35.616  1.00  0.00     0.130 A 
ATOM     15  C   UNL     1      38.244 -77.417  36.103  1.00  0.00     0.020 A 
ATOM     16  C   UNL     1      36.167 -77.660  34.250  1.00  0.00     0.093 A 
ATOM     17  C   UNL     1      38.501 -77.256  34.740  1.00  0.00     0.047 A 
ATOM     18  C   UNL     1      37.462 -77.372  33.810  1.00  0.00     0.119 A 
BRANCH  14  19
ATOM     19  O   UNL     1      34.613 -78.170  36.032  1.00  0.00    -0.507 OA
ATOM     20  H   UNL     1      33.978 -78.683  35.431  1.00  0.00     0.293 HD
ENDBRANCH  14  19
BRANCH  18  21
ATOM     21  O   UNL     1      37.705 -77.208  32.448  1.00  0.00    -0.508 OA
ATOM     22  H   UNL     1      38.594 -76.859  32.108  1.00  0.00     0.293 HD
ENDBRANCH  18  21
ENDBRANCH  11  13
ENDBRANCH   2  11
TORSDOF 6
ENDMDL
MODEL 3
REMARK VINA RESULT:    -5.955     14.757     17.247
REMARK INTER + INTRA:          -7.387
REMARK INTER:                  -6.421
REMARK INTRA:                  -0.966
REMARK UNBOUND:                 0.134
REMARK SMILES O=C(C=Cc1ccc(O)cc1)c1ccc(O)cc1O
REMARK SMILES IDX 4 1 3 2 5 3 6 4 7 5 8 6 11 7 10 8 9 9 2 11 1 12 12 13 18 14
REMARK SMILES IDX 13 15 17 16 14 17 15 18 19 19 16 21
REMARK H PARENT 9 10 19 20 16 22
REMARK Flexibility Score: inf
ROOT
ATOM      1  C   UNL     1      39.719 -77.070  41.238  1.00  0.00     0.012 C 
ATOM      2  C   UNL     1      40.975 -77.485  41.469  1.00  0.00     0.053 C 
ENDROOT
BRANCH   1   3
ATOM      3  C   UNL     1      38.903 -77.421  40.060  1.00  0.00    -0.025 A 
ATOM      4  C   UNL     1      37.901 -78.394  40.180  1.00  0.00     0.012 A 
ATOM      5  C   UNL     1      37.152 -78.778  39.063  1.00  0.00     0.047 A 
ATOM      6  C   UNL     1      37.413 -78.210  37.812  1.00  0.00     0.115 A 
ATOM      7  C   UNL     1      39.184 -76.875  38.795  1.00  0.00     0.012 A 
ATOM      8  C   UNL     1      38.434 -77.260  37.679  1.00  0.00     0.047 A 
BRANCH   6   9
ATOM      9  O   UNL     1      36.659 -78.601  36.708  1.00  0.00    -0.508 OA
ATOM     10  H   UNL     1      36.725 -78.115  35.823  1.00  0.00     0.293 HD
ENDBRANCH   6   9
ENDBRANCH   1   3
BRANCH   2  11
ATOM     11  C   UNL     1      41.833 -78.224  40.510  1.00  0.00     0.189 C 
ATOM     12  O   UNL     1      43.014 -77.850  40.282  1.00  0.00    -0.289 OA
BRANCH  11  13
ATOM     13  C   UNL     1      41.321 -79.419  39.806  1.00  0.00     0.064 A 
ATOM     14  C   UNL     1      41.441 -79.568  38.407  1.00  0.00     0.130 A 
ATOM     15  C   UNL     1      40.671 -80.419  40.549  1.00  0.00     0.020 A 
ATOM     16  C   UNL     1      40.952 -80.726  37.785  1.00  0.00     0.093 A 
ATOM     17  C   UNL     1      40.181 -81.565  39.919  1.00  0.00     0.047 A 
ATOM     18  C   UNL     1      40.324 -81.723  38.536  1.00  0.00     0.119 A 
BRANCH  14  19
ATOM     19  O   UNL     1      42.017 -78.559  37.636  1.00  0.00    -0.507 OA
ATOM     20  H   UNL     1      42.704 -78.765  36.919  1.00  0.00     0.293 HD
ENDBRANCH  14  19
BRANCH  18  21
ATOM     21  O   UNL     1      39.843 -82.864  37.897  1.00  0.00    -0.508 OA
ATOM     22  H   UNL     1      40.043 -83.049  36.921  1.00  0.00     0.293 HD
ENDBRANCH  18  21
ENDBRANCH  11  13
ENDBRANCH   2  11
TORSDOF 6
ENDMDL
MODEL 4
REMARK VINA RESULT:    -5.815     12.141     14.013
REMARK INTER + INTRA:          -7.210
REMARK INTER:                  -6.518
REMARK INTRA:                  -0.692
REMARK UNBOUND:                 0.134
REMARK SMILES O=C(C=Cc1ccc(O)cc1)c1ccc(O)cc1O
REMARK SMILES IDX 4 1 3 2 5 3 6 4 7 5 8 6 11 7 10 8 9 9 2 11 1 12 12 13 18 14
REMARK SMILES IDX 13 15 17 16 14 17 15 18 19 19 16 21
REMARK H PARENT 9 10 19 20 16 22
REMARK Flexibility Score: inf
ROOT
ATOM      1  C   UNL     1      42.685 -96.775  29.698  1.00  0.00     0.012 C 
ATOM      2  C   UNL     1      42.128 -97.124  30.869  1.00  0.00     0.053 C 
ENDROOT
BRANCH   1   3
ATOM      3  C   UNL     1      42.115 -95.817  28.730  1.00  0.00    -0.025 A 
ATOM      4  C   UNL     1      41.750 -94.534  29.163  1.00  0.00     0.012 A 
ATOM      5  C   UNL     1      41.162 -93.630  28.274  1.00  0.00     0.047 A 
ATOM      6  C   UNL     1      40.910 -94.007  26.951  1.00  0.00     0.115 A 
ATOM      7  C   UNL     1      41.833 -96.203  27.408  1.00  0.00     0.012 A 
ATOM      8  C   UNL     1      41.244 -95.297  26.520  1.00  0.00     0.047 A 
BRANCH   6   9
ATOM      9  O   UNL     1      40.324 -93.096  26.075  1.00  0.00    -0.508 OA
ATOM     10  H   UNL     1      39.318 -93.029  25.976  1.00  0.00     0.293 HD
ENDBRANCH   6   9
ENDBRANCH   1   3
BRANCH   2  11
ATOM     11  C   UNL     1      40.766 -96.751  31.326  1.00  0.00     0.189 C 
ATOM     12  O   UNL     1      39.749 -97.099  30.668  1.00  0.00    -0.289 OA
BRANCH  11  13
ATOM     13  C   UNL     1      40.574 -95.969  32.565  1.00  0.00     0.064 A 
ATOM     14  C   UNL     1      39.775 -94.806  32.595  1.00  0.00     0.130 A 
ATOM     15  C   UNL     1      41.231 -96.380  33.737  1.00  0.00     0.020 A 
ATOM     16  C   UNL     1      39.611 -94.104  33.799  1.00  0.00     0.093 A 
ATOM     17  C   UNL     1      41.068 -95.670  34.928  1.00  0.00     0.047 A 
ATOM     18  C   UNL     1      40.253 -94.532  34.963  1.00  0.00     0.119 A 
BRANCH  14  19
ATOM     19  O   UNL     1      39.169 -94.334  31.431  1.00  0.00    -0.507 OA
ATOM     20  H   UNL     1      38.530 -94.909  30.894  1.00  0.00     0.293 HD
ENDBRANCH  14  19
BRANCH  18  21
ATOM     21  O   UNL     1      40.079 -93.819  36.147  1.00  0.00    -0.508 OA
ATOM     22  H   UNL     1      40.766 -93.144  36.464  1.00  0.00     0.293 HD
ENDBRANCH  18  21
ENDBRANCH  11  13
ENDBRANCH   2  11
TORSDOF 6
ENDMDL
MODEL 5
REMARK VINA RESULT:    -5.807      1.761      6.904
REMARK INTER + INTRA:          -7.201
REMARK INTER:                  -6.642
REMARK INTRA:                  -0.559
REMARK UNBOUND:                 0.134
REMARK SMILES O=C(C=Cc1ccc(O)cc1)c1ccc(O)cc1O
REMARK SMILES IDX 4 1 3 2 5 3 6 4 7 5 8 6 11 7 10 8 9 9 2 11 1 12 12 13 18 14
REMARK SMILES IDX 13 15 17 16 14 17 15 18 19 19 16 21
REMARK H PARENT 9 10 19 20 16 22
REMARK Flexibility Score: inf
ROOT
ATOM      1  C   UNL     1      32.174 -93.534  38.038  1.00  0.00     0.012 C 
ATOM      2  C   UNL     1      31.635 -94.758  38.164  1.00  0.00     0.053 C 
ENDROOT
BRANCH   1   3
ATOM      3  C   UNL     1      31.467 -92.332  37.555  1.00  0.00    -0.025 A 
ATOM      4  C   UNL     1      31.966 -91.640  36.442  1.00  0.00     0.012 A 
ATOM      5  C   UNL     1      31.340 -90.470  35.999  1.00  0.00     0.047 A 
ATOM      6  C   UNL     1      30.226 -89.969  36.679  1.00  0.00     0.115 A 
ATOM      7  C   UNL     1      30.365 -91.808  38.254  1.00  0.00     0.012 A 
ATOM      8  C   UNL     1      29.741 -90.638  37.810  1.00  0.00     0.047 A 
BRANCH   6   9
ATOM      9  O   UNL     1      29.612 -88.802  36.227  1.00  0.00    -0.508 OA
ATOM     10  H   UNL     1      29.814 -87.902  36.644  1.00  0.00     0.293 HD
ENDBRANCH   6   9
ENDBRANCH   1   3
BRANCH   2  11
ATOM     11  C   UNL     1      30.292 -95.167  37.681  1.00  0.00     0.189 C 
ATOM     12  O   UNL     1      30.000 -95.097  36.457  1.00  0.00    -0.289 OA
BRANCH  11  13
ATOM     13  C   UNL     1      29.272 -95.669  38.624  1.00  0.00     0.064 A 
ATOM     14  C   UNL     1      27.936 -95.895  38.227  1.00  0.00     0.130 A 
ATOM     15  C   UNL     1      29.637 -95.899  39.961  1.00  0.00     0.020 A 
ATOM     16  C   UNL     1      27.006 -96.386  39.155  1.00  0.00     0.093 A 
ATOM     17  C   UNL     1      28.702 -96.381  40.880  1.00  0.00     0.047 A 
ATOM     18  C   UNL     1      27.385 -96.630  40.477  1.00  0.00     0.119 A 
BRANCH  14  19
ATOM     19  O   UNL     1      27.528 -95.607  36.924  1.00  0.00    -0.507 OA
ATOM     20  H   UNL     1      27.444 -96.333  36.222  1.00  0.00     0.293 HD
ENDBRANCH  14  19
BRANCH  18  21
ATOM     21  O   UNL     1      26.444 -97.115  41.384  1.00  0.00    -0.508 OA
ATOM     22  H   UNL     1      26.676 -97.261  42.360  1.00  0.00     0.293 HD
ENDBRANCH  18  21
ENDBRANCH  11  13
ENDBRANCH   2  11
TORSDOF 6
ENDMDL
MODEL 6
REMARK VINA RESULT:    -5.760      2.030      3.170
REMARK INTER + INTRA:          -7.141
REMARK INTER:                  -6.242
REMARK INTRA:                  -0.899
REMARK UNBOUND:                 0.134
REMARK SMILES O=C(C=Cc1ccc(O)cc1)c1ccc(O)cc1O
REMARK SMILES IDX 4 1 3 2 5 3 6 4 7 5 8 6 11 7 10 8 9 9 2 11 1 12 12 13 18 14
REMARK SMILES IDX 13 15 17 16 14 17 15 18 19 19 16 21
REMARK H PARENT 9 10 19 20 16 22
REMARK Flexibility Score: inf
ROOT
ATOM      1  C   UNL     1      28.952 -96.297  36.927  1.00  0.00     0.012 C 
ATOM      2  C   UNL     1      30.015 -95.487  36.799  1.00  0.00     0.053 C 
ENDROOT
BRANCH   1   3
ATOM      3  C   UNL     1      27.871 -96.142  37.920  1.00  0.00    -0.025 A 
ATOM      4  C   UNL     1      28.097 -96.525  39.250  1.00  0.00     0.012 A 
ATOM      5  C   UNL     1      27.070 -96.434  40.195  1.00  0.00     0.047 A 
ATOM      6  C   UNL     1      25.802 -95.982  39.814  1.00  0.00     0.115 A 
ATOM      7  C   UNL     1      26.587 -95.717  37.534  1.00  0.00     0.012 A 
ATOM      8  C   UNL     1      25.561 -95.627  38.481  1.00  0.00     0.047 A 
BRANCH   6   9
ATOM      9  O   UNL     1      24.788 -95.895  40.766  1.00  0.00    -0.508 OA
ATOM     10  H   UNL     1      24.427 -96.719  41.231  1.00  0.00     0.293 HD
ENDBRANCH   6   9
ENDBRANCH   1   3
BRANCH   2  11
ATOM     11  C   UNL     1      30.391 -94.398  37.735  1.00  0.00     0.189 C 
ATOM     12  O   UNL     1      30.824 -94.662  38.888  1.00  0.00    -0.289 OA
BRANCH  11  13
ATOM     13  C   UNL     1      30.272 -92.982  37.331  1.00  0.00     0.064 A 
ATOM     14  C   UNL     1      31.403 -92.148  37.191  1.00  0.00     0.130 A 
ATOM     15  C   UNL     1      28.993 -92.443  37.110  1.00  0.00     0.020 A 
ATOM     16  C   UNL     1      31.241 -90.814  36.793  1.00  0.00     0.093 A 
ATOM     17  C   UNL     1      28.841 -91.111  36.721  1.00  0.00     0.047 A 
ATOM     18  C   UNL     1      29.965 -90.294  36.557  1.00  0.00     0.119 A 
BRANCH  14  19
ATOM     19  O   UNL     1      32.679 -92.636  37.474  1.00  0.00    -0.507 OA
ATOM     20  H   UNL     1      33.295 -92.967  36.741  1.00  0.00     0.293 HD
ENDBRANCH  14  19
BRANCH  18  21
ATOM     21  O   UNL     1      29.826 -88.964  36.164  1.00  0.00    -0.508 OA
ATOM     22  H   UNL     1      28.968 -88.623  35.745  1.00  0.00     0.293 HD
ENDBRANCH  18  21
ENDBRANCH  11  13
ENDBRANCH   2  11
TORSDOF 6
ENDMDL
MODEL 7
REMARK VINA RESULT:    -5.627      9.249     11.053
REMARK INTER + INTRA:          -6.974
REMARK INTER:                  -5.905
REMARK INTRA:                  -1.069
REMARK UNBOUND:                 0.134
REMARK SMILES O=C(C=Cc1ccc(O)cc1)c1ccc(O)cc1O
REMARK SMILES IDX 4 1 3 2 5 3 6 4 7 5 8 6 11 7 10 8 9 9 2 11 1 12 12 13 18 14
REMARK SMILES IDX 13 15 17 16 14 17 15 18 19 19 16 21
REMARK H PARENT 9 10 19 20 16 22
REMARK Flexibility Score: inf
ROOT
ATOM      1  C   UNL     1      41.404 -94.539  33.781  1.00  0.00     0.012 C 
ATOM      2  C   UNL     1      41.975 -94.914  34.937  1.00  0.00     0.053 C 
ENDROOT
BRANCH   1   3
ATOM      3  C   UNL     1      40.058 -94.933  33.323  1.00  0.00    -0.025 A 
ATOM      4  C   UNL     1      39.898 -96.120  32.593  1.00  0.00     0.012 A 
ATOM      5  C   UNL     1      38.639 -96.485  32.105  1.00  0.00     0.047 A 
ATOM      6  C   UNL     1      37.534 -95.657  32.323  1.00  0.00     0.115 A 
ATOM      7  C   UNL     1      38.950 -94.088  33.513  1.00  0.00     0.012 A 
ATOM      8  C   UNL     1      37.692 -94.455  33.025  1.00  0.00     0.047 A 
BRANCH   6   9
ATOM      9  O   UNL     1      36.285 -96.033  31.833  1.00  0.00    -0.508 OA
ATOM     10  H   UNL     1      35.998 -95.810  30.887  1.00  0.00     0.293 HD
ENDBRANCH   6   9
ENDBRANCH   1   3
BRANCH   2  11
ATOM     11  C   UNL     1      41.437 -95.927  35.880  1.00  0.00     0.189 C 
ATOM     12  O   UNL     1      41.825 -97.125  35.828  1.00  0.00    -0.289 OA
BRANCH  11  13
ATOM     13  C   UNL     1      40.440 -95.550  36.903  1.00  0.00     0.064 A 
ATOM     14  C   UNL     1      40.802 -94.846  38.072  1.00  0.00     0.130 A 
ATOM     15  C   UNL     1      39.101 -95.933  36.720  1.00  0.00     0.020 A 
ATOM     16  C   UNL     1      39.817 -94.499  39.009  1.00  0.00     0.093 A 
ATOM     17  C   UNL     1      38.129 -95.589  37.663  1.00  0.00     0.047 A 
ATOM     18  C   UNL     1      38.485 -94.867  38.807  1.00  0.00     0.119 A 
BRANCH  14  19
ATOM     19  O   UNL     1      42.135 -94.516  38.315  1.00  0.00    -0.507 OA
ATOM     20  H   UNL     1      42.397 -93.619  38.705  1.00  0.00     0.293 HD
ENDBRANCH  14  19
BRANCH  18  21
ATOM     21  O   UNL     1      37.523 -94.514  39.752  1.00  0.00    -0.508 OA
ATOM     22  H   UNL     1      36.578 -94.267  39.479  1.00  0.00     0.293 HD
ENDBRANCH  18  21
ENDBRANCH  11  13
ENDBRANCH   2  11
TORSDOF 6
ENDMDL
MODEL 8
REMARK VINA RESULT:    -5.510      9.880     11.652
REMARK INTER + INTRA:          -6.825
REMARK INTER:                  -5.653
REMARK INTRA:                  -1.172
REMARK UNBOUND:                 0.134
REMARK SMILES O=C(C=Cc1ccc(O)cc1)c1ccc(O)cc1O
REMARK SMILES IDX 4 1 3 2 5 3 6 4 7 5 8 6 11 7 10 8 9 9 2 11 1 12 12 13 18 14
REMARK SMILES IDX 13 15 17 16 14 17 15 18 19 19 16 21
REMARK H PARENT 9 10 19 20 16 22
REMARK Flexibility Score: inf
ROOT
ATOM      1  C   UNL     1      41.350 -97.125  33.506  1.00  0.00     0.012 C 
ATOM      2  C   UNL     1      42.304 -96.617  34.304  1.00  0.00     0.053 C 
ENDROOT
BRANCH   1   3
ATOM      3  C   UNL     1      40.135 -96.413  33.064  1.00  0.00    -0.025 A 
ATOM      4  C   UNL     1      40.251 -95.343  32.165  1.00  0.00     0.012 A 
ATOM      5  C   UNL     1      39.118 -94.623  31.773  1.00  0.00     0.047 A 
ATOM      6  C   UNL     1      37.863 -94.950  32.295  1.00  0.00     0.115 A 
ATOM      7  C   UNL     1      38.876 -96.719  33.610  1.00  0.00     0.012 A 
ATOM      8  C   UNL     1      37.744 -95.998  33.217  1.00  0.00     0.047 A 
BRANCH   6   9
ATOM      9  O   UNL     1      36.742 -94.225  31.896  1.00  0.00    -0.508 OA
ATOM     10  H   UNL     1      36.793 -93.232  31.706  1.00  0.00     0.293 HD
ENDBRANCH   6   9
ENDBRANCH   1   3
BRANCH   2  11
ATOM     11  C   UNL     1      42.230 -95.323  35.026  1.00  0.00     0.189 C 
ATOM     12  O   UNL     1      42.725 -94.278  34.526  1.00  0.00    -0.289 OA
BRANCH  11  13
ATOM     13  C   UNL     1      41.570 -95.231  36.345  1.00  0.00     0.064 A 
ATOM     14  C   UNL     1      40.340 -94.559  36.518  1.00  0.00     0.130 A 
ATOM     15  C   UNL     1      42.201 -95.804  37.462  1.00  0.00     0.020 A 
ATOM     16  C   UNL     1      39.745 -94.510  37.787  1.00  0.00     0.093 A 
ATOM     17  C   UNL     1      41.604 -95.743  38.723  1.00  0.00     0.047 A 
ATOM     18  C   UNL     1      40.372 -95.100  38.888  1.00  0.00     0.119 A 
BRANCH  14  19
ATOM     19  O   UNL     1      39.727 -93.920  35.441  1.00  0.00    -0.507 OA
ATOM     20  H   UNL     1      40.111 -93.970  34.505  1.00  0.00     0.293 HD
ENDBRANCH  14  19
BRANCH  18  21
ATOM     21  O   UNL     1      39.764 -95.038  40.140  1.00  0.00    -0.508 OA
ATOM     22  H   UNL     1      39.490 -95.877  40.638  1.00  0.00     0.293 HD
ENDBRANCH  18  21
ENDBRANCH  11  13
ENDBRANCH   2  11
TORSDOF 6
ENDMDL
MODEL 9
REMARK VINA RESULT:    -5.345     15.195     16.005
REMARK INTER + INTRA:          -6.616
REMARK INTER:                  -6.447
REMARK INTRA:                  -0.169
REMARK UNBOUND:                 0.134
REMARK SMILES O=C(C=Cc1ccc(O)cc1)c1ccc(O)cc1O
REMARK SMILES IDX 4 1 3 2 5 3 6 4 7 5 8 6 11 7 10 8 9 9 2 11 1 12 12 13 18 14
REMARK SMILES IDX 13 15 17 16 14 17 15 18 19 19 16 21
REMARK H PARENT 9 10 19 20 16 22
REMARK Flexibility Score: inf
ROOT
ATOM      1  C   UNL     1      38.088 -77.300  39.666  1.00  0.00     0.012 C 
ATOM      2  C   UNL     1      37.262 -77.078  38.630  1.00  0.00     0.053 C 
ENDROOT
BRANCH   1   3
ATOM      3  C   UNL     1      38.815 -78.558  39.927  1.00  0.00    -0.025 A 
ATOM      4  C   UNL     1      38.324 -79.450  40.891  1.00  0.00     0.012 A 
ATOM      5  C   UNL     1      39.025 -80.622  41.190  1.00  0.00     0.047 A 
ATOM      6  C   UNL     1      40.234 -80.902  40.545  1.00  0.00     0.115 A 
ATOM      7  C   UNL     1      40.045 -78.827  39.303  1.00  0.00     0.012 A 
ATOM      8  C   UNL     1      40.745 -80.000  39.603  1.00  0.00     0.047 A 
BRANCH   6   9
ATOM      9  O   UNL     1      40.922 -82.074  40.852  1.00  0.00    -0.508 OA
ATOM     10  H   UNL     1      40.613 -82.975  40.509  1.00  0.00     0.293 HD
ENDBRANCH   6   9
ENDBRANCH   1   3
BRANCH   2  11
ATOM     11  C   UNL     1      36.793 -78.100  37.662  1.00  0.00     0.189 C 
ATOM     12  O   UNL     1      37.422 -79.181  37.512  1.00  0.00    -0.289 OA
BRANCH  11  13
ATOM     13  C   UNL     1      35.574 -77.873  36.857  1.00  0.00     0.064 A 
ATOM     14  C   UNL     1      35.627 -77.702  35.457  1.00  0.00     0.130 A 
ATOM     15  C   UNL     1      34.333 -77.795  37.511  1.00  0.00     0.020 A 
ATOM     16  C   UNL     1      34.442 -77.503  34.734  1.00  0.00     0.093 A 
ATOM     17  C   UNL     1      33.159 -77.588  36.783  1.00  0.00     0.047 A 
ATOM     18  C   UNL     1      33.210 -77.446  35.392  1.00  0.00     0.119 A 
BRANCH  14  19
ATOM     19  O   UNL     1      36.852 -77.703  34.790  1.00  0.00    -0.507 OA
ATOM     20  H   UNL     1      37.699 -77.371  35.236  1.00  0.00     0.293 HD
ENDBRANCH  14  19
BRANCH  18  21
ATOM     21  O   UNL     1      32.045 -77.245  34.655  1.00  0.00    -0.508 OA
ATOM     22  H   UNL     1      31.521 -78.023  34.271  1.00  0.00     0.293 HD
ENDBRANCH  18  21
ENDBRANCH  11  13
ENDBRANCH   2  11
TORSDOF 6
ENDMDL
