MODEL 1
REMARK VINA RESULT:    -3.537      0.000      0.000
REMARK INTER + INTRA:          -4.656
REMARK INTER:                  -4.778
REMARK INTRA:                   0.121
REMARK UNBOUND:                 0.121
REMARK SMILES C=C1CCC=C(C)CC[C@@H]2[C@H]1CC2(C)C
REMARK SMILES IDX 11 1 12 2 13 3 10 4 14 5 15 6 9 7 8 8 6 9 7 10 5 11 2 13
REMARK SMILES IDX 1 14 3 15 4 16
REMARK H PARENT
REMARK Flexibility Score: 70.00
ROOT
ATOM      1  C   UNL     1      29.330  26.034  11.910  1.00  0.00     0.018 C 
ATOM      2  C   UNL     1      29.536  27.077  10.800  1.00  0.00     0.015 C 
ATOM      3  C   UNL     1      30.979  27.318  11.280  1.00  0.00    -0.031 C 
ATOM      4  C   UNL     1      30.759  26.308  12.439  1.00  0.00     0.002 C 
ATOM      5  C   UNL     1      32.032  26.937  10.219  1.00  0.00     0.011 C 
ATOM      6  C   UNL     1      31.197  28.758  11.779  1.00  0.00     0.011 C 
ENDROOT
BRANCH   4   7
ATOM      7  C   UNL     1      31.736  25.104  12.553  1.00  0.00     0.009 C 
BRANCH   7   8
ATOM      8  C   UNL     1      31.705  24.362  13.914  1.00  0.00     0.030 C 
BRANCH   8   9
ATOM      9  C   UNL     1      31.154  22.943  13.888  1.00  0.00    -0.077 C 
ATOM     10  C   UNL     1      32.123  21.787  13.949  1.00  0.00     0.039 C 
ATOM     11  C   UNL     1      29.839  22.653  13.780  1.00  0.00    -0.028 CG0
ATOM     12  G   UNL     1      28.716  23.658  13.751  1.00  0.00     0.000 G0
ENDBRANCH   8   9
ENDBRANCH   7   8
ENDBRANCH   4   7
BRANCH   1  13
ATOM     13  C   UNL     1      28.990  24.612  11.449  1.00  0.00    -0.074 C 
ATOM     14  C   UNL     1      29.479  24.057  10.322  1.00  0.00     0.008 C 
BRANCH  13  15
ATOM     15  C   UNL     1      28.116  23.761  12.341  1.00  0.00     0.035 C 
BRANCH  15  16
ATOM     16  C   UNL     1      28.705  23.657  13.753  1.00  0.00     0.032 CG0
ATOM     17  G   UNL     1      29.828  22.652  13.789  1.00  0.00     0.000 G0
ENDBRANCH  15  16
ENDBRANCH  13  15
ENDBRANCH   1  13
TORSDOF 0
ENDMDL
MODEL 2
REMARK VINA RESULT:    -3.115      2.184      5.016
REMARK INTER + INTRA:          -4.086
REMARK INTER:                  -4.872
REMARK INTRA:                   0.786
REMARK UNBOUND:                 0.121
REMARK SMILES C=C1CCC=C(C)CC[C@@H]2[C@H]1CC2(C)C
REMARK SMILES IDX 11 1 12 2 13 3 10 4 14 5 15 6 9 7 8 8 6 9 7 10 5 11 2 13
REMARK SMILES IDX 1 14 3 15 4 16
REMARK H PARENT
REMARK Flexibility Score: 70.00
ROOT
ATOM      1  C   UNL     1      30.651  24.420  12.425  1.00  0.00     0.018 C 
ATOM      2  C   UNL     1      29.860  23.104  12.474  1.00  0.00     0.015 C 
ATOM      3  C   UNL     1      28.545  23.888  12.633  1.00  0.00    -0.031 C 
ATOM      4  C   UNL     1      29.344  25.220  12.642  1.00  0.00     0.002 C 
ATOM      5  C   UNL     1      27.574  23.670  11.455  1.00  0.00     0.011 C 
ATOM      6  C   UNL     1      27.851  23.601  13.977  1.00  0.00     0.011 C 
ENDROOT
BRANCH   4   7
ATOM      7  C   UNL     1      28.969  26.302  11.591  1.00  0.00     0.009 C 
BRANCH   7   8
ATOM      8  C   UNL     1      28.906  27.751  12.138  1.00  0.00     0.030 C 
BRANCH   8   9
ATOM      9  C   UNL     1      30.070  28.659  11.762  1.00  0.00    -0.077 C 
ATOM     10  C   UNL     1      29.775  30.068  11.309  1.00  0.00     0.039 C 
ATOM     11  C   UNL     1      31.361  28.263  11.778  1.00  0.00    -0.028 CG0
ATOM     12  G   UNL     1      31.864  26.918  12.238  1.00  0.00     0.000 G0
ENDBRANCH   8   9
ENDBRANCH   7   8
ENDBRANCH   4   7
BRANCH   1  13
ATOM     13  C   UNL     1      31.454  24.681  11.145  1.00  0.00    -0.074 C 
ATOM     14  C   UNL     1      31.542  23.800  10.128  1.00  0.00     0.008 C 
BRANCH  13  15
ATOM     15  C   UNL     1      32.125  26.026  10.983  1.00  0.00     0.035 C 
BRANCH  15  16
ATOM     16  C   UNL     1      31.886  26.912  12.211  1.00  0.00     0.032 CG0
ATOM     17  G   UNL     1      31.361  28.264  11.800  1.00  0.00     0.000 G0
ENDBRANCH  15  16
ENDBRANCH  13  15
ENDBRANCH   1  13
TORSDOF 0
ENDMDL
MODEL 3
REMARK VINA RESULT:    -2.341      2.006      4.731
REMARK INTER + INTRA:          -3.040
REMARK INTER:                  -4.881
REMARK INTRA:                   1.841
REMARK UNBOUND:                 0.121
REMARK SMILES C=C1CCC=C(C)CC[C@@H]2[C@H]1CC2(C)C
REMARK SMILES IDX 11 1 12 2 13 3 10 4 14 5 15 6 9 7 8 8 6 9 7 10 5 11 2 13
REMARK SMILES IDX 1 14 3 15 4 16
REMARK H PARENT
REMARK Flexibility Score: 70.00
ROOT
ATOM      1  C   UNL     1      29.382  23.675  11.789  1.00  0.00     0.018 C 
ATOM      2  C   UNL     1      29.666  22.713  12.952  1.00  0.00     0.015 C 
ATOM      3  C   UNL     1      31.173  23.007  12.842  1.00  0.00    -0.031 C 
ATOM      4  C   UNL     1      30.900  23.937  11.629  1.00  0.00     0.002 C 
ATOM      5  C   UNL     1      31.745  23.672  14.111  1.00  0.00     0.011 C 
ATOM      6  C   UNL     1      31.988  21.757  12.462  1.00  0.00     0.011 C 
ENDROOT
BRANCH   4   7
ATOM      7  C   UNL     1      31.398  25.407  11.710  1.00  0.00     0.009 C 
BRANCH   7   8
ATOM      8  C   UNL     1      31.551  26.123  10.343  1.00  0.00     0.030 C 
BRANCH   8   9
ATOM      9  C   UNL     1      31.117  27.582  10.301  1.00  0.00    -0.077 C 
ATOM     10  C   UNL     1      32.124  28.627   9.885  1.00  0.00     0.039 C 
ATOM     11  C   UNL     1      29.883  28.005  10.649  1.00  0.00    -0.028 CG0
ATOM     12  G   UNL     1      28.729  27.120  11.047  1.00  0.00     0.000 G0
ENDBRANCH   8   9
ENDBRANCH   7   8
ENDBRANCH   4   7
BRANCH   1  13
ATOM     13  C   UNL     1      28.473  24.869  12.103  1.00  0.00    -0.074 C 
ATOM     14  C   UNL     1      27.148  24.757  12.328  1.00  0.00     0.008 C 
BRANCH  13  15
ATOM     15  C   UNL     1      29.105  26.235  12.238  1.00  0.00     0.035 C 
BRANCH  15  16
ATOM     16  C   UNL     1      28.721  27.138  11.060  1.00  0.00     0.032 CG0
ATOM     17  G   UNL     1      29.886  28.001  10.648  1.00  0.00     0.000 G0
ENDBRANCH  15  16
ENDBRANCH  13  15
ENDBRANCH   1  13
TORSDOF 0
ENDMDL
MODEL 4
REMARK VINA RESULT:    -2.182      1.829      2.492
REMARK INTER + INTRA:          -2.826
REMARK INTER:                  -4.427
REMARK INTRA:                   1.602
REMARK UNBOUND:                 0.121
REMARK SMILES C=C1CCC=C(C)CC[C@@H]2[C@H]1CC2(C)C
REMARK SMILES IDX 11 1 12 2 13 3 10 4 14 5 15 6 9 7 8 8 6 9 7 10 5 11 2 13
REMARK SMILES IDX 1 14 3 15 4 16
REMARK H PARENT
REMARK Flexibility Score: 70.00
ROOT
ATOM      1  C   UNL     1      30.102  25.985  10.701  1.00  0.00     0.018 C 
ATOM      2  C   UNL     1      30.600  27.437  10.627  1.00  0.00     0.015 C 
ATOM      3  C   UNL     1      30.540  27.547  12.161  1.00  0.00    -0.031 C 
ATOM      4  C   UNL     1      29.984  26.100  12.240  1.00  0.00     0.002 C 
ATOM      5  C   UNL     1      31.925  27.792  12.794  1.00  0.00     0.011 C 
ATOM      6  C   UNL     1      29.525  28.602  12.634  1.00  0.00     0.011 C 
ENDROOT
BRANCH   4   7
ATOM      7  C   UNL     1      30.755  25.067  13.109  1.00  0.00     0.009 C 
BRANCH   7   8
ATOM      8  C   UNL     1      30.190  23.625  13.069  1.00  0.00     0.030 C 
BRANCH   8   9
ATOM      9  C   UNL     1      31.212  22.503  13.187  1.00  0.00    -0.077 C 
ATOM     10  C   UNL     1      31.330  21.761  14.497  1.00  0.00     0.039 C 
ATOM     11  C   UNL     1      32.052  22.150  12.189  1.00  0.00    -0.028 CG0
ATOM     12  G   UNL     1      32.063  22.734  10.800  1.00  0.00     0.000 G0
ENDBRANCH   8   9
ENDBRANCH   7   8
ENDBRANCH   4   7
BRANCH   1  13
ATOM     13  C   UNL     1      31.040  24.917  10.126  1.00  0.00    -0.074 C 
ATOM     14  C   UNL     1      32.125  25.203   9.377  1.00  0.00     0.008 C 
BRANCH  13  15
ATOM     15  C   UNL     1      30.777  23.470  10.475  1.00  0.00     0.035 C 
BRANCH  15  16
ATOM     16  C   UNL     1      32.083  22.732  10.788  1.00  0.00     0.032 CG0
ATOM     17  G   UNL     1      32.044  22.142  12.174  1.00  0.00     0.000 G0
ENDBRANCH  15  16
ENDBRANCH  13  15
ENDBRANCH   1  13
TORSDOF 0
ENDMDL
MODEL 5
REMARK VINA RESULT:    -1.654      1.187      2.881
REMARK INTER + INTRA:          -2.113
REMARK INTER:                  -4.740
REMARK INTRA:                   2.627
REMARK UNBOUND:                 0.121
REMARK SMILES C=C1CCC=C(C)CC[C@@H]2[C@H]1CC2(C)C
REMARK SMILES IDX 11 1 12 2 13 3 10 4 14 5 15 6 9 7 8 8 6 9 7 10 5 11 2 13
REMARK SMILES IDX 1 14 3 15 4 16
REMARK H PARENT
REMARK Flexibility Score: 70.00
ROOT
ATOM      1  C   UNL     1      31.174  26.588  10.514  1.00  0.00     0.018 C 
ATOM      2  C   UNL     1      31.874  27.776  11.191  1.00  0.00     0.015 C 
ATOM      3  C   UNL     1      30.510  28.426  11.485  1.00  0.00    -0.031 C 
ATOM      4  C   UNL     1      29.798  27.257  10.753  1.00  0.00     0.002 C 
ATOM      5  C   UNL     1      30.232  28.570  12.996  1.00  0.00     0.011 C 
ATOM      6  C   UNL     1      30.336  29.775  10.764  1.00  0.00     0.011 C 
ENDROOT
BRANCH   4   7
ATOM      7  C   UNL     1      28.723  26.452  11.536  1.00  0.00     0.009 C 
BRANCH   7   8
ATOM      8  C   UNL     1      28.716  24.927  11.258  1.00  0.00     0.030 C 
BRANCH   8   9
ATOM      9  C   UNL     1      28.441  24.031  12.459  1.00  0.00    -0.077 C 
ATOM     10  C   UNL     1      27.009  23.753  12.845  1.00  0.00     0.039 C 
ATOM     11  C   UNL     1      29.413  23.492  13.227  1.00  0.00    -0.028 CG0
ATOM     12  G   UNL     1      30.896  23.614  12.983  1.00  0.00     0.000 G0
ENDBRANCH   8   9
ENDBRANCH   7   8
ENDBRANCH   4   7
BRANCH   1  13
ATOM     13  C   UNL     1      31.425  25.210  11.136  1.00  0.00    -0.074 C 
ATOM     14  C   UNL     1      31.845  24.139  10.432  1.00  0.00     0.008 C 
BRANCH  13  15
ATOM     15  C   UNL     1      31.260  25.059  12.631  1.00  0.00     0.035 C 
BRANCH  15  16
ATOM     16  C   UNL     1      30.899  23.616  13.003  1.00  0.00     0.032 CG0
ATOM     17  G   UNL     1      29.415  23.479  13.230  1.00  0.00     0.000 G0
ENDBRANCH  15  16
ENDBRANCH  13  15
ENDBRANCH   1  13
TORSDOF 0
ENDMDL
MODEL 6
REMARK VINA RESULT:    -1.654      1.554      2.109
REMARK INTER + INTRA:          -2.112
REMARK INTER:                  -5.128
REMARK INTRA:                   3.015
REMARK UNBOUND:                 0.121
REMARK SMILES C=C1CCC=C(C)CC[C@@H]2[C@H]1CC2(C)C
REMARK SMILES IDX 11 1 12 2 13 3 10 4 14 5 15 6 9 7 8 8 6 9 7 10 5 11 2 13
REMARK SMILES IDX 1 14 3 15 4 16
REMARK H PARENT
REMARK Flexibility Score: 70.00
ROOT
ATOM      1  C   UNL     1      29.285  26.842  11.978  1.00  0.00     0.018 C 
ATOM      2  C   UNL     1      29.107  27.750  10.751  1.00  0.00     0.015 C 
ATOM      3  C   UNL     1      30.535  28.295  10.934  1.00  0.00    -0.031 C 
ATOM      4  C   UNL     1      30.702  27.422  12.208  1.00  0.00     0.002 C 
ATOM      5  C   UNL     1      31.456  27.964   9.742  1.00  0.00     0.011 C 
ATOM      6  C   UNL     1      30.551  29.804  11.239  1.00  0.00     0.011 C 
ENDROOT
BRANCH   4   7
ATOM      7  C   UNL     1      31.897  26.430  12.261  1.00  0.00     0.009 C 
BRANCH   7   8
ATOM      8  C   UNL     1      31.867  25.432  13.447  1.00  0.00     0.030 C 
BRANCH   8   9
ATOM      9  C   UNL     1      31.679  23.966  13.083  1.00  0.00    -0.077 C 
ATOM     10  C   UNL     1      31.812  22.925  14.168  1.00  0.00     0.039 C 
ATOM     11  C   UNL     1      31.431  23.534  11.827  1.00  0.00    -0.028 CG0
ATOM     12  G   UNL     1      31.220  24.411  10.620  1.00  0.00     0.000 G0
ENDBRANCH   8   9
ENDBRANCH   7   8
ENDBRANCH   4   7
BRANCH   1  13
ATOM     13  C   UNL     1      29.154  25.334  11.730  1.00  0.00    -0.074 C 
ATOM     14  C   UNL     1      28.500  24.497  12.561  1.00  0.00     0.008 C 
BRANCH  13  15
ATOM     15  C   UNL     1      29.726  24.767  10.452  1.00  0.00     0.035 C 
BRANCH  15  16
ATOM     16  C   UNL     1      31.212  24.425  10.617  1.00  0.00     0.032 CG0
ATOM     17  G   UNL     1      31.427  23.552  11.826  1.00  0.00     0.000 G0
ENDBRANCH  15  16
ENDBRANCH  13  15
ENDBRANCH   1  13
TORSDOF 0
ENDMDL
MODEL 7
REMARK VINA RESULT:    -1.555      1.791      3.060
REMARK INTER + INTRA:          -1.979
REMARK INTER:                  -3.802
REMARK INTRA:                   1.823
REMARK UNBOUND:                 0.121
REMARK SMILES C=C1CCC=C(C)CC[C@@H]2[C@H]1CC2(C)C
REMARK SMILES IDX 11 1 12 2 13 3 10 4 14 5 15 6 9 7 8 8 6 9 7 10 5 11 2 13
REMARK SMILES IDX 1 14 3 15 4 16
REMARK H PARENT
REMARK Flexibility Score: 70.00
ROOT
ATOM      1  C   UNL     1      29.757  27.011  10.317  1.00  0.00     0.018 C 
ATOM      2  C   UNL     1      29.557  28.502  10.627  1.00  0.00     0.015 C 
ATOM      3  C   UNL     1      28.759  28.142  11.894  1.00  0.00    -0.031 C 
ATOM      4  C   UNL     1      28.910  26.634  11.556  1.00  0.00     0.002 C 
ATOM      5  C   UNL     1      29.442  28.634  13.187  1.00  0.00     0.011 C 
ATOM      6  C   UNL     1      27.299  28.626  11.825  1.00  0.00     0.011 C 
ENDROOT
BRANCH   4   7
ATOM      7  C   UNL     1      29.554  25.707  12.625  1.00  0.00     0.009 C 
BRANCH   7   8
ATOM      8  C   UNL     1      29.064  24.237  12.597  1.00  0.00     0.030 C 
BRANCH   8   9
ATOM      9  C   UNL     1      30.146  23.171  12.698  1.00  0.00    -0.077 C 
ATOM     10  C   UNL     1      30.014  22.098  13.752  1.00  0.00     0.039 C 
ATOM     11  C   UNL     1      31.246  23.146  11.914  1.00  0.00    -0.028 CG0
ATOM     12  G   UNL     1      31.541  24.096  10.781  1.00  0.00     0.000 G0
ENDBRANCH   8   9
ENDBRANCH   7   8
ENDBRANCH   4   7
BRANCH   1  13
ATOM     13  C   UNL     1      31.209  26.520  10.258  1.00  0.00    -0.074 C 
ATOM     14  C   UNL     1      32.114  26.976   9.368  1.00  0.00     0.008 C 
BRANCH  13  15
ATOM     15  C   UNL     1      31.670  25.525  11.297  1.00  0.00     0.035 C 
BRANCH  15  16
ATOM     16  C   UNL     1      31.534  24.087  10.781  1.00  0.00     0.032 CG0
ATOM     17  G   UNL     1      31.243  23.139  11.916  1.00  0.00     0.000 G0
ENDBRANCH  15  16
ENDBRANCH  13  15
ENDBRANCH   1  13
TORSDOF 0
ENDMDL
MODEL 8
REMARK VINA RESULT:    -1.480      1.533      2.001
REMARK INTER + INTRA:          -1.877
REMARK INTER:                  -2.184
REMARK INTRA:                   0.307
REMARK UNBOUND:                 0.121
REMARK SMILES C=C1CCC=C(C)CC[C@@H]2[C@H]1CC2(C)C
REMARK SMILES IDX 11 1 12 2 13 3 10 4 14 5 15 6 9 7 8 8 6 9 7 10 5 11 2 13
REMARK SMILES IDX 1 14 3 15 4 16
REMARK H PARENT
REMARK Flexibility Score: 70.00
ROOT
ATOM      1  C   UNL     1      29.450  27.144  12.538  1.00  0.00     0.018 C 
ATOM      2  C   UNL     1      29.608  28.621  12.145  1.00  0.00     0.015 C 
ATOM      3  C   UNL     1      30.845  28.274  11.298  1.00  0.00    -0.031 C 
ATOM      4  C   UNL     1      30.725  26.789  11.736  1.00  0.00     0.002 C 
ATOM      5  C   UNL     1      30.643  28.572   9.798  1.00  0.00     0.011 C 
ATOM      6  C   UNL     1      32.124  28.949  11.825  1.00  0.00     0.011 C 
ENDROOT
BRANCH   4   7
ATOM      7  C   UNL     1      30.611  25.707  10.626  1.00  0.00     0.009 C 
BRANCH   7   8
ATOM      8  C   UNL     1      31.411  24.407  10.894  1.00  0.00     0.030 C 
BRANCH   8   9
ATOM      9  C   UNL     1      30.972  23.588  12.100  1.00  0.00    -0.077 C 
ATOM     10  C   UNL     1      32.027  22.919  12.947  1.00  0.00     0.039 C 
ATOM     11  C   UNL     1      29.679  23.396  12.442  1.00  0.00    -0.028 CG0
ATOM     12  G   UNL     1      28.487  24.010  11.755  1.00  0.00     0.000 G0
ENDBRANCH   8   9
ENDBRANCH   7   8
ENDBRANCH   4   7
BRANCH   1  13
ATOM     13  C   UNL     1      28.132  26.472  12.134  1.00  0.00    -0.074 C 
ATOM     14  C   UNL     1      27.246  27.023  11.279  1.00  0.00     0.008 C 
BRANCH  13  15
ATOM     15  C   UNL     1      27.842  25.088  12.666  1.00  0.00     0.035 C 
BRANCH  15  16
ATOM     16  C   UNL     1      28.461  24.011  11.768  1.00  0.00     0.032 CG0
ATOM     17  G   UNL     1      29.669  23.396  12.427  1.00  0.00     0.000 G0
ENDBRANCH  15  16
ENDBRANCH  13  15
ENDBRANCH   1  13
TORSDOF 0
ENDMDL
MODEL 9
REMARK VINA RESULT:    -1.027      2.402      5.011
REMARK INTER + INTRA:          -1.266
REMARK INTER:                  -4.303
REMARK INTRA:                   3.037
REMARK UNBOUND:                 0.121
REMARK SMILES C=C1CCC=C(C)CC[C@@H]2[C@H]1CC2(C)C
REMARK SMILES IDX 11 1 12 2 13 3 10 4 14 5 15 6 9 7 8 8 6 9 7 10 5 11 2 13
REMARK SMILES IDX 1 14 3 15 4 16
REMARK H PARENT
REMARK Flexibility Score: 70.00
ROOT
ATOM      1  C   UNL     1      29.415  25.585  11.513  1.00  0.00     0.018 C 
ATOM      2  C   UNL     1      29.384  24.747  12.800  1.00  0.00     0.015 C 
ATOM      3  C   UNL     1      30.743  24.121  12.439  1.00  0.00    -0.031 C 
ATOM      4  C   UNL     1      30.754  24.922  11.108  1.00  0.00     0.002 C 
ATOM      5  C   UNL     1      31.846  24.461  13.462  1.00  0.00     0.011 C 
ATOM      6  C   UNL     1      30.647  22.601  12.218  1.00  0.00     0.011 C 
ENDROOT
BRANCH   4   7
ATOM      7  C   UNL     1      31.969  25.849  10.825  1.00  0.00     0.009 C 
BRANCH   7   8
ATOM      8  C   UNL     1      31.764  26.863   9.671  1.00  0.00     0.030 C 
BRANCH   8   9
ATOM      9  C   UNL     1      31.822  28.335  10.057  1.00  0.00    -0.077 C 
ATOM     10  C   UNL     1      31.964  29.367   8.965  1.00  0.00     0.039 C 
ATOM     11  C   UNL     1      31.788  28.774  11.334  1.00  0.00    -0.028 CG0
ATOM     12  G   UNL     1      31.607  27.912  12.557  1.00  0.00     0.000 G0
ENDBRANCH   8   9
ENDBRANCH   7   8
ENDBRANCH   4   7
BRANCH   1  13
ATOM     13  C   UNL     1      29.388  27.107  11.694  1.00  0.00    -0.074 C 
ATOM     14  C   UNL     1      28.696  27.941  10.890  1.00  0.00     0.008 C 
BRANCH  13  15
ATOM     15  C   UNL     1      30.118  27.700  12.877  1.00  0.00     0.035 C 
BRANCH  15  16
ATOM     16  C   UNL     1      31.606  27.893  12.566  1.00  0.00     0.032 CG0
ATOM     17  G   UNL     1      31.788  28.760  11.346  1.00  0.00     0.000 G0
ENDBRANCH  15  16
ENDBRANCH  13  15
ENDBRANCH   1  13
TORSDOF 0
ENDMDL
