MODEL 1
REMARK VINA RESULT:    -2.361      0.000      0.000
REMARK INTER + INTRA:          -2.361
REMARK INTER:                  -2.361
REMARK INTRA:                   0.000
REMARK UNBOUND:                 0.000
REMARK SMILES CC(=O)[O-]
REMARK SMILES IDX 1 1 2 2 3 3 4 4
REMARK H PARENT
REMARK Flexibility Score: inf
ROOT
ATOM      1  C   UNL     1      -0.668  -9.889  -4.274  1.00  0.00     0.063 C 
ATOM      2  C   UNL     1      -1.566  -9.175  -3.323  1.00  0.00     0.038 C 
ATOM      3  O   UNL     1      -2.037  -8.046  -3.625  1.00  0.00    -0.550 OA
ATOM      4  O   UNL     1      -1.930  -9.774  -2.124  1.00  0.00    -0.550 OA
ENDROOT
TORSDOF 0
ENDMDL
MODEL 2
REMARK VINA RESULT:    -2.287     11.764     12.276
REMARK INTER + INTRA:          -2.287
REMARK INTER:                  -2.287
REMARK INTRA:                   0.000
REMARK UNBOUND:                 0.000
REMARK SMILES CC(=O)[O-]
REMARK SMILES IDX 1 1 2 2 3 3 4 4
REMARK H PARENT
REMARK Flexibility Score: inf
ROOT
ATOM      1  C   UNL     1      -0.900   3.059  -8.079  1.00  0.00     0.063 C 
ATOM      2  C   UNL     1       0.030   1.912  -7.881  1.00  0.00     0.038 C 
ATOM      3  O   UNL     1       0.628   1.405  -8.866  1.00  0.00    -0.550 OA
ATOM      4  O   UNL     1       0.282   1.433  -6.601  1.00  0.00    -0.550 OA
ENDROOT
TORSDOF 0
ENDMDL
MODEL 3
REMARK VINA RESULT:    -2.258     11.994     12.512
REMARK INTER + INTRA:          -2.258
REMARK INTER:                  -2.258
REMARK INTRA:                   0.000
REMARK UNBOUND:                 0.000
REMARK SMILES CC(=O)[O-]
REMARK SMILES IDX 1 1 2 2 3 3 4 4
REMARK H PARENT
REMARK Flexibility Score: inf
ROOT
ATOM      1  C   UNL     1      -1.124   3.166  -8.127  1.00  0.00     0.063 C 
ATOM      2  C   UNL     1      -0.089   2.134  -7.839  1.00  0.00     0.038 C 
ATOM      3  O   UNL     1       0.111   1.752  -6.656  1.00  0.00    -0.550 OA
ATOM      4  O   UNL     1       0.622   1.551  -8.880  1.00  0.00    -0.550 OA
ENDROOT
TORSDOF 0
ENDMDL
MODEL 4
REMARK VINA RESULT:    -2.149     16.883     17.041
REMARK INTER + INTRA:          -2.149
REMARK INTER:                  -2.149
REMARK INTRA:                   0.000
REMARK UNBOUND:                 0.000
REMARK SMILES CC(=O)[O-]
REMARK SMILES IDX 1 1 2 2 3 3 4 4
REMARK H PARENT
REMARK Flexibility Score: inf
ROOT
ATOM      1  C   UNL     1       2.007   7.087   0.770  1.00  0.00     0.063 C 
ATOM      2  C   UNL     1       0.879   6.874   1.721  1.00  0.00     0.038 C 
ATOM      3  O   UNL     1      -0.236   7.422   1.512  1.00  0.00    -0.550 OA
ATOM      4  O   UNL     1       1.037   6.028   2.811  1.00  0.00    -0.550 OA
ENDROOT
TORSDOF 0
ENDMDL
MODEL 5
REMARK VINA RESULT:    -2.135     18.268     18.544
REMARK INTER + INTRA:          -2.135
REMARK INTER:                  -2.135
REMARK INTRA:                   0.000
REMARK UNBOUND:                 0.000
REMARK SMILES CC(=O)[O-]
REMARK SMILES IDX 1 1 2 2 3 3 4 4
REMARK H PARENT
REMARK Flexibility Score: inf
ROOT
ATOM      1  C   UNL     1       9.277   6.153   0.634  1.00  0.00     0.063 C 
ATOM      2  C   UNL     1       9.129   5.007   1.577  1.00  0.00     0.038 C 
ATOM      3  O   UNL     1       7.998   4.721   2.050  1.00  0.00    -0.550 OA
ATOM      4  O   UNL     1      10.228   4.219   1.894  1.00  0.00    -0.550 OA
ENDROOT
TORSDOF 0
ENDMDL
MODEL 6
REMARK VINA RESULT:    -2.059     13.523     13.610
REMARK INTER + INTRA:          -2.059
REMARK INTER:                  -2.059
REMARK INTRA:                   0.000
REMARK UNBOUND:                 0.000
REMARK SMILES CC(=O)[O-]
REMARK SMILES IDX 1 1 2 2 3 3 4 4
REMARK H PARENT
REMARK Flexibility Score: inf
ROOT
ATOM      1  C   UNL     1      -4.307   2.535  -9.332  1.00  0.00     0.063 C 
ATOM      2  C   UNL     1      -5.764   2.255  -9.190  1.00  0.00     0.038 C 
ATOM      3  O   UNL     1      -6.339   1.475  -9.993  1.00  0.00    -0.550 OA
ATOM      4  O   UNL     1      -6.481   2.812  -8.138  1.00  0.00    -0.550 OA
ENDROOT
TORSDOF 0
ENDMDL
MODEL 7
REMARK VINA RESULT:    -1.893     13.801     14.274
REMARK INTER + INTRA:          -1.893
REMARK INTER:                  -1.893
REMARK INTRA:                   0.000
REMARK UNBOUND:                 0.000
REMARK SMILES CC(=O)[O-]
REMARK SMILES IDX 1 1 2 2 3 3 4 4
REMARK H PARENT
REMARK Flexibility Score: inf
ROOT
ATOM      1  C   UNL     1      -1.307   3.717  -8.428  1.00  0.00     0.063 C 
ATOM      2  C   UNL     1      -2.746   3.803  -8.809  1.00  0.00     0.038 C 
ATOM      3  O   UNL     1      -3.306   2.834  -9.385  1.00  0.00    -0.550 OA
ATOM      4  O   UNL     1      -3.486   4.932  -8.481  1.00  0.00    -0.550 OA
ENDROOT
TORSDOF 0
ENDMDL
MODEL 8
REMARK VINA RESULT:    -1.870      6.066      6.656
REMARK INTER + INTRA:          -1.870
REMARK INTER:                  -1.870
REMARK INTRA:                   0.000
REMARK UNBOUND:                 0.000
REMARK SMILES CC(=O)[O-]
REMARK SMILES IDX 1 1 2 2 3 3 4 4
REMARK H PARENT
REMARK Flexibility Score: inf
ROOT
ATOM      1  C   UNL     1      -6.720 -10.480   2.191  1.00  0.00     0.063 C 
ATOM      2  C   UNL     1      -6.327 -10.237   0.773  1.00  0.00     0.038 C 
ATOM      3  O   UNL     1      -7.086  -9.583   0.010  1.00  0.00    -0.550 OA
ATOM      4  O   UNL     1      -5.099 -10.684   0.305  1.00  0.00    -0.550 OA
ENDROOT
TORSDOF 0
ENDMDL
MODEL 9
REMARK VINA RESULT:    -1.831      9.448      9.682
REMARK INTER + INTRA:          -1.831
REMARK INTER:                  -1.831
REMARK INTRA:                   0.000
REMARK UNBOUND:                 0.000
REMARK SMILES CC(=O)[O-]
REMARK SMILES IDX 1 1 2 2 3 3 4 4
REMARK H PARENT
REMARK Flexibility Score: inf
ROOT
ATOM      1  C   UNL     1       5.879  -6.600   4.268  1.00  0.00     0.063 C 
ATOM      2  C   UNL     1       4.609  -6.833   3.524  1.00  0.00     0.038 C 
ATOM      3  O   UNL     1       4.640  -7.167   2.310  1.00  0.00    -0.550 OA
ATOM      4  O   UNL     1       3.389  -6.734   4.180  1.00  0.00    -0.550 OA
ENDROOT
TORSDOF 0
ENDMDL
