MODEL 1
REMARK VINA RESULT:    -4.078      0.000      0.000
REMARK INTER + INTRA:          -4.660
REMARK INTER:                  -4.435
REMARK INTRA:                  -0.224
REMARK UNBOUND:                -0.224
REMARK SMILES O=C([O-])c1ccccc1O
REMARK SMILES IDX 4 1 9 2 5 3 8 4 6 5 7 6 2 7 1 8 3 9 10 10
REMARK H PARENT 10 11
REMARK Flexibility Score: inf
ROOT
ATOM      1  C   UNL     1     -57.599  26.394 -15.788  1.00  0.00     0.039 A 
ATOM      2  C   UNL     1     -56.390  26.258 -16.519  1.00  0.00     0.124 A 
ATOM      3  C   UNL     1     -57.799  25.592 -14.650  1.00  0.00     0.014 A 
ATOM      4  C   UNL     1     -55.452  25.291 -16.133  1.00  0.00     0.047 A 
ATOM      5  C   UNL     1     -56.845  24.647 -14.266  1.00  0.00     0.001 A 
ATOM      6  C   UNL     1     -55.678  24.491 -15.012  1.00  0.00     0.004 A 
ENDROOT
BRANCH   1   7
ATOM      7  C   UNL     1     -58.679  27.323 -16.191  1.00  0.00     0.075 C 
ATOM      8  O   UNL     1     -58.693  27.840 -17.338  1.00  0.00    -0.545 OA
ATOM      9  O   UNL     1     -59.734  27.580 -15.322  1.00  0.00    -0.545 OA
ENDBRANCH   1   7
BRANCH   2  10
ATOM     10  O   UNL     1     -56.067  27.078 -17.602  1.00  0.00    -0.507 OA
ATOM     11  H   UNL     1     -55.298  26.894 -18.232  1.00  0.00     0.293 HD
ENDBRANCH   2  10
TORSDOF 2
ENDMDL
MODEL 2
REMARK VINA RESULT:    -4.007     10.089     10.705
REMARK INTER + INTRA:          -4.583
REMARK INTER:                  -4.340
REMARK INTRA:                  -0.243
REMARK UNBOUND:                -0.224
REMARK SMILES O=C([O-])c1ccccc1O
REMARK SMILES IDX 4 1 9 2 5 3 8 4 6 5 7 6 2 7 1 8 3 9 10 10
REMARK H PARENT 10 11
REMARK Flexibility Score: inf
ROOT
ATOM      1  C   UNL     1     -60.044  16.579 -18.527  1.00  0.00     0.039 A 
ATOM      2  C   UNL     1     -60.932  17.079 -17.539  1.00  0.00     0.124 A 
ATOM      3  C   UNL     1     -58.769  17.159 -18.652  1.00  0.00     0.014 A 
ATOM      4  C   UNL     1     -60.548  18.174 -16.753  1.00  0.00     0.047 A 
ATOM      5  C   UNL     1     -58.394  18.238 -17.847  1.00  0.00     0.001 A 
ATOM      6  C   UNL     1     -59.286  18.750 -16.906  1.00  0.00     0.004 A 
ENDROOT
BRANCH   1   7
ATOM      7  C   UNL     1     -60.413  15.490 -19.459  1.00  0.00     0.075 C 
ATOM      8  O   UNL     1     -59.665  14.490 -19.616  1.00  0.00    -0.545 OA
ATOM      9  O   UNL     1     -61.634  15.529 -20.124  1.00  0.00    -0.545 OA
ENDBRANCH   1   7
BRANCH   2  10
ATOM     10  O   UNL     1     -62.177  16.502 -17.282  1.00  0.00    -0.507 OA
ATOM     11  H   UNL     1     -63.037  17.029 -17.232  1.00  0.00     0.293 HD
ENDBRANCH   2  10
TORSDOF 2
ENDMDL
MODEL 3
REMARK VINA RESULT:    -3.969      9.171      9.538
REMARK INTER + INTRA:          -4.541
REMARK INTER:                  -4.294
REMARK INTRA:                  -0.247
REMARK UNBOUND:                -0.224
REMARK SMILES O=C([O-])c1ccccc1O
REMARK SMILES IDX 4 1 9 2 5 3 8 4 6 5 7 6 2 7 1 8 3 9 10 10
REMARK H PARENT 10 11
REMARK Flexibility Score: inf
ROOT
ATOM      1  C   UNL     1     -60.124  17.831 -17.806  1.00  0.00     0.039 A 
ATOM      2  C   UNL     1     -59.615  17.815 -19.132  1.00  0.00     0.124 A 
ATOM      3  C   UNL     1     -61.066  16.857 -17.428  1.00  0.00     0.014 A 
ATOM      4  C   UNL     1     -60.104  16.876 -20.050  1.00  0.00     0.047 A 
ATOM      5  C   UNL     1     -61.528  15.915 -18.350  1.00  0.00     0.001 A 
ATOM      6  C   UNL     1     -61.054  15.931 -19.662  1.00  0.00     0.004 A 
ENDROOT
BRANCH   1   7
ATOM      7  C   UNL     1     -59.730  18.851 -16.809  1.00  0.00     0.075 C 
ATOM      8  O   UNL     1     -58.518  19.130 -16.613  1.00  0.00    -0.545 OA
ATOM      9  O   UNL     1     -60.707  19.567 -16.125  1.00  0.00    -0.545 OA
ENDBRANCH   1   7
BRANCH   2  10
ATOM     10  O   UNL     1     -58.609  18.681 -19.565  1.00  0.00    -0.507 OA
ATOM     11  H   UNL     1     -58.209  18.653 -20.491  1.00  0.00     0.293 HD
ENDBRANCH   2  10
TORSDOF 2
ENDMDL
MODEL 4
REMARK VINA RESULT:    -3.948      9.451     10.006
REMARK INTER + INTRA:          -4.518
REMARK INTER:                  -4.294
REMARK INTRA:                  -0.224
REMARK UNBOUND:                -0.224
REMARK SMILES O=C([O-])c1ccccc1O
REMARK SMILES IDX 4 1 9 2 5 3 8 4 6 5 7 6 2 7 1 8 3 9 10 10
REMARK H PARENT 10 11
REMARK Flexibility Score: inf
ROOT
ATOM      1  C   UNL     1     -59.970  17.618 -17.770  1.00  0.00     0.039 A 
ATOM      2  C   UNL     1     -60.981  16.630 -17.893  1.00  0.00     0.124 A 
ATOM      3  C   UNL     1     -58.866  17.574 -18.641  1.00  0.00     0.014 A 
ATOM      4  C   UNL     1     -60.832  15.599 -18.832  1.00  0.00     0.047 A 
ATOM      5  C   UNL     1     -58.742  16.552 -19.585  1.00  0.00     0.001 A 
ATOM      6  C   UNL     1     -59.719  15.561 -19.673  1.00  0.00     0.004 A 
ENDROOT
BRANCH   1   7
ATOM      7  C   UNL     1     -60.009  18.680 -16.740  1.00  0.00     0.075 C 
ATOM      8  O   UNL     1     -58.969  19.320 -16.430  1.00  0.00    -0.545 OA
ATOM      9  O   UNL     1     -61.218  19.031 -16.149  1.00  0.00    -0.545 OA
ENDBRANCH   1   7
BRANCH   2  10
ATOM     10  O   UNL     1     -62.155  16.652 -17.138  1.00  0.00    -0.507 OA
ATOM     11  H   UNL     1     -63.010  16.196 -17.421  1.00  0.00     0.293 HD
ENDBRANCH   2  10
TORSDOF 2
ENDMDL
MODEL 5
REMARK VINA RESULT:    -3.938      1.848      3.409
REMARK INTER + INTRA:          -4.508
REMARK INTER:                  -4.266
REMARK INTRA:                  -0.242
REMARK UNBOUND:                -0.224
REMARK SMILES O=C([O-])c1ccccc1O
REMARK SMILES IDX 4 1 9 2 5 3 8 4 6 5 7 6 2 7 1 8 3 9 10 10
REMARK H PARENT 10 11
REMARK Flexibility Score: inf
ROOT
ATOM      1  C   UNL     1     -56.898  25.721 -15.693  1.00  0.00     0.039 A 
ATOM      2  C   UNL     1     -56.931  26.760 -16.659  1.00  0.00     0.124 A 
ATOM      3  C   UNL     1     -57.987  25.574 -14.816  1.00  0.00     0.014 A 
ATOM      4  C   UNL     1     -58.011  27.653 -16.680  1.00  0.00     0.047 A 
ATOM      5  C   UNL     1     -59.066  26.460 -14.862  1.00  0.00     0.001 A 
ATOM      6  C   UNL     1     -59.072  27.504 -15.787  1.00  0.00     0.004 A 
ENDROOT
BRANCH   1   7
ATOM      7  C   UNL     1     -55.749  24.800 -15.546  1.00  0.00     0.075 C 
ATOM      8  O   UNL     1     -54.589  25.152 -15.889  1.00  0.00    -0.545 OA
ATOM      9  O   UNL     1     -55.928  23.553 -14.958  1.00  0.00    -0.545 OA
ENDBRANCH   1   7
BRANCH   2  10
ATOM     10  O   UNL     1     -55.941  26.920 -17.631  1.00  0.00    -0.507 OA
ATOM     11  H   UNL     1     -55.106  27.471 -17.492  1.00  0.00     0.293 HD
ENDBRANCH   2  10
TORSDOF 2
ENDMDL
MODEL 6
REMARK VINA RESULT:    -3.912     18.996     20.319
REMARK INTER + INTRA:          -4.480
REMARK INTER:                  -4.266
REMARK INTRA:                  -0.214
REMARK UNBOUND:                -0.224
REMARK SMILES O=C([O-])c1ccccc1O
REMARK SMILES IDX 4 1 9 2 5 3 8 4 6 5 7 6 2 7 1 8 3 9 10 10
REMARK H PARENT 10 11
REMARK Flexibility Score: inf
ROOT
ATOM      1  C   UNL     1     -52.358  12.982  -2.036  1.00  0.00     0.039 A 
ATOM      2  C   UNL     1     -52.387  13.037  -0.618  1.00  0.00     0.124 A 
ATOM      3  C   UNL     1     -53.346  12.238  -2.707  1.00  0.00     0.014 A 
ATOM      4  C   UNL     1     -53.353  12.305   0.085  1.00  0.00     0.047 A 
ATOM      5  C   UNL     1     -54.315  11.530  -1.992  1.00  0.00     0.001 A 
ATOM      6  C   UNL     1     -54.313  11.557  -0.598  1.00  0.00     0.004 A 
ENDROOT
BRANCH   1   7
ATOM      7  C   UNL     1     -51.311  13.647  -2.843  1.00  0.00     0.075 C 
ATOM      8  O   UNL     1     -51.174  14.899  -2.820  1.00  0.00    -0.545 OA
ATOM      9  O   UNL     1     -50.416  12.885  -3.585  1.00  0.00    -0.545 OA
ENDBRANCH   1   7
BRANCH   2  10
ATOM     10  O   UNL     1     -51.506  13.827   0.125  1.00  0.00    -0.507 OA
ATOM     11  H   UNL     1     -50.808  13.449   0.749  1.00  0.00     0.293 HD
ENDBRANCH   2  10
TORSDOF 2
ENDMDL
MODEL 7
REMARK VINA RESULT:    -3.833      1.034      2.179
REMARK INTER + INTRA:          -4.393
REMARK INTER:                  -4.161
REMARK INTRA:                  -0.232
REMARK UNBOUND:                -0.224
REMARK SMILES O=C([O-])c1ccccc1O
REMARK SMILES IDX 4 1 9 2 5 3 8 4 6 5 7 6 2 7 1 8 3 9 10 10
REMARK H PARENT 10 11
REMARK Flexibility Score: inf
ROOT
ATOM      1  C   UNL     1     -57.606  26.303 -16.062  1.00  0.00     0.039 A 
ATOM      2  C   UNL     1     -57.586  25.367 -14.995  1.00  0.00     0.124 A 
ATOM      3  C   UNL     1     -56.484  26.398 -16.904  1.00  0.00     0.014 A 
ATOM      4  C   UNL     1     -56.433  24.605 -14.764  1.00  0.00     0.047 A 
ATOM      5  C   UNL     1     -55.349  25.617 -16.672  1.00  0.00     0.001 A 
ATOM      6  C   UNL     1     -55.321  24.728 -15.598  1.00  0.00     0.004 A 
ENDROOT
BRANCH   1   7
ATOM      7  C   UNL     1     -58.748  27.211 -16.309  1.00  0.00     0.075 C 
ATOM      8  O   UNL     1     -58.950  27.701 -17.451  1.00  0.00    -0.545 OA
ATOM      9  O   UNL     1     -59.657  27.478 -15.290  1.00  0.00    -0.545 OA
ENDBRANCH   1   7
BRANCH   2  10
ATOM     10  O   UNL     1     -58.689  25.138 -14.170  1.00  0.00    -0.507 OA
ATOM     11  H   UNL     1     -58.798  25.551 -13.255  1.00  0.00     0.293 HD
ENDBRANCH   2  10
TORSDOF 2
ENDMDL
MODEL 8
REMARK VINA RESULT:    -3.780      9.341      9.828
REMARK INTER + INTRA:          -4.335
REMARK INTER:                  -4.088
REMARK INTRA:                  -0.247
REMARK UNBOUND:                -0.224
REMARK SMILES O=C([O-])c1ccccc1O
REMARK SMILES IDX 4 1 9 2 5 3 8 4 6 5 7 6 2 7 1 8 3 9 10 10
REMARK H PARENT 10 11
REMARK Flexibility Score: inf
ROOT
ATOM      1  C   UNL     1     -59.194  16.879 -17.733  1.00  0.00     0.039 A 
ATOM      2  C   UNL     1     -59.080  17.859 -18.753  1.00  0.00     0.124 A 
ATOM      3  C   UNL     1     -58.198  16.811 -16.742  1.00  0.00     0.014 A 
ATOM      4  C   UNL     1     -57.954  18.694 -18.790  1.00  0.00     0.047 A 
ATOM      5  C   UNL     1     -57.092  17.663 -16.781  1.00  0.00     0.001 A 
ATOM      6  C   UNL     1     -56.966  18.597 -17.809  1.00  0.00     0.004 A 
ENDROOT
BRANCH   1   7
ATOM      7  C   UNL     1     -60.302  15.900 -17.683  1.00  0.00     0.075 C 
ATOM      8  O   UNL     1     -60.077  14.679 -17.471  1.00  0.00    -0.545 OA
ATOM      9  O   UNL     1     -61.618  16.332 -17.802  1.00  0.00    -0.545 OA
ENDBRANCH   1   7
BRANCH   2  10
ATOM     10  O   UNL     1     -60.067  18.062 -19.720  1.00  0.00    -0.507 OA
ATOM     11  H   UNL     1     -60.222  17.439 -20.499  1.00  0.00     0.293 HD
ENDBRANCH   2  10
TORSDOF 2
ENDMDL
MODEL 9
REMARK VINA RESULT:    -3.774      7.854      8.330
REMARK INTER + INTRA:          -4.329
REMARK INTER:                  -4.086
REMARK INTRA:                  -0.243
REMARK UNBOUND:                -0.224
REMARK SMILES O=C([O-])c1ccccc1O
REMARK SMILES IDX 4 1 9 2 5 3 8 4 6 5 7 6 2 7 1 8 3 9 10 10
REMARK H PARENT 10 11
REMARK Flexibility Score: inf
ROOT
ATOM      1  C   UNL     1     -58.353  18.658 -17.874  1.00  0.00     0.039 A 
ATOM      2  C   UNL     1     -58.251  18.448 -19.275  1.00  0.00     0.124 A 
ATOM      3  C   UNL     1     -57.187  18.946 -17.144  1.00  0.00     0.014 A 
ATOM      4  C   UNL     1     -56.992  18.470 -19.888  1.00  0.00     0.047 A 
ATOM      5  C   UNL     1     -55.941  18.984 -17.774  1.00  0.00     0.001 A 
ATOM      6  C   UNL     1     -55.843  18.737 -19.143  1.00  0.00     0.004 A 
ENDROOT
BRANCH   1   7
ATOM      7  C   UNL     1     -59.634  18.555 -17.140  1.00  0.00     0.075 C 
ATOM      8  O   UNL     1     -60.414  17.585 -17.333  1.00  0.00    -0.545 OA
ATOM      9  O   UNL     1     -59.958  19.498 -16.171  1.00  0.00    -0.545 OA
ENDBRANCH   1   7
BRANCH   2  10
ATOM     10  O   UNL     1     -59.367  18.252 -20.092  1.00  0.00    -0.507 OA
ATOM     11  H   UNL     1     -59.949  19.005 -20.432  1.00  0.00     0.293 HD
ENDBRANCH   2  10
TORSDOF 2
ENDMDL
