MODEL 1
REMARK VINA RESULT:    -3.788      0.000      0.000
REMARK INTER + INTRA:          -5.740
REMARK INTER:                  -5.338
REMARK INTRA:                  -0.402
REMARK UNBOUND:                -0.402
REMARK SMILES CCCCCCCCC(=O)[O-]
REMARK SMILES IDX 6 1 7 2 8 3 9 4 10 5 11 6 5 7 4 8 3 9 2 10 1 11
REMARK H PARENT
REMARK Flexibility Score: inf
ROOT
ATOM      1  C   UNL     1       4.716  -3.561   1.017  1.00  0.00     0.000 C 
ENDROOT
BRANCH   1   2
ATOM      2  C   UNL     1       5.048  -2.144   0.528  1.00  0.00     0.006 C 
BRANCH   2   3
ATOM      3  C   UNL     1       5.101  -2.090  -1.002  1.00  0.00     0.053 C 
BRANCH   3   4
ATOM      4  C   UNL     1       5.570  -0.746  -1.464  1.00  0.00     0.041 C 
ATOM      5  O   UNL     1       5.002  -0.177  -2.434  1.00  0.00    -0.550 OA
ATOM      6  O   UNL     1       6.665  -0.145  -0.858  1.00  0.00    -0.550 OA
ENDBRANCH   3   4
ENDBRANCH   2   3
ENDBRANCH   1   2
BRANCH   1   7
ATOM      7  C   UNL     1       3.895  -4.364  -0.005  1.00  0.00     0.000 C 
BRANCH   7   8
ATOM      8  C   UNL     1       2.449  -4.602   0.454  1.00  0.00    -0.000 C 
BRANCH   8   9
ATOM      9  C   UNL     1       2.248  -4.132   1.901  1.00  0.00    -0.000 C 
BRANCH   9  10
ATOM     10  C   UNL     1       1.318  -5.083   2.663  1.00  0.00    -0.003 C 
ATOM     11  C   UNL     1       0.888  -6.254   1.785  1.00  0.00     0.004 C 
ENDBRANCH   9  10
ENDBRANCH   8   9
ENDBRANCH   7   8
ENDBRANCH   1   7
TORSDOF 7
ENDMDL
MODEL 2
REMARK VINA RESULT:    -3.613      0.792      1.595
REMARK INTER + INTRA:          -5.494
REMARK INTER:                  -5.107
REMARK INTRA:                  -0.387
REMARK UNBOUND:                -0.402
REMARK SMILES CCCCCCCCC(=O)[O-]
REMARK SMILES IDX 6 1 7 2 8 3 9 4 10 5 11 6 5 7 4 8 3 9 2 10 1 11
REMARK H PARENT
REMARK Flexibility Score: inf
ROOT
ATOM      1  C   UNL     1       5.922  -2.778   1.026  1.00  0.00     0.000 C 
ENDROOT
BRANCH   1   2
ATOM      2  C   UNL     1       5.144  -1.673   0.297  1.00  0.00     0.006 C 
BRANCH   2   3
ATOM      3  C   UNL     1       5.386  -1.739  -1.214  1.00  0.00     0.053 C 
BRANCH   3   4
ATOM      4  C   UNL     1       5.749  -0.388  -1.747  1.00  0.00     0.041 C 
ATOM      5  O   UNL     1       6.740   0.232  -1.278  1.00  0.00    -0.550 OA
ATOM      6  O   UNL     1       4.963   0.209  -2.725  1.00  0.00    -0.550 OA
ENDBRANCH   3   4
ENDBRANCH   2   3
ENDBRANCH   1   2
BRANCH   1   7
ATOM      7  C   UNL     1       5.100  -4.064   1.203  1.00  0.00     0.000 C 
BRANCH   7   8
ATOM      8  C   UNL     1       3.601  -3.788   1.388  1.00  0.00    -0.000 C 
BRANCH   8   9
ATOM      9  C   UNL     1       2.764  -4.620   0.407  1.00  0.00    -0.000 C 
BRANCH   9  10
ATOM     10  C   UNL     1       1.563  -5.259   1.114  1.00  0.00    -0.003 C 
ATOM     11  C   UNL     1       1.489  -4.824   2.574  1.00  0.00     0.004 C 
ENDBRANCH   9  10
ENDBRANCH   8   9
ENDBRANCH   7   8
ENDBRANCH   1   7
TORSDOF 7
ENDMDL
MODEL 3
REMARK VINA RESULT:    -3.604      3.137      5.989
REMARK INTER + INTRA:          -5.480
REMARK INTER:                  -5.040
REMARK INTRA:                  -0.440
REMARK UNBOUND:                -0.402
REMARK SMILES CCCCCCCCC(=O)[O-]
REMARK SMILES IDX 6 1 7 2 8 3 9 4 10 5 11 6 5 7 4 8 3 9 2 10 1 11
REMARK H PARENT
REMARK Flexibility Score: inf
ROOT
ATOM      1  C   UNL     1       5.148  -2.409   0.082  1.00  0.00     0.000 C 
ENDROOT
BRANCH   1   2
ATOM      2  C   UNL     1       4.384  -3.392   0.982  1.00  0.00     0.006 C 
BRANCH   2   3
ATOM      3  C   UNL     1       3.393  -4.226   0.165  1.00  0.00     0.053 C 
BRANCH   3   4
ATOM      4  C   UNL     1       2.199  -4.584   0.994  1.00  0.00     0.041 C 
ATOM      5  O   UNL     1       1.968  -3.969   2.069  1.00  0.00    -0.550 OA
ATOM      6  O   UNL     1       1.370  -5.628   0.606  1.00  0.00    -0.550 OA
ENDBRANCH   3   4
ENDBRANCH   2   3
ENDBRANCH   1   2
BRANCH   1   7
ATOM      7  C   UNL     1       5.506  -3.013  -1.285  1.00  0.00     0.000 C 
BRANCH   7   8
ATOM      8  C   UNL     1       6.074  -1.972  -2.261  1.00  0.00    -0.000 C 
BRANCH   8   9
ATOM      9  C   UNL     1       5.277  -0.663  -2.192  1.00  0.00    -0.000 C 
BRANCH   9  10
ATOM     10  C   UNL     1       6.215   0.549  -2.153  1.00  0.00    -0.003 C 
ATOM     11  C   UNL     1       7.414   0.288  -1.247  1.00  0.00     0.004 C 
ENDBRANCH   9  10
ENDBRANCH   8   9
ENDBRANCH   7   8
ENDBRANCH   1   7
TORSDOF 7
ENDMDL
MODEL 4
REMARK VINA RESULT:    -3.537      1.288      2.103
REMARK INTER + INTRA:          -5.387
REMARK INTER:                  -4.766
REMARK INTRA:                  -0.621
REMARK UNBOUND:                -0.402
REMARK SMILES CCCCCCCCC(=O)[O-]
REMARK SMILES IDX 6 1 7 2 8 3 9 4 10 5 11 6 5 7 4 8 3 9 2 10 1 11
REMARK H PARENT
REMARK Flexibility Score: inf
ROOT
ATOM      1  C   UNL     1       4.487  -4.639   1.806  1.00  0.00     0.000 C 
ENDROOT
BRANCH   1   2
ATOM      2  C   UNL     1       4.356  -3.319   1.032  1.00  0.00     0.006 C 
BRANCH   2   3
ATOM      3  C   UNL     1       4.837  -3.481  -0.413  1.00  0.00     0.053 C 
BRANCH   3   4
ATOM      4  C   UNL     1       5.250  -2.159  -0.980  1.00  0.00     0.041 C 
ATOM      5  O   UNL     1       5.162  -1.115  -0.281  1.00  0.00    -0.550 OA
ATOM      6  O   UNL     1       5.684  -2.072  -2.296  1.00  0.00    -0.550 OA
ENDBRANCH   3   4
ENDBRANCH   2   3
ENDBRANCH   1   2
BRANCH   1   7
ATOM      7  C   UNL     1       3.359  -4.841   2.830  1.00  0.00     0.000 C 
BRANCH   7   8
ATOM      8  C   UNL     1       1.980  -4.457   2.274  1.00  0.00    -0.000 C 
BRANCH   8   9
ATOM      9  C   UNL     1       1.113  -5.703   2.048  1.00  0.00    -0.000 C 
BRANCH   9  10
ATOM     10  C   UNL     1       1.272  -6.231   0.618  1.00  0.00    -0.003 C 
ATOM     11  C   UNL     1       1.456  -5.086  -0.374  1.00  0.00     0.004 C 
ENDBRANCH   9  10
ENDBRANCH   8   9
ENDBRANCH   7   8
ENDBRANCH   1   7
TORSDOF 7
ENDMDL
MODEL 5
REMARK VINA RESULT:    -3.523      1.064      1.764
REMARK INTER + INTRA:          -5.366
REMARK INTER:                  -4.966
REMARK INTRA:                  -0.399
REMARK UNBOUND:                -0.402
REMARK SMILES CCCCCCCCC(=O)[O-]
REMARK SMILES IDX 6 1 7 2 8 3 9 4 10 5 11 6 5 7 4 8 3 9 2 10 1 11
REMARK H PARENT
REMARK Flexibility Score: inf
ROOT
ATOM      1  C   UNL     1       5.152  -1.950   0.330  1.00  0.00     0.000 C 
ENDROOT
BRANCH   1   2
ATOM      2  C   UNL     1       5.137  -2.052  -1.203  1.00  0.00     0.006 C 
BRANCH   2   3
ATOM      3  C   UNL     1       5.553  -0.726  -1.845  1.00  0.00     0.053 C 
BRANCH   3   4
ATOM      4  C   UNL     1       7.026  -0.508  -1.694  1.00  0.00     0.041 C 
ATOM      5  O   UNL     1       7.836  -1.425  -1.996  1.00  0.00    -0.550 OA
ATOM      6  O   UNL     1       7.503   0.687  -1.172  1.00  0.00    -0.550 OA
ENDBRANCH   3   4
ENDBRANCH   2   3
ENDBRANCH   1   2
BRANCH   1   7
ATOM      7  C   UNL     1       4.514  -3.170   1.012  1.00  0.00     0.000 C 
BRANCH   7   8
ATOM      8  C   UNL     1       3.890  -4.151   0.007  1.00  0.00    -0.000 C 
BRANCH   8   9
ATOM      9  C   UNL     1       2.465  -4.533   0.427  1.00  0.00    -0.000 C 
BRANCH   9  10
ATOM     10  C   UNL     1       2.219  -4.201   1.903  1.00  0.00    -0.003 C 
ATOM     11  C   UNL     1       1.264  -5.205   2.541  1.00  0.00     0.004 C 
ENDBRANCH   9  10
ENDBRANCH   8   9
ENDBRANCH   7   8
ENDBRANCH   1   7
TORSDOF 7
ENDMDL
MODEL 6
REMARK VINA RESULT:    -3.499      3.879      6.221
REMARK INTER + INTRA:          -5.332
REMARK INTER:                  -4.981
REMARK INTRA:                  -0.351
REMARK UNBOUND:                -0.402
REMARK SMILES CCCCCCCCC(=O)[O-]
REMARK SMILES IDX 6 1 7 2 8 3 9 4 10 5 11 6 5 7 4 8 3 9 2 10 1 11
REMARK H PARENT
REMARK Flexibility Score: inf
ROOT
ATOM      1  C   UNL     1       3.225  -4.193   0.326  1.00  0.00     0.000 C 
ENDROOT
BRANCH   1   2
ATOM      2  C   UNL     1       3.217  -4.230   1.861  1.00  0.00     0.006 C 
BRANCH   2   3
ATOM      3  C   UNL     1       1.811  -4.517   2.396  1.00  0.00     0.053 C 
BRANCH   3   4
ATOM      4  C   UNL     1       1.593  -5.991   2.535  1.00  0.00     0.041 C 
ATOM      5  O   UNL     1       2.546  -6.743   2.874  1.00  0.00    -0.550 OA
ATOM      6  O   UNL     1       0.352  -6.542   2.243  1.00  0.00    -0.550 OA
ENDBRANCH   3   4
ENDBRANCH   2   3
ENDBRANCH   1   2
BRANCH   1   7
ATOM      7  C   UNL     1       4.581  -3.755  -0.249  1.00  0.00     0.000 C 
BRANCH   7   8
ATOM      8  C   UNL     1       5.251  -2.654   0.586  1.00  0.00    -0.000 C 
BRANCH   8   9
ATOM      9  C   UNL     1       5.159  -1.296  -0.121  1.00  0.00    -0.000 C 
BRANCH   9  10
ATOM     10  C   UNL     1       5.438  -1.438  -1.622  1.00  0.00    -0.003 C 
ATOM     11  C   UNL     1       5.492  -0.074  -2.303  1.00  0.00     0.004 C 
ENDBRANCH   9  10
ENDBRANCH   8   9
ENDBRANCH   7   8
ENDBRANCH   1   7
TORSDOF 7
ENDMDL
MODEL 7
REMARK VINA RESULT:    -3.482      1.395      2.195
REMARK INTER + INTRA:          -5.309
REMARK INTER:                  -4.788
REMARK INTRA:                  -0.521
REMARK UNBOUND:                -0.402
REMARK SMILES CCCCCCCCC(=O)[O-]
REMARK SMILES IDX 6 1 7 2 8 3 9 4 10 5 11 6 5 7 4 8 3 9 2 10 1 11
REMARK H PARENT
REMARK Flexibility Score: inf
ROOT
ATOM      1  C   UNL     1       3.667  -5.101   0.025  1.00  0.00     0.000 C 
ENDROOT
BRANCH   1   2
ATOM      2  C   UNL     1       4.494  -3.864  -0.354  1.00  0.00     0.006 C 
BRANCH   2   3
ATOM      3  C   UNL     1       4.606  -2.897   0.828  1.00  0.00     0.053 C 
BRANCH   3   4
ATOM      4  C   UNL     1       5.320  -1.647   0.418  1.00  0.00     0.041 C 
ATOM      5  O   UNL     1       6.223  -1.164   1.152  1.00  0.00    -0.550 OA
ATOM      6  O   UNL     1       4.955  -0.988  -0.748  1.00  0.00    -0.550 OA
ENDBRANCH   3   4
ENDBRANCH   2   3
ENDBRANCH   1   2
BRANCH   1   7
ATOM      7  C   UNL     1       2.165  -4.798   0.138  1.00  0.00     0.000 C 
BRANCH   7   8
ATOM      8  C   UNL     1       1.534  -5.394   1.405  1.00  0.00    -0.000 C 
BRANCH   8   9
ATOM      9  C   UNL     1       1.794  -4.496   2.621  1.00  0.00    -0.000 C 
BRANCH   9  10
ATOM     10  C   UNL     1       2.887  -5.088   3.518  1.00  0.00    -0.003 C 
ATOM     11  C   UNL     1       2.599  -6.550   3.845  1.00  0.00     0.004 C 
ENDBRANCH   9  10
ENDBRANCH   8   9
ENDBRANCH   7   8
ENDBRANCH   1   7
TORSDOF 7
ENDMDL
MODEL 8
REMARK VINA RESULT:    -3.435      3.771      5.354
REMARK INTER + INTRA:          -5.242
REMARK INTER:                  -4.614
REMARK INTRA:                  -0.627
REMARK UNBOUND:                -0.402
REMARK SMILES CCCCCCCCC(=O)[O-]
REMARK SMILES IDX 6 1 7 2 8 3 9 4 10 5 11 6 5 7 4 8 3 9 2 10 1 11
REMARK H PARENT
REMARK Flexibility Score: inf
ROOT
ATOM      1  C   UNL     1       6.619  -2.822   1.191  1.00  0.00     0.000 C 
ENDROOT
BRANCH   1   2
ATOM      2  C   UNL     1       7.634  -1.869   1.839  1.00  0.00     0.006 C 
BRANCH   2   3
ATOM      3  C   UNL     1       7.181  -0.412   1.705  1.00  0.00     0.053 C 
BRANCH   3   4
ATOM      4  C   UNL     1       7.927   0.460   2.665  1.00  0.00     0.041 C 
ATOM      5  O   UNL     1       7.761   1.709   2.647  1.00  0.00    -0.550 OA
ATOM      6  O   UNL     1       8.844  -0.099   3.545  1.00  0.00    -0.550 OA
ENDBRANCH   3   4
ENDBRANCH   2   3
ENDBRANCH   1   2
BRANCH   1   7
ATOM      7  C   UNL     1       5.402  -2.085   0.608  1.00  0.00     0.000 C 
BRANCH   7   8
ATOM      8  C   UNL     1       4.986  -2.625  -0.768  1.00  0.00    -0.000 C 
BRANCH   8   9
ATOM      9  C   UNL     1       5.785  -1.946  -1.888  1.00  0.00    -0.000 C 
BRANCH   9  10
ATOM     10  C   UNL     1       5.453  -0.452  -1.972  1.00  0.00    -0.003 C 
ATOM     11  C   UNL     1       6.717   0.398  -1.877  1.00  0.00     0.004 C 
ENDBRANCH   9  10
ENDBRANCH   8   9
ENDBRANCH   7   8
ENDBRANCH   1   7
TORSDOF 7
ENDMDL
MODEL 9
REMARK VINA RESULT:    -3.387      1.759      2.993
REMARK INTER + INTRA:          -5.176
REMARK INTER:                  -4.641
REMARK INTRA:                  -0.535
REMARK UNBOUND:                -0.402
REMARK SMILES CCCCCCCCC(=O)[O-]
REMARK SMILES IDX 6 1 7 2 8 3 9 4 10 5 11 6 5 7 4 8 3 9 2 10 1 11
REMARK H PARENT
REMARK Flexibility Score: inf
ROOT
ATOM      1  C   UNL     1       5.830  -1.959  -2.272  1.00  0.00     0.000 C 
ENDROOT
BRANCH   1   2
ATOM      2  C   UNL     1       5.309  -0.564  -1.900  1.00  0.00     0.006 C 
BRANCH   2   3
ATOM      3  C   UNL     1       6.395   0.498  -2.097  1.00  0.00     0.053 C 
BRANCH   3   4
ATOM      4  C   UNL     1       7.601   0.175  -1.271  1.00  0.00     0.041 C 
ATOM      5  O   UNL     1       7.516   0.135  -0.015  1.00  0.00    -0.550 OA
ATOM      6  O   UNL     1       8.829  -0.034  -1.885  1.00  0.00    -0.550 OA
ENDBRANCH   3   4
ENDBRANCH   2   3
ENDBRANCH   1   2
BRANCH   1   7
ATOM      7  C   UNL     1       5.632  -2.986  -1.146  1.00  0.00     0.000 C 
BRANCH   7   8
ATOM      8  C   UNL     1       4.934  -2.388   0.084  1.00  0.00    -0.000 C 
BRANCH   8   9
ATOM      9  C   UNL     1       4.256  -3.483   0.917  1.00  0.00    -0.000 C 
BRANCH   9  10
ATOM     10  C   UNL     1       3.715  -4.601   0.018  1.00  0.00    -0.003 C 
ATOM     11  C   UNL     1       2.193  -4.686   0.099  1.00  0.00     0.004 C 
ENDBRANCH   9  10
ENDBRANCH   8   9
ENDBRANCH   7   8
ENDBRANCH   1   7
TORSDOF 7
ENDMDL
