MODEL 1
REMARK VINA RESULT:    -2.268      0.000      0.000
REMARK INTER + INTRA:          -4.690
REMARK INTER:                  -3.328
REMARK INTRA:                  -1.361
REMARK UNBOUND:                -1.361
REMARK SMILES CCCCCC(=O)CCCCC
REMARK SMILES IDX 6 1 7 2 5 3 4 4 3 5 2 6 1 7 8 8 9 9 10 10 11 11 12 12
REMARK H PARENT
REMARK Flexibility Score: inf
ROOT
ATOM      1  C   UNL     1     112.337 125.031 115.216  1.00  0.00     0.132 C 
ATOM      2  O   UNL     1     112.929 124.749 114.184  1.00  0.00    -0.300 OA
ENDROOT
BRANCH   1   3
ATOM      3  C   UNL     1     112.966 124.708 116.546  1.00  0.00     0.075 C 
BRANCH   3   4
ATOM      4  C   UNL     1     112.398 123.405 117.122  1.00  0.00     0.008 C 
BRANCH   4   5
ATOM      5  C   UNL     1     112.023 123.575 118.601  1.00  0.00     0.000 C 
BRANCH   5   6
ATOM      6  C   UNL     1     112.645 124.834 119.226  1.00  0.00    -0.003 C 
ATOM      7  C   UNL     1     111.643 125.644 120.048  1.00  0.00     0.004 C 
ENDBRANCH   5   6
ENDBRANCH   4   5
ENDBRANCH   3   4
ENDBRANCH   1   3
BRANCH   1   8
ATOM      8  C   UNL     1     110.975 125.669 115.139  1.00  0.00     0.075 C 
BRANCH   8   9
ATOM      9  C   UNL     1     110.601 126.435 116.420  1.00  0.00     0.008 C 
BRANCH   9  10
ATOM     10  C   UNL     1     109.344 125.889 117.126  1.00  0.00     0.000 C 
BRANCH  10  11
ATOM     11  C   UNL     1     108.802 124.609 116.476  1.00  0.00    -0.003 C 
ATOM     12  C   UNL     1     108.476 123.553 117.528  1.00  0.00     0.004 C 
ENDBRANCH  10  11
ENDBRANCH   9  10
ENDBRANCH   8   9
ENDBRANCH   1   8
TORSDOF 8
ENDMDL
MODEL 2
REMARK VINA RESULT:    -2.221     11.926     13.491
REMARK INTER + INTRA:          -4.621
REMARK INTER:                  -3.288
REMARK INTRA:                  -1.332
REMARK UNBOUND:                -1.361
REMARK SMILES CCCCCC(=O)CCCCC
REMARK SMILES IDX 6 1 7 2 5 3 4 4 3 5 2 6 1 7 8 8 9 9 10 10 11 11 12 12
REMARK H PARENT
REMARK Flexibility Score: inf
ROOT
ATOM      1  C   UNL     1     125.595 124.166 115.134  1.00  0.00     0.132 C 
ATOM      2  O   UNL     1     126.005 124.379 114.003  1.00  0.00    -0.300 OA
ENDROOT
BRANCH   1   3
ATOM      3  C   UNL     1     126.111 122.977 115.902  1.00  0.00     0.075 C 
BRANCH   3   4
ATOM      4  C   UNL     1     125.357 121.700 115.513  1.00  0.00     0.008 C 
BRANCH   4   5
ATOM      5  C   UNL     1     124.747 121.023 116.749  1.00  0.00     0.000 C 
BRANCH   5   6
ATOM      6  C   UNL     1     125.392 121.501 118.060  1.00  0.00    -0.003 C 
ATOM      7  C   UNL     1     124.707 120.928 119.300  1.00  0.00     0.004 C 
ENDBRANCH   5   6
ENDBRANCH   4   5
ENDBRANCH   3   4
ENDBRANCH   1   3
BRANCH   1   8
ATOM      8  C   UNL     1     124.555 125.079 115.730  1.00  0.00     0.075 C 
BRANCH   8   9
ATOM      9  C   UNL     1     124.688 125.220 117.256  1.00  0.00     0.008 C 
BRANCH   9  10
ATOM     10  C   UNL     1     123.498 124.633 118.041  1.00  0.00     0.000 C 
BRANCH  10  11
ATOM     11  C   UNL     1     122.315 124.256 117.139  1.00  0.00    -0.003 C 
ATOM     12  C   UNL     1     121.687 122.937 117.580  1.00  0.00     0.004 C 
ENDBRANCH  10  11
ENDBRANCH   9  10
ENDBRANCH   8   9
ENDBRANCH   1   8
TORSDOF 8
ENDMDL
MODEL 3
REMARK VINA RESULT:    -2.219      9.568     11.486
REMARK INTER + INTRA:          -4.617
REMARK INTER:                  -3.854
REMARK INTRA:                  -0.764
REMARK UNBOUND:                -1.361
REMARK SMILES CCCCCC(=O)CCCCC
REMARK SMILES IDX 6 1 7 2 5 3 4 4 3 5 2 6 1 7 8 8 9 9 10 10 11 11 12 12
REMARK H PARENT
REMARK Flexibility Score: inf
ROOT
ATOM      1  C   UNL     1     116.269 117.866 112.723  1.00  0.00     0.132 C 
ATOM      2  O   UNL     1     115.384 117.794 111.883  1.00  0.00    -0.300 OA
ENDROOT
BRANCH   1   3
ATOM      3  C   UNL     1     116.791 119.217 113.139  1.00  0.00     0.075 C 
BRANCH   3   4
ATOM      4  C   UNL     1     117.825 119.742 112.137  1.00  0.00     0.008 C 
BRANCH   4   5
ATOM      5  C   UNL     1     119.246 119.642 112.709  1.00  0.00     0.000 C 
BRANCH   5   6
ATOM      6  C   UNL     1     119.256 119.492 114.238  1.00  0.00    -0.003 C 
ATOM      7  C   UNL     1     120.299 120.382 114.914  1.00  0.00     0.004 C 
ENDBRANCH   5   6
ENDBRANCH   4   5
ENDBRANCH   3   4
ENDBRANCH   1   3
BRANCH   1   8
ATOM      8  C   UNL     1     116.846 116.602 113.303  1.00  0.00     0.075 C 
BRANCH   8   9
ATOM      9  C   UNL     1     118.011 116.039 112.470  1.00  0.00     0.008 C 
BRANCH   9  10
ATOM     10  C   UNL     1     119.232 115.618 113.311  1.00  0.00     0.000 C 
BRANCH  10  11
ATOM     11  C   UNL     1     119.659 114.166 113.058  1.00  0.00    -0.003 C 
ATOM     12  C   UNL     1     119.884 113.422 114.371  1.00  0.00     0.004 C 
ENDBRANCH  10  11
ENDBRANCH   9  10
ENDBRANCH   8   9
ENDBRANCH   1   8
TORSDOF 8
ENDMDL
MODEL 4
REMARK VINA RESULT:    -2.182      1.635      3.753
REMARK INTER + INTRA:          -4.564
REMARK INTER:                  -3.213
REMARK INTRA:                  -1.351
REMARK UNBOUND:                -1.361
REMARK SMILES CCCCCC(=O)CCCCC
REMARK SMILES IDX 6 1 7 2 5 3 4 4 3 5 2 6 1 7 8 8 9 9 10 10 11 11 12 12
REMARK H PARENT
REMARK Flexibility Score: inf
ROOT
ATOM      1  C   UNL     1     109.465 125.507 115.195  1.00  0.00     0.132 C 
ATOM      2  O   UNL     1     109.118 125.907 114.093  1.00  0.00    -0.300 OA
ENDROOT
BRANCH   1   3
ATOM      3  C   UNL     1     108.605 124.512 115.930  1.00  0.00     0.075 C 
BRANCH   3   4
ATOM      4  C   UNL     1     108.757 124.666 117.447  1.00  0.00     0.008 C 
BRANCH   4   5
ATOM      5  C   UNL     1     109.153 123.334 118.099  1.00  0.00     0.000 C 
BRANCH   5   6
ATOM      6  C   UNL     1     109.577 122.277 117.068  1.00  0.00    -0.003 C 
ATOM      7  C   UNL     1     110.922 121.630 117.401  1.00  0.00     0.004 C 
ENDBRANCH   5   6
ENDBRANCH   4   5
ENDBRANCH   3   4
ENDBRANCH   1   3
BRANCH   1   8
ATOM      8  C   UNL     1     110.730 126.041 115.813  1.00  0.00     0.075 C 
BRANCH   8   9
ATOM      9  C   UNL     1     111.989 125.298 115.335  1.00  0.00     0.008 C 
BRANCH   9  10
ATOM     10  C   UNL     1     112.798 124.648 116.474  1.00  0.00     0.000 C 
BRANCH  10  11
ATOM     11  C   UNL     1     112.368 125.133 117.865  1.00  0.00    -0.003 C 
ATOM     12  C   UNL     1     113.057 124.331 118.965  1.00  0.00     0.004 C 
ENDBRANCH  10  11
ENDBRANCH   9  10
ENDBRANCH   8   9
ENDBRANCH   1   8
TORSDOF 8
ENDMDL
MODEL 5
REMARK VINA RESULT:    -2.171      9.275     11.199
REMARK INTER + INTRA:          -4.547
REMARK INTER:                  -3.571
REMARK INTRA:                  -0.976
REMARK UNBOUND:                -1.361
REMARK SMILES CCCCCC(=O)CCCCC
REMARK SMILES IDX 6 1 7 2 5 3 4 4 3 5 2 6 1 7 8 8 9 9 10 10 11 11 12 12
REMARK H PARENT
REMARK Flexibility Score: inf
ROOT
ATOM      1  C   UNL     1     116.025 117.414 113.275  1.00  0.00     0.132 C 
ATOM      2  O   UNL     1     115.377 116.810 112.434  1.00  0.00    -0.300 OA
ENDROOT
BRANCH   1   3
ATOM      3  C   UNL     1     116.543 116.679 114.485  1.00  0.00     0.075 C 
BRANCH   3   4
ATOM      4  C   UNL     1     117.509 115.561 114.079  1.00  0.00     0.008 C 
BRANCH   4   5
ATOM      5  C   UNL     1     118.894 116.127 113.735  1.00  0.00     0.000 C 
BRANCH   5   6
ATOM      6  C   UNL     1     119.308 115.829 112.285  1.00  0.00    -0.003 C 
ATOM      7  C   UNL     1     119.069 114.373 111.887  1.00  0.00     0.004 C 
ENDBRANCH   5   6
ENDBRANCH   4   5
ENDBRANCH   3   4
ENDBRANCH   1   3
BRANCH   1   8
ATOM      8  C   UNL     1     116.268 118.890 113.105  1.00  0.00     0.075 C 
BRANCH   8   9
ATOM      9  C   UNL     1     117.133 119.216 111.875  1.00  0.00     0.008 C 
BRANCH   9  10
ATOM     10  C   UNL     1     118.292 120.188 112.168  1.00  0.00     0.000 C 
BRANCH  10  11
ATOM     11  C   UNL     1     119.478 119.510 112.868  1.00  0.00    -0.003 C 
ATOM     12  C   UNL     1     119.591 119.962 114.321  1.00  0.00     0.004 C 
ENDBRANCH  10  11
ENDBRANCH   9  10
ENDBRANCH   8   9
ENDBRANCH   1   8
TORSDOF 8
ENDMDL
MODEL 6
REMARK VINA RESULT:    -2.169     10.230     12.039
REMARK INTER + INTRA:          -4.545
REMARK INTER:                  -3.183
REMARK INTRA:                  -1.363
REMARK UNBOUND:                -1.361
REMARK SMILES CCCCCC(=O)CCCCC
REMARK SMILES IDX 6 1 7 2 5 3 4 4 3 5 2 6 1 7 8 8 9 9 10 10 11 11 12 12
REMARK H PARENT
REMARK Flexibility Score: inf
ROOT
ATOM      1  C   UNL     1     117.196 114.845 115.182  1.00  0.00     0.132 C 
ATOM      2  O   UNL     1     117.951 114.083 115.768  1.00  0.00    -0.300 OA
ENDROOT
BRANCH   1   3
ATOM      3  C   UNL     1     117.539 116.309 115.092  1.00  0.00     0.075 C 
BRANCH   3   4
ATOM      4  C   UNL     1     118.851 116.522 114.329  1.00  0.00     0.008 C 
BRANCH   4   5
ATOM      5  C   UNL     1     118.583 116.847 112.852  1.00  0.00     0.000 C 
BRANCH   5   6
ATOM      6  C   UNL     1     119.213 115.818 111.900  1.00  0.00    -0.003 C 
ATOM      7  C   UNL     1     119.875 114.654 112.638  1.00  0.00     0.004 C 
ENDBRANCH   5   6
ENDBRANCH   4   5
ENDBRANCH   3   4
ENDBRANCH   1   3
BRANCH   1   8
ATOM      8  C   UNL     1     115.919 114.312 114.588  1.00  0.00     0.075 C 
BRANCH   8   9
ATOM      9  C   UNL     1     116.024 114.059 113.074  1.00  0.00     0.008 C 
BRANCH   9  10
ATOM     10  C   UNL     1     115.334 115.137 112.214  1.00  0.00     0.000 C 
BRANCH  10  11
ATOM     11  C   UNL     1     114.366 116.015 113.020  1.00  0.00    -0.003 C 
ATOM     12  C   UNL     1     114.704 117.494 112.860  1.00  0.00     0.004 C 
ENDBRANCH  10  11
ENDBRANCH   9  10
ENDBRANCH   8   9
ENDBRANCH   1   8
TORSDOF 8
ENDMDL
MODEL 7
REMARK VINA RESULT:    -2.122     10.173     11.820
REMARK INTER + INTRA:          -4.476
REMARK INTER:                  -3.454
REMARK INTRA:                  -1.022
REMARK UNBOUND:                -1.361
REMARK SMILES CCCCCC(=O)CCCCC
REMARK SMILES IDX 6 1 7 2 5 3 4 4 3 5 2 6 1 7 8 8 9 9 10 10 11 11 12 12
REMARK H PARENT
REMARK Flexibility Score: inf
ROOT
ATOM      1  C   UNL     1     119.401 114.930 112.617  1.00  0.00     0.132 C 
ATOM      2  O   UNL     1     120.478 114.368 112.750  1.00  0.00    -0.300 OA
ENDROOT
BRANCH   1   3
ATOM      3  C   UNL     1     119.337 116.257 111.907  1.00  0.00     0.075 C 
BRANCH   3   4
ATOM      4  C   UNL     1     118.752 117.343 112.817  1.00  0.00     0.008 C 
BRANCH   4   5
ATOM      5  C   UNL     1     117.686 118.164 112.079  1.00  0.00     0.000 C 
BRANCH   5   6
ATOM      6  C   UNL     1     117.128 119.311 112.936  1.00  0.00    -0.003 C 
ATOM      7  C   UNL     1     117.515 119.191 114.410  1.00  0.00     0.004 C 
ENDBRANCH   5   6
ENDBRANCH   4   5
ENDBRANCH   3   4
ENDBRANCH   1   3
BRANCH   1   8
ATOM      8  C   UNL     1     118.160 114.302 113.194  1.00  0.00     0.075 C 
BRANCH   8   9
ATOM      9  C   UNL     1     117.006 114.218 112.180  1.00  0.00     0.008 C 
BRANCH   9  10
ATOM     10  C   UNL     1     115.607 114.327 112.819  1.00  0.00     0.000 C 
BRANCH  10  11
ATOM     11  C   UNL     1     114.989 115.724 112.668  1.00  0.00    -0.003 C 
ATOM     12  C   UNL     1     114.853 116.414 114.022  1.00  0.00     0.004 C 
ENDBRANCH  10  11
ENDBRANCH   9  10
ENDBRANCH   8   9
ENDBRANCH   1   8
TORSDOF 8
ENDMDL
MODEL 8
REMARK VINA RESULT:    -2.092      9.500     11.037
REMARK INTER + INTRA:          -4.432
REMARK INTER:                  -3.680
REMARK INTRA:                  -0.752
REMARK UNBOUND:                -1.361
REMARK SMILES CCCCCC(=O)CCCCC
REMARK SMILES IDX 6 1 7 2 5 3 4 4 3 5 2 6 1 7 8 8 9 9 10 10 11 11 12 12
REMARK H PARENT
REMARK Flexibility Score: inf
ROOT
ATOM      1  C   UNL     1     115.855 115.285 112.824  1.00  0.00     0.132 C 
ATOM      2  O   UNL     1     115.989 114.196 113.362  1.00  0.00    -0.300 OA
ENDROOT
BRANCH   1   3
ATOM      3  C   UNL     1     116.920 115.785 111.883  1.00  0.00     0.075 C 
BRANCH   3   4
ATOM      4  C   UNL     1     117.736 116.914 112.522  1.00  0.00     0.008 C 
BRANCH   4   5
ATOM      5  C   UNL     1     118.867 116.351 113.395  1.00  0.00     0.000 C 
BRANCH   5   6
ATOM      6  C   UNL     1     119.537 115.119 112.766  1.00  0.00    -0.003 C 
ATOM      7  C   UNL     1     119.563 113.914 113.706  1.00  0.00     0.004 C 
ENDBRANCH   5   6
ENDBRANCH   4   5
ENDBRANCH   3   4
ENDBRANCH   1   3
BRANCH   1   8
ATOM      8  C   UNL     1     114.643 116.123 113.136  1.00  0.00     0.075 C 
BRANCH   8   9
ATOM      9  C   UNL     1     113.970 116.692 111.875  1.00  0.00     0.008 C 
BRANCH   9  10
ATOM     10  C   UNL     1     113.433 118.126 112.049  1.00  0.00     0.000 C 
BRANCH  10  11
ATOM     11  C   UNL     1     114.387 119.028 112.844  1.00  0.00    -0.003 C 
ATOM     12  C   UNL     1     113.676 119.666 114.034  1.00  0.00     0.004 C 
ENDBRANCH  10  11
ENDBRANCH   9  10
ENDBRANCH   8   9
ENDBRANCH   1   8
TORSDOF 8
ENDMDL
