MODEL 1
REMARK VINA RESULT:    -8.013      0.000      0.000
REMARK INTER + INTRA:          -9.960
REMARK INTER:                  -9.653
REMARK INTRA:                  -0.307
REMARK UNBOUND:                -0.307
REMARK SMILES O=c1c(O)c(-c2ccc(O)c(O)c2)oc2cc(O)cc(O)c12
REMARK SMILES IDX 5 1 3 2 2 3 1 4 22 5 20 6 19 7 17 8 16 9 15 10 14 11 6 12
REMARK SMILES IDX 7 13 8 14 9 15 13 16 11 17 10 18 12 20 4 22 21 24 18 26
REMARK H PARENT 10 19 12 21 4 23 21 25 18 27
REMARK Flexibility Score: inf
ROOT
ATOM      1  C   UNL     1      14.837 120.195  24.538  1.00  0.00     0.180 A 
ATOM      2  C   UNL     1      13.758 120.642  23.757  1.00  0.00     0.208 A 
ATOM      3  C   UNL     1      13.220 121.916  24.005  1.00  0.00     0.238 A 
ATOM      4  O   UNL     1      12.304 122.340  23.253  1.00  0.00    -0.285 OA
ATOM      5  C   UNL     1      13.731 122.703  25.065  1.00  0.00     0.111 A 
ATOM      6  C   UNL     1      13.233 123.989  25.435  1.00  0.00     0.134 A 
ATOM      7  C   UNL     1      13.886 124.721  26.434  1.00  0.00     0.093 A 
ATOM      8  C   UNL     1      14.979 124.187  27.121  1.00  0.00     0.123 A 
ATOM      9  C   UNL     1      15.438 122.911  26.805  1.00  0.00     0.094 A 
ATOM     10  C   UNL     1      14.832 122.171  25.787  1.00  0.00     0.146 A 
ATOM     11  O   UNL     1      15.316 120.968  25.504  1.00  0.00    -0.452 OA
ENDROOT
BRANCH   1  12
ATOM     12  C   UNL     1      15.467 118.871  24.327  1.00  0.00     0.025 A 
ATOM     13  C   UNL     1      14.908 117.700  24.867  1.00  0.00     0.016 A 
ATOM     14  C   UNL     1      15.507 116.459  24.636  1.00  0.00     0.051 A 
ATOM     15  C   UNL     1      16.665 116.368  23.851  1.00  0.00     0.157 A 
ATOM     16  C   UNL     1      16.615 118.772  23.524  1.00  0.00     0.062 A 
ATOM     17  C   UNL     1      17.218 117.531  23.291  1.00  0.00     0.158 A 
BRANCH  15  18
ATOM     18  O   UNL     1      17.261 115.129  23.624  1.00  0.00    -0.504 OA
ATOM     19  H   UNL     1      17.503 114.820  22.689  1.00  0.00     0.293 HD
ENDBRANCH  15  18
BRANCH  17  20
ATOM     20  O   UNL     1      18.365 117.474  22.499  1.00  0.00    -0.504 OA
ATOM     21  H   UNL     1      18.404 116.927  21.648  1.00  0.00     0.293 HD
ENDBRANCH  17  20
ENDBRANCH   1  12
BRANCH   2  22
ATOM     22  O   UNL     1      13.219 119.819  22.764  1.00  0.00    -0.502 OA
ATOM     23  H   UNL     1      12.594 120.170  22.047  1.00  0.00     0.293 HD
ENDBRANCH   2  22
BRANCH   6  24
ATOM     24  O   UNL     1      12.094 124.578  24.877  1.00  0.00    -0.507 OA
ATOM     25  H   UNL     1      11.522 124.163  24.158  1.00  0.00     0.293 HD
ENDBRANCH   6  24
BRANCH   8  26
ATOM     26  O   UNL     1      15.612 124.916  28.125  1.00  0.00    -0.508 OA
ATOM     27  H   UNL     1      16.286 124.486  28.748  1.00  0.00     0.293 HD
ENDBRANCH   8  26
TORSDOF 6
ENDMDL
MODEL 2
REMARK VINA RESULT:    -7.989      1.675      7.009
REMARK INTER + INTRA:          -9.931
REMARK INTER:                  -9.641
REMARK INTRA:                  -0.290
REMARK UNBOUND:                -0.307
REMARK SMILES O=c1c(O)c(-c2ccc(O)c(O)c2)oc2cc(O)cc(O)c12
REMARK SMILES IDX 5 1 3 2 2 3 1 4 22 5 20 6 19 7 17 8 16 9 15 10 14 11 6 12
REMARK SMILES IDX 7 13 8 14 9 15 13 16 11 17 10 18 12 20 4 22 21 24 18 26
REMARK H PARENT 10 19 12 21 4 23 21 25 18 27
REMARK Flexibility Score: inf
ROOT
ATOM      1  C   UNL     1      14.075 120.482  25.422  1.00  0.00     0.180 A 
ATOM      2  C   UNL     1      13.459 119.412  26.093  1.00  0.00     0.208 A 
ATOM      3  C   UNL     1      13.953 118.112  25.898  1.00  0.00     0.238 A 
ATOM      4  O   UNL     1      13.444 117.169  26.560  1.00  0.00    -0.285 OA
ATOM      5  C   UNL     1      15.018 117.890  24.993  1.00  0.00     0.111 A 
ATOM      6  C   UNL     1      15.568 116.609  24.684  1.00  0.00     0.134 A 
ATOM      7  C   UNL     1      16.692 116.523  23.853  1.00  0.00     0.093 A 
ATOM      8  C   UNL     1      17.246 117.664  23.268  1.00  0.00     0.123 A 
ATOM      9  C   UNL     1      16.683 118.913  23.520  1.00  0.00     0.094 A 
ATOM     10  C   UNL     1      15.585 119.036  24.376  1.00  0.00     0.146 A 
ATOM     11  O   UNL     1      15.094 120.248  24.605  1.00  0.00    -0.452 OA
ENDROOT
BRANCH   1  12
ATOM     12  C   UNL     1      13.622 121.882  25.587  1.00  0.00     0.025 A 
ATOM     13  C   UNL     1      12.768 122.491  24.651  1.00  0.00     0.016 A 
ATOM     14  C   UNL     1      12.335 123.806  24.840  1.00  0.00     0.051 A 
ATOM     15  C   UNL     1      12.736 124.527  25.973  1.00  0.00     0.157 A 
ATOM     16  C   UNL     1      14.004 122.601  26.732  1.00  0.00     0.062 A 
ATOM     17  C   UNL     1      13.573 123.919  26.924  1.00  0.00     0.158 A 
BRANCH  15  18
ATOM     18  O   UNL     1      12.304 125.839  26.158  1.00  0.00    -0.504 OA
ATOM     19  H   UNL     1      12.787 126.622  25.734  1.00  0.00     0.293 HD
ENDBRANCH  15  18
BRANCH  17  20
ATOM     20  O   UNL     1      13.983 124.606  28.066  1.00  0.00    -0.504 OA
ATOM     21  H   UNL     1      13.804 124.255  28.999  1.00  0.00     0.293 HD
ENDBRANCH  17  20
ENDBRANCH   1  12
BRANCH   2  22
ATOM     22  O   UNL     1      12.359 119.643  26.924  1.00  0.00    -0.502 OA
ATOM     23  H   UNL     1      11.522 119.073  26.889  1.00  0.00     0.293 HD
ENDBRANCH   2  22
BRANCH   6  24
ATOM     24  O   UNL     1      15.039 115.398  25.141  1.00  0.00    -0.507 OA
ATOM     25  H   UNL     1      14.079 115.254  25.416  1.00  0.00     0.293 HD
ENDBRANCH   6  24
BRANCH   8  26
ATOM     26  O   UNL     1      18.354 117.567  22.429  1.00  0.00    -0.508 OA
ATOM     27  H   UNL     1      19.067 118.286  22.407  1.00  0.00     0.293 HD
ENDBRANCH   8  26
TORSDOF 6
ENDMDL
MODEL 3
REMARK VINA RESULT:    -7.974      2.161      7.382
REMARK INTER + INTRA:          -9.912
REMARK INTER:                  -9.594
REMARK INTRA:                  -0.318
REMARK UNBOUND:                -0.307
REMARK SMILES O=c1c(O)c(-c2ccc(O)c(O)c2)oc2cc(O)cc(O)c12
REMARK SMILES IDX 5 1 3 2 2 3 1 4 22 5 20 6 19 7 17 8 16 9 15 10 14 11 6 12
REMARK SMILES IDX 7 13 8 14 9 15 13 16 11 17 10 18 12 20 4 22 21 24 18 26
REMARK H PARENT 10 19 12 21 4 23 21 25 18 27
REMARK Flexibility Score: inf
ROOT
ATOM      1  C   UNL     1      15.130 118.122  24.534  1.00  0.00     0.180 A 
ATOM      2  C   UNL     1      16.161 117.683  23.687  1.00  0.00     0.208 A 
ATOM      3  C   UNL     1      16.715 116.409  23.892  1.00  0.00     0.238 A 
ATOM      4  O   UNL     1      17.586 115.993  23.084  1.00  0.00    -0.285 OA
ATOM      5  C   UNL     1      16.270 115.612  24.975  1.00  0.00     0.111 A 
ATOM      6  C   UNL     1      16.792 114.325  25.305  1.00  0.00     0.134 A 
ATOM      7  C   UNL     1      16.200 113.584  26.335  1.00  0.00     0.093 A 
ATOM      8  C   UNL     1      15.149 114.109  27.090  1.00  0.00     0.123 A 
ATOM      9  C   UNL     1      14.669 115.387  26.812  1.00  0.00     0.094 A 
ATOM     10  C   UNL     1      15.213 116.136  25.765  1.00  0.00     0.146 A 
ATOM     11  O   UNL     1      14.710 117.340  25.521  1.00  0.00    -0.452 OA
ENDROOT
BRANCH   1  12
ATOM     12  C   UNL     1      14.486 119.446  24.372  1.00  0.00     0.025 A 
ATOM     13  C   UNL     1      15.037 120.604  24.948  1.00  0.00     0.016 A 
ATOM     14  C   UNL     1      14.425 121.846  24.762  1.00  0.00     0.051 A 
ATOM     15  C   UNL     1      13.262 121.952  23.987  1.00  0.00     0.157 A 
ATOM     16  C   UNL     1      13.333 119.561  23.579  1.00  0.00     0.062 A 
ATOM     17  C   UNL     1      12.716 120.803  23.391  1.00  0.00     0.158 A 
BRANCH  15  18
ATOM     18  O   UNL     1      12.652 123.192  23.805  1.00  0.00    -0.504 OA
ATOM     19  H   UNL     1      11.651 123.277  23.675  1.00  0.00     0.293 HD
ENDBRANCH  15  18
BRANCH  17  20
ATOM     20  O   UNL     1      11.564 120.876  22.608  1.00  0.00    -0.504 OA
ATOM     21  H   UNL     1      10.651 121.052  23.008  1.00  0.00     0.293 HD
ENDBRANCH  17  20
ENDBRANCH   1  12
BRANCH   2  22
ATOM     22  O   UNL     1      16.639 118.515  22.671  1.00  0.00    -0.502 OA
ATOM     23  H   UNL     1      16.517 119.521  22.688  1.00  0.00     0.293 HD
ENDBRANCH   2  22
BRANCH   6  24
ATOM     24  O   UNL     1      17.896 113.742  24.675  1.00  0.00    -0.507 OA
ATOM     25  H   UNL     1      18.627 114.252  24.202  1.00  0.00     0.293 HD
ENDBRANCH   6  24
BRANCH   8  26
ATOM     26  O   UNL     1      14.578 113.372  28.124  1.00  0.00    -0.508 OA
ATOM     27  H   UNL     1      14.473 112.366  28.062  1.00  0.00     0.293 HD
ENDBRANCH   8  26
TORSDOF 6
ENDMDL
MODEL 4
REMARK VINA RESULT:    -7.934      1.546      7.099
REMARK INTER + INTRA:          -9.864
REMARK INTER:                  -9.601
REMARK INTRA:                  -0.263
REMARK UNBOUND:                -0.307
REMARK SMILES O=c1c(O)c(-c2ccc(O)c(O)c2)oc2cc(O)cc(O)c12
REMARK SMILES IDX 5 1 3 2 2 3 1 4 22 5 20 6 19 7 17 8 16 9 15 10 14 11 6 12
REMARK SMILES IDX 7 13 8 14 9 15 13 16 11 17 10 18 12 20 4 22 21 24 18 26
REMARK H PARENT 10 19 12 21 4 23 21 25 18 27
REMARK Flexibility Score: inf
ROOT
ATOM      1  C   UNL     1      15.312 119.532  24.625  1.00  0.00     0.180 A 
ATOM      2  C   UNL     1      16.289 119.343  23.633  1.00  0.00     0.208 A 
ATOM      3  C   UNL     1      16.831 118.061  23.446  1.00  0.00     0.238 A 
ATOM      4  O   UNL     1      17.650 117.884  22.507  1.00  0.00    -0.285 OA
ATOM      5  C   UNL     1      16.432 116.996  24.289  1.00  0.00     0.111 A 
ATOM      6  C   UNL     1      16.948 115.667  24.220  1.00  0.00     0.134 A 
ATOM      7  C   UNL     1      16.401 114.670  25.037  1.00  0.00     0.093 A 
ATOM      8  C   UNL     1      15.400 114.968  25.966  1.00  0.00     0.123 A 
ATOM      9  C   UNL     1      14.928 116.273  26.080  1.00  0.00     0.094 A 
ATOM     10  C   UNL     1      15.427 117.282  25.252  1.00  0.00     0.146 A 
ATOM     11  O   UNL     1      14.933 118.507  25.379  1.00  0.00    -0.452 OA
ENDROOT
BRANCH   1  12
ATOM     12  C   UNL     1      14.683 120.849  24.872  1.00  0.00     0.025 A 
ATOM     13  C   UNL     1      15.061 121.648  25.965  1.00  0.00     0.016 A 
ATOM     14  C   UNL     1      14.471 122.898  26.165  1.00  0.00     0.051 A 
ATOM     15  C   UNL     1      13.505 123.376  25.269  1.00  0.00     0.157 A 
ATOM     16  C   UNL     1      13.730 121.341  23.965  1.00  0.00     0.062 A 
ATOM     17  C   UNL     1      13.135 122.592  24.163  1.00  0.00     0.158 A 
BRANCH  15  18
ATOM     18  O   UNL     1      12.915 124.622  25.472  1.00  0.00    -0.504 OA
ATOM     19  H   UNL     1      13.378 125.347  26.009  1.00  0.00     0.293 HD
ENDBRANCH  15  18
BRANCH  17  20
ATOM     20  O   UNL     1      12.183 123.041  23.248  1.00  0.00    -0.504 OA
ATOM     21  H   UNL     1      12.175 122.733  22.284  1.00  0.00     0.293 HD
ENDBRANCH  17  20
ENDBRANCH   1  12
BRANCH   2  22
ATOM     22  O   UNL     1      16.725 120.423  22.861  1.00  0.00    -0.502 OA
ATOM     23  H   UNL     1      16.623 121.385  23.164  1.00  0.00     0.293 HD
ENDBRANCH   2  22
BRANCH   6  24
ATOM     24  O   UNL     1      18.007 115.280  23.393  1.00  0.00    -0.507 OA
ATOM     25  H   UNL     1      18.336 115.800  22.593  1.00  0.00     0.293 HD
ENDBRANCH   6  24
BRANCH   8  26
ATOM     26  O   UNL     1      14.873 113.973  26.786  1.00  0.00    -0.508 OA
ATOM     27  H   UNL     1      14.398 114.197  27.652  1.00  0.00     0.293 HD
ENDBRANCH   8  26
TORSDOF 6
ENDMDL
MODEL 5
REMARK VINA RESULT:    -7.861      3.440      5.123
REMARK INTER + INTRA:          -9.777
REMARK INTER:                  -9.747
REMARK INTRA:                  -0.029
REMARK UNBOUND:                -0.307
REMARK SMILES O=c1c(O)c(-c2ccc(O)c(O)c2)oc2cc(O)cc(O)c12
REMARK SMILES IDX 5 1 3 2 2 3 1 4 22 5 20 6 19 7 17 8 16 9 15 10 14 11 6 12
REMARK SMILES IDX 7 13 8 14 9 15 13 16 11 17 10 18 12 20 4 22 21 24 18 26
REMARK H PARENT 10 19 12 21 4 23 21 25 18 27
REMARK Flexibility Score: inf
ROOT
ATOM      1  C   UNL     1      15.574 119.838  21.728  1.00  0.00     0.180 A 
ATOM      2  C   UNL     1      16.535 119.200  22.530  1.00  0.00     0.208 A 
ATOM      3  C   UNL     1      16.517 119.416  23.917  1.00  0.00     0.238 A 
ATOM      4  O   UNL     1      17.333 118.783  24.637  1.00  0.00    -0.285 OA
ATOM      5  C   UNL     1      15.574 120.310  24.479  1.00  0.00     0.111 A 
ATOM      6  C   UNL     1      15.493 120.640  25.866  1.00  0.00     0.134 A 
ATOM      7  C   UNL     1      14.452 121.456  26.323  1.00  0.00     0.093 A 
ATOM      8  C   UNL     1      13.525 122.008  25.434  1.00  0.00     0.123 A 
ATOM      9  C   UNL     1      13.628 121.737  24.071  1.00  0.00     0.094 A 
ATOM     10  C   UNL     1      14.634 120.895  23.590  1.00  0.00     0.146 A 
ATOM     11  O   UNL     1      14.682 120.646  22.287  1.00  0.00    -0.452 OA
ENDROOT
BRANCH   1  12
ATOM     12  C   UNL     1      15.520 119.649  20.260  1.00  0.00     0.025 A 
ATOM     13  C   UNL     1      16.653 119.849  19.453  1.00  0.00     0.016 A 
ATOM     14  C   UNL     1      16.584 119.642  18.073  1.00  0.00     0.051 A 
ATOM     15  C   UNL     1      15.387 119.217  17.481  1.00  0.00     0.157 A 
ATOM     16  C   UNL     1      14.328 119.204  19.665  1.00  0.00     0.062 A 
ATOM     17  C   UNL     1      14.255 118.996  18.283  1.00  0.00     0.158 A 
BRANCH  15  18
ATOM     18  O   UNL     1      15.320 119.013  16.104  1.00  0.00    -0.504 OA
ATOM     19  H   UNL     1      15.255 119.789  15.455  1.00  0.00     0.293 HD
ENDBRANCH  15  18
BRANCH  17  20
ATOM     20  O   UNL     1      13.050 118.566  17.726  1.00  0.00    -0.504 OA
ATOM     21  H   UNL     1      12.801 117.586  17.674  1.00  0.00     0.293 HD
ENDBRANCH  17  20
ENDBRANCH   1  12
BRANCH   2  22
ATOM     22  O   UNL     1      17.505 118.380  21.947  1.00  0.00    -0.502 OA
ATOM     23  H   UNL     1      17.400 117.374  21.882  1.00  0.00     0.293 HD
ENDBRANCH   2  22
BRANCH   6  24
ATOM     24  O   UNL     1      16.418 120.217  26.827  1.00  0.00    -0.507 OA
ATOM     25  H   UNL     1      17.304 120.662  27.012  1.00  0.00     0.293 HD
ENDBRANCH   6  24
BRANCH   8  26
ATOM     26  O   UNL     1      12.502 122.832  25.894  1.00  0.00    -0.508 OA
ATOM     27  H   UNL     1      11.647 122.962  25.366  1.00  0.00     0.293 HD
ENDBRANCH   8  26
TORSDOF 6
ENDMDL
MODEL 6
REMARK VINA RESULT:    -7.852      3.547      5.856
REMARK INTER + INTRA:          -9.765
REMARK INTER:                  -9.674
REMARK INTRA:                  -0.091
REMARK UNBOUND:                -0.307
REMARK SMILES O=c1c(O)c(-c2ccc(O)c(O)c2)oc2cc(O)cc(O)c12
REMARK SMILES IDX 5 1 3 2 2 3 1 4 22 5 20 6 19 7 17 8 16 9 15 10 14 11 6 12
REMARK SMILES IDX 7 13 8 14 9 15 13 16 11 17 10 18 12 20 4 22 21 24 18 26
REMARK H PARENT 10 19 12 21 4 23 21 25 18 27
REMARK Flexibility Score: inf
ROOT
ATOM      1  C   UNL     1      14.486 118.734  21.894  1.00  0.00     0.180 A 
ATOM      2  C   UNL     1      13.534 119.372  22.707  1.00  0.00     0.208 A 
ATOM      3  C   UNL     1      13.545 119.126  24.089  1.00  0.00     0.238 A 
ATOM      4  O   UNL     1      12.739 119.758  24.820  1.00  0.00    -0.285 OA
ATOM      5  C   UNL     1      14.471 118.204  24.635  1.00  0.00     0.111 A 
ATOM      6  C   UNL     1      14.542 117.844  26.014  1.00  0.00     0.134 A 
ATOM      7  C   UNL     1      15.569 117.000  26.456  1.00  0.00     0.093 A 
ATOM      8  C   UNL     1      16.488 116.452  25.557  1.00  0.00     0.123 A 
ATOM      9  C   UNL     1      16.393 116.753  24.201  1.00  0.00     0.094 A 
ATOM     10  C   UNL     1      15.403 117.623  23.735  1.00  0.00     0.146 A 
ATOM     11  O   UNL     1      15.363 117.899  22.438  1.00  0.00    -0.452 OA
ENDROOT
BRANCH   1  12
ATOM     12  C   UNL     1      14.548 118.953  20.430  1.00  0.00     0.025 A 
ATOM     13  C   UNL     1      13.441 118.694  19.604  1.00  0.00     0.016 A 
ATOM     14  C   UNL     1      13.515 118.931  18.229  1.00  0.00     0.051 A 
ATOM     15  C   UNL     1      14.689 119.443  17.661  1.00  0.00     0.157 A 
ATOM     16  C   UNL     1      15.715 119.487  19.860  1.00  0.00     0.062 A 
ATOM     17  C   UNL     1      15.793 119.724  18.483  1.00  0.00     0.158 A 
BRANCH  15  18
ATOM     18  O   UNL     1      14.761 119.677  16.289  1.00  0.00    -0.504 OA
ATOM     19  H   UNL     1      14.694 118.920  15.618  1.00  0.00     0.293 HD
ENDBRANCH  15  18
BRANCH  17  20
ATOM     20  O   UNL     1      16.974 120.242  17.951  1.00  0.00    -0.504 OA
ATOM     21  H   UNL     1      17.634 120.765  18.513  1.00  0.00     0.293 HD
ENDBRANCH  17  20
ENDBRANCH   1  12
BRANCH   2  22
ATOM     22  O   UNL     1      12.580 120.221  22.139  1.00  0.00    -0.502 OA
ATOM     23  H   UNL     1      12.235 120.097  21.194  1.00  0.00     0.293 HD
ENDBRANCH   2  22
BRANCH   6  24
ATOM     24  O   UNL     1      13.623 118.262  26.982  1.00  0.00    -0.507 OA
ATOM     25  H   UNL     1      13.823 118.359  27.965  1.00  0.00     0.293 HD
ENDBRANCH   6  24
BRANCH   8  26
ATOM     26  O   UNL     1      17.495 115.600  26.003  1.00  0.00    -0.508 OA
ATOM     27  H   UNL     1      17.322 114.901  26.716  1.00  0.00     0.293 HD
ENDBRANCH   8  26
TORSDOF 6
ENDMDL
MODEL 7
REMARK VINA RESULT:    -7.744      4.437      6.814
REMARK INTER + INTRA:          -9.635
REMARK INTER:                  -9.333
REMARK INTRA:                  -0.302
REMARK UNBOUND:                -0.307
REMARK SMILES O=c1c(O)c(-c2ccc(O)c(O)c2)oc2cc(O)cc(O)c12
REMARK SMILES IDX 5 1 3 2 2 3 1 4 22 5 20 6 19 7 17 8 16 9 15 10 14 11 6 12
REMARK SMILES IDX 7 13 8 14 9 15 13 16 11 17 10 18 12 20 4 22 21 24 18 26
REMARK H PARENT 10 19 12 21 4 23 21 25 18 27
REMARK Flexibility Score: inf
ROOT
ATOM      1  C   UNL     1      15.464 119.319  21.123  1.00  0.00     0.180 A 
ATOM      2  C   UNL     1      14.156 118.931  20.790  1.00  0.00     0.208 A 
ATOM      3  C   UNL     1      13.762 118.951  19.442  1.00  0.00     0.238 A 
ATOM      4  O   UNL     1      12.614 118.530  19.143  1.00  0.00    -0.285 OA
ATOM      5  C   UNL     1      14.662 119.412  18.451  1.00  0.00     0.111 A 
ATOM      6  C   UNL     1      14.355 119.518  17.061  1.00  0.00     0.134 A 
ATOM      7  C   UNL     1      15.359 119.888  16.158  1.00  0.00     0.093 A 
ATOM      8  C   UNL     1      16.642 120.218  16.602  1.00  0.00     0.123 A 
ATOM      9  C   UNL     1      16.937 120.170  17.963  1.00  0.00     0.094 A 
ATOM     10  C   UNL     1      15.966 119.768  18.884  1.00  0.00     0.146 A 
ATOM     11  O   UNL     1      16.296 119.716  20.169  1.00  0.00    -0.452 OA
ENDROOT
BRANCH   1  12
ATOM     12  C   UNL     1      15.958 119.311  22.519  1.00  0.00     0.025 A 
ATOM     13  C   UNL     1      15.947 120.475  23.307  1.00  0.00     0.016 A 
ATOM     14  C   UNL     1      16.396 120.437  24.630  1.00  0.00     0.051 A 
ATOM     15  C   UNL     1      16.848 119.235  25.189  1.00  0.00     0.157 A 
ATOM     16  C   UNL     1      16.392 118.104  23.091  1.00  0.00     0.062 A 
ATOM     17  C   UNL     1      16.844 118.063  24.415  1.00  0.00     0.158 A 
BRANCH  15  18
ATOM     18  O   UNL     1      17.298 119.201  26.508  1.00  0.00    -0.504 OA
ATOM     19  H   UNL     1      17.644 118.347  26.929  1.00  0.00     0.293 HD
ENDBRANCH  15  18
BRANCH  17  20
ATOM     20  O   UNL     1      17.281 116.848  24.944  1.00  0.00    -0.504 OA
ATOM     21  H   UNL     1      17.491 116.050  24.358  1.00  0.00     0.293 HD
ENDBRANCH  17  20
ENDBRANCH   1  12
BRANCH   2  22
ATOM     22  O   UNL     1      13.258 118.550  21.791  1.00  0.00    -0.502 OA
ATOM     23  H   UNL     1      12.720 119.224  22.324  1.00  0.00     0.293 HD
ENDBRANCH   2  22
BRANCH   6  24
ATOM     24  O   UNL     1      13.083 119.300  16.520  1.00  0.00    -0.507 OA
ATOM     25  H   UNL     1      12.782 119.610  15.609  1.00  0.00     0.293 HD
ENDBRANCH   6  24
BRANCH   8  26
ATOM     26  O   UNL     1      17.631 120.600  15.699  1.00  0.00    -0.508 OA
ATOM     27  H   UNL     1      17.419 120.775  14.723  1.00  0.00     0.293 HD
ENDBRANCH   8  26
TORSDOF 6
ENDMDL
MODEL 8
REMARK VINA RESULT:    -7.619      2.559      4.563
REMARK INTER + INTRA:          -9.485
REMARK INTER:                  -9.168
REMARK INTRA:                  -0.317
REMARK UNBOUND:                -0.307
REMARK SMILES O=c1c(O)c(-c2ccc(O)c(O)c2)oc2cc(O)cc(O)c12
REMARK SMILES IDX 5 1 3 2 2 3 1 4 22 5 20 6 19 7 17 8 16 9 15 10 14 11 6 12
REMARK SMILES IDX 7 13 8 14 9 15 13 16 11 17 10 18 12 20 4 22 21 24 18 26
REMARK H PARENT 10 19 12 21 4 23 21 25 18 27
REMARK Flexibility Score: inf
ROOT
ATOM      1  C   UNL     1      16.090 116.885  24.923  1.00  0.00     0.180 A 
ATOM      2  C   UNL     1      16.673 117.300  23.713  1.00  0.00     0.208 A 
ATOM      3  C   UNL     1      16.313 118.547  23.177  1.00  0.00     0.238 A 
ATOM      4  O   UNL     1      16.894 118.945  22.134  1.00  0.00    -0.285 OA
ATOM      5  C   UNL     1      15.335 119.339  23.826  1.00  0.00     0.111 A 
ATOM      6  C   UNL     1      14.861 120.598  23.349  1.00  0.00     0.134 A 
ATOM      7  C   UNL     1      13.968 121.341  24.130  1.00  0.00     0.093 A 
ATOM      8  C   UNL     1      13.482 120.842  25.342  1.00  0.00     0.123 A 
ATOM      9  C   UNL     1      13.897 119.590  25.790  1.00  0.00     0.094 A 
ATOM     10  C   UNL     1      14.816 118.841  25.051  1.00  0.00     0.146 A 
ATOM     11  O   UNL     1      15.200 117.663  25.526  1.00  0.00    -0.452 OA
ENDROOT
BRANCH   1  12
ATOM     12  C   UNL     1      16.429 115.591  25.558  1.00  0.00     0.025 A 
ATOM     13  C   UNL     1      17.389 115.508  26.583  1.00  0.00     0.016 A 
ATOM     14  C   UNL     1      17.675 114.279  27.184  1.00  0.00     0.051 A 
ATOM     15  C   UNL     1      16.998 113.120  26.783  1.00  0.00     0.157 A 
ATOM     16  C   UNL     1      15.739 114.430  25.174  1.00  0.00     0.062 A 
ATOM     17  C   UNL     1      16.024 113.198  25.773  1.00  0.00     0.158 A 
BRANCH  15  18
ATOM     18  O   UNL     1      17.288 111.896  27.383  1.00  0.00    -0.504 OA
ATOM     19  H   UNL     1      17.619 111.839  28.339  1.00  0.00     0.293 HD
ENDBRANCH  15  18
BRANCH  17  20
ATOM     20  O   UNL     1      15.327 112.065  25.356  1.00  0.00    -0.504 OA
ATOM     21  H   UNL     1      15.644 111.493  24.582  1.00  0.00     0.293 HD
ENDBRANCH  17  20
ENDBRANCH   1  12
BRANCH   2  22
ATOM     22  O   UNL     1      17.580 116.470  23.048  1.00  0.00    -0.502 OA
ATOM     23  H   UNL     1      17.340 115.533  22.746  1.00  0.00     0.293 HD
ENDBRANCH   2  22
BRANCH   6  24
ATOM     24  O   UNL     1      15.211 121.149  22.112  1.00  0.00    -0.507 OA
ATOM     25  H   UNL     1      15.935 121.836  21.970  1.00  0.00     0.293 HD
ENDBRANCH   6  24
BRANCH   8  26
ATOM     26  O   UNL     1      12.582 121.581  26.105  1.00  0.00    -0.508 OA
ATOM     27  H   UNL     1      12.897 122.231  26.815  1.00  0.00     0.293 HD
ENDBRANCH   8  26
TORSDOF 6
ENDMDL
MODEL 9
REMARK VINA RESULT:    -7.586      2.253      4.324
REMARK INTER + INTRA:          -9.446
REMARK INTER:                  -9.290
REMARK INTRA:                  -0.156
REMARK UNBOUND:                -0.307
REMARK SMILES O=c1c(O)c(-c2ccc(O)c(O)c2)oc2cc(O)cc(O)c12
REMARK SMILES IDX 5 1 3 2 2 3 1 4 22 5 20 6 19 7 17 8 16 9 15 10 14 11 6 12
REMARK SMILES IDX 7 13 8 14 9 15 13 16 11 17 10 18 12 20 4 22 21 24 18 26
REMARK H PARENT 10 19 12 21 4 23 21 25 18 27
REMARK Flexibility Score: inf
ROOT
ATOM      1  C   UNL     1      15.985 117.929  25.455  1.00  0.00     0.180 A 
ATOM      2  C   UNL     1      16.568 118.959  26.211  1.00  0.00     0.208 A 
ATOM      3  C   UNL     1      16.026 120.253  26.132  1.00  0.00     0.238 A 
ATOM      4  O   UNL     1      16.507 121.153  26.868  1.00  0.00    -0.285 OA
ATOM      5  C   UNL     1      14.945 120.512  25.256  1.00  0.00     0.111 A 
ATOM      6  C   UNL     1      14.346 121.793  25.061  1.00  0.00     0.134 A 
ATOM      7  C   UNL     1      13.212 121.910  24.248  1.00  0.00     0.093 A 
ATOM      8  C   UNL     1      12.694 120.803  23.572  1.00  0.00     0.123 A 
ATOM      9  C   UNL     1      13.304 119.558  23.712  1.00  0.00     0.094 A 
ATOM     10  C   UNL     1      14.414 119.403  24.546  1.00  0.00     0.146 A 
ATOM     11  O   UNL     1      14.950 118.195  24.668  1.00  0.00    -0.452 OA
ENDROOT
BRANCH   1  12
ATOM     12  C   UNL     1      16.489 116.537  25.497  1.00  0.00     0.025 A 
ATOM     13  C   UNL     1      17.090 115.942  24.374  1.00  0.00     0.016 A 
ATOM     14  C   UNL     1      17.580 114.635  24.444  1.00  0.00     0.051 A 
ATOM     15  C   UNL     1      17.490 113.909  25.639  1.00  0.00     0.157 A 
ATOM     16  C   UNL     1      16.420 115.813  26.698  1.00  0.00     0.062 A 
ATOM     17  C   UNL     1      16.909 114.503  26.772  1.00  0.00     0.158 A 
BRANCH  15  18
ATOM     18  O   UNL     1      17.978 112.605  25.705  1.00  0.00    -0.504 OA
ATOM     19  H   UNL     1      18.952 112.412  25.906  1.00  0.00     0.293 HD
ENDBRANCH  15  18
BRANCH  17  20
ATOM     20  O   UNL     1      16.810 113.811  27.978  1.00  0.00    -0.504 OA
ATOM     21  H   UNL     1      16.014 113.226  28.200  1.00  0.00     0.293 HD
ENDBRANCH  17  20
ENDBRANCH   1  12
BRANCH   2  22
ATOM     22  O   UNL     1      17.684 118.699  27.012  1.00  0.00    -0.502 OA
ATOM     23  H   UNL     1      18.465 119.341  27.083  1.00  0.00     0.293 HD
ENDBRANCH   2  22
BRANCH   6  24
ATOM     24  O   UNL     1      14.837 122.980  25.617  1.00  0.00    -0.507 OA
ATOM     25  H   UNL     1      15.574 123.542  25.220  1.00  0.00     0.293 HD
ENDBRANCH   6  24
BRANCH   8  26
ATOM     26  O   UNL     1      11.575 120.931  22.752  1.00  0.00    -0.508 OA
ATOM     27  H   UNL     1      10.797 120.284  22.812  1.00  0.00     0.293 HD
ENDBRANCH   8  26
TORSDOF 6
ENDMDL
