MODEL 1
REMARK VINA RESULT:    -2.276      0.000      0.000
REMARK INTER + INTRA:          -2.276
REMARK INTER:                  -2.276
REMARK INTRA:                   0.000
REMARK UNBOUND:                 0.000
REMARK SMILES CC(=O)[O-]
REMARK SMILES IDX 1 1 2 2 3 3 4 4
REMARK H PARENT
REMARK Flexibility Score: inf
ROOT
ATOM      1  C   UNL     1       6.897  24.080  -7.522  1.00  0.00     0.063 C 
ATOM      2  C   UNL     1       6.939  24.247  -6.041  1.00  0.00     0.038 C 
ATOM      3  O   UNL     1       6.568  25.331  -5.517  1.00  0.00    -0.550 OA
ATOM      4  O   UNL     1       7.439  23.229  -5.239  1.00  0.00    -0.550 OA
ENDROOT
TORSDOF 0
ENDMDL
MODEL 2
REMARK VINA RESULT:    -2.260      0.093      1.622
REMARK INTER + INTRA:          -2.260
REMARK INTER:                  -2.260
REMARK INTRA:                   0.000
REMARK UNBOUND:                 0.000
REMARK SMILES CC(=O)[O-]
REMARK SMILES IDX 1 1 2 2 3 3 4 4
REMARK H PARENT
REMARK Flexibility Score: inf
ROOT
ATOM      1  C   UNL     1       6.887  24.009  -7.486  1.00  0.00     0.063 C 
ATOM      2  C   UNL     1       6.947  24.192  -6.008  1.00  0.00     0.038 C 
ATOM      3  O   UNL     1       7.387  23.269  -5.274  1.00  0.00    -0.550 OA
ATOM      4  O   UNL     1       6.466  25.361  -5.431  1.00  0.00    -0.550 OA
ENDROOT
TORSDOF 0
ENDMDL
MODEL 3
REMARK VINA RESULT:    -2.260      5.779      6.125
REMARK INTER + INTRA:          -2.260
REMARK INTER:                  -2.260
REMARK INTRA:                   0.000
REMARK UNBOUND:                 0.000
REMARK SMILES CC(=O)[O-]
REMARK SMILES IDX 1 1 2 2 3 3 4 4
REMARK H PARENT
REMARK Flexibility Score: inf
ROOT
ATOM      1  C   UNL     1      11.915  24.629  -9.875  1.00  0.00     0.063 C 
ATOM      2  C   UNL     1      12.355  23.992  -8.601  1.00  0.00     0.038 C 
ATOM      3  O   UNL     1      11.638  23.114  -8.052  1.00  0.00    -0.550 OA
ATOM      4  O   UNL     1      13.532  24.402  -7.988  1.00  0.00    -0.550 OA
ENDROOT
TORSDOF 0
ENDMDL
MODEL 4
REMARK VINA RESULT:    -2.237      4.157      4.591
REMARK INTER + INTRA:          -2.237
REMARK INTER:                  -2.237
REMARK INTRA:                   0.000
REMARK UNBOUND:                 0.000
REMARK SMILES CC(=O)[O-]
REMARK SMILES IDX 1 1 2 2 3 3 4 4
REMARK H PARENT
REMARK Flexibility Score: inf
ROOT
ATOM      1  C   UNL     1      10.224  20.236  -7.559  1.00  0.00     0.063 C 
ATOM      2  C   UNL     1      10.268  21.555  -6.865  1.00  0.00     0.038 C 
ATOM      3  O   UNL     1       9.448  21.811  -5.943  1.00  0.00    -0.550 OA
ATOM      4  O   UNL     1      11.175  22.525  -7.269  1.00  0.00    -0.550 OA
ENDROOT
TORSDOF 0
ENDMDL
MODEL 5
REMARK VINA RESULT:    -2.190      5.984      6.196
REMARK INTER + INTRA:          -2.190
REMARK INTER:                  -2.190
REMARK INTRA:                   0.000
REMARK UNBOUND:                 0.000
REMARK SMILES CC(=O)[O-]
REMARK SMILES IDX 1 1 2 2 3 3 4 4
REMARK H PARENT
REMARK Flexibility Score: inf
ROOT
ATOM      1  C   UNL     1      13.386  24.109  -8.158  1.00  0.00     0.063 C 
ATOM      2  C   UNL     1      12.147  24.067  -8.987  1.00  0.00     0.038 C 
ATOM      3  O   UNL     1      12.068  24.753 -10.040  1.00  0.00    -0.550 OA
ATOM      4  O   UNL     1      11.057  23.313  -8.572  1.00  0.00    -0.550 OA
ENDROOT
TORSDOF 0
ENDMDL
MODEL 6
REMARK VINA RESULT:    -2.185      4.989      5.249
REMARK INTER + INTRA:          -2.185
REMARK INTER:                  -2.185
REMARK INTRA:                   0.000
REMARK UNBOUND:                 0.000
REMARK SMILES CC(=O)[O-]
REMARK SMILES IDX 1 1 2 2 3 3 4 4
REMARK H PARENT
REMARK Flexibility Score: inf
ROOT
ATOM      1  C   UNL     1       9.993  21.751  -6.428  1.00  0.00     0.063 C 
ATOM      2  C   UNL     1      10.334  20.901  -7.604  1.00  0.00     0.038 C 
ATOM      3  O   UNL     1      10.665  21.435  -8.695  1.00  0.00    -0.550 OA
ATOM      4  O   UNL     1      10.235  19.518  -7.516  1.00  0.00    -0.550 OA
ENDROOT
TORSDOF 0
ENDMDL
MODEL 7
REMARK VINA RESULT:    -2.144     11.033     11.270
REMARK INTER + INTRA:          -2.144
REMARK INTER:                  -2.144
REMARK INTRA:                   0.000
REMARK UNBOUND:                 0.000
REMARK SMILES CC(=O)[O-]
REMARK SMILES IDX 1 1 2 2 3 3 4 4
REMARK H PARENT
REMARK Flexibility Score: inf
ROOT
ATOM      1  C   UNL     1       6.905  22.584   4.050  1.00  0.00     0.063 C 
ATOM      2  C   UNL     1       5.743  22.600   4.984  1.00  0.00     0.038 C 
ATOM      3  O   UNL     1       5.494  23.630   5.666  1.00  0.00    -0.550 OA
ATOM      4  O   UNL     1       4.963  21.462   5.146  1.00  0.00    -0.550 OA
ENDROOT
TORSDOF 0
ENDMDL
MODEL 8
REMARK VINA RESULT:    -2.137      4.452      4.917
REMARK INTER + INTRA:          -2.137
REMARK INTER:                  -2.137
REMARK INTRA:                   0.000
REMARK UNBOUND:                 0.000
REMARK SMILES CC(=O)[O-]
REMARK SMILES IDX 1 1 2 2 3 3 4 4
REMARK H PARENT
REMARK Flexibility Score: inf
ROOT
ATOM      1  C   UNL     1      10.586  20.244  -7.843  1.00  0.00     0.063 C 
ATOM      2  C   UNL     1      10.029  21.584  -8.185  1.00  0.00     0.038 C 
ATOM      3  O   UNL     1       9.967  21.955  -9.387  1.00  0.00    -0.550 OA
ATOM      4  O   UNL     1       9.627  22.449  -7.175  1.00  0.00    -0.550 OA
ENDROOT
TORSDOF 0
ENDMDL
MODEL 9
REMARK VINA RESULT:    -2.133      6.125      6.414
REMARK INTER + INTRA:          -2.133
REMARK INTER:                  -2.133
REMARK INTRA:                   0.000
REMARK UNBOUND:                 0.000
REMARK SMILES CC(=O)[O-]
REMARK SMILES IDX 1 1 2 2 3 3 4 4
REMARK H PARENT
REMARK Flexibility Score: inf
ROOT
ATOM      1  C   UNL     1      11.667  22.955  -8.174  1.00  0.00     0.063 C 
ATOM      2  C   UNL     1      12.526  24.059  -8.690  1.00  0.00     0.038 C 
ATOM      3  O   UNL     1      13.539  24.429  -8.039  1.00  0.00    -0.550 OA
ATOM      4  O   UNL     1      12.181  24.719  -9.863  1.00  0.00    -0.550 OA
ENDROOT
TORSDOF 0
ENDMDL
