MODEL 1
REMARK VINA RESULT:    -1.939      0.000      0.000
REMARK INTER + INTRA:          -1.939
REMARK INTER:                  -1.939
REMARK INTRA:                   0.000
REMARK UNBOUND:                 0.000
REMARK SMILES CC(=O)[O-]
REMARK SMILES IDX 1 1 2 2 3 3 4 4
REMARK H PARENT
REMARK Flexibility Score: inf
ROOT
ATOM      1  C   UNL     1      26.659  12.644 -10.923  1.00  0.00     0.063 C 
ATOM      2  C   UNL     1      25.796  13.855 -11.031  1.00  0.00     0.038 C 
ATOM      3  O   UNL     1      25.341  14.402  -9.992  1.00  0.00    -0.550 OA
ATOM      4  O   UNL     1      25.536  14.415 -12.275  1.00  0.00    -0.550 OA
ENDROOT
TORSDOF 0
ENDMDL
MODEL 2
REMARK VINA RESULT:    -1.914     16.340     16.638
REMARK INTER + INTRA:          -1.914
REMARK INTER:                  -1.914
REMARK INTRA:                   0.000
REMARK UNBOUND:                 0.000
REMARK SMILES CC(=O)[O-]
REMARK SMILES IDX 1 1 2 2 3 3 4 4
REMARK H PARENT
REMARK Flexibility Score: inf
ROOT
ATOM      1  C   UNL     1      10.876   9.873 -18.562  1.00  0.00     0.063 C 
ATOM      2  C   UNL     1      11.517   8.925 -17.607  1.00  0.00     0.038 C 
ATOM      3  O   UNL     1      12.033   9.353 -16.541  1.00  0.00    -0.550 OA
ATOM      4  O   UNL     1      11.501   7.560 -17.864  1.00  0.00    -0.550 OA
ENDROOT
TORSDOF 0
ENDMDL
MODEL 3
REMARK VINA RESULT:    -1.902      7.301      7.849
REMARK INTER + INTRA:          -1.902
REMARK INTER:                  -1.902
REMARK INTRA:                   0.000
REMARK UNBOUND:                 0.000
REMARK SMILES CC(=O)[O-]
REMARK SMILES IDX 1 1 2 2 3 3 4 4
REMARK H PARENT
REMARK Flexibility Score: inf
ROOT
ATOM      1  C   UNL     1      28.539  12.975 -16.723  1.00  0.00     0.063 C 
ATOM      2  C   UNL     1      29.330  13.417 -17.907  1.00  0.00     0.038 C 
ATOM      3  O   UNL     1      29.201  14.588 -18.353  1.00  0.00    -0.550 OA
ATOM      4  O   UNL     1      30.251  12.555 -18.490  1.00  0.00    -0.550 OA
ENDROOT
TORSDOF 0
ENDMDL
MODEL 4
REMARK VINA RESULT:    -1.890     15.786     16.109
REMARK INTER + INTRA:          -1.890
REMARK INTER:                  -1.890
REMARK INTRA:                   0.000
REMARK UNBOUND:                 0.000
REMARK SMILES CC(=O)[O-]
REMARK SMILES IDX 1 1 2 2 3 3 4 4
REMARK H PARENT
REMARK Flexibility Score: inf
ROOT
ATOM      1  C   UNL     1      11.779   9.531 -16.326  1.00  0.00     0.063 C 
ATOM      2  C   UNL     1      12.140   8.460 -17.299  1.00  0.00     0.038 C 
ATOM      3  O   UNL     1      13.348   8.155 -17.483  1.00  0.00    -0.550 OA
ATOM      4  O   UNL     1      11.143   7.760 -17.966  1.00  0.00    -0.550 OA
ENDROOT
TORSDOF 0
ENDMDL
MODEL 5
REMARK VINA RESULT:    -1.884     15.994     16.284
REMARK INTER + INTRA:          -1.884
REMARK INTER:                  -1.884
REMARK INTRA:                   0.000
REMARK UNBOUND:                 0.000
REMARK SMILES CC(=O)[O-]
REMARK SMILES IDX 1 1 2 2 3 3 4 4
REMARK H PARENT
REMARK Flexibility Score: inf
ROOT
ATOM      1  C   UNL     1      10.880   9.578 -18.389  1.00  0.00     0.063 C 
ATOM      2  C   UNL     1      11.276  10.109 -17.053  1.00  0.00     0.038 C 
ATOM      3  O   UNL     1      12.009   9.424 -16.292  1.00  0.00    -0.550 OA
ATOM      4  O   UNL     1      10.883  11.384 -16.666  1.00  0.00    -0.550 OA
ENDROOT
TORSDOF 0
ENDMDL
MODEL 6
REMARK VINA RESULT:    -1.879      7.183      7.703
REMARK INTER + INTRA:          -1.879
REMARK INTER:                  -1.879
REMARK INTRA:                   0.000
REMARK UNBOUND:                 0.000
REMARK SMILES CC(=O)[O-]
REMARK SMILES IDX 1 1 2 2 3 3 4 4
REMARK H PARENT
REMARK Flexibility Score: inf
ROOT
ATOM      1  C   UNL     1      30.252  12.430 -18.293  1.00  0.00     0.063 C 
ATOM      2  C   UNL     1      29.210  13.413 -17.879  1.00  0.00     0.038 C 
ATOM      3  O   UNL     1      28.355  13.100 -17.009  1.00  0.00    -0.550 OA
ATOM      4  O   UNL     1      29.211  14.695 -18.415  1.00  0.00    -0.550 OA
ENDROOT
TORSDOF 0
ENDMDL
MODEL 7
REMARK VINA RESULT:    -1.872     18.104     18.188
REMARK INTER + INTRA:          -1.872
REMARK INTER:                  -1.872
REMARK INTRA:                   0.000
REMARK UNBOUND:                 0.000
REMARK SMILES CC(=O)[O-]
REMARK SMILES IDX 1 1 2 2 3 3 4 4
REMARK H PARENT
REMARK Flexibility Score: inf
ROOT
ATOM      1  C   UNL     1      15.443   0.037 -11.541  1.00  0.00     0.063 C 
ATOM      2  C   UNL     1      14.428  -0.262 -12.592  1.00  0.00     0.038 C 
ATOM      3  O   UNL     1      13.201  -0.246 -12.309  1.00  0.00    -0.550 OA
ATOM      4  O   UNL     1      14.830  -0.507 -13.899  1.00  0.00    -0.550 OA
ENDROOT
TORSDOF 0
ENDMDL
MODEL 8
REMARK VINA RESULT:    -1.863     16.212     16.492
REMARK INTER + INTRA:          -1.863
REMARK INTER:                  -1.863
REMARK INTRA:                   0.000
REMARK UNBOUND:                 0.000
REMARK SMILES CC(=O)[O-]
REMARK SMILES IDX 1 1 2 2 3 3 4 4
REMARK H PARENT
REMARK Flexibility Score: inf
ROOT
ATOM      1  C   UNL     1      16.819   3.662 -18.823  1.00  0.00     0.063 C 
ATOM      2  C   UNL     1      15.342   3.862 -18.802  1.00  0.00     0.038 C 
ATOM      3  O   UNL     1      14.801   4.666 -19.606  1.00  0.00    -0.550 OA
ATOM      4  O   UNL     1      14.552   3.123 -17.931  1.00  0.00    -0.550 OA
ENDROOT
TORSDOF 0
ENDMDL
MODEL 9
REMARK VINA RESULT:    -1.840      6.820      7.272
REMARK INTER + INTRA:          -1.840
REMARK INTER:                  -1.840
REMARK INTRA:                   0.000
REMARK UNBOUND:                 0.000
REMARK SMILES CC(=O)[O-]
REMARK SMILES IDX 1 1 2 2 3 3 4 4
REMARK H PARENT
REMARK Flexibility Score: inf
ROOT
ATOM      1  C   UNL     1      20.008  17.750 -13.861  1.00  0.00     0.063 C 
ATOM      2  C   UNL     1      20.314  17.902 -12.409  1.00  0.00     0.038 C 
ATOM      3  O   UNL     1      21.509  17.918 -12.013  1.00  0.00    -0.550 OA
ATOM      4  O   UNL     1      19.283  18.079 -11.495  1.00  0.00    -0.550 OA
ENDROOT
TORSDOF 0
ENDMDL
