MODEL 1
REMARK VINA RESULT:    -3.671      0.000      0.000
REMARK INTER + INTRA:          -4.355
REMARK INTER:                  -4.100
REMARK INTRA:                  -0.255
REMARK UNBOUND:                -0.255
REMARK SMILES CC=C(C)C=CC=C(C)C
REMARK SMILES IDX 5 1 6 2 3 3 1 4 2 5 4 6 7 7 8 8 9 9 10 10
REMARK H PARENT
REMARK Flexibility Score: inf
ROOT
ATOM      1  C   UNL     1      12.913   4.435  19.291  1.00  0.00     0.003 C 
ATOM      2  C   UNL     1      12.217   4.225  18.166  1.00  0.00     0.000 C 
ENDROOT
BRANCH   1   3
ATOM      3  C   UNL     1      13.757   3.395  19.936  1.00  0.00    -0.055 C 
ATOM      4  C   UNL     1      14.122   1.887  21.914  1.00  0.00     0.036 C 
ATOM      5  C   UNL     1      13.349   2.896  21.119  1.00  0.00    -0.027 C 
ATOM      6  C   UNL     1      15.064   2.969  19.304  1.00  0.00     0.044 C 
ENDBRANCH   1   3
BRANCH   2   7
ATOM      7  C   UNL     1      11.403   5.307  17.570  1.00  0.00    -0.001 C 
ATOM      8  C   UNL     1      11.814   6.080  16.548  1.00  0.00    -0.076 C 
ATOM      9  C   UNL     1      13.170   5.905  15.910  1.00  0.00     0.039 C 
ATOM     10  C   UNL     1      10.886   7.146  16.034  1.00  0.00     0.039 C 
ENDBRANCH   2   7
TORSDOF 2
ENDMDL
MODEL 2
REMARK VINA RESULT:    -3.575      1.973      3.531
REMARK INTER + INTRA:          -4.247
REMARK INTER:                  -3.997
REMARK INTRA:                  -0.250
REMARK UNBOUND:                -0.255
REMARK SMILES CC=C(C)C=CC=C(C)C
REMARK SMILES IDX 5 1 6 2 3 3 1 4 2 5 4 6 7 7 8 8 9 9 10 10
REMARK H PARENT
REMARK Flexibility Score: inf
ROOT
ATOM      1  C   UNL     1      13.367   2.620  21.375  1.00  0.00     0.003 C 
ATOM      2  C   UNL     1      13.260   3.652  20.528  1.00  0.00     0.000 C 
ENDROOT
BRANCH   1   3
ATOM      3  C   UNL     1      12.705   2.582  22.705  1.00  0.00    -0.055 C 
ATOM      4  C   UNL     1      11.612   3.869  24.568  1.00  0.00     0.036 C 
ATOM      5  C   UNL     1      12.248   3.742  23.216  1.00  0.00    -0.027 C 
ATOM      6  C   UNL     1      12.614   1.285  23.479  1.00  0.00     0.044 C 
ENDBRANCH   1   3
BRANCH   2   7
ATOM      7  C   UNL     1      13.937   3.622  19.213  1.00  0.00    -0.001 C 
ATOM      8  C   UNL     1      13.357   4.002  18.061  1.00  0.00    -0.076 C 
ATOM      9  C   UNL     1      11.934   4.500  18.010  1.00  0.00     0.039 C 
ATOM     10  C   UNL     1      14.160   3.924  16.791  1.00  0.00     0.039 C 
ENDBRANCH   2   7
TORSDOF 2
ENDMDL
MODEL 3
REMARK VINA RESULT:    -3.495      2.993      5.523
REMARK INTER + INTRA:          -4.159
REMARK INTER:                  -3.883
REMARK INTRA:                  -0.275
REMARK UNBOUND:                -0.255
REMARK SMILES CC=C(C)C=CC=C(C)C
REMARK SMILES IDX 5 1 6 2 3 3 1 4 2 5 4 6 7 7 8 8 9 9 10 10
REMARK H PARENT
REMARK Flexibility Score: inf
ROOT
ATOM      1  C   UNL     1      13.679   5.143  17.061  1.00  0.00     0.003 C 
ATOM      2  C   UNL     1      14.559   5.070  16.054  1.00  0.00     0.000 C 
ENDROOT
BRANCH   1   3
ATOM      3  C   UNL     1      12.321   5.730  16.919  1.00  0.00    -0.055 C 
ATOM      4  C   UNL     1      10.875   7.503  15.875  1.00  0.00     0.036 C 
ATOM      5  C   UNL     1      12.169   6.772  16.079  1.00  0.00    -0.027 C 
ATOM      6  C   UNL     1      11.169   5.206  17.748  1.00  0.00     0.044 C 
ENDBRANCH   1   3
BRANCH   2   7
ATOM      7  C   UNL     1      15.893   4.463  16.261  1.00  0.00    -0.001 C 
ATOM      8  C   UNL     1      16.995   5.165  16.580  1.00  0.00    -0.076 C 
ATOM      9  C   UNL     1      16.965   6.662  16.757  1.00  0.00     0.039 C 
ATOM     10  C   UNL     1      18.291   4.423  16.765  1.00  0.00     0.039 C 
ENDBRANCH   2   7
TORSDOF 2
ENDMDL
MODEL 4
REMARK VINA RESULT:    -3.428      0.933      5.758
REMARK INTER + INTRA:          -4.083
REMARK INTER:                  -3.866
REMARK INTRA:                  -0.217
REMARK UNBOUND:                -0.255
REMARK SMILES CC=C(C)C=CC=C(C)C
REMARK SMILES IDX 5 1 6 2 3 3 1 4 2 5 4 6 7 7 8 8 9 9 10 10
REMARK H PARENT
REMARK Flexibility Score: inf
ROOT
ATOM      1  C   UNL     1      12.761   4.086  18.527  1.00  0.00     0.003 C 
ATOM      2  C   UNL     1      13.128   4.127  19.814  1.00  0.00     0.000 C 
ENDROOT
BRANCH   1   3
ATOM      3  C   UNL     1      12.061   5.203  17.840  1.00  0.00    -0.055 C 
ATOM      4  C   UNL     1      11.983   6.770  15.875  1.00  0.00     0.036 C 
ATOM      5  C   UNL     1      12.547   5.620  16.655  1.00  0.00    -0.027 C 
ATOM      6  C   UNL     1      10.880   5.885  18.496  1.00  0.00     0.044 C 
ENDBRANCH   1   3
BRANCH   2   7
ATOM      7  C   UNL     1      13.832   2.983  20.434  1.00  0.00    -0.001 C 
ATOM      8  C   UNL     1      13.577   2.527  21.674  1.00  0.00    -0.076 C 
ATOM      9  C   UNL     1      12.531   3.160  22.557  1.00  0.00     0.039 C 
ATOM     10  C   UNL     1      14.365   1.352  22.184  1.00  0.00     0.039 C 
ENDBRANCH   2   7
TORSDOF 2
ENDMDL
MODEL 5
REMARK VINA RESULT:    -3.418     11.070     13.594
REMARK INTER + INTRA:          -4.073
REMARK INTER:                  -3.836
REMARK INTRA:                  -0.237
REMARK UNBOUND:                -0.255
REMARK SMILES CC=C(C)C=CC=C(C)C
REMARK SMILES IDX 5 1 6 2 3 3 1 4 2 5 4 6 7 7 8 8 9 9 10 10
REMARK H PARENT
REMARK Flexibility Score: inf
ROOT
ATOM      1  C   UNL     1      25.986   1.566  17.097  1.00  0.00     0.003 C 
ATOM      2  C   UNL     1      24.914   1.677  17.893  1.00  0.00     0.000 C 
ENDROOT
BRANCH   1   3
ATOM      3  C   UNL     1      27.374   1.838  17.553  1.00  0.00    -0.055 C 
ATOM      4  C   UNL     1      29.787   2.162  16.926  1.00  0.00     0.036 C 
ATOM      5  C   UNL     1      28.336   1.946  16.616  1.00  0.00    -0.027 C 
ATOM      6  C   UNL     1      27.693   1.924  19.030  1.00  0.00     0.044 C 
ENDBRANCH   1   3
BRANCH   2   7
ATOM      7  C   UNL     1      23.559   1.382  17.378  1.00  0.00    -0.001 C 
ATOM      8  C   UNL     1      22.750   0.437  17.892  1.00  0.00    -0.076 C 
ATOM      9  C   UNL     1      23.166  -0.420  19.061  1.00  0.00     0.039 C 
ATOM     10  C   UNL     1      21.393   0.240  17.274  1.00  0.00     0.039 C 
ENDBRANCH   2   7
TORSDOF 2
ENDMDL
MODEL 6
REMARK VINA RESULT:    -3.407      3.006      4.468
REMARK INTER + INTRA:          -4.060
REMARK INTER:                  -3.769
REMARK INTRA:                  -0.291
REMARK UNBOUND:                -0.255
REMARK SMILES CC=C(C)C=CC=C(C)C
REMARK SMILES IDX 5 1 6 2 3 3 1 4 2 5 4 6 7 7 8 8 9 9 10 10
REMARK H PARENT
REMARK Flexibility Score: inf
ROOT
ATOM      1  C   UNL     1      15.598   6.298  16.525  1.00  0.00     0.003 C 
ATOM      2  C   UNL     1      14.617   5.519  16.050  1.00  0.00     0.000 C 
ENDROOT
BRANCH   1   3
ATOM      3  C   UNL     1      17.025   5.883  16.565  1.00  0.00    -0.055 C 
ATOM      4  C   UNL     1      18.690   4.002  16.468  1.00  0.00     0.036 C 
ATOM      5  C   UNL     1      17.307   4.577  16.396  1.00  0.00    -0.027 C 
ATOM      6  C   UNL     1      18.109   6.898  16.852  1.00  0.00     0.044 C 
ENDBRANCH   1   3
BRANCH   2   7
ATOM      7  C   UNL     1      13.217   5.997  16.031  1.00  0.00    -0.001 C 
ATOM      8  C   UNL     1      12.261   5.554  16.868  1.00  0.00    -0.076 C 
ATOM      9  C   UNL     1      12.541   4.510  17.919  1.00  0.00     0.039 C 
ATOM     10  C   UNL     1      10.875   6.126  16.743  1.00  0.00     0.039 C 
ENDBRANCH   2   7
TORSDOF 2
ENDMDL
MODEL 7
REMARK VINA RESULT:    -3.387     20.248     21.717
REMARK INTER + INTRA:          -4.038
REMARK INTER:                  -3.806
REMARK INTRA:                  -0.232
REMARK UNBOUND:                -0.255
REMARK SMILES CC=C(C)C=CC=C(C)C
REMARK SMILES IDX 5 1 6 2 3 3 1 4 2 5 4 6 7 7 8 8 9 9 10 10
REMARK H PARENT
REMARK Flexibility Score: inf
ROOT
ATOM      1  C   UNL     1      28.546   2.147  33.221  1.00  0.00     0.003 C 
ATOM      2  C   UNL     1      27.337   1.949  33.761  1.00  0.00     0.000 C 
ENDROOT
BRANCH   1   3
ATOM      3  C   UNL     1      29.325   3.401  33.399  1.00  0.00    -0.055 C 
ATOM      4  C   UNL     1      29.681   5.506  34.727  1.00  0.00     0.036 C 
ATOM      5  C   UNL     1      29.023   4.187  34.451  1.00  0.00    -0.027 C 
ATOM      6  C   UNL     1      30.375   3.801  32.386  1.00  0.00     0.044 C 
ENDBRANCH   1   3
BRANCH   2   7
ATOM      7  C   UNL     1      26.619   0.672  33.552  1.00  0.00    -0.001 C 
ATOM      8  C   UNL     1      25.410   0.397  34.075  1.00  0.00    -0.076 C 
ATOM      9  C   UNL     1      24.669   1.387  34.937  1.00  0.00     0.039 C 
ATOM     10  C   UNL     1      24.789  -0.942  33.783  1.00  0.00     0.039 C 
ENDBRANCH   2   7
TORSDOF 2
ENDMDL
MODEL 8
REMARK VINA RESULT:    -3.382      1.853      6.068
REMARK INTER + INTRA:          -4.032
REMARK INTER:                  -3.811
REMARK INTRA:                  -0.222
REMARK UNBOUND:                -0.255
REMARK SMILES CC=C(C)C=CC=C(C)C
REMARK SMILES IDX 5 1 6 2 3 3 1 4 2 5 4 6 7 7 8 8 9 9 10 10
REMARK H PARENT
REMARK Flexibility Score: inf
ROOT
ATOM      1  C   UNL     1      13.106   3.627  20.509  1.00  0.00     0.003 C 
ATOM      2  C   UNL     1      13.459   2.523  21.180  1.00  0.00     0.000 C 
ENDROOT
BRANCH   1   3
ATOM      3  C   UNL     1      13.284   3.783  19.042  1.00  0.00    -0.055 C 
ATOM      4  C   UNL     1      14.818   3.590  17.059  1.00  0.00     0.036 C 
ATOM      5  C   UNL     1      14.471   3.434  18.510  1.00  0.00    -0.027 C 
ATOM      6  C   UNL     1      12.180   4.379  18.195  1.00  0.00     0.044 C 
ENDBRANCH   1   3
BRANCH   2   7
ATOM      7  C   UNL     1      13.245   2.428  22.641  1.00  0.00    -0.001 C 
ATOM      8  C   UNL     1      13.189   1.267  23.318  1.00  0.00    -0.076 C 
ATOM      9  C   UNL     1      13.341  -0.066  22.630  1.00  0.00     0.039 C 
ATOM     10  C   UNL     1      12.968   1.312  24.806  1.00  0.00     0.039 C 
ENDBRANCH   2   7
TORSDOF 2
ENDMDL
