MODEL 1
REMARK VINA RESULT:    -6.387      0.000      0.000
REMARK INTER + INTRA:          -7.197
REMARK INTER:                  -7.134
REMARK INTRA:                  -0.063
REMARK UNBOUND:                -0.063
REMARK SMILES COc1cc2ccc(=O)oc2c(O)c1O
REMARK SMILES IDX 3 1 14 2 12 3 11 4 5 5 4 6 6 7 7 8 8 9 9 10 10 11 2 12 1 13
REMARK SMILES IDX 15 14 13 16
REMARK H PARENT 15 15 13 17
REMARK Flexibility Score: inf
ROOT
ATOM      1  C   UNL     1      28.178  61.256  13.693  1.00  0.00     0.165 A 
ATOM      2  C   UNL     1      27.135  60.313  13.584  1.00  0.00     0.204 A 
ATOM      3  C   UNL     1      26.127  60.481  12.618  1.00  0.00     0.205 A 
ATOM      4  C   UNL     1      26.157  61.586  11.759  1.00  0.00     0.184 A 
ATOM      5  C   UNL     1      27.198  62.532  11.865  1.00  0.00     0.025 A 
ATOM      6  C   UNL     1      28.202  62.365  12.827  1.00  0.00     0.062 A 
ATOM      7  C   UNL     1      27.198  63.625  10.992  1.00  0.00     0.020 A 
ATOM      8  C   UNL     1      26.179  63.750  10.050  1.00  0.00     0.094 A 
ATOM      9  C   UNL     1      25.178  62.774  10.003  1.00  0.00     0.336 A 
ATOM     10  O   UNL     1      24.249  62.868   9.160  1.00  0.00    -0.246 OA
ATOM     11  O   UNL     1      25.201  61.745  10.845  1.00  0.00    -0.419 OA
ENDROOT
BRANCH   1  12
ATOM     12  O   UNL     1      29.168  61.056  14.670  1.00  0.00    -0.493 OA
ATOM     13  C   UNL     1      29.456  61.966  15.727  1.00  0.00     0.278 C 
ENDBRANCH   1  12
BRANCH   2  14
ATOM     14  O   UNL     1      27.091  59.205  14.433  1.00  0.00    -0.502 OA
ATOM     15  H   UNL     1      26.302  59.017  15.040  1.00  0.00     0.293 HD
ENDBRANCH   2  14
BRANCH   3  16
ATOM     16  O   UNL     1      25.088  59.556  12.499  1.00  0.00    -0.502 OA
ATOM     17  H   UNL     1      24.669  59.327  11.606  1.00  0.00     0.293 HD
ENDBRANCH   3  16
TORSDOF 3
ENDMDL
MODEL 2
REMARK VINA RESULT:    -6.142      1.228      4.766
REMARK INTER + INTRA:          -6.923
REMARK INTER:                  -6.854
REMARK INTRA:                  -0.069
REMARK UNBOUND:                -0.063
REMARK SMILES COc1cc2ccc(=O)oc2c(O)c1O
REMARK SMILES IDX 3 1 14 2 12 3 11 4 5 5 4 6 6 7 7 8 8 9 9 10 10 11 2 12 1 13
REMARK SMILES IDX 15 14 13 16
REMARK H PARENT 15 15 13 17
REMARK Flexibility Score: inf
ROOT
ATOM      1  C   UNL     1      26.866  62.692  11.443  1.00  0.00     0.165 A 
ATOM      2  C   UNL     1      25.945  61.629  11.542  1.00  0.00     0.204 A 
ATOM      3  C   UNL     1      26.097  60.651  12.541  1.00  0.00     0.205 A 
ATOM      4  C   UNL     1      27.165  60.730  13.443  1.00  0.00     0.184 A 
ATOM      5  C   UNL     1      28.089  61.792  13.348  1.00  0.00     0.025 A 
ATOM      6  C   UNL     1      27.938  62.766  12.353  1.00  0.00     0.062 A 
ATOM      7  C   UNL     1      29.145  61.841  14.263  1.00  0.00     0.020 A 
ATOM      8  C   UNL     1      29.256  60.850  15.237  1.00  0.00     0.094 A 
ATOM      9  C   UNL     1      28.303  59.826  15.271  1.00  0.00     0.336 A 
ATOM     10  O   UNL     1      28.384  58.922  16.142  1.00  0.00    -0.246 OA
ATOM     11  O   UNL     1      27.309  59.803  14.388  1.00  0.00    -0.419 OA
ENDROOT
BRANCH   1  12
ATOM     12  O   UNL     1      26.683  63.651  10.434  1.00  0.00    -0.493 OA
ATOM     13  C   UNL     1      27.423  63.696   9.218  1.00  0.00     0.278 C 
ENDBRANCH   1  12
BRANCH   2  14
ATOM     14  O   UNL     1      24.874  61.535  10.652  1.00  0.00    -0.502 OA
ATOM     15  H   UNL     1      24.881  60.906   9.858  1.00  0.00     0.293 HD
ENDBRANCH   2  14
BRANCH   3  16
ATOM     16  O   UNL     1      25.193  59.593  12.651  1.00  0.00    -0.502 OA
ATOM     17  H   UNL     1      24.237  59.728  12.958  1.00  0.00     0.293 HD
ENDBRANCH   3  16
TORSDOF 3
ENDMDL
MODEL 3
REMARK VINA RESULT:    -5.869      1.782      1.932
REMARK INTER + INTRA:          -6.617
REMARK INTER:                  -6.569
REMARK INTRA:                  -0.049
REMARK UNBOUND:                -0.063
REMARK SMILES COc1cc2ccc(=O)oc2c(O)c1O
REMARK SMILES IDX 3 1 14 2 12 3 11 4 5 5 4 6 6 7 7 8 8 9 9 10 10 11 2 12 1 13
REMARK SMILES IDX 15 14 13 16
REMARK H PARENT 15 15 13 17
REMARK Flexibility Score: inf
ROOT
ATOM      1  C   UNL     1      29.432  60.918  12.872  1.00  0.00     0.165 A 
ATOM      2  C   UNL     1      28.310  61.024  13.719  1.00  0.00     0.204 A 
ATOM      3  C   UNL     1      27.070  61.440  13.203  1.00  0.00     0.205 A 
ATOM      4  C   UNL     1      26.945  61.751  11.844  1.00  0.00     0.184 A 
ATOM      5  C   UNL     1      28.065  61.646  10.992  1.00  0.00     0.025 A 
ATOM      6  C   UNL     1      29.300  61.232  11.506  1.00  0.00     0.062 A 
ATOM      7  C   UNL     1      27.907  61.965   9.639  1.00  0.00     0.020 A 
ATOM      8  C   UNL     1      26.659  62.373   9.172  1.00  0.00     0.094 A 
ATOM      9  C   UNL     1      25.593  62.455  10.074  1.00  0.00     0.336 A 
ATOM     10  O   UNL     1      24.458  62.820   9.673  1.00  0.00    -0.246 OA
ATOM     11  O   UNL     1      25.770  62.146  11.356  1.00  0.00    -0.419 OA
ENDROOT
BRANCH   1  12
ATOM     12  O   UNL     1      30.655  60.499  13.422  1.00  0.00    -0.493 OA
ATOM     13  C   UNL     1      31.876  60.402  12.696  1.00  0.00     0.278 C 
ENDBRANCH   1  12
BRANCH   2  14
ATOM     14  O   UNL     1      28.416  60.717  15.077  1.00  0.00    -0.502 OA
ATOM     15  H   UNL     1      28.730  61.393  15.763  1.00  0.00     0.293 HD
ENDBRANCH   2  14
BRANCH   3  16
ATOM     16  O   UNL     1      25.950  61.550  14.030  1.00  0.00    -0.502 OA
ATOM     17  H   UNL     1      25.085  61.975  13.715  1.00  0.00     0.293 HD
ENDBRANCH   3  16
TORSDOF 3
ENDMDL
MODEL 4
REMARK VINA RESULT:    -5.836      2.560      3.077
REMARK INTER + INTRA:          -6.581
REMARK INTER:                  -6.521
REMARK INTRA:                  -0.060
REMARK UNBOUND:                -0.063
REMARK SMILES COc1cc2ccc(=O)oc2c(O)c1O
REMARK SMILES IDX 3 1 14 2 12 3 11 4 5 5 4 6 6 7 7 8 8 9 9 10 10 11 2 12 1 13
REMARK SMILES IDX 15 14 13 16
REMARK H PARENT 15 15 13 17
REMARK Flexibility Score: inf
ROOT
ATOM      1  C   UNL     1      28.719  61.496  14.166  1.00  0.00     0.165 A 
ATOM      2  C   UNL     1      27.965  62.677  14.004  1.00  0.00     0.204 A 
ATOM      3  C   UNL     1      27.668  63.157  12.716  1.00  0.00     0.205 A 
ATOM      4  C   UNL     1      28.121  62.462  11.588  1.00  0.00     0.184 A 
ATOM      5  C   UNL     1      28.876  61.281  11.744  1.00  0.00     0.025 A 
ATOM      6  C   UNL     1      29.172  60.803  13.028  1.00  0.00     0.062 A 
ATOM      7  C   UNL     1      29.313  60.611  10.597  1.00  0.00     0.020 A 
ATOM      8  C   UNL     1      28.996  61.123   9.341  1.00  0.00     0.094 A 
ATOM      9  C   UNL     1      28.244  62.300   9.261  1.00  0.00     0.336 A 
ATOM     10  O   UNL     1      27.946  62.780   8.137  1.00  0.00    -0.246 OA
ATOM     11  O   UNL     1      27.840  62.918  10.368  1.00  0.00    -0.419 OA
ENDROOT
BRANCH   1  12
ATOM     12  O   UNL     1      28.996  61.046  15.467  1.00  0.00    -0.493 OA
ATOM     13  C   UNL     1      28.678  59.748  15.958  1.00  0.00     0.278 C 
ENDBRANCH   1  12
BRANCH   2  14
ATOM     14  O   UNL     1      27.505  63.382  15.118  1.00  0.00    -0.502 OA
ATOM     15  H   UNL     1      26.915  64.200  15.037  1.00  0.00     0.293 HD
ENDBRANCH   2  14
BRANCH   3  16
ATOM     16  O   UNL     1      26.924  64.324  12.540  1.00  0.00    -0.502 OA
ATOM     17  H   UNL     1      25.915  64.313  12.448  1.00  0.00     0.293 HD
ENDBRANCH   3  16
TORSDOF 3
ENDMDL
MODEL 5
REMARK VINA RESULT:    -5.745     12.757     13.416
REMARK INTER + INTRA:          -6.480
REMARK INTER:                  -6.420
REMARK INTRA:                  -0.059
REMARK UNBOUND:                -0.063
REMARK SMILES COc1cc2ccc(=O)oc2c(O)c1O
REMARK SMILES IDX 3 1 14 2 12 3 11 4 5 5 4 6 6 7 7 8 8 9 9 10 10 11 2 12 1 13
REMARK SMILES IDX 15 14 13 16
REMARK H PARENT 15 15 13 17
REMARK Flexibility Score: inf
ROOT
ATOM      1  C   UNL     1      17.258  62.048  22.552  1.00  0.00     0.165 A 
ATOM      2  C   UNL     1      16.210  61.106  22.568  1.00  0.00     0.204 A 
ATOM      3  C   UNL     1      15.525  60.787  21.382  1.00  0.00     0.205 A 
ATOM      4  C   UNL     1      15.884  61.406  20.178  1.00  0.00     0.184 A 
ATOM      5  C   UNL     1      16.932  62.349  20.157  1.00  0.00     0.025 A 
ATOM      6  C   UNL     1      17.614  62.667  21.338  1.00  0.00     0.062 A 
ATOM      7  C   UNL     1      17.265  62.950  18.938  1.00  0.00     0.020 A 
ATOM      8  C   UNL     1      16.558  62.603  17.787  1.00  0.00     0.094 A 
ATOM      9  C   UNL     1      15.530  61.660  17.884  1.00  0.00     0.336 A 
ATOM     10  O   UNL     1      14.881  61.333  16.857  1.00  0.00    -0.246 OA
ATOM     11  O   UNL     1      15.234  61.104  19.055  1.00  0.00    -0.419 OA
ENDROOT
BRANCH   1  12
ATOM     12  O   UNL     1      17.920  62.342  23.755  1.00  0.00    -0.493 OA
ATOM     13  C   UNL     1      19.331  62.275  23.939  1.00  0.00     0.278 C 
ENDBRANCH   1  12
BRANCH   2  14
ATOM     14  O   UNL     1      15.840  60.479  23.760  1.00  0.00    -0.502 OA
ATOM     15  H   UNL     1      15.598  61.000  24.595  1.00  0.00     0.293 HD
ENDBRANCH   2  14
BRANCH   3  16
ATOM     16  O   UNL     1      14.484  59.857  21.383  1.00  0.00    -0.502 OA
ATOM     17  H   UNL     1      14.653  58.858  21.416  1.00  0.00     0.293 HD
ENDBRANCH   3  16
TORSDOF 3
ENDMDL
MODEL 6
REMARK VINA RESULT:    -5.547     13.313     14.111
REMARK INTER + INTRA:          -6.258
REMARK INTER:                  -6.209
REMARK INTRA:                  -0.050
REMARK UNBOUND:                -0.063
REMARK SMILES COc1cc2ccc(=O)oc2c(O)c1O
REMARK SMILES IDX 3 1 14 2 12 3 11 4 5 5 4 6 6 7 7 8 8 9 9 10 10 11 2 12 1 13
REMARK SMILES IDX 15 14 13 16
REMARK H PARENT 15 15 13 17
REMARK Flexibility Score: inf
ROOT
ATOM      1  C   UNL     1      15.968  61.953  23.169  1.00  0.00     0.165 A 
ATOM      2  C   UNL     1      16.806  63.076  23.014  1.00  0.00     0.204 A 
ATOM      3  C   UNL     1      17.193  63.499  21.729  1.00  0.00     0.205 A 
ATOM      4  C   UNL     1      16.745  62.805  20.599  1.00  0.00     0.184 A 
ATOM      5  C   UNL     1      15.907  61.681  20.749  1.00  0.00     0.025 A 
ATOM      6  C   UNL     1      15.522  61.259  22.029  1.00  0.00     0.062 A 
ATOM      7  C   UNL     1      15.478  61.009  19.600  1.00  0.00     0.020 A 
ATOM      8  C   UNL     1      15.887  61.464  18.347  1.00  0.00     0.094 A 
ATOM      9  C   UNL     1      16.720  62.585  18.274  1.00  0.00     0.336 A 
ATOM     10  O   UNL     1      17.100  63.012  17.153  1.00  0.00    -0.246 OA
ATOM     11  O   UNL     1      17.113  63.205  19.383  1.00  0.00    -0.419 OA
ENDROOT
BRANCH   1  12
ATOM     12  O   UNL     1      15.602  61.559  24.467  1.00  0.00    -0.493 OA
ATOM     13  C   UNL     1      14.493  60.719  24.774  1.00  0.00     0.278 C 
ENDBRANCH   1  12
BRANCH   2  14
ATOM     14  O   UNL     1      17.261  63.780  24.130  1.00  0.00    -0.502 OA
ATOM     15  H   UNL     1      18.229  64.055  24.241  1.00  0.00     0.293 HD
ENDBRANCH   2  14
BRANCH   3  16
ATOM     16  O   UNL     1      18.023  64.609  21.560  1.00  0.00    -0.502 OA
ATOM     17  H   UNL     1      19.021  64.519  21.411  1.00  0.00     0.293 HD
ENDBRANCH   3  16
TORSDOF 3
ENDMDL
MODEL 7
REMARK VINA RESULT:    -5.531     13.221     14.500
REMARK INTER + INTRA:          -6.240
REMARK INTER:                  -6.175
REMARK INTRA:                  -0.065
REMARK UNBOUND:                -0.063
REMARK SMILES COc1cc2ccc(=O)oc2c(O)c1O
REMARK SMILES IDX 3 1 14 2 12 3 11 4 5 5 4 6 6 7 7 8 8 9 9 10 10 11 2 12 1 13
REMARK SMILES IDX 15 14 13 16
REMARK H PARENT 15 15 13 17
REMARK Flexibility Score: inf
ROOT
ATOM      1  C   UNL     1      16.080  61.626  19.271  1.00  0.00     0.165 A 
ATOM      2  C   UNL     1      16.813  62.818  19.099  1.00  0.00     0.204 A 
ATOM      3  C   UNL     1      17.044  63.671  20.193  1.00  0.00     0.205 A 
ATOM      4  C   UNL     1      16.546  63.338  21.458  1.00  0.00     0.184 A 
ATOM      5  C   UNL     1      15.812  62.147  21.635  1.00  0.00     0.025 A 
ATOM      6  C   UNL     1      15.582  61.297  20.546  1.00  0.00     0.062 A 
ATOM      7  C   UNL     1      15.329  61.844  22.912  1.00  0.00     0.020 A 
ATOM      8  C   UNL     1      15.582  62.719  23.967  1.00  0.00     0.094 A 
ATOM      9  C   UNL     1      16.316  63.883  23.718  1.00  0.00     0.336 A 
ATOM     10  O   UNL     1      16.557  64.686  24.656  1.00  0.00    -0.246 OA
ATOM     11  O   UNL     1      16.765  64.147  22.494  1.00  0.00    -0.419 OA
ENDROOT
BRANCH   1  12
ATOM     12  O   UNL     1      15.868  60.797  18.156  1.00  0.00    -0.493 OA
ATOM     13  C   UNL     1      14.710  60.836  17.328  1.00  0.00     0.278 C 
ENDBRANCH   1  12
BRANCH   2  14
ATOM     14  O   UNL     1      17.316  63.165  17.844  1.00  0.00    -0.502 OA
ATOM     15  H   UNL     1      17.744  64.064  17.660  1.00  0.00     0.293 HD
ENDBRANCH   2  14
BRANCH   3  16
ATOM     16  O   UNL     1      17.767  64.855  20.037  1.00  0.00    -0.502 OA
ATOM     17  H   UNL     1      17.559  65.523  19.305  1.00  0.00     0.293 HD
ENDBRANCH   3  16
TORSDOF 3
ENDMDL
MODEL 8
REMARK VINA RESULT:    -5.512      2.064      5.101
REMARK INTER + INTRA:          -6.219
REMARK INTER:                  -6.156
REMARK INTRA:                  -0.063
REMARK UNBOUND:                -0.063
REMARK SMILES COc1cc2ccc(=O)oc2c(O)c1O
REMARK SMILES IDX 3 1 14 2 12 3 11 4 5 5 4 6 6 7 7 8 8 9 9 10 10 11 2 12 1 13
REMARK SMILES IDX 15 14 13 16
REMARK H PARENT 15 15 13 17
REMARK Flexibility Score: inf
ROOT
ATOM      1  C   UNL     1      26.808  62.237  10.087  1.00  0.00     0.165 A 
ATOM      2  C   UNL     1      27.849  61.295   9.957  1.00  0.00     0.204 A 
ATOM      3  C   UNL     1      28.668  60.989  11.058  1.00  0.00     0.205 A 
ATOM      4  C   UNL     1      28.452  61.619  12.289  1.00  0.00     0.184 A 
ATOM      5  C   UNL     1      27.412  62.562  12.424  1.00  0.00     0.025 A 
ATOM      6  C   UNL     1      26.596  62.868  11.327  1.00  0.00     0.062 A 
ATOM      7  C   UNL     1      27.222  63.174  13.668  1.00  0.00     0.020 A 
ATOM      8  C   UNL     1      28.059  62.839  14.731  1.00  0.00     0.094 A 
ATOM      9  C   UNL     1      29.071  61.896  14.524  1.00  0.00     0.336 A 
ATOM     10  O   UNL     1      29.836  61.579  15.471  1.00  0.00    -0.246 OA
ATOM     11  O   UNL     1      29.229  61.329  13.331  1.00  0.00    -0.419 OA
ENDROOT
BRANCH   1  12
ATOM     12  O   UNL     1      26.009  62.519   8.966  1.00  0.00    -0.493 OA
ATOM     13  C   UNL     1      24.602  62.304   8.902  1.00  0.00     0.278 C 
ENDBRANCH   1  12
BRANCH   2  14
ATOM     14  O   UNL     1      28.078  60.657   8.736  1.00  0.00    -0.502 OA
ATOM     15  H   UNL     1      28.859  60.029   8.590  1.00  0.00     0.293 HD
ENDBRANCH   2  14
BRANCH   3  16
ATOM     16  O   UNL     1      29.703  60.059  10.944  1.00  0.00    -0.502 OA
ATOM     17  H   UNL     1      30.489  60.044  11.583  1.00  0.00     0.293 HD
ENDBRANCH   3  16
TORSDOF 3
ENDMDL
MODEL 9
REMARK VINA RESULT:    -5.445     12.758     13.822
REMARK INTER + INTRA:          -6.144
REMARK INTER:                  -6.085
REMARK INTRA:                  -0.059
REMARK UNBOUND:                -0.063
REMARK SMILES COc1cc2ccc(=O)oc2c(O)c1O
REMARK SMILES IDX 3 1 14 2 12 3 11 4 5 5 4 6 6 7 7 8 8 9 9 10 10 11 2 12 1 13
REMARK SMILES IDX 15 14 13 16
REMARK H PARENT 15 15 13 17
REMARK Flexibility Score: inf
ROOT
ATOM      1  C   UNL     1      17.950  61.103  19.523  1.00  0.00     0.165 A 
ATOM      2  C   UNL     1      16.687  60.488  19.400  1.00  0.00     0.204 A 
ATOM      3  C   UNL     1      15.653  60.806  20.298  1.00  0.00     0.205 A 
ATOM      4  C   UNL     1      15.875  61.738  21.319  1.00  0.00     0.184 A 
ATOM      5  C   UNL     1      17.136  62.356  21.446  1.00  0.00     0.025 A 
ATOM      6  C   UNL     1      18.166  62.039  20.552  1.00  0.00     0.062 A 
ATOM      7  C   UNL     1      17.325  63.283  22.477  1.00  0.00     0.020 A 
ATOM      8  C   UNL     1      16.271  63.568  23.344  1.00  0.00     0.094 A 
ATOM      9  C   UNL     1      15.048  62.916  23.159  1.00  0.00     0.336 A 
ATOM     10  O   UNL     1      14.084  63.159  23.930  1.00  0.00    -0.246 OA
ATOM     11  O   UNL     1      14.895  62.039  22.170  1.00  0.00    -0.419 OA
ENDROOT
BRANCH   1  12
ATOM     12  O   UNL     1      18.959  60.761  18.608  1.00  0.00    -0.493 OA
ATOM     13  C   UNL     1      19.916  59.725  18.809  1.00  0.00     0.278 C 
ENDBRANCH   1  12
BRANCH   2  14
ATOM     14  O   UNL     1      16.449  59.556  18.387  1.00  0.00    -0.502 OA
ATOM     15  H   UNL     1      17.170  59.260  17.741  1.00  0.00     0.293 HD
ENDBRANCH   2  14
BRANCH   3  16
ATOM     16  O   UNL     1      14.398  60.205  20.189  1.00  0.00    -0.502 OA
ATOM     17  H   UNL     1      14.282  59.252  19.865  1.00  0.00     0.293 HD
ENDBRANCH   3  16
TORSDOF 3
ENDMDL
