MODEL 1
REMARK VINA RESULT:    -3.981      0.000      0.000
REMARK INTER + INTRA:          -9.425
REMARK INTER:                  -7.239
REMARK INTRA:                  -2.186
REMARK UNBOUND:                -2.186
REMARK SMILES CCCCCCCCCCCCCC[C@H](C)C(=O)[O-]
REMARK SMILES IDX 9 1 10 2 11 3 12 4 13 5 14 6 15 7 16 8 17 9 18 10 19 11 8 12
REMARK SMILES IDX 7 13 6 14 5 15 4 16 3 17 2 18 1 19
REMARK H PARENT
REMARK Flexibility Score: inf
ROOT
ATOM      1  C   UNL     1      10.195  16.584  12.071  1.00  0.00     0.000 C 
ENDROOT
BRANCH   1   2
ATOM      2  C   UNL     1      10.254  17.387  13.381  1.00  0.00     0.000 C 
BRANCH   2   3
ATOM      3  C   UNL     1      11.108  18.658  13.260  1.00  0.00     0.000 C 
BRANCH   3   4
ATOM      4  C   UNL     1      11.052  19.481  14.555  1.00  0.00     0.000 C 
BRANCH   4   5
ATOM      5  C   UNL     1      12.221  19.179  15.510  1.00  0.00     0.001 C 
BRANCH   5   6
ATOM      6  C   UNL     1      11.849  18.351  16.758  1.00  0.00     0.009 C 
BRANCH   6   7
ATOM      7  C   UNL     1      11.981  16.822  16.575  1.00  0.00     0.032 C 
ATOM      8  C   UNL     1      10.647  16.132  16.879  1.00  0.00     0.014 C 
BRANCH   7   9
ATOM      9  C   UNL     1      13.059  16.253  17.457  1.00  0.00     0.044 C 
ATOM     10  O   UNL     1      14.117  16.903  17.662  1.00  0.00    -0.550 OA
ATOM     11  O   UNL     1      12.895  15.007  18.051  1.00  0.00    -0.550 OA
ENDBRANCH   7   9
ENDBRANCH   6   7
ENDBRANCH   5   6
ENDBRANCH   4   5
ENDBRANCH   3   4
ENDBRANCH   2   3
ENDBRANCH   1   2
BRANCH   1  12
ATOM     12  C   UNL     1       8.756  16.339  11.590  1.00  0.00     0.000 C 
BRANCH  12  13
ATOM     13  C   UNL     1       8.700  16.252  10.058  1.00  0.00    -0.000 C 
BRANCH  13  14
ATOM     14  C   UNL     1       8.326  17.591   9.402  1.00  0.00    -0.000 C 
BRANCH  14  15
ATOM     15  C   UNL     1       9.557  18.419   8.998  1.00  0.00    -0.000 C 
BRANCH  15  16
ATOM     16  C   UNL     1       9.743  19.663   9.893  1.00  0.00    -0.000 C 
BRANCH  16  17
ATOM     17  C   UNL     1       8.418  20.291  10.364  1.00  0.00    -0.000 C 
BRANCH  17  18
ATOM     18  C   UNL     1       8.393  20.702  11.845  1.00  0.00    -0.003 C 
ATOM     19  C   UNL     1       7.431  19.857  12.679  1.00  0.00     0.004 C 
ENDBRANCH  17  18
ENDBRANCH  16  17
ENDBRANCH  15  16
ENDBRANCH  14  15
ENDBRANCH  13  14
ENDBRANCH  12  13
ENDBRANCH   1  12
TORSDOF 14
ENDMDL
MODEL 2
REMARK VINA RESULT:    -3.919      4.294      7.173
REMARK INTER + INTRA:          -9.313
REMARK INTER:                  -7.090
REMARK INTRA:                  -2.223
REMARK UNBOUND:                -2.186
REMARK SMILES CCCCCCCCCCCCCC[C@H](C)C(=O)[O-]
REMARK SMILES IDX 9 1 10 2 11 3 12 4 13 5 14 6 15 7 16 8 17 9 18 10 19 11 8 12
REMARK SMILES IDX 7 13 6 14 5 15 4 16 3 17 2 18 1 19
REMARK H PARENT
REMARK Flexibility Score: inf
ROOT
ATOM      1  C   UNL     1      14.415  16.842  17.388  1.00  0.00     0.000 C 
ENDROOT
BRANCH   1   2
ATOM      2  C   UNL     1      15.049  16.350  16.077  1.00  0.00     0.000 C 
BRANCH   2   3
ATOM      3  C   UNL     1      16.472  16.889  15.868  1.00  0.00     0.000 C 
BRANCH   3   4
ATOM      4  C   UNL     1      16.568  17.687  14.558  1.00  0.00     0.000 C 
BRANCH   4   5
ATOM      5  C   UNL     1      17.692  18.739  14.577  1.00  0.00     0.001 C 
BRANCH   5   6
ATOM      6  C   UNL     1      17.984  19.360  15.959  1.00  0.00     0.009 C 
BRANCH   6   7
ATOM      7  C   UNL     1      19.421  19.122  16.477  1.00  0.00     0.032 C 
ATOM      8  C   UNL     1      20.346  18.724  15.322  1.00  0.00     0.014 C 
BRANCH   7   9
ATOM      9  C   UNL     1      19.453  18.059  17.542  1.00  0.00     0.044 C 
ATOM     10  O   UNL     1      18.806  18.215  18.610  1.00  0.00    -0.550 OA
ATOM     11  O   UNL     1      20.196  16.899  17.354  1.00  0.00    -0.550 OA
ENDBRANCH   7   9
ENDBRANCH   6   7
ENDBRANCH   5   6
ENDBRANCH   4   5
ENDBRANCH   3   4
ENDBRANCH   2   3
ENDBRANCH   1   2
BRANCH   1  12
ATOM     12  C   UNL     1      14.879  18.255  17.777  1.00  0.00     0.000 C 
BRANCH  12  13
ATOM     13  C   UNL     1      13.724  19.260  17.660  1.00  0.00    -0.000 C 
BRANCH  13  14
ATOM     14  C   UNL     1      13.552  19.803  16.233  1.00  0.00    -0.000 C 
BRANCH  14  15
ATOM     15  C   UNL     1      12.179  19.462  15.628  1.00  0.00    -0.000 C 
BRANCH  15  16
ATOM     16  C   UNL     1      12.241  18.233  14.695  1.00  0.00    -0.000 C 
BRANCH  16  17
ATOM     17  C   UNL     1      11.168  17.170  15.000  1.00  0.00    -0.000 C 
BRANCH  17  18
ATOM     18  C   UNL     1      11.042  16.794  16.485  1.00  0.00    -0.003 C 
ATOM     19  C   UNL     1      11.155  15.289  16.727  1.00  0.00     0.004 C 
ENDBRANCH  17  18
ENDBRANCH  16  17
ENDBRANCH  15  16
ENDBRANCH  14  15
ENDBRANCH  13  14
ENDBRANCH  12  13
ENDBRANCH   1  12
TORSDOF 14
ENDMDL
MODEL 3
REMARK VINA RESULT:    -3.843      1.536      3.175
REMARK INTER + INTRA:          -9.175
REMARK INTER:                  -7.454
REMARK INTRA:                  -1.721
REMARK UNBOUND:                -2.186
REMARK SMILES CCCCCCCCCCCCCC[C@H](C)C(=O)[O-]
REMARK SMILES IDX 9 1 10 2 11 3 12 4 13 5 14 6 15 7 16 8 17 9 18 10 19 11 8 12
REMARK SMILES IDX 7 13 6 14 5 15 4 16 3 17 2 18 1 19
REMARK H PARENT
REMARK Flexibility Score: inf
ROOT
ATOM      1  C   UNL     1      10.577  18.692  12.594  1.00  0.00     0.000 C 
ENDROOT
BRANCH   1   2
ATOM      2  C   UNL     1      10.980  17.429  13.373  1.00  0.00     0.000 C 
BRANCH   2   3
ATOM      3  C   UNL     1      11.387  17.733  14.823  1.00  0.00     0.000 C 
BRANCH   3   4
ATOM      4  C   UNL     1      11.014  16.568  15.752  1.00  0.00     0.000 C 
BRANCH   4   5
ATOM      5  C   UNL     1      11.693  16.658  17.131  1.00  0.00     0.001 C 
BRANCH   5   6
ATOM      6  C   UNL     1      13.060  15.949  17.234  1.00  0.00     0.009 C 
BRANCH   6   7
ATOM      7  C   UNL     1      14.272  16.905  17.310  1.00  0.00     0.032 C 
ATOM      8  C   UNL     1      13.806  18.339  17.579  1.00  0.00     0.014 C 
BRANCH   7   9
ATOM      9  C   UNL     1      15.084  16.865  16.044  1.00  0.00     0.044 C 
ATOM     10  O   UNL     1      15.764  15.844  15.760  1.00  0.00    -0.550 OA
ATOM     11  O   UNL     1      15.090  17.954  15.179  1.00  0.00    -0.550 OA
ENDBRANCH   7   9
ENDBRANCH   6   7
ENDBRANCH   5   6
ENDBRANCH   4   5
ENDBRANCH   3   4
ENDBRANCH   2   3
ENDBRANCH   1   2
BRANCH   1  12
ATOM     12  C   UNL     1       9.617  19.595  13.384  1.00  0.00     0.000 C 
BRANCH  12  13
ATOM     13  C   UNL     1       8.363  19.915  12.557  1.00  0.00    -0.000 C 
BRANCH  13  14
ATOM     14  C   UNL     1       8.689  20.264  11.096  1.00  0.00    -0.000 C 
BRANCH  14  15
ATOM     15  C   UNL     1       7.962  19.354  10.091  1.00  0.00    -0.000 C 
BRANCH  15  16
ATOM     16  C   UNL     1       8.933  18.409   9.351  1.00  0.00    -0.000 C 
BRANCH  16  17
ATOM     17  C   UNL     1       8.703  16.918   9.664  1.00  0.00    -0.000 C 
BRANCH  17  18
ATOM     18  C   UNL     1       7.613  16.643  10.713  1.00  0.00    -0.003 C 
ATOM     19  C   UNL     1       8.123  15.824  11.898  1.00  0.00     0.004 C 
ENDBRANCH  17  18
ENDBRANCH  16  17
ENDBRANCH  15  16
ENDBRANCH  14  15
ENDBRANCH  13  14
ENDBRANCH  12  13
ENDBRANCH   1  12
TORSDOF 14
ENDMDL
MODEL 4
REMARK VINA RESULT:    -3.820      5.357      8.023
REMARK INTER + INTRA:          -9.132
REMARK INTER:                  -7.475
REMARK INTRA:                  -1.656
REMARK UNBOUND:                -2.186
REMARK SMILES CCCCCCCCCCCCCC[C@H](C)C(=O)[O-]
REMARK SMILES IDX 9 1 10 2 11 3 12 4 13 5 14 6 15 7 16 8 17 9 18 10 19 11 8 12
REMARK SMILES IDX 7 13 6 14 5 15 4 16 3 17 2 18 1 19
REMARK H PARENT
REMARK Flexibility Score: inf
ROOT
ATOM      1  C   UNL     1      15.978  17.057  15.579  1.00  0.00     0.000 C 
ENDROOT
BRANCH   1   2
ATOM      2  C   UNL     1      16.982  17.836  14.714  1.00  0.00     0.000 C 
BRANCH   2   3
ATOM      3  C   UNL     1      17.872  18.776  15.541  1.00  0.00     0.000 C 
BRANCH   3   4
ATOM      4  C   UNL     1      19.342  18.657  15.110  1.00  0.00     0.000 C 
BRANCH   4   5
ATOM      5  C   UNL     1      20.277  18.265  16.269  1.00  0.00     0.001 C 
BRANCH   5   6
ATOM      6  C   UNL     1      19.718  17.192  17.227  1.00  0.00     0.009 C 
BRANCH   6   7
ATOM      7  C   UNL     1      20.086  17.407  18.713  1.00  0.00     0.032 C 
ATOM      8  C   UNL     1      20.835  18.731  18.891  1.00  0.00     0.014 C 
BRANCH   7   9
ATOM      9  C   UNL     1      20.924  16.275  19.242  1.00  0.00     0.044 C 
ATOM     10  O   UNL     1      20.372  15.264  19.751  1.00  0.00    -0.550 OA
ATOM     11  O   UNL     1      22.311  16.336  19.173  1.00  0.00    -0.550 OA
ENDBRANCH   7   9
ENDBRANCH   6   7
ENDBRANCH   5   6
ENDBRANCH   4   5
ENDBRANCH   3   4
ENDBRANCH   2   3
ENDBRANCH   1   2
BRANCH   1  12
ATOM     12  C   UNL     1      15.709  17.735  16.931  1.00  0.00     0.000 C 
BRANCH  12  13
ATOM     13  C   UNL     1      14.448  17.157  17.591  1.00  0.00    -0.000 C 
BRANCH  13  14
ATOM     14  C   UNL     1      13.738  16.121  16.706  1.00  0.00    -0.000 C 
BRANCH  14  15
ATOM     15  C   UNL     1      12.319  15.790  17.200  1.00  0.00    -0.000 C 
BRANCH  15  16
ATOM     16  C   UNL     1      11.236  16.588  16.441  1.00  0.00    -0.000 C 
BRANCH  16  17
ATOM     17  C   UNL     1      11.639  16.967  15.004  1.00  0.00    -0.000 C 
BRANCH  17  18
ATOM     18  C   UNL     1      11.552  18.469  14.688  1.00  0.00    -0.003 C 
ATOM     19  C   UNL     1      12.915  19.159  14.711  1.00  0.00     0.004 C 
ENDBRANCH  17  18
ENDBRANCH  16  17
ENDBRANCH  15  16
ENDBRANCH  14  15
ENDBRANCH  13  14
ENDBRANCH  12  13
ENDBRANCH   1  12
TORSDOF 14
ENDMDL
MODEL 5
REMARK VINA RESULT:    -3.810      4.504      7.911
REMARK INTER + INTRA:          -9.114
REMARK INTER:                  -7.473
REMARK INTRA:                  -1.641
REMARK UNBOUND:                -2.186
REMARK SMILES CCCCCCCCCCCCCC[C@H](C)C(=O)[O-]
REMARK SMILES IDX 9 1 10 2 11 3 12 4 13 5 14 6 15 7 16 8 17 9 18 10 19 11 8 12
REMARK SMILES IDX 7 13 6 14 5 15 4 16 3 17 2 18 1 19
REMARK H PARENT
REMARK Flexibility Score: inf
ROOT
ATOM      1  C   UNL     1      14.811  16.433  16.128  1.00  0.00     0.000 C 
ENDROOT
BRANCH   1   2
ATOM      2  C   UNL     1      13.851  16.720  17.295  1.00  0.00     0.000 C 
BRANCH   2   3
ATOM      3  C   UNL     1      13.036  15.486  17.709  1.00  0.00     0.000 C 
BRANCH   3   4
ATOM      4  C   UNL     1      11.758  15.366  16.866  1.00  0.00     0.000 C 
BRANCH   4   5
ATOM      5  C   UNL     1      11.131  16.731  16.528  1.00  0.00     0.001 C 
BRANCH   5   6
ATOM      6  C   UNL     1      11.019  17.045  15.021  1.00  0.00     0.009 C 
BRANCH   6   7
ATOM      7  C   UNL     1      11.761  18.326  14.577  1.00  0.00     0.032 C 
ATOM      8  C   UNL     1      11.773  19.356  15.712  1.00  0.00     0.014 C 
BRANCH   7   9
ATOM      9  C   UNL     1      11.131  18.930  13.351  1.00  0.00     0.044 C 
ATOM     10  O   UNL     1      11.778  19.747  12.646  1.00  0.00    -0.550 OA
ATOM     11  O   UNL     1       9.832  18.592  12.990  1.00  0.00    -0.550 OA
ENDBRANCH   7   9
ENDBRANCH   6   7
ENDBRANCH   5   6
ENDBRANCH   4   5
ENDBRANCH   3   4
ENDBRANCH   2   3
ENDBRANCH   1   2
BRANCH   1  12
ATOM     12  C   UNL     1      15.313  17.713  15.444  1.00  0.00     0.000 C 
BRANCH  12  13
ATOM     13  C   UNL     1      16.601  17.441  14.654  1.00  0.00    -0.000 C 
BRANCH  13  14
ATOM     14  C   UNL     1      16.920  18.549  13.638  1.00  0.00    -0.000 C 
BRANCH  14  15
ATOM     15  C   UNL     1      17.548  19.792  14.291  1.00  0.00    -0.000 C 
BRANCH  15  16
ATOM     16  C   UNL     1      19.091  19.749  14.263  1.00  0.00    -0.000 C 
BRANCH  16  17
ATOM     17  C   UNL     1      19.728  19.519  15.647  1.00  0.00    -0.000 C 
BRANCH  17  18
ATOM     18  C   UNL     1      20.055  18.051  15.967  1.00  0.00    -0.003 C 
ATOM     19  C   UNL     1      19.243  17.505  17.140  1.00  0.00     0.004 C 
ENDBRANCH  17  18
ENDBRANCH  16  17
ENDBRANCH  15  16
ENDBRANCH  14  15
ENDBRANCH  13  14
ENDBRANCH  12  13
ENDBRANCH   1  12
TORSDOF 14
ENDMDL
MODEL 6
REMARK VINA RESULT:    -3.796      1.150      1.953
REMARK INTER + INTRA:          -9.088
REMARK INTER:                  -7.172
REMARK INTRA:                  -1.917
REMARK UNBOUND:                -2.186
REMARK SMILES CCCCCCCCCCCCCC[C@H](C)C(=O)[O-]
REMARK SMILES IDX 9 1 10 2 11 3 12 4 13 5 14 6 15 7 16 8 17 9 18 10 19 11 8 12
REMARK SMILES IDX 7 13 6 14 5 15 4 16 3 17 2 18 1 19
REMARK H PARENT
REMARK Flexibility Score: inf
ROOT
ATOM      1  C   UNL     1      10.469  17.034  12.969  1.00  0.00     0.000 C 
ENDROOT
BRANCH   1   2
ATOM      2  C   UNL     1      10.271  18.532  13.252  1.00  0.00     0.000 C 
BRANCH   2   3
ATOM      3  C   UNL     1      11.582  19.329  13.165  1.00  0.00     0.000 C 
BRANCH   3   4
ATOM      4  C   UNL     1      12.405  19.170  14.452  1.00  0.00     0.000 C 
BRANCH   4   5
ATOM      5  C   UNL     1      11.561  19.337  15.729  1.00  0.00     0.001 C 
BRANCH   5   6
ATOM      6  C   UNL     1      11.779  18.252  16.805  1.00  0.00     0.009 C 
BRANCH   6   7
ATOM      7  C   UNL     1      11.971  16.825  16.244  1.00  0.00     0.032 C 
ATOM      8  C   UNL     1      10.749  15.957  16.563  1.00  0.00     0.014 C 
BRANCH   7   9
ATOM      9  C   UNL     1      13.211  16.178  16.798  1.00  0.00     0.044 C 
ATOM     10  O   UNL     1      14.294  16.237  16.160  1.00  0.00    -0.550 OA
ATOM     11  O   UNL     1      13.170  15.510  18.017  1.00  0.00    -0.550 OA
ENDBRANCH   7   9
ENDBRANCH   6   7
ENDBRANCH   5   6
ENDBRANCH   4   5
ENDBRANCH   3   4
ENDBRANCH   2   3
ENDBRANCH   1   2
BRANCH   1  12
ATOM     12  C   UNL     1       9.838  16.593  11.639  1.00  0.00     0.000 C 
BRANCH  12  13
ATOM     13  C   UNL     1       8.514  15.852  11.882  1.00  0.00    -0.000 C 
BRANCH  13  14
ATOM     14  C   UNL     1       7.348  16.440  11.071  1.00  0.00    -0.000 C 
BRANCH  14  15
ATOM     15  C   UNL     1       6.908  17.823  11.579  1.00  0.00    -0.000 C 
BRANCH  15  16
ATOM     16  C   UNL     1       6.956  18.896  10.469  1.00  0.00    -0.000 C 
BRANCH  16  17
ATOM     17  C   UNL     1       8.240  19.747  10.487  1.00  0.00    -0.000 C 
BRANCH  17  18
ATOM     18  C   UNL     1       9.248  19.410   9.376  1.00  0.00    -0.003 C 
ATOM     19  C   UNL     1       9.996  20.639   8.862  1.00  0.00     0.004 C 
ENDBRANCH  17  18
ENDBRANCH  16  17
ENDBRANCH  15  16
ENDBRANCH  14  15
ENDBRANCH  13  14
ENDBRANCH  12  13
ENDBRANCH   1  12
TORSDOF 14
ENDMDL
MODEL 7
REMARK VINA RESULT:    -3.751      4.693      8.286
REMARK INTER + INTRA:          -9.008
REMARK INTER:                  -7.043
REMARK INTRA:                  -1.964
REMARK UNBOUND:                -2.186
REMARK SMILES CCCCCCCCCCCCCC[C@H](C)C(=O)[O-]
REMARK SMILES IDX 9 1 10 2 11 3 12 4 13 5 14 6 15 7 16 8 17 9 18 10 19 11 8 12
REMARK SMILES IDX 7 13 6 14 5 15 4 16 3 17 2 18 1 19
REMARK H PARENT
REMARK Flexibility Score: inf
ROOT
ATOM      1  C   UNL     1      16.367  17.393  15.558  1.00  0.00     0.000 C 
ENDROOT
BRANCH   1   2
ATOM      2  C   UNL     1      15.722  18.588  16.277  1.00  0.00     0.000 C 
BRANCH   2   3
ATOM      3  C   UNL     1      15.497  18.327  17.774  1.00  0.00     0.000 C 
BRANCH   3   4
ATOM      4  C   UNL     1      14.235  19.048  18.272  1.00  0.00     0.000 C 
BRANCH   4   5
ATOM      5  C   UNL     1      13.234  19.355  17.142  1.00  0.00     0.001 C 
BRANCH   5   6
ATOM      6  C   UNL     1      12.022  18.403  17.065  1.00  0.00     0.009 C 
BRANCH   6   7
ATOM      7  C   UNL     1      12.244  17.156  16.178  1.00  0.00     0.032 C 
ATOM      8  C   UNL     1      11.274  17.166  14.992  1.00  0.00     0.014 C 
BRANCH   7   9
ATOM      9  C   UNL     1      12.071  15.884  16.964  1.00  0.00     0.044 C 
ATOM     10  O   UNL     1      11.056  15.162  16.782  1.00  0.00    -0.550 OA
ATOM     11  O   UNL     1      13.028  15.498  17.895  1.00  0.00    -0.550 OA
ENDBRANCH   7   9
ENDBRANCH   6   7
ENDBRANCH   5   6
ENDBRANCH   4   5
ENDBRANCH   3   4
ENDBRANCH   2   3
ENDBRANCH   1   2
BRANCH   1  12
ATOM     12  C   UNL     1      16.902  17.758  14.164  1.00  0.00     0.000 C 
BRANCH  12  13
ATOM     13  C   UNL     1      17.091  19.276  14.033  1.00  0.00    -0.000 C 
BRANCH  13  14
ATOM     14  C   UNL     1      18.571  19.691  14.019  1.00  0.00    -0.000 C 
BRANCH  14  15
ATOM     15  C   UNL     1      19.131  19.941  15.430  1.00  0.00    -0.000 C 
BRANCH  15  16
ATOM     16  C   UNL     1      20.354  19.050  15.739  1.00  0.00    -0.000 C 
BRANCH  16  17
ATOM     17  C   UNL     1      19.997  17.739  16.462  1.00  0.00    -0.000 C 
BRANCH  17  18
ATOM     18  C   UNL     1      19.276  17.924  17.808  1.00  0.00    -0.003 C 
ATOM     19  C   UNL     1      20.182  18.511  18.890  1.00  0.00     0.004 C 
ENDBRANCH  17  18
ENDBRANCH  16  17
ENDBRANCH  15  16
ENDBRANCH  14  15
ENDBRANCH  13  14
ENDBRANCH  12  13
ENDBRANCH   1  12
TORSDOF 14
ENDMDL
MODEL 8
REMARK VINA RESULT:    -3.726      3.438      7.123
REMARK INTER + INTRA:          -8.961
REMARK INTER:                  -6.844
REMARK INTRA:                  -2.117
REMARK UNBOUND:                -2.186
REMARK SMILES CCCCCCCCCCCCCC[C@H](C)C(=O)[O-]
REMARK SMILES IDX 9 1 10 2 11 3 12 4 13 5 14 6 15 7 16 8 17 9 18 10 19 11 8 12
REMARK SMILES IDX 7 13 6 14 5 15 4 16 3 17 2 18 1 19
REMARK H PARENT
REMARK Flexibility Score: inf
ROOT
ATOM      1  C   UNL     1      10.403  16.997  12.609  1.00  0.00     0.000 C 
ENDROOT
BRANCH   1   2
ATOM      2  C   UNL     1       9.085  16.206  12.593  1.00  0.00     0.000 C 
BRANCH   2   3
ATOM      3  C   UNL     1       8.607  15.879  11.170  1.00  0.00     0.000 C 
BRANCH   3   4
ATOM      4  C   UNL     1       7.363  16.702  10.808  1.00  0.00     0.000 C 
BRANCH   4   5
ATOM      5  C   UNL     1       7.647  17.787   9.752  1.00  0.00     0.001 C 
BRANCH   5   6
ATOM      6  C   UNL     1       9.068  17.759   9.152  1.00  0.00     0.009 C 
BRANCH   6   7
ATOM      7  C   UNL     1       9.977  18.923   9.607  1.00  0.00     0.032 C 
ATOM      8  C   UNL     1       9.140  20.173   9.896  1.00  0.00     0.014 C 
BRANCH   7   9
ATOM      9  C   UNL     1      11.023  19.241   8.573  1.00  0.00     0.044 C 
ATOM     10  O   UNL     1      10.786  19.045   7.353  1.00  0.00    -0.550 OA
ATOM     11  O   UNL     1      12.257  19.753   8.957  1.00  0.00    -0.550 OA
ENDBRANCH   7   9
ENDBRANCH   6   7
ENDBRANCH   5   6
ENDBRANCH   4   5
ENDBRANCH   3   4
ENDBRANCH   2   3
ENDBRANCH   1   2
BRANCH   1  12
ATOM     12  C   UNL     1      10.273  18.353  13.319  1.00  0.00     0.000 C 
BRANCH  12  13
ATOM     13  C   UNL     1      11.545  19.193  13.131  1.00  0.00    -0.000 C 
BRANCH  13  14
ATOM     14  C   UNL     1      12.437  19.208  14.382  1.00  0.00    -0.000 C 
BRANCH  14  15
ATOM     15  C   UNL     1      11.658  19.551  15.663  1.00  0.00    -0.000 C 
BRANCH  15  16
ATOM     16  C   UNL     1      11.739  18.425  16.717  1.00  0.00    -0.000 C 
BRANCH  16  17
ATOM     17  C   UNL     1      12.709  17.291  16.335  1.00  0.00    -0.000 C 
BRANCH  17  18
ATOM     18  C   UNL     1      12.049  15.914  16.160  1.00  0.00    -0.003 C 
ATOM     19  C   UNL     1      10.576  15.906  16.569  1.00  0.00     0.004 C 
ENDBRANCH  17  18
ENDBRANCH  16  17
ENDBRANCH  15  16
ENDBRANCH  14  15
ENDBRANCH  13  14
ENDBRANCH  12  13
ENDBRANCH   1  12
TORSDOF 14
ENDMDL
MODEL 9
REMARK VINA RESULT:    -3.703      5.387      9.334
REMARK INTER + INTRA:          -8.919
REMARK INTER:                  -6.929
REMARK INTRA:                  -1.990
REMARK UNBOUND:                -2.186
REMARK SMILES CCCCCCCCCCCCCC[C@H](C)C(=O)[O-]
REMARK SMILES IDX 9 1 10 2 11 3 12 4 13 5 14 6 15 7 16 8 17 9 18 10 19 11 8 12
REMARK SMILES IDX 7 13 6 14 5 15 4 16 3 17 2 18 1 19
REMARK H PARENT
REMARK Flexibility Score: inf
ROOT
ATOM      1  C   UNL     1      16.851  19.231  14.378  1.00  0.00     0.000 C 
ENDROOT
BRANCH   1   2
ATOM      2  C   UNL     1      16.875  17.695  14.429  1.00  0.00     0.000 C 
BRANCH   2   3
ATOM      3  C   UNL     1      16.523  17.143  15.819  1.00  0.00     0.000 C 
BRANCH   3   4
ATOM      4  C   UNL     1      15.995  18.258  16.733  1.00  0.00     0.000 C 
BRANCH   4   5
ATOM      5  C   UNL     1      14.619  17.933  17.344  1.00  0.00     0.001 C 
BRANCH   5   6
ATOM      6  C   UNL     1      14.065  16.534  17.001  1.00  0.00     0.009 C 
BRANCH   6   7
ATOM      7  C   UNL     1      12.876  16.541  16.013  1.00  0.00     0.032 C 
ATOM      8  C   UNL     1      12.844  17.856  15.226  1.00  0.00     0.014 C 
BRANCH   7   9
ATOM      9  C   UNL     1      11.566  16.345  16.726  1.00  0.00     0.044 C 
ATOM     10  O   UNL     1      11.004  17.318  17.293  1.00  0.00    -0.550 OA
ATOM     11  O   UNL     1      10.968  15.091  16.764  1.00  0.00    -0.550 OA
ENDBRANCH   7   9
ENDBRANCH   6   7
ENDBRANCH   5   6
ENDBRANCH   4   5
ENDBRANCH   3   4
ENDBRANCH   2   3
ENDBRANCH   1   2
BRANCH   1  12
ATOM     12  C   UNL     1      18.241  19.837  14.128  1.00  0.00     0.000 C 
BRANCH  12  13
ATOM     13  C   UNL     1      18.686  20.693  15.323  1.00  0.00    -0.000 C 
BRANCH  13  14
ATOM     14  C   UNL     1      19.392  19.869  16.412  1.00  0.00    -0.000 C 
BRANCH  14  15
ATOM     15  C   UNL     1      20.312  18.781  15.832  1.00  0.00    -0.000 C 
BRANCH  15  16
ATOM     16  C   UNL     1      20.121  17.420  16.536  1.00  0.00    -0.000 C 
BRANCH  16  17
ATOM     17  C   UNL     1      19.899  17.535  18.056  1.00  0.00    -0.000 C 
BRANCH  17  18
ATOM     18  C   UNL     1      21.183  17.733  18.879  1.00  0.00    -0.003 C 
ATOM     19  C   UNL     1      21.929  16.425  19.137  1.00  0.00     0.004 C 
ENDBRANCH  17  18
ENDBRANCH  16  17
ENDBRANCH  15  16
ENDBRANCH  14  15
ENDBRANCH  13  14
ENDBRANCH  12  13
ENDBRANCH   1  12
TORSDOF 14
ENDMDL
