MODEL 1
REMARK VINA RESULT:     3.945      0.000      0.000
REMARK INTER + INTRA:           8.545
REMARK INTER:                   7.174
REMARK INTRA:                   1.371
REMARK UNBOUND:                 1.371
REMARK SMILES CCCCCCCCCCCCCC[C@@H](C)C(=O)[O-]
REMARK SMILES IDX 9 1 10 2 11 3 12 4 13 5 14 6 15 7 16 8 17 9 18 10 19 11 8 12
REMARK SMILES IDX 7 13 6 14 5 15 4 16 3 17 2 18 1 19
REMARK H PARENT
REMARK Flexibility Score: inf
ROOT
ATOM      1  C   UNL     1     -16.564  35.331 -19.316  1.00  0.00     0.000 C 
ENDROOT
BRANCH   1   2
ATOM      2  C   UNL     1     -16.859  34.120 -20.220  1.00  0.00     0.000 C 
BRANCH   2   3
ATOM      3  C   UNL     1     -18.085  34.331 -21.124  1.00  0.00     0.000 C 
BRANCH   3   4
ATOM      4  C   UNL     1     -18.831  35.638 -20.807  1.00  0.00     0.000 C 
BRANCH   4   5
ATOM      5  C   UNL     1     -20.347  35.428 -20.655  1.00  0.00     0.001 C 
BRANCH   5   6
ATOM      6  C   UNL     1     -20.928  36.125 -19.410  1.00  0.00     0.009 C 
BRANCH   6   7
ATOM      7  C   UNL     1     -21.026  35.237 -18.148  1.00  0.00     0.032 C 
ATOM      8  C   UNL     1     -20.836  33.747 -18.461  1.00  0.00     0.014 C 
BRANCH   7   9
ATOM      9  C   UNL     1     -19.995  35.678 -17.145  1.00  0.00     0.044 C 
ATOM     10  O   UNL     1     -18.782  35.756 -17.475  1.00  0.00    -0.550 OA
ATOM     11  O   UNL     1     -20.371  35.988 -15.842  1.00  0.00    -0.550 OA
ENDBRANCH   7   9
ENDBRANCH   6   7
ENDBRANCH   5   6
ENDBRANCH   4   5
ENDBRANCH   3   4
ENDBRANCH   2   3
ENDBRANCH   1   2
BRANCH   1  12
ATOM     12  C   UNL     1     -15.283  35.221 -18.469  1.00  0.00     0.000 C 
BRANCH  12  13
ATOM     13  C   UNL     1     -14.431  33.991 -18.829  1.00  0.00    -0.000 C 
BRANCH  13  14
ATOM     14  C   UNL     1     -15.255  32.880 -19.501  1.00  0.00    -0.000 C 
BRANCH  14  15
ATOM     15  C   UNL     1     -14.773  31.472 -19.120  1.00  0.00    -0.000 C 
BRANCH  15  16
ATOM     16  C   UNL     1     -14.307  31.428 -17.659  1.00  0.00    -0.000 C 
BRANCH  16  17
ATOM     17  C   UNL     1     -13.332  30.264 -17.427  1.00  0.00    -0.000 C 
BRANCH  17  18
ATOM     18  C   UNL     1     -14.010  29.046 -16.781  1.00  0.00    -0.003 C 
ATOM     19  C   UNL     1     -13.395  28.672 -15.434  1.00  0.00     0.004 C 
ENDBRANCH  17  18
ENDBRANCH  16  17
ENDBRANCH  15  16
ENDBRANCH  14  15
ENDBRANCH  13  14
ENDBRANCH  12  13
ENDBRANCH   1  12
TORSDOF 14
ENDMDL
MODEL 2
REMARK VINA RESULT:     4.202      2.629      3.704
REMARK INTER + INTRA:           9.012
REMARK INTER:                   7.997
REMARK INTRA:                   1.015
REMARK UNBOUND:                 1.371
REMARK SMILES CCCCCCCCCCCCCC[C@@H](C)C(=O)[O-]
REMARK SMILES IDX 9 1 10 2 11 3 12 4 13 5 14 6 15 7 16 8 17 9 18 10 19 11 8 12
REMARK SMILES IDX 7 13 6 14 5 15 4 16 3 17 2 18 1 19
REMARK H PARENT
REMARK Flexibility Score: inf
ROOT
ATOM      1  C   UNL     1     -14.574  33.219 -18.774  1.00  0.00     0.000 C 
ENDROOT
BRANCH   1   2
ATOM      2  C   UNL     1     -15.719  32.842 -19.732  1.00  0.00     0.000 C 
BRANCH   2   3
ATOM      3  C   UNL     1     -16.191  34.023 -20.597  1.00  0.00     0.000 C 
BRANCH   3   4
ATOM      4  C   UNL     1     -17.703  34.275 -20.472  1.00  0.00     0.000 C 
BRANCH   4   5
ATOM      5  C   UNL     1     -18.035  35.763 -20.267  1.00  0.00     0.001 C 
BRANCH   5   6
ATOM      6  C   UNL     1     -19.496  36.106 -20.613  1.00  0.00     0.009 C 
BRANCH   6   7
ATOM      7  C   UNL     1     -20.532  35.738 -19.525  1.00  0.00     0.032 C 
ATOM      8  C   UNL     1     -20.989  34.276 -19.619  1.00  0.00     0.014 C 
BRANCH   7   9
ATOM      9  C   UNL     1     -19.942  35.995 -18.165  1.00  0.00     0.044 C 
ATOM     10  O   UNL     1     -20.692  36.109 -17.160  1.00  0.00    -0.550 OA
ATOM     11  O   UNL     1     -18.566  36.125 -18.010  1.00  0.00    -0.550 OA
ENDBRANCH   7   9
ENDBRANCH   6   7
ENDBRANCH   5   6
ENDBRANCH   4   5
ENDBRANCH   3   4
ENDBRANCH   2   3
ENDBRANCH   1   2
BRANCH   1  12
ATOM     12  C   UNL     1     -14.002  34.637 -18.962  1.00  0.00     0.000 C 
BRANCH  12  13
ATOM     13  C   UNL     1     -14.974  35.740 -18.506  1.00  0.00    -0.000 C 
BRANCH  13  14
ATOM     14  C   UNL     1     -15.276  35.673 -17.000  1.00  0.00    -0.000 C 
BRANCH  14  15
ATOM     15  C   UNL     1     -14.044  35.981 -16.135  1.00  0.00    -0.000 C 
BRANCH  15  16
ATOM     16  C   UNL     1     -13.447  34.694 -15.551  1.00  0.00    -0.000 C 
BRANCH  16  17
ATOM     17  C   UNL     1     -13.029  34.895 -14.088  1.00  0.00    -0.000 C 
BRANCH  17  18
ATOM     18  C   UNL     1     -11.975  36.001 -13.922  1.00  0.00    -0.003 C 
ATOM     19  C   UNL     1     -10.555  35.450 -13.793  1.00  0.00     0.004 C 
ENDBRANCH  17  18
ENDBRANCH  16  17
ENDBRANCH  15  16
ENDBRANCH  14  15
ENDBRANCH  13  14
ENDBRANCH  12  13
ENDBRANCH   1  12
TORSDOF 14
ENDMDL
MODEL 3
REMARK VINA RESULT:     4.395      2.319      4.345
REMARK INTER + INTRA:           9.363
REMARK INTER:                   2.915
REMARK INTRA:                   6.449
REMARK UNBOUND:                 1.371
REMARK SMILES CCCCCCCCCCCCCC[C@@H](C)C(=O)[O-]
REMARK SMILES IDX 9 1 10 2 11 3 12 4 13 5 14 6 15 7 16 8 17 9 18 10 19 11 8 12
REMARK SMILES IDX 7 13 6 14 5 15 4 16 3 17 2 18 1 19
REMARK H PARENT
REMARK Flexibility Score: inf
ROOT
ATOM      1  C   UNL     1     -15.236  33.392 -18.326  1.00  0.00     0.000 C 
ENDROOT
BRANCH   1   2
ATOM      2  C   UNL     1     -15.700  33.111 -19.768  1.00  0.00     0.000 C 
BRANCH   2   3
ATOM      3  C   UNL     1     -17.154  33.542 -20.024  1.00  0.00     0.000 C 
BRANCH   3   4
ATOM      4  C   UNL     1     -17.292  35.064 -20.205  1.00  0.00     0.000 C 
BRANCH   4   5
ATOM      5  C   UNL     1     -18.467  35.441 -21.125  1.00  0.00     0.001 C 
BRANCH   5   6
ATOM      6  C   UNL     1     -19.675  36.008 -20.354  1.00  0.00     0.009 C 
BRANCH   6   7
ATOM      7  C   UNL     1     -20.847  35.020 -20.155  1.00  0.00     0.032 C 
ATOM      8  C   UNL     1     -20.638  33.699 -20.907  1.00  0.00     0.014 C 
BRANCH   7   9
ATOM      9  C   UNL     1     -21.023  34.742 -18.687  1.00  0.00     0.044 C 
ATOM     10  O   UNL     1     -21.102  33.556 -18.271  1.00  0.00    -0.550 OA
ATOM     11  O   UNL     1     -21.116  35.793 -17.780  1.00  0.00    -0.550 OA
ENDBRANCH   7   9
ENDBRANCH   6   7
ENDBRANCH   5   6
ENDBRANCH   4   5
ENDBRANCH   3   4
ENDBRANCH   2   3
ENDBRANCH   1   2
BRANCH   1  12
ATOM     12  C   UNL     1     -14.008  34.312 -18.200  1.00  0.00     0.000 C 
BRANCH  12  13
ATOM     13  C   UNL     1     -14.370  35.734 -17.736  1.00  0.00    -0.000 C 
BRANCH  13  14
ATOM     14  C   UNL     1     -15.834  35.850 -17.280  1.00  0.00    -0.000 C 
BRANCH  14  15
ATOM     15  C   UNL     1     -16.800  36.103 -18.447  1.00  0.00    -0.000 C 
BRANCH  15  16
ATOM     16  C   UNL     1     -18.259  36.025 -17.979  1.00  0.00    -0.000 C 
BRANCH  16  17
ATOM     17  C   UNL     1     -18.342  35.597 -16.507  1.00  0.00    -0.000 C 
BRANCH  17  18
ATOM     18  C   UNL     1     -19.649  36.043 -15.835  1.00  0.00    -0.003 C 
ATOM     19  C   UNL     1     -19.836  35.439 -14.444  1.00  0.00     0.004 C 
ENDBRANCH  17  18
ENDBRANCH  16  17
ENDBRANCH  15  16
ENDBRANCH  14  15
ENDBRANCH  13  14
ENDBRANCH  12  13
ENDBRANCH   1  12
TORSDOF 14
ENDMDL
MODEL 4
REMARK VINA RESULT:     5.492      3.199      6.442
REMARK INTER + INTRA:          11.358
REMARK INTER:                  10.761
REMARK INTRA:                   0.597
REMARK UNBOUND:                 1.371
REMARK SMILES CCCCCCCCCCCCCC[C@@H](C)C(=O)[O-]
REMARK SMILES IDX 9 1 10 2 11 3 12 4 13 5 14 6 15 7 16 8 17 9 18 10 19 11 8 12
REMARK SMILES IDX 7 13 6 14 5 15 4 16 3 17 2 18 1 19
REMARK H PARENT
REMARK Flexibility Score: inf
ROOT
ATOM      1  C   UNL     1     -17.046  34.529 -18.512  1.00  0.00     0.000 C 
ENDROOT
BRANCH   1   2
ATOM      2  C   UNL     1     -16.694  33.246 -19.288  1.00  0.00     0.000 C 
BRANCH   2   3
ATOM      3  C   UNL     1     -15.205  33.162 -19.663  1.00  0.00     0.000 C 
BRANCH   3   4
ATOM      4  C   UNL     1     -14.566  34.550 -19.844  1.00  0.00     0.000 C 
BRANCH   4   5
ATOM      5  C   UNL     1     -13.447  34.819 -18.823  1.00  0.00     0.001 C 
BRANCH   5   6
ATOM      6  C   UNL     1     -13.862  34.491 -17.377  1.00  0.00     0.009 C 
BRANCH   6   7
ATOM      7  C   UNL     1     -13.968  35.711 -16.432  1.00  0.00     0.032 C 
ATOM      8  C   UNL     1     -15.422  36.121 -16.161  1.00  0.00     0.014 C 
BRANCH   7   9
ATOM      9  C   UNL     1     -13.281  35.397 -15.131  1.00  0.00     0.044 C 
ATOM     10  O   UNL     1     -12.338  36.124 -14.720  1.00  0.00    -0.550 OA
ATOM     11  O   UNL     1     -13.671  34.293 -14.380  1.00  0.00    -0.550 OA
ENDBRANCH   7   9
ENDBRANCH   6   7
ENDBRANCH   5   6
ENDBRANCH   4   5
ENDBRANCH   3   4
ENDBRANCH   2   3
ENDBRANCH   1   2
BRANCH   1  12
ATOM     12  C   UNL     1     -17.080  35.817 -19.355  1.00  0.00     0.000 C 
BRANCH  12  13
ATOM     13  C   UNL     1     -17.842  35.645 -20.681  1.00  0.00    -0.000 C 
BRANCH  13  14
ATOM     14  C   UNL     1     -18.584  34.302 -20.764  1.00  0.00    -0.000 C 
BRANCH  14  15
ATOM     15  C   UNL     1     -20.081  34.469 -21.069  1.00  0.00    -0.000 C 
BRANCH  15  16
ATOM     16  C   UNL     1     -20.871  34.773 -19.789  1.00  0.00    -0.000 C 
BRANCH  16  17
ATOM     17  C   UNL     1     -20.453  36.125 -19.192  1.00  0.00    -0.000 C 
BRANCH  17  18
ATOM     18  C   UNL     1     -20.343  36.085 -17.660  1.00  0.00    -0.003 C 
ATOM     19  C   UNL     1     -20.429  34.667 -17.097  1.00  0.00     0.004 C 
ENDBRANCH  17  18
ENDBRANCH  16  17
ENDBRANCH  15  16
ENDBRANCH  14  15
ENDBRANCH  13  14
ENDBRANCH  12  13
ENDBRANCH   1  12
TORSDOF 14
ENDMDL
