MODEL 1
REMARK VINA RESULT:    -4.539      0.000      0.000
REMARK INTER + INTRA:          -4.828
REMARK INTER:                  -4.805
REMARK INTRA:                  -0.023
REMARK UNBOUND:                -0.023
REMARK SMILES O=C([O-])c1cccnc1
REMARK SMILES IDX 4 1 5 2 9 3 6 4 8 5 7 6 2 7 1 8 3 9
REMARK H PARENT
REMARK Flexibility Score: inf
ROOT
ATOM      1  C   UNL     1      16.379  -3.434  16.969  1.00  0.00     0.016 A 
ATOM      2  C   UNL     1      15.083  -3.039  17.343  1.00  0.00     0.013 A 
ATOM      3  C   UNL     1      16.531  -4.204  15.803  1.00  0.00     0.120 A 
ATOM      4  C   UNL     1      13.985  -3.411  16.566  1.00  0.00     0.021 A 
ATOM      5  N   UNL     1      15.444  -4.553  15.064  1.00  0.00    -0.264 NA
ATOM      6  C   UNL     1      14.187  -4.177  15.418  1.00  0.00     0.111 A 
ENDROOT
BRANCH   1   7
ATOM      7  C   UNL     1      17.555  -3.050  17.778  1.00  0.00     0.073 C 
ATOM      8  O   UNL     1      17.422  -2.729  18.989  1.00  0.00    -0.545 OA
ATOM      9  O   UNL     1      18.825  -3.038  17.212  1.00  0.00    -0.545 OA
ENDBRANCH   1   7
TORSDOF 1
ENDMDL
MODEL 2
REMARK VINA RESULT:    -4.537      2.726      3.557
REMARK INTER + INTRA:          -4.826
REMARK INTER:                  -4.807
REMARK INTRA:                  -0.018
REMARK UNBOUND:                -0.023
REMARK SMILES O=C([O-])c1cccnc1
REMARK SMILES IDX 4 1 5 2 9 3 6 4 8 5 7 6 2 7 1 8 3 9
REMARK H PARENT
REMARK Flexibility Score: inf
ROOT
ATOM      1  C   UNL     1      15.417  -3.441  16.695  1.00  0.00     0.016 A 
ATOM      2  C   UNL     1      15.655  -2.682  17.854  1.00  0.00     0.013 A 
ATOM      3  C   UNL     1      16.478  -4.190  16.157  1.00  0.00     0.120 A 
ATOM      4  C   UNL     1      16.919  -2.683  18.445  1.00  0.00     0.021 A 
ATOM      5  N   UNL     1      17.701  -4.172  16.753  1.00  0.00    -0.264 NA
ATOM      6  C   UNL     1      17.941  -3.442  17.873  1.00  0.00     0.111 A 
ENDROOT
BRANCH   1   7
ATOM      7  C   UNL     1      14.084  -3.454  16.055  1.00  0.00     0.073 C 
ATOM      8  O   UNL     1      13.064  -3.802  16.706  1.00  0.00    -0.545 OA
ATOM      9  O   UNL     1      13.940  -3.083  14.722  1.00  0.00    -0.545 OA
ENDBRANCH   1   7
TORSDOF 1
ENDMDL
MODEL 3
REMARK VINA RESULT:    -4.460      6.022      7.200
REMARK INTER + INTRA:          -4.744
REMARK INTER:                  -4.722
REMARK INTRA:                  -0.022
REMARK UNBOUND:                -0.023
REMARK SMILES O=C([O-])c1cccnc1
REMARK SMILES IDX 4 1 5 2 9 3 6 4 8 5 7 6 2 7 1 8 3 9
REMARK H PARENT
REMARK Flexibility Score: inf
ROOT
ATOM      1  C   UNL     1      14.765  -5.458  10.958  1.00  0.00     0.016 A 
ATOM      2  C   UNL     1      16.080  -5.684  10.515  1.00  0.00     0.013 A 
ATOM      3  C   UNL     1      14.533  -5.359  12.340  1.00  0.00     0.120 A 
ATOM      4  C   UNL     1      17.119  -5.806  11.439  1.00  0.00     0.021 A 
ATOM      5  N   UNL     1      15.564  -5.483  13.220  1.00  0.00    -0.264 NA
ATOM      6  C   UNL     1      16.839  -5.702  12.802  1.00  0.00     0.111 A 
ENDROOT
BRANCH   1   7
ATOM      7  C   UNL     1      13.650  -5.325   9.995  1.00  0.00     0.073 C 
ATOM      8  O   UNL     1      12.638  -4.630  10.279  1.00  0.00    -0.545 OA
ATOM      9  O   UNL     1      13.704  -5.967   8.763  1.00  0.00    -0.545 OA
ENDBRANCH   1   7
TORSDOF 1
ENDMDL
MODEL 4
REMARK VINA RESULT:    -4.443      5.238      6.356
REMARK INTER + INTRA:          -4.726
REMARK INTER:                  -4.706
REMARK INTRA:                  -0.020
REMARK UNBOUND:                -0.023
REMARK SMILES O=C([O-])c1cccnc1
REMARK SMILES IDX 4 1 5 2 9 3 6 4 8 5 7 6 2 7 1 8 3 9
REMARK H PARENT
REMARK Flexibility Score: inf
ROOT
ATOM      1  C   UNL     1      15.826  -5.505  11.214  1.00  0.00     0.016 A 
ATOM      2  C   UNL     1      15.727  -5.619   9.816  1.00  0.00     0.013 A 
ATOM      3  C   UNL     1      14.639  -5.421  11.962  1.00  0.00     0.120 A 
ATOM      4  C   UNL     1      14.474  -5.647   9.202  1.00  0.00     0.021 A 
ATOM      5  N   UNL     1      13.430  -5.450  11.338  1.00  0.00    -0.264 NA
ATOM      6  C   UNL     1      13.324  -5.559   9.988  1.00  0.00     0.111 A 
ENDROOT
BRANCH   1   7
ATOM      7  C   UNL     1      17.143  -5.474  11.883  1.00  0.00     0.073 C 
ATOM      8  O   UNL     1      18.035  -6.312  11.582  1.00  0.00    -0.545 OA
ATOM      9  O   UNL     1      17.417  -4.519  12.856  1.00  0.00    -0.545 OA
ENDBRANCH   1   7
TORSDOF 1
ENDMDL
MODEL 5
REMARK VINA RESULT:    -4.172      2.926      3.556
REMARK INTER + INTRA:          -4.439
REMARK INTER:                  -4.422
REMARK INTRA:                  -0.017
REMARK UNBOUND:                -0.023
REMARK SMILES O=C([O-])c1cccnc1
REMARK SMILES IDX 4 1 5 2 9 3 6 4 8 5 7 6 2 7 1 8 3 9
REMARK H PARENT
REMARK Flexibility Score: inf
ROOT
ATOM      1  C   UNL     1      16.352  -4.284  16.150  1.00  0.00     0.016 A 
ATOM      2  C   UNL     1      15.367  -3.459  16.719  1.00  0.00     0.013 A 
ATOM      3  C   UNL     1      17.629  -4.301  16.736  1.00  0.00     0.120 A 
ATOM      4  C   UNL     1      15.666  -2.681  17.839  1.00  0.00     0.021 A 
ATOM      5  N   UNL     1      17.894  -3.533  17.827  1.00  0.00    -0.264 NA
ATOM      6  C   UNL     1      16.949  -2.731  18.384  1.00  0.00     0.111 A 
ENDROOT
BRANCH   1   7
ATOM      7  C   UNL     1      16.056  -5.116  14.964  1.00  0.00     0.073 C 
ATOM      8  O   UNL     1      15.877  -4.583  13.836  1.00  0.00    -0.545 OA
ATOM      9  O   UNL     1      15.970  -6.499  15.078  1.00  0.00    -0.545 OA
ENDBRANCH   1   7
TORSDOF 1
ENDMDL
MODEL 6
REMARK VINA RESULT:    -4.167      3.806      4.558
REMARK INTER + INTRA:          -4.433
REMARK INTER:                  -4.409
REMARK INTRA:                  -0.024
REMARK UNBOUND:                -0.023
REMARK SMILES O=C([O-])c1cccnc1
REMARK SMILES IDX 4 1 5 2 9 3 6 4 8 5 7 6 2 7 1 8 3 9
REMARK H PARENT
REMARK Flexibility Score: inf
ROOT
ATOM      1  C   UNL     1      13.606  -3.331  14.931  1.00  0.00     0.016 A 
ATOM      2  C   UNL     1      13.631  -3.362  16.336  1.00  0.00     0.013 A 
ATOM      3  C   UNL     1      14.831  -3.327  14.242  1.00  0.00     0.120 A 
ATOM      4  C   UNL     1      14.850  -3.389  17.015  1.00  0.00     0.021 A 
ATOM      5  N   UNL     1      16.005  -3.352  14.928  1.00  0.00    -0.264 NA
ATOM      6  C   UNL     1      16.040  -3.382  16.287  1.00  0.00     0.111 A 
ENDROOT
BRANCH   1   7
ATOM      7  C   UNL     1      12.326  -3.304  14.193  1.00  0.00     0.073 C 
ATOM      8  O   UNL     1      11.230  -3.250  14.812  1.00  0.00    -0.545 OA
ATOM      9  O   UNL     1      12.314  -3.337  12.803  1.00  0.00    -0.545 OA
ENDBRANCH   1   7
TORSDOF 1
ENDMDL
MODEL 7
REMARK VINA RESULT:    -4.159      1.337      2.224
REMARK INTER + INTRA:          -4.425
REMARK INTER:                  -4.408
REMARK INTRA:                  -0.017
REMARK UNBOUND:                -0.023
REMARK SMILES O=C([O-])c1cccnc1
REMARK SMILES IDX 4 1 5 2 9 3 6 4 8 5 7 6 2 7 1 8 3 9
REMARK H PARENT
REMARK Flexibility Score: inf
ROOT
ATOM      1  C   UNL     1      16.993  -4.236  16.815  1.00  0.00     0.016 A 
ATOM      2  C   UNL     1      17.167  -5.575  16.427  1.00  0.00     0.013 A 
ATOM      3  C   UNL     1      15.709  -3.673  16.715  1.00  0.00     0.120 A 
ATOM      4  C   UNL     1      16.082  -6.315  15.954  1.00  0.00     0.021 A 
ATOM      5  N   UNL     1      14.668  -4.417  16.250  1.00  0.00    -0.264 NA
ATOM      6  C   UNL     1      14.827  -5.712  15.871  1.00  0.00     0.111 A 
ENDROOT
BRANCH   1   7
ATOM      7  C   UNL     1      18.129  -3.435  17.319  1.00  0.00     0.073 C 
ATOM      8  O   UNL     1      19.014  -3.011  16.529  1.00  0.00    -0.545 OA
ATOM      9  O   UNL     1      18.237  -3.141  18.674  1.00  0.00    -0.545 OA
ENDBRANCH   1   7
TORSDOF 1
ENDMDL
MODEL 8
REMARK VINA RESULT:    -4.078      5.089      6.029
REMARK INTER + INTRA:          -4.339
REMARK INTER:                  -4.322
REMARK INTRA:                  -0.017
REMARK UNBOUND:                -0.023
REMARK SMILES O=C([O-])c1cccnc1
REMARK SMILES IDX 4 1 5 2 9 3 6 4 8 5 7 6 2 7 1 8 3 9
REMARK H PARENT
REMARK Flexibility Score: inf
ROOT
ATOM      1  C   UNL     1      14.928  -5.619  11.879  1.00  0.00     0.016 A 
ATOM      2  C   UNL     1      13.612  -5.626  11.386  1.00  0.00     0.013 A 
ATOM      3  C   UNL     1      15.987  -5.606  10.955  1.00  0.00     0.120 A 
ATOM      4  C   UNL     1      13.379  -5.620  10.010  1.00  0.00     0.021 A 
ATOM      5  N   UNL     1      15.732  -5.600   9.618  1.00  0.00    -0.264 NA
ATOM      6  C   UNL     1      14.463  -5.608   9.132  1.00  0.00     0.111 A 
ENDROOT
BRANCH   1   7
ATOM      7  C   UNL     1      15.197  -5.625  13.333  1.00  0.00     0.073 C 
ATOM      8  O   UNL     1      15.755  -4.639  13.885  1.00  0.00    -0.545 OA
ATOM      9  O   UNL     1      14.837  -6.720  14.110  1.00  0.00    -0.545 OA
ENDBRANCH   1   7
TORSDOF 1
ENDMDL
