MODEL 1
REMARK VINA RESULT:    -3.533      0.000      0.000
REMARK INTER + INTRA:          -4.751
REMARK INTER:                  -4.668
REMARK INTRA:                  -0.083
REMARK UNBOUND:                -0.083
REMARK SMILES CCCCCCCO
REMARK SMILES IDX 5 1 4 2 3 3 2 4 1 5 6 6 7 7 8 8
REMARK H PARENT 8 9
REMARK Flexibility Score: inf
ROOT
ATOM      1  C   UNL     1     161.541 177.890 170.024  1.00  0.00     0.002 C 
ENDROOT
BRANCH   1   2
ATOM      2  C   UNL     1     162.447 178.679 169.063  1.00  0.00     0.000 C 
BRANCH   2   3
ATOM      3  C   UNL     1     163.926 178.723 169.501  1.00  0.00    -0.000 C 
BRANCH   3   4
ATOM      4  C   UNL     1     164.887 178.672 168.303  1.00  0.00    -0.003 C 
ATOM      5  C   UNL     1     165.929 179.783 168.386  1.00  0.00     0.004 C 
ENDBRANCH   3   4
ENDBRANCH   2   3
ENDBRANCH   1   2
BRANCH   1   6
ATOM      6  C   UNL     1     160.055 177.986 169.659  1.00  0.00     0.028 C 
BRANCH   6   7
ATOM      7  C   UNL     1     159.228 178.497 170.843  1.00  0.00     0.156 C 
BRANCH   7   8
ATOM      8  O   UNL     1     160.036 178.616 171.982  1.00  0.00    -0.396 OA
ATOM      9  H   UNL     1     159.770 179.460 172.433  1.00  0.00     0.210 HD
ENDBRANCH   7   8
ENDBRANCH   6   7
ENDBRANCH   1   6
TORSDOF 6
ENDMDL
MODEL 2
REMARK VINA RESULT:    -3.320     16.803     17.503
REMARK INTER + INTRA:          -4.471
REMARK INTER:                  -4.314
REMARK INTRA:                  -0.157
REMARK UNBOUND:                -0.083
REMARK SMILES CCCCCCCO
REMARK SMILES IDX 5 1 4 2 3 3 2 4 1 5 6 6 7 7 8 8
REMARK H PARENT 8 9
REMARK Flexibility Score: inf
ROOT
ATOM      1  C   UNL     1     161.888 161.741 167.895  1.00  0.00     0.002 C 
ENDROOT
BRANCH   1   2
ATOM      2  C   UNL     1     161.113 160.596 167.221  1.00  0.00     0.000 C 
BRANCH   2   3
ATOM      3  C   UNL     1     160.224 161.058 166.046  1.00  0.00    -0.000 C 
BRANCH   3   4
ATOM      4  C   UNL     1     161.002 161.124 164.723  1.00  0.00    -0.003 C 
ATOM      5  C   UNL     1     160.296 162.026 163.714  1.00  0.00     0.004 C 
ENDBRANCH   3   4
ENDBRANCH   2   3
ENDBRANCH   1   2
BRANCH   1   6
ATOM      6  C   UNL     1     161.057 162.485 168.948  1.00  0.00     0.028 C 
BRANCH   6   7
ATOM      7  C   UNL     1     160.303 161.503 169.850  1.00  0.00     0.156 C 
BRANCH   7   8
ATOM      8  O   UNL     1     159.084 162.059 170.258  1.00  0.00    -0.396 OA
ATOM      9  H   UNL     1     158.399 161.346 170.160  1.00  0.00     0.210 HD
ENDBRANCH   7   8
ENDBRANCH   6   7
ENDBRANCH   1   6
TORSDOF 6
ENDMDL
MODEL 3
REMARK VINA RESULT:    -3.306     21.667     22.612
REMARK INTER + INTRA:          -4.452
REMARK INTER:                  -4.185
REMARK INTRA:                  -0.267
REMARK UNBOUND:                -0.083
REMARK SMILES CCCCCCCO
REMARK SMILES IDX 5 1 4 2 3 3 2 4 1 5 6 6 7 7 8 8
REMARK H PARENT 8 9
REMARK Flexibility Score: inf
ROOT
ATOM      1  C   UNL     1     176.780 162.892 169.116  1.00  0.00     0.002 C 
ENDROOT
BRANCH   1   2
ATOM      2  C   UNL     1     177.554 163.722 168.077  1.00  0.00     0.000 C 
BRANCH   2   3
ATOM      3  C   UNL     1     178.711 162.951 167.407  1.00  0.00    -0.000 C 
BRANCH   3   4
ATOM      4  C   UNL     1     178.519 162.823 165.888  1.00  0.00    -0.003 C 
ATOM      5  C   UNL     1     177.420 161.818 165.554  1.00  0.00     0.004 C 
ENDBRANCH   3   4
ENDBRANCH   2   3
ENDBRANCH   1   2
BRANCH   1   6
ATOM      6  C   UNL     1     177.455 161.551 169.430  1.00  0.00     0.028 C 
BRANCH   6   7
ATOM      7  C   UNL     1     177.846 161.463 170.908  1.00  0.00     0.156 C 
BRANCH   7   8
ATOM      8  O   UNL     1     176.781 160.954 171.662  1.00  0.00    -0.396 OA
ATOM      9  H   UNL     1     177.127 160.808 172.582  1.00  0.00     0.210 HD
ENDBRANCH   7   8
ENDBRANCH   6   7
ENDBRANCH   1   6
TORSDOF 6
ENDMDL
MODEL 4
REMARK VINA RESULT:    -3.298      3.082      3.493
REMARK INTER + INTRA:          -4.441
REMARK INTER:                  -4.282
REMARK INTRA:                  -0.159
REMARK UNBOUND:                -0.083
REMARK SMILES CCCCCCCO
REMARK SMILES IDX 5 1 4 2 3 3 2 4 1 5 6 6 7 7 8 8
REMARK H PARENT 8 9
REMARK Flexibility Score: inf
ROOT
ATOM      1  C   UNL     1     162.038 178.535 167.266  1.00  0.00     0.002 C 
ENDROOT
BRANCH   1   2
ATOM      2  C   UNL     1     162.010 178.673 168.798  1.00  0.00     0.000 C 
BRANCH   2   3
ATOM      3  C   UNL     1     163.411 178.656 169.446  1.00  0.00    -0.000 C 
BRANCH   3   4
ATOM      4  C   UNL     1     164.517 178.340 168.427  1.00  0.00    -0.003 C 
ATOM      5  C   UNL     1     165.586 179.429 168.421  1.00  0.00     0.004 C 
ENDBRANCH   3   4
ENDBRANCH   2   3
ENDBRANCH   1   2
BRANCH   1   6
ATOM      6  C   UNL     1     160.755 177.913 166.700  1.00  0.00     0.028 C 
BRANCH   6   7
ATOM      7  C   UNL     1     161.071 176.927 165.572  1.00  0.00     0.156 C 
BRANCH   7   8
ATOM      8  O   UNL     1     160.881 175.611 166.012  1.00  0.00    -0.396 OA
ATOM      9  H   UNL     1     161.745 175.312 166.399  1.00  0.00     0.210 HD
ENDBRANCH   7   8
ENDBRANCH   6   7
ENDBRANCH   1   6
TORSDOF 6
ENDMDL
MODEL 5
REMARK VINA RESULT:    -3.240      1.622      1.878
REMARK INTER + INTRA:          -4.365
REMARK INTER:                  -4.189
REMARK INTRA:                  -0.176
REMARK UNBOUND:                -0.083
REMARK SMILES CCCCCCCO
REMARK SMILES IDX 5 1 4 2 3 3 2 4 1 5 6 6 7 7 8 8
REMARK H PARENT 8 9
REMARK Flexibility Score: inf
ROOT
ATOM      1  C   UNL     1     162.302 178.663 167.944  1.00  0.00     0.002 C 
ENDROOT
BRANCH   1   2
ATOM      2  C   UNL     1     162.801 178.659 169.399  1.00  0.00     0.000 C 
BRANCH   2   3
ATOM      3  C   UNL     1     164.338 178.736 169.526  1.00  0.00    -0.000 C 
BRANCH   3   4
ATOM      4  C   UNL     1     165.025 178.886 168.160  1.00  0.00    -0.003 C 
ATOM      5  C   UNL     1     166.160 179.903 168.224  1.00  0.00     0.004 C 
ENDBRANCH   3   4
ENDBRANCH   2   3
ENDBRANCH   1   2
BRANCH   1   6
ATOM      6  C   UNL     1     160.791 178.900 167.832  1.00  0.00     0.028 C 
BRANCH   6   7
ATOM      7  C   UNL     1     160.045 178.263 169.008  1.00  0.00     0.156 C 
BRANCH   7   8
ATOM      8  O   UNL     1     159.842 176.897 168.770  1.00  0.00    -0.396 OA
ATOM      9  H   UNL     1     159.552 176.498 169.632  1.00  0.00     0.210 HD
ENDBRANCH   7   8
ENDBRANCH   6   7
ENDBRANCH   1   6
TORSDOF 6
ENDMDL
MODEL 6
REMARK VINA RESULT:    -3.173      2.642      4.973
REMARK INTER + INTRA:          -4.277
REMARK INTER:                  -4.150
REMARK INTRA:                  -0.127
REMARK UNBOUND:                -0.083
REMARK SMILES CCCCCCCO
REMARK SMILES IDX 5 1 4 2 3 3 2 4 1 5 6 6 7 7 8 8
REMARK H PARENT 8 9
REMARK Flexibility Score: inf
ROOT
ATOM      1  C   UNL     1     163.220 178.519 169.425  1.00  0.00     0.002 C 
ENDROOT
BRANCH   1   2
ATOM      2  C   UNL     1     161.738 178.621 169.023  1.00  0.00     0.000 C 
BRANCH   2   3
ATOM      3  C   UNL     1     160.784 177.885 169.988  1.00  0.00    -0.000 C 
BRANCH   3   4
ATOM      4  C   UNL     1     159.348 177.821 169.446  1.00  0.00    -0.003 C 
ATOM      5  C   UNL     1     159.210 176.740 168.378  1.00  0.00     0.004 C 
ENDBRANCH   3   4
ENDBRANCH   2   3
ENDBRANCH   1   2
BRANCH   1   6
ATOM      6  C   UNL     1     164.147 178.273 168.228  1.00  0.00     0.028 C 
BRANCH   6   7
ATOM      7  C   UNL     1     163.350 178.186 166.923  1.00  0.00     0.156 C 
BRANCH   7   8
ATOM      8  O   UNL     1     163.335 176.866 166.452  1.00  0.00    -0.396 OA
ATOM      9  H   UNL     1     162.485 176.752 165.951  1.00  0.00     0.210 HD
ENDBRANCH   7   8
ENDBRANCH   6   7
ENDBRANCH   1   6
TORSDOF 6
ENDMDL
MODEL 7
REMARK VINA RESULT:    -3.082      2.843      3.898
REMARK INTER + INTRA:          -4.156
REMARK INTER:                  -4.036
REMARK INTRA:                  -0.120
REMARK UNBOUND:                -0.083
REMARK SMILES CCCCCCCO
REMARK SMILES IDX 5 1 4 2 3 3 2 4 1 5 6 6 7 7 8 8
REMARK H PARENT 8 9
REMARK Flexibility Score: inf
ROOT
ATOM      1  C   UNL     1     164.636 178.423 167.958  1.00  0.00     0.002 C 
ENDROOT
BRANCH   1   2
ATOM      2  C   UNL     1     163.490 178.342 166.934  1.00  0.00     0.000 C 
BRANCH   2   3
ATOM      3  C   UNL     1     163.785 179.089 165.616  1.00  0.00    -0.000 C 
BRANCH   3   4
ATOM      4  C   UNL     1     163.603 178.186 164.386  1.00  0.00    -0.003 C 
ATOM      5  C   UNL     1     164.470 178.659 163.223  1.00  0.00     0.004 C 
ENDBRANCH   3   4
ENDBRANCH   2   3
ENDBRANCH   1   2
BRANCH   1   6
ATOM      6  C   UNL     1     164.147 178.733 169.378  1.00  0.00     0.028 C 
BRANCH   6   7
ATOM      7  C   UNL     1     162.621 178.637 169.469  1.00  0.00     0.156 C 
BRANCH   7   8
ATOM      8  O   UNL     1     162.252 177.647 170.390  1.00  0.00    -0.396 OA
ATOM      9  H   UNL     1     162.845 177.758 171.179  1.00  0.00     0.210 HD
ENDBRANCH   7   8
ENDBRANCH   6   7
ENDBRANCH   1   6
TORSDOF 6
ENDMDL
MODEL 8
REMARK VINA RESULT:    -3.066     12.033     13.751
REMARK INTER + INTRA:          -4.135
REMARK INTER:                  -3.939
REMARK INTRA:                  -0.196
REMARK UNBOUND:                -0.083
REMARK SMILES CCCCCCCO
REMARK SMILES IDX 5 1 4 2 3 3 2 4 1 5 6 6 7 7 8 8
REMARK H PARENT 8 9
REMARK Flexibility Score: inf
ROOT
ATOM      1  C   UNL     1     171.443 171.537 163.825  1.00  0.00     0.002 C 
ENDROOT
BRANCH   1   2
ATOM      2  C   UNL     1     172.808 171.339 163.144  1.00  0.00     0.000 C 
BRANCH   2   3
ATOM      3  C   UNL     1     173.165 172.453 162.138  1.00  0.00    -0.000 C 
BRANCH   3   4
ATOM      4  C   UNL     1     174.674 172.513 161.851  1.00  0.00    -0.003 C 
ATOM      5  C   UNL     1     175.203 171.154 161.403  1.00  0.00     0.004 C 
ENDBRANCH   3   4
ENDBRANCH   2   3
ENDBRANCH   1   2
BRANCH   1   6
ATOM      6  C   UNL     1     170.417 172.226 162.916  1.00  0.00     0.028 C 
BRANCH   6   7
ATOM      7  C   UNL     1     169.815 173.458 163.600  1.00  0.00     0.156 C 
BRANCH   7   8
ATOM      8  O   UNL     1     170.804 174.428 163.809  1.00  0.00    -0.396 OA
ATOM      9  H   UNL     1     171.207 174.237 164.696  1.00  0.00     0.210 HD
ENDBRANCH   7   8
ENDBRANCH   6   7
ENDBRANCH   1   6
TORSDOF 6
ENDMDL
MODEL 9
REMARK VINA RESULT:    -2.975     21.654     22.848
REMARK INTER + INTRA:          -4.015
REMARK INTER:                  -3.855
REMARK INTRA:                  -0.160
REMARK UNBOUND:                -0.083
REMARK SMILES CCCCCCCO
REMARK SMILES IDX 5 1 4 2 3 3 2 4 1 5 6 6 7 7 8 8
REMARK H PARENT 8 9
REMARK Flexibility Score: inf
ROOT
ATOM      1  C   UNL     1     177.848 161.480 166.848  1.00  0.00     0.002 C 
ENDROOT
BRANCH   1   2
ATOM      2  C   UNL     1     178.333 162.433 167.954  1.00  0.00     0.000 C 
BRANCH   2   3
ATOM      3  C   UNL     1     177.236 163.386 168.474  1.00  0.00    -0.000 C 
BRANCH   3   4
ATOM      4  C   UNL     1     176.303 162.699 169.483  1.00  0.00    -0.003 C 
ATOM      5  C   UNL     1     177.094 161.864 170.485  1.00  0.00     0.004 C 
ENDBRANCH   3   4
ENDBRANCH   2   3
ENDBRANCH   1   2
BRANCH   1   6
ATOM      6  C   UNL     1     177.596 162.193 165.514  1.00  0.00     0.028 C 
BRANCH   6   7
ATOM      7  C   UNL     1     177.297 161.187 164.398  1.00  0.00     0.156 C 
BRANCH   7   8
ATOM      8  O   UNL     1     175.913 161.033 164.244  1.00  0.00    -0.396 OA
ATOM      9  H   UNL     1     175.770 160.616 163.354  1.00  0.00     0.210 HD
ENDBRANCH   7   8
ENDBRANCH   6   7
ENDBRANCH   1   6
TORSDOF 6
ENDMDL
