MODEL 1
REMARK VINA RESULT:    -3.754      0.000      0.000
REMARK INTER + INTRA:          -5.253
REMARK INTER:                  -4.851
REMARK INTRA:                  -0.402
REMARK UNBOUND:                -0.402
REMARK SMILES C=CC(=O)CCCCC
REMARK SMILES IDX 6 1 7 2 8 3 9 4 5 5 3 6 4 7 2 8 1 9
REMARK H PARENT
REMARK Flexibility Score: inf
ROOT
ATOM      1  C   UNL     1      12.956 -31.333  21.105  1.00  0.00     0.008 C 
ENDROOT
BRANCH   1   2
ATOM      2  C   UNL     1      12.270 -30.527  22.213  1.00  0.00     0.000 C 
BRANCH   2   3
ATOM      3  C   UNL     1      13.272 -30.123  23.300  1.00  0.00    -0.003 C 
ATOM      4  C   UNL     1      12.710 -29.013  24.184  1.00  0.00     0.004 C 
ENDBRANCH   2   3
ENDBRANCH   1   2
BRANCH   1   5
ATOM      5  C   UNL     1      14.441 -31.545  21.417  1.00  0.00     0.080 C 
BRANCH   5   6
ATOM      6  C   UNL     1      14.787 -33.004  21.366  1.00  0.00     0.155 C 
ATOM      7  O   UNL     1      14.578 -33.651  20.303  1.00  0.00    -0.295 OA
BRANCH   6   8
ATOM      8  C   UNL     1      15.323 -33.680  22.563  1.00  0.00     0.039 C 
ATOM      9  C   UNL     1      15.025 -33.286  23.801  1.00  0.00     0.012 C 
ENDBRANCH   6   8
ENDBRANCH   5   6
ENDBRANCH   1   5
TORSDOF 5
ENDMDL
MODEL 2
REMARK VINA RESULT:    -3.752      1.236      1.767
REMARK INTER + INTRA:          -5.251
REMARK INTER:                  -5.026
REMARK INTRA:                  -0.225
REMARK UNBOUND:                -0.402
REMARK SMILES C=CC(=O)CCCCC
REMARK SMILES IDX 6 1 7 2 8 3 9 4 5 5 3 6 4 7 2 8 1 9
REMARK H PARENT
REMARK Flexibility Score: inf
ROOT
ATOM      1  C   UNL     1      13.136 -31.334  21.142  1.00  0.00     0.008 C 
ENDROOT
BRANCH   1   2
ATOM      2  C   UNL     1      12.357 -30.584  22.229  1.00  0.00     0.000 C 
BRANCH   2   3
ATOM      3  C   UNL     1      13.292 -30.105  23.345  1.00  0.00    -0.003 C 
ATOM      4  C   UNL     1      12.645 -28.996  24.169  1.00  0.00     0.004 C 
ENDBRANCH   2   3
ENDBRANCH   1   2
BRANCH   1   5
ATOM      5  C   UNL     1      14.570 -31.624  21.595  1.00  0.00     0.080 C 
BRANCH   5   6
ATOM      6  C   UNL     1      14.846 -33.098  21.562  1.00  0.00     0.155 C 
ATOM      7  O   UNL     1      15.131 -33.697  22.636  1.00  0.00    -0.295 OA
BRANCH   6   8
ATOM      8  C   UNL     1      14.826 -33.826  20.278  1.00  0.00     0.039 C 
ATOM      9  C   UNL     1      15.424 -35.006  20.116  1.00  0.00     0.012 C 
ENDBRANCH   6   8
ENDBRANCH   5   6
ENDBRANCH   1   5
TORSDOF 5
ENDMDL
MODEL 3
REMARK VINA RESULT:    -3.729      2.739      5.530
REMARK INTER + INTRA:          -5.221
REMARK INTER:                  -5.100
REMARK INTRA:                  -0.121
REMARK UNBOUND:                -0.402
REMARK SMILES C=CC(=O)CCCCC
REMARK SMILES IDX 6 1 7 2 8 3 9 4 5 5 3 6 4 7 2 8 1 9
REMARK H PARENT
REMARK Flexibility Score: inf
ROOT
ATOM      1  C   UNL     1      15.381 -34.965  20.181  1.00  0.00     0.008 C 
ENDROOT
BRANCH   1   2
ATOM      2  C   UNL     1      16.676 -35.116  19.375  1.00  0.00     0.000 C 
BRANCH   2   3
ATOM      3  C   UNL     1      17.153 -36.572  19.368  1.00  0.00    -0.003 C 
ATOM      4  C   UNL     1      17.694 -36.983  20.734  1.00  0.00     0.004 C 
ENDBRANCH   2   3
ENDBRANCH   1   2
BRANCH   1   5
ATOM      5  C   UNL     1      14.632 -33.688  19.785  1.00  0.00     0.080 C 
BRANCH   5   6
ATOM      6  C   UNL     1      14.304 -32.871  20.999  1.00  0.00     0.155 C 
ATOM      7  O   UNL     1      14.725 -33.246  22.128  1.00  0.00    -0.295 OA
BRANCH   6   8
ATOM      8  C   UNL     1      13.459 -31.667  20.874  1.00  0.00     0.039 C 
ATOM      9  C   UNL     1      12.983 -31.015  21.934  1.00  0.00     0.012 C 
ENDBRANCH   6   8
ENDBRANCH   5   6
ENDBRANCH   1   5
TORSDOF 5
ENDMDL
MODEL 4
REMARK VINA RESULT:    -3.679      9.203     10.012
REMARK INTER + INTRA:          -5.156
REMARK INTER:                  -4.604
REMARK INTRA:                  -0.552
REMARK UNBOUND:                -0.402
REMARK SMILES C=CC(=O)CCCCC
REMARK SMILES IDX 6 1 7 2 8 3 9 4 5 5 3 6 4 7 2 8 1 9
REMARK H PARENT
REMARK Flexibility Score: inf
ROOT
ATOM      1  C   UNL     1      19.976 -26.301  21.109  1.00  0.00     0.008 C 
ENDROOT
BRANCH   1   2
ATOM      2  C   UNL     1      19.627 -27.719  20.643  1.00  0.00     0.000 C 
BRANCH   2   3
ATOM      3  C   UNL     1      20.817 -28.667  20.829  1.00  0.00    -0.003 C 
ATOM      4  C   UNL     1      21.564 -28.369  22.125  1.00  0.00     0.004 C 
ENDBRANCH   2   3
ENDBRANCH   1   2
BRANCH   1   5
ATOM      5  C   UNL     1      20.567 -25.475  19.962  1.00  0.00     0.080 C 
BRANCH   5   6
ATOM      6  C   UNL     1      21.935 -24.976  20.321  1.00  0.00     0.155 C 
ATOM      7  O   UNL     1      22.071 -24.198  21.305  1.00  0.00    -0.295 OA
BRANCH   6   8
ATOM      8  C   UNL     1      23.101 -25.359  19.500  1.00  0.00     0.039 C 
ATOM      9  C   UNL     1      23.525 -26.618  19.403  1.00  0.00     0.012 C 
ENDBRANCH   6   8
ENDBRANCH   5   6
ENDBRANCH   1   5
TORSDOF 5
ENDMDL
MODEL 5
REMARK VINA RESULT:    -3.671      2.697      3.884
REMARK INTER + INTRA:          -5.146
REMARK INTER:                  -4.880
REMARK INTRA:                  -0.266
REMARK UNBOUND:                -0.402
REMARK SMILES C=CC(=O)CCCCC
REMARK SMILES IDX 6 1 7 2 8 3 9 4 5 5 3 6 4 7 2 8 1 9
REMARK H PARENT
REMARK Flexibility Score: inf
ROOT
ATOM      1  C   UNL     1      15.621 -34.116  21.761  1.00  0.00     0.008 C 
ENDROOT
BRANCH   1   2
ATOM      2  C   UNL     1      14.898 -32.783  21.985  1.00  0.00     0.000 C 
BRANCH   2   3
ATOM      3  C   UNL     1      13.980 -32.450  20.804  1.00  0.00    -0.003 C 
ATOM      4  C   UNL     1      13.039 -31.297  21.144  1.00  0.00     0.004 C 
ENDBRANCH   2   3
ENDBRANCH   1   2
BRANCH   1   5
ATOM      5  C   UNL     1      15.198 -34.755  20.435  1.00  0.00     0.080 C 
BRANCH   5   6
ATOM      6  C   UNL     1      16.400 -35.060  19.590  1.00  0.00     0.155 C 
ATOM      7  O   UNL     1      16.976 -34.121  18.975  1.00  0.00    -0.295 OA
BRANCH   6   8
ATOM      8  C   UNL     1      16.870 -36.452  19.448  1.00  0.00     0.039 C 
ATOM      9  C   UNL     1      17.567 -37.072  20.399  1.00  0.00     0.012 C 
ENDBRANCH   6   8
ENDBRANCH   5   6
ENDBRANCH   1   5
TORSDOF 5
ENDMDL
MODEL 6
REMARK VINA RESULT:    -3.657      2.285      2.969
REMARK INTER + INTRA:          -5.128
REMARK INTER:                  -5.006
REMARK INTRA:                  -0.122
REMARK UNBOUND:                -0.402
REMARK SMILES C=CC(=O)CCCCC
REMARK SMILES IDX 6 1 7 2 8 3 9 4 5 5 3 6 4 7 2 8 1 9
REMARK H PARENT
REMARK Flexibility Score: inf
ROOT
ATOM      1  C   UNL     1      14.372 -32.832  21.309  1.00  0.00     0.008 C 
ENDROOT
BRANCH   1   2
ATOM      2  C   UNL     1      13.525 -31.667  20.785  1.00  0.00     0.000 C 
BRANCH   2   3
ATOM      3  C   UNL     1      12.777 -30.974  21.929  1.00  0.00    -0.003 C 
ATOM      4  C   UNL     1      13.470 -31.213  23.267  1.00  0.00     0.004 C 
ENDBRANCH   2   3
ENDBRANCH   1   2
BRANCH   1   5
ATOM      5  C   UNL     1      14.803 -33.757  20.166  1.00  0.00     0.080 C 
BRANCH   5   6
ATOM      6  C   UNL     1      15.773 -34.789  20.659  1.00  0.00     0.155 C 
ATOM      7  O   UNL     1      16.232 -34.695  21.831  1.00  0.00    -0.295 OA
BRANCH   6   8
ATOM      8  C   UNL     1      16.217 -35.875  19.764  1.00  0.00     0.039 C 
ATOM      9  C   UNL     1      17.154 -36.754  20.115  1.00  0.00     0.012 C 
ENDBRANCH   6   8
ENDBRANCH   5   6
ENDBRANCH   1   5
TORSDOF 5
ENDMDL
MODEL 7
REMARK VINA RESULT:    -3.644     10.286     11.066
REMARK INTER + INTRA:          -5.111
REMARK INTER:                  -4.809
REMARK INTRA:                  -0.302
REMARK UNBOUND:                -0.402
REMARK SMILES C=CC(=O)CCCCC
REMARK SMILES IDX 6 1 7 2 8 3 9 4 5 5 3 6 4 7 2 8 1 9
REMARK H PARENT
REMARK Flexibility Score: inf
ROOT
ATOM      1  C   UNL     1      20.822 -25.363  20.121  1.00  0.00     0.008 C 
ENDROOT
BRANCH   1   2
ATOM      2  C   UNL     1      20.257 -26.685  20.653  1.00  0.00     0.000 C 
BRANCH   2   3
ATOM      3  C   UNL     1      21.376 -27.706  20.889  1.00  0.00    -0.003 C 
ATOM      4  C   UNL     1      20.816 -29.121  21.005  1.00  0.00     0.004 C 
ENDBRANCH   2   3
ENDBRANCH   1   2
BRANCH   1   5
ATOM      5  C   UNL     1      22.304 -25.504  19.758  1.00  0.00     0.080 C 
BRANCH   5   6
ATOM      6  C   UNL     1      23.090 -24.342  20.289  1.00  0.00     0.155 C 
ATOM      7  O   UNL     1      23.884 -23.731  19.522  1.00  0.00    -0.295 OA
BRANCH   6   8
ATOM      8  C   UNL     1      22.965 -23.951  21.707  1.00  0.00     0.039 C 
ATOM      9  C   UNL     1      23.508 -22.835  22.192  1.00  0.00     0.012 C 
ENDBRANCH   6   8
ENDBRANCH   5   6
ENDBRANCH   1   5
TORSDOF 5
ENDMDL
MODEL 8
REMARK VINA RESULT:    -3.558      2.481      3.972
REMARK INTER + INTRA:          -5.001
REMARK INTER:                  -4.441
REMARK INTRA:                  -0.559
REMARK UNBOUND:                -0.402
REMARK SMILES C=CC(=O)CCCCC
REMARK SMILES IDX 6 1 7 2 8 3 9 4 5 5 3 6 4 7 2 8 1 9
REMARK H PARENT
REMARK Flexibility Score: inf
ROOT
ATOM      1  C   UNL     1      15.132 -29.766  22.935  1.00  0.00     0.008 C 
ENDROOT
BRANCH   1   2
ATOM      2  C   UNL     1      16.543 -30.344  22.777  1.00  0.00     0.000 C 
BRANCH   2   3
ATOM      3  C   UNL     1      17.038 -30.202  21.334  1.00  0.00    -0.003 C 
ATOM      4  C   UNL     1      17.757 -31.465  20.870  1.00  0.00     0.004 C 
ENDBRANCH   2   3
ENDBRANCH   1   2
BRANCH   1   5
ATOM      5  C   UNL     1      14.104 -30.878  23.167  1.00  0.00     0.080 C 
BRANCH   5   6
ATOM      6  C   UNL     1      13.127 -30.937  22.030  1.00  0.00     0.155 C 
ATOM      7  O   UNL     1      11.997 -30.390  22.157  1.00  0.00    -0.295 OA
BRANCH   6   8
ATOM      8  C   UNL     1      13.473 -31.670  20.795  1.00  0.00     0.039 C 
ATOM      9  C   UNL     1      14.205 -32.782  20.805  1.00  0.00     0.012 C 
ENDBRANCH   6   8
ENDBRANCH   5   6
ENDBRANCH   1   5
TORSDOF 5
ENDMDL
MODEL 9
REMARK VINA RESULT:    -3.497      5.631      8.050
REMARK INTER + INTRA:          -4.921
REMARK INTER:                  -4.718
REMARK INTRA:                  -0.204
REMARK UNBOUND:                -0.402
REMARK SMILES C=CC(=O)CCCCC
REMARK SMILES IDX 6 1 7 2 8 3 9 4 5 5 3 6 4 7 2 8 1 9
REMARK H PARENT
REMARK Flexibility Score: inf
ROOT
ATOM      1  C   UNL     1      17.794 -37.192  27.242  1.00  0.00     0.008 C 
ENDROOT
BRANCH   1   2
ATOM      2  C   UNL     1      16.505 -38.020  27.295  1.00  0.00     0.000 C 
BRANCH   2   3
ATOM      3  C   UNL     1      15.978 -38.125  28.730  1.00  0.00    -0.003 C 
ATOM      4  C   UNL     1      17.069 -37.793  29.745  1.00  0.00     0.004 C 
ENDBRANCH   2   3
ENDBRANCH   1   2
BRANCH   1   5
ATOM      5  C   UNL     1      18.360 -37.146  25.819  1.00  0.00     0.080 C 
BRANCH   5   6
ATOM      6  C   UNL     1      18.205 -35.774  25.234  1.00  0.00     0.155 C 
ATOM      7  O   UNL     1      19.224 -35.169  24.798  1.00  0.00    -0.295 OA
BRANCH   6   8
ATOM      8  C   UNL     1      16.880 -35.124  25.212  1.00  0.00     0.039 C 
ATOM      9  C   UNL     1      16.692 -33.899  24.723  1.00  0.00     0.012 C 
ENDBRANCH   6   8
ENDBRANCH   5   6
ENDBRANCH   1   5
TORSDOF 5
ENDMDL
