MODEL 1
REMARK VINA RESULT:    -2.933      0.000      0.000
REMARK INTER + INTRA:          -3.470
REMARK INTER:                  -3.447
REMARK INTRA:                  -0.023
REMARK UNBOUND:                -0.023
REMARK SMILES CCCCC(=O)[O-]
REMARK SMILES IDX 4 1 5 2 6 3 7 4 3 5 2 6 1 7
REMARK H PARENT
REMARK Flexibility Score: inf
ROOT
ATOM      1  C   UNL     1      45.404 -24.557   0.277  1.00  0.00     0.053 C 
ENDROOT
BRANCH   1   2
ATOM      2  C   UNL     1      45.773 -24.474  -1.170  1.00  0.00     0.041 C 
ATOM      3  O   UNL     1      46.063 -23.364  -1.688  1.00  0.00    -0.550 OA
ATOM      4  O   UNL     1      45.747 -25.617  -1.961  1.00  0.00    -0.550 OA
ENDBRANCH   1   2
BRANCH   1   5
ATOM      5  C   UNL     1      46.125 -25.731   0.948  1.00  0.00     0.006 C 
BRANCH   5   6
ATOM      6  C   UNL     1      45.305 -26.281   2.121  1.00  0.00    -0.003 C 
ATOM      7  C   UNL     1      45.558 -27.773   2.318  1.00  0.00     0.004 C 
ENDBRANCH   5   6
ENDBRANCH   1   5
TORSDOF 3
ENDMDL
MODEL 2
REMARK VINA RESULT:    -2.860      2.900      4.271
REMARK INTER + INTRA:          -3.385
REMARK INTER:                  -3.362
REMARK INTRA:                  -0.024
REMARK UNBOUND:                -0.023
REMARK SMILES CCCCC(=O)[O-]
REMARK SMILES IDX 4 1 5 2 6 3 7 4 3 5 2 6 1 7
REMARK H PARENT
REMARK Flexibility Score: inf
ROOT
ATOM      1  C   UNL     1      45.086 -26.337   1.902  1.00  0.00     0.053 C 
ENDROOT
BRANCH   1   2
ATOM      2  C   UNL     1      45.777 -27.593   2.331  1.00  0.00     0.041 C 
ATOM      3  O   UNL     1      46.125 -27.746   3.531  1.00  0.00    -0.550 OA
ATOM      4  O   UNL     1      46.081 -28.574   1.395  1.00  0.00    -0.550 OA
ENDBRANCH   1   2
BRANCH   1   5
ATOM      5  C   UNL     1      46.089 -25.360   1.280  1.00  0.00     0.006 C 
BRANCH   5   6
ATOM      6  C   UNL     1      45.488 -24.661   0.055  1.00  0.00    -0.003 C 
ATOM      7  C   UNL     1      45.613 -23.145   0.169  1.00  0.00     0.004 C 
ENDBRANCH   5   6
ENDBRANCH   1   5
TORSDOF 3
ENDMDL
MODEL 3
REMARK VINA RESULT:    -2.849      2.144      2.904
REMARK INTER + INTRA:          -3.372
REMARK INTER:                  -3.309
REMARK INTRA:                  -0.063
REMARK UNBOUND:                -0.023
REMARK SMILES CCCCC(=O)[O-]
REMARK SMILES IDX 4 1 5 2 6 3 7 4 3 5 2 6 1 7
REMARK H PARENT
REMARK Flexibility Score: inf
ROOT
ATOM      1  C   UNL     1      46.125 -25.018  -1.686  1.00  0.00     0.053 C 
ENDROOT
BRANCH   1   2
ATOM      2  C   UNL     1      45.399 -25.243  -2.975  1.00  0.00     0.041 C 
ATOM      3  O   UNL     1      44.180 -25.557  -2.970  1.00  0.00    -0.550 OA
ATOM      4  O   UNL     1      46.082 -25.155  -4.182  1.00  0.00    -0.550 OA
ENDBRANCH   1   2
BRANCH   1   5
ATOM      5  C   UNL     1      46.125 -23.529  -1.324  1.00  0.00     0.006 C 
BRANCH   5   6
ATOM      6  C   UNL     1      45.566 -23.307   0.086  1.00  0.00    -0.003 C 
ATOM      7  C   UNL     1      45.648 -24.583   0.919  1.00  0.00     0.004 C 
ENDBRANCH   5   6
ENDBRANCH   1   5
TORSDOF 3
ENDMDL
MODEL 4
REMARK VINA RESULT:    -2.349      1.798      2.635
REMARK INTER + INTRA:          -2.784
REMARK INTER:                  -2.724
REMARK INTRA:                  -0.060
REMARK UNBOUND:                -0.023
REMARK SMILES CCCCC(=O)[O-]
REMARK SMILES IDX 4 1 5 2 6 3 7 4 3 5 2 6 1 7
REMARK H PARENT
REMARK Flexibility Score: inf
ROOT
ATOM      1  C   UNL     1      45.091 -26.520   2.002  1.00  0.00     0.053 C 
ENDROOT
BRANCH   1   2
ATOM      2  C   UNL     1      45.623 -25.585   0.962  1.00  0.00     0.041 C 
ATOM      3  O   UNL     1      46.122 -26.038  -0.101  1.00  0.00    -0.550 OA
ATOM      4  O   UNL     1      45.612 -24.214   1.188  1.00  0.00    -0.550 OA
ENDBRANCH   1   2
BRANCH   1   5
ATOM      5  C   UNL     1      46.125 -26.731   3.112  1.00  0.00     0.006 C 
BRANCH   5   6
ATOM      6  C   UNL     1      46.068 -28.166   3.649  1.00  0.00    -0.003 C 
ATOM      7  C   UNL     1      45.923 -29.175   2.513  1.00  0.00     0.004 C 
ENDBRANCH   5   6
ENDBRANCH   1   5
TORSDOF 3
ENDMDL
MODEL 5
REMARK VINA RESULT:    -1.980      3.233      4.278
REMARK INTER + INTRA:          -2.351
REMARK INTER:                  -2.314
REMARK INTRA:                  -0.037
REMARK UNBOUND:                -0.023
REMARK SMILES CCCCC(=O)[O-]
REMARK SMILES IDX 4 1 5 2 6 3 7 4 3 5 2 6 1 7
REMARK H PARENT
REMARK Flexibility Score: inf
ROOT
ATOM      1  C   UNL     1      44.913 -26.805   3.464  1.00  0.00     0.053 C 
ENDROOT
BRANCH   1   2
ATOM      2  C   UNL     1      45.351 -27.144   2.074  1.00  0.00     0.041 C 
ATOM      3  O   UNL     1      45.779 -28.297   1.809  1.00  0.00    -0.550 OA
ATOM      4  O   UNL     1      45.334 -26.169   1.084  1.00  0.00    -0.550 OA
ENDBRANCH   1   2
BRANCH   1   5
ATOM      5  C   UNL     1      46.125 -26.496   4.349  1.00  0.00     0.006 C 
BRANCH   5   6
ATOM      6  C   UNL     1      46.125 -27.373   5.606  1.00  0.00    -0.003 C 
ATOM      7  C   UNL     1      45.908 -26.535   6.863  1.00  0.00     0.004 C 
ENDBRANCH   5   6
ENDBRANCH   1   5
TORSDOF 3
ENDMDL
MODEL 6
REMARK VINA RESULT:    -1.398      3.037      4.134
REMARK INTER + INTRA:          -1.666
REMARK INTER:                  -1.649
REMARK INTRA:                  -0.018
REMARK UNBOUND:                -0.023
REMARK SMILES CCCCC(=O)[O-]
REMARK SMILES IDX 4 1 5 2 6 3 7 4 3 5 2 6 1 7
REMARK H PARENT
REMARK Flexibility Score: inf
ROOT
ATOM      1  C   UNL     1      46.125 -27.517   3.130  1.00  0.00     0.053 C 
ENDROOT
BRANCH   1   2
ATOM      2  C   UNL     1      45.357 -26.296   2.732  1.00  0.00     0.041 C 
ATOM      3  O   UNL     1      45.720 -25.616   1.737  1.00  0.00    -0.550 OA
ATOM      4  O   UNL     1      44.270 -25.880   3.491  1.00  0.00    -0.550 OA
ENDBRANCH   1   2
BRANCH   1   5
ATOM      5  C   UNL     1      46.125 -28.545   1.994  1.00  0.00     0.006 C 
BRANCH   5   6
ATOM      6  C   UNL     1      45.876 -29.958   2.532  1.00  0.00    -0.003 C 
ATOM      7  C   UNL     1      46.124 -31.010   1.454  1.00  0.00     0.004 C 
ENDBRANCH   5   6
ENDBRANCH   1   5
TORSDOF 3
ENDMDL
MODEL 7
REMARK VINA RESULT:    -1.311      4.522      5.641
REMARK INTER + INTRA:          -1.564
REMARK INTER:                  -1.543
REMARK INTRA:                  -0.022
REMARK UNBOUND:                -0.023
REMARK SMILES CCCCC(=O)[O-]
REMARK SMILES IDX 4 1 5 2 6 3 7 4 3 5 2 6 1 7
REMARK H PARENT
REMARK Flexibility Score: inf
ROOT
ATOM      1  C   UNL     1      45.634 -29.002   2.009  1.00  0.00     0.053 C 
ENDROOT
BRANCH   1   2
ATOM      2  C   UNL     1      45.990 -30.157   2.891  1.00  0.00     0.041 C 
ATOM      3  O   UNL     1      46.124 -31.309   2.402  1.00  0.00    -0.550 OA
ATOM      4  O   UNL     1      46.125 -29.970   4.261  1.00  0.00    -0.550 OA
ENDBRANCH   1   2
BRANCH   1   5
ATOM      5  C   UNL     1      45.792 -27.680   2.767  1.00  0.00     0.006 C 
BRANCH   5   6
ATOM      6  C   UNL     1      45.059 -26.543   2.046  1.00  0.00    -0.003 C 
ATOM      7  C   UNL     1      46.032 -25.457   1.597  1.00  0.00     0.004 C 
ENDBRANCH   5   6
ENDBRANCH   1   5
TORSDOF 3
ENDMDL
MODEL 8
REMARK VINA RESULT:    -0.379      8.563      9.462
REMARK INTER + INTRA:          -0.469
REMARK INTER:                  -0.454
REMARK INTRA:                  -0.016
REMARK UNBOUND:                -0.023
REMARK SMILES CCCCC(=O)[O-]
REMARK SMILES IDX 4 1 5 2 6 3 7 4 3 5 2 6 1 7
REMARK H PARENT
REMARK Flexibility Score: inf
ROOT
ATOM      1  C   UNL     1      37.995 -19.309  -0.650  1.00  0.00     0.053 C 
ENDROOT
BRANCH   1   2
ATOM      2  C   UNL     1      38.643 -18.212   0.135  1.00  0.00     0.041 C 
ATOM      3  O   UNL     1      39.156 -17.228  -0.458  1.00  0.00    -0.550 OA
ATOM      4  O   UNL     1      38.725 -18.302   1.519  1.00  0.00    -0.550 OA
ENDBRANCH   1   2
BRANCH   1   5
ATOM      5  C   UNL     1      38.998 -20.433  -0.930  1.00  0.00     0.006 C 
BRANCH   5   6
ATOM      6  C   UNL     1      38.319 -21.611  -1.637  1.00  0.00    -0.003 C 
ATOM      7  C   UNL     1      39.322 -22.717  -1.953  1.00  0.00     0.004 C 
ENDBRANCH   5   6
ENDBRANCH   1   5
TORSDOF 3
ENDMDL
