MODEL 1
REMARK VINA RESULT:    -3.512      0.000      0.000
REMARK INTER + INTRA:          -4.219
REMARK INTER:                  -4.128
REMARK INTRA:                  -0.091
REMARK UNBOUND:                -0.091
REMARK SMILES O=C([O-])CCC(=O)[O-]
REMARK SMILES IDX 4 1 2 2 1 3 3 4 5 5 6 6 7 7 8 8
REMARK H PARENT
REMARK Flexibility Score: inf
ROOT
ATOM      1  C   UNL     1       8.594 124.911 109.865  1.00  0.00     0.059 C 
ENDROOT
BRANCH   1   2
ATOM      2  C   UNL     1       7.572 124.916 108.772  1.00  0.00     0.042 C 
ATOM      3  O   UNL     1       6.382 125.246 109.017  1.00  0.00    -0.550 OA
ATOM      4  O   UNL     1       7.945 124.605 107.470  1.00  0.00    -0.550 OA
ENDBRANCH   1   2
BRANCH   1   5
ATOM      5  C   UNL     1       7.931 125.169 111.218  1.00  0.00     0.059 C 
BRANCH   5   6
ATOM      6  C   UNL     1       8.057 123.968 112.101  1.00  0.00     0.042 C 
ATOM      7  O   UNL     1       9.052 123.842 112.861  1.00  0.00    -0.550 OA
ATOM      8  O   UNL     1       7.050 123.012 112.122  1.00  0.00    -0.550 OA
ENDBRANCH   5   6
ENDBRANCH   1   5
TORSDOF 3
ENDMDL
MODEL 2
REMARK VINA RESULT:    -3.506      0.188      3.881
REMARK INTER + INTRA:          -4.212
REMARK INTER:                  -4.136
REMARK INTRA:                  -0.076
REMARK UNBOUND:                -0.091
REMARK SMILES O=C([O-])CCC(=O)[O-]
REMARK SMILES IDX 4 1 2 2 1 3 3 4 5 5 6 6 7 7 8 8
REMARK H PARENT
REMARK Flexibility Score: inf
ROOT
ATOM      1  C   UNL     1       7.815 125.123 111.200  1.00  0.00     0.059 C 
ENDROOT
BRANCH   1   2
ATOM      2  C   UNL     1       7.970 123.940 112.102  1.00  0.00     0.042 C 
ATOM      3  O   UNL     1       7.093 123.037 112.120  1.00  0.00    -0.550 OA
ATOM      4  O   UNL     1       9.108 123.809 112.888  1.00  0.00    -0.550 OA
ENDBRANCH   1   2
BRANCH   1   5
ATOM      5  C   UNL     1       8.669 124.954 109.943  1.00  0.00     0.059 C 
BRANCH   5   6
ATOM      6  C   UNL     1       7.804 124.925 108.723  1.00  0.00     0.042 C 
ATOM      7  O   UNL     1       8.280 124.557 107.617  1.00  0.00    -0.550 OA
ATOM      8  O   UNL     1       6.459 125.256 108.817  1.00  0.00    -0.550 OA
ENDBRANCH   5   6
ENDBRANCH   1   5
TORSDOF 3
ENDMDL
MODEL 3
REMARK VINA RESULT:    -3.491      0.937      1.410
REMARK INTER + INTRA:          -4.194
REMARK INTER:                  -4.119
REMARK INTRA:                  -0.075
REMARK UNBOUND:                -0.091
REMARK SMILES O=C([O-])CCC(=O)[O-]
REMARK SMILES IDX 4 1 2 2 1 3 3 4 5 5 6 6 7 7 8 8
REMARK H PARENT
REMARK Flexibility Score: inf
ROOT
ATOM      1  C   UNL     1       6.905 125.217 109.617  1.00  0.00     0.059 C 
ENDROOT
BRANCH   1   2
ATOM      2  C   UNL     1       7.085 125.211 108.132  1.00  0.00     0.042 C 
ATOM      3  O   UNL     1       8.019 124.547 107.610  1.00  0.00    -0.550 OA
ATOM      4  O   UNL     1       6.192 125.899 107.321  1.00  0.00    -0.550 OA
ENDBRANCH   1   2
BRANCH   1   5
ATOM      5  C   UNL     1       8.250 125.036 110.321  1.00  0.00     0.059 C 
BRANCH   5   6
ATOM      6  C   UNL     1       8.131 124.042 111.432  1.00  0.00     0.042 C 
ATOM      7  O   UNL     1       8.873 124.131 112.445  1.00  0.00    -0.550 OA
ATOM      8  O   UNL     1       7.164 123.046 111.374  1.00  0.00    -0.550 OA
ENDBRANCH   5   6
ENDBRANCH   1   5
TORSDOF 3
ENDMDL
MODEL 4
REMARK VINA RESULT:    -3.489      0.412      1.645
REMARK INTER + INTRA:          -4.192
REMARK INTER:                  -4.072
REMARK INTRA:                  -0.121
REMARK UNBOUND:                -0.091
REMARK SMILES O=C([O-])CCC(=O)[O-]
REMARK SMILES IDX 4 1 2 2 1 3 3 4 5 5 6 6 7 7 8 8
REMARK H PARENT
REMARK Flexibility Score: inf
ROOT
ATOM      1  C   UNL     1       8.651 124.853 109.996  1.00  0.00     0.059 C 
ENDROOT
BRANCH   1   2
ATOM      2  C   UNL     1       7.721 124.888 108.825  1.00  0.00     0.042 C 
ATOM      3  O   UNL     1       8.117 124.516 107.689  1.00  0.00    -0.550 OA
ATOM      4  O   UNL     1       6.400 125.284 108.997  1.00  0.00    -0.550 OA
ENDBRANCH   1   2
BRANCH   1   5
ATOM      5  C   UNL     1       7.871 124.991 111.303  1.00  0.00     0.059 C 
BRANCH   5   6
ATOM      6  C   UNL     1       7.701 123.656 111.956  1.00  0.00     0.042 C 
ATOM      7  O   UNL     1       6.760 122.896 111.608  1.00  0.00    -0.550 OA
ATOM      8  O   UNL     1       8.613 123.228 112.912  1.00  0.00    -0.550 OA
ENDBRANCH   5   6
ENDBRANCH   1   5
TORSDOF 3
ENDMDL
MODEL 5
REMARK VINA RESULT:    -3.314      1.418      4.181
REMARK INTER + INTRA:          -3.986
REMARK INTER:                  -3.921
REMARK INTRA:                  -0.066
REMARK UNBOUND:                -0.091
REMARK SMILES O=C([O-])CCC(=O)[O-]
REMARK SMILES IDX 4 1 2 2 1 3 3 4 5 5 6 6 7 7 8 8
REMARK H PARENT
REMARK Flexibility Score: inf
ROOT
ATOM      1  C   UNL     1       7.423 124.042 110.186  1.00  0.00     0.059 C 
ENDROOT
BRANCH   1   2
ATOM      2  C   UNL     1       7.969 124.686 111.422  1.00  0.00     0.042 C 
ATOM      3  O   UNL     1       8.934 124.161 112.037  1.00  0.00    -0.550 OA
ATOM      4  O   UNL     1       7.446 125.894 111.866  1.00  0.00    -0.550 OA
ENDBRANCH   1   2
BRANCH   1   5
ATOM      5  C   UNL     1       6.754 125.085 109.290  1.00  0.00     0.059 C 
BRANCH   5   6
ATOM      6  C   UNL     1       7.301 125.010 107.900  1.00  0.00     0.042 C 
ATOM      7  O   UNL     1       6.626 125.443 106.930  1.00  0.00    -0.550 OA
ATOM      8  O   UNL     1       8.577 124.508 107.682  1.00  0.00    -0.550 OA
ENDBRANCH   5   6
ENDBRANCH   1   5
TORSDOF 3
ENDMDL
MODEL 6
REMARK VINA RESULT:    -3.168      2.642      3.717
REMARK INTER + INTRA:          -3.815
REMARK INTER:                  -3.649
REMARK INTRA:                  -0.166
REMARK UNBOUND:                -0.091
REMARK SMILES O=C([O-])CCC(=O)[O-]
REMARK SMILES IDX 4 1 2 2 1 3 3 4 5 5 6 6 7 7 8 8
REMARK H PARENT
REMARK Flexibility Score: inf
ROOT
ATOM      1  C   UNL     1       6.591 123.778 111.976  1.00  0.00     0.059 C 
ENDROOT
BRANCH   1   2
ATOM      2  C   UNL     1       8.069 123.783 112.205  1.00  0.00     0.042 C 
ATOM      3  O   UNL     1       8.580 123.017 113.064  1.00  0.00    -0.550 OA
ATOM      4  O   UNL     1       8.890 124.598 111.435  1.00  0.00    -0.550 OA
ENDBRANCH   1   2
BRANCH   1   5
ATOM      5  C   UNL     1       5.850 124.170 113.254  1.00  0.00     0.059 C 
BRANCH   5   6
ATOM      6  C   UNL     1       6.269 125.533 113.706  1.00  0.00     0.042 C 
ATOM      7  O   UNL     1       6.749 125.699 114.857  1.00  0.00    -0.550 OA
ATOM      8  O   UNL     1       6.177 126.612 112.837  1.00  0.00    -0.550 OA
ENDBRANCH   5   6
ENDBRANCH   1   5
TORSDOF 3
ENDMDL
MODEL 7
REMARK VINA RESULT:    -3.156      2.727      4.473
REMARK INTER + INTRA:          -3.801
REMARK INTER:                  -3.679
REMARK INTRA:                  -0.122
REMARK UNBOUND:                -0.091
REMARK SMILES O=C([O-])CCC(=O)[O-]
REMARK SMILES IDX 4 1 2 2 1 3 3 4 5 5 6 6 7 7 8 8
REMARK H PARENT
REMARK Flexibility Score: inf
ROOT
ATOM      1  C   UNL     1       5.864 124.365 112.245  1.00  0.00     0.059 C 
ENDROOT
BRANCH   1   2
ATOM      2  C   UNL     1       6.999 123.471 111.857  1.00  0.00     0.042 C 
ATOM      3  O   UNL     1       7.072 123.010 110.688  1.00  0.00    -0.550 OA
ATOM      4  O   UNL     1       8.004 123.187 112.773  1.00  0.00    -0.550 OA
ENDBRANCH   1   2
BRANCH   1   5
ATOM      5  C   UNL     1       4.538 123.800 111.732  1.00  0.00     0.059 C 
BRANCH   5   6
ATOM      6  C   UNL     1       3.910 124.743 110.755  1.00  0.00     0.042 C 
ATOM      7  O   UNL     1       2.661 124.898 110.739  1.00  0.00    -0.550 OA
ATOM      8  O   UNL     1       4.708 125.488 109.897  1.00  0.00    -0.550 OA
ENDBRANCH   5   6
ENDBRANCH   1   5
TORSDOF 3
ENDMDL
MODEL 8
REMARK VINA RESULT:    -3.155      2.747      3.444
REMARK INTER + INTRA:          -3.799
REMARK INTER:                  -3.680
REMARK INTRA:                  -0.119
REMARK UNBOUND:                -0.091
REMARK SMILES O=C([O-])CCC(=O)[O-]
REMARK SMILES IDX 4 1 2 2 1 3 3 4 5 5 6 6 7 7 8 8
REMARK H PARENT
REMARK Flexibility Score: inf
ROOT
ATOM      1  C   UNL     1       4.540 124.215 112.057  1.00  0.00     0.059 C 
ENDROOT
BRANCH   1   2
ATOM      2  C   UNL     1       4.052 124.870 110.803  1.00  0.00     0.042 C 
ATOM      3  O   UNL     1       4.866 125.429 110.021  1.00  0.00    -0.550 OA
ATOM      4  O   UNL     1       2.704 124.820 110.471  1.00  0.00    -0.550 OA
ENDBRANCH   1   2
BRANCH   1   5
ATOM      5  C   UNL     1       5.742 123.319 111.759  1.00  0.00     0.059 C 
BRANCH   5   6
ATOM      6  C   UNL     1       6.977 123.867 112.402  1.00  0.00     0.042 C 
ATOM      7  O   UNL     1       7.938 123.104 112.681  1.00  0.00    -0.550 OA
ATOM      8  O   UNL     1       7.086 125.229 112.648  1.00  0.00    -0.550 OA
ENDBRANCH   5   6
ENDBRANCH   1   5
TORSDOF 3
ENDMDL
MODEL 9
REMARK VINA RESULT:    -3.079      2.464      3.923
REMARK INTER + INTRA:          -3.710
REMARK INTER:                  -3.587
REMARK INTRA:                  -0.123
REMARK UNBOUND:                -0.091
REMARK SMILES O=C([O-])CCC(=O)[O-]
REMARK SMILES IDX 4 1 2 2 1 3 3 4 5 5 6 6 7 7 8 8
REMARK H PARENT
REMARK Flexibility Score: inf
ROOT
ATOM      1  C   UNL     1       6.614 123.705 111.720  1.00  0.00     0.059 C 
ENDROOT
BRANCH   1   2
ATOM      2  C   UNL     1       8.068 123.815 112.056  1.00  0.00     0.042 C 
ATOM      3  O   UNL     1       8.804 124.623 111.432  1.00  0.00    -0.550 OA
ATOM      4  O   UNL     1       8.600 123.060 113.094  1.00  0.00    -0.550 OA
ENDBRANCH   1   2
BRANCH   1   5
ATOM      5  C   UNL     1       6.138 124.960 110.988  1.00  0.00     0.059 C 
BRANCH   5   6
ATOM      6  C   UNL     1       5.588 125.955 111.959  1.00  0.00     0.042 C 
ATOM      7  O   UNL     1       4.393 125.869 112.346  1.00  0.00    -0.550 OA
ATOM      8  O   UNL     1       6.408 126.949 112.476  1.00  0.00    -0.550 OA
ENDBRANCH   5   6
ENDBRANCH   1   5
TORSDOF 3
ENDMDL
