MODEL 1
REMARK VINA RESULT:    -4.005      0.000      0.000
REMARK INTER + INTRA:          -5.039
REMARK INTER:                  -4.825
REMARK INTRA:                  -0.214
REMARK UNBOUND:                -0.214
REMARK SMILES Oc1cc(O)c2c(c1)O[C@@H](c1ccc(O)c(O)c1)[C@@H](O)C2
REMARK SMILES IDX 21 1 19 2 10 3 9 4 7 5 8 6 2 7 3 8 4 9 6 10 20 11 11 13
REMARK SMILES IDX 18 14 12 15 16 16 13 17 14 18 17 19 15 21 5 23 1 25
REMARK H PARENT 20 12 17 20 15 22 5 24 1 26
REMARK Flexibility Score: inf
ROOT
ATOM      1  C   UNL     1      22.726 -48.378   6.969  1.00  0.00     0.079 C 
ATOM      2  C   UNL     1      23.159 -47.010   7.529  1.00  0.00     0.164 C 
ATOM      3  C   UNL     1      22.063 -45.969   7.246  1.00  0.00     0.232 C 
ATOM      4  O   UNL     1      20.828 -46.397   7.819  1.00  0.00    -0.482 OA
ATOM      5  C   UNL     1      20.420 -47.736   7.787  1.00  0.00     0.131 A 
ATOM      6  C   UNL     1      19.122 -48.060   8.189  1.00  0.00     0.093 A 
ATOM      7  C   UNL     1      18.682 -49.387   8.152  1.00  0.00     0.122 A 
ATOM      8  C   UNL     1      19.543 -50.391   7.703  1.00  0.00     0.092 A 
ATOM      9  C   UNL     1      20.847 -50.085   7.296  1.00  0.00     0.126 A 
ATOM     10  C   UNL     1      21.313 -48.750   7.374  1.00  0.00     0.039 A 
ENDROOT
BRANCH   2  11
ATOM     11  O   UNL     1      23.380 -47.109   8.914  1.00  0.00    -0.389 OA
ATOM     12  H   UNL     1      22.507 -46.941   9.356  1.00  0.00     0.211 HD
ENDBRANCH   2  11
BRANCH   3  13
ATOM     13  C   UNL     1      22.447 -44.603   7.770  1.00  0.00    -0.001 A 
ATOM     14  C   UNL     1      21.450 -43.717   8.208  1.00  0.00     0.057 A 
ATOM     15  C   UNL     1      23.787 -44.179   7.767  1.00  0.00     0.012 A 
ATOM     16  C   UNL     1      21.786 -42.433   8.664  1.00  0.00     0.157 A 
ATOM     17  C   UNL     1      24.124 -42.902   8.221  1.00  0.00     0.050 A 
ATOM     18  C   UNL     1      23.131 -42.027   8.672  1.00  0.00     0.157 A 
BRANCH  16  19
ATOM     19  O   UNL     1      20.791 -41.563   9.106  1.00  0.00    -0.504 OA
ATOM     20  H   UNL     1      21.017 -40.657   9.501  1.00  0.00     0.293 HD
ENDBRANCH  16  19
BRANCH  18  21
ATOM     21  O   UNL     1      23.499 -40.758   9.121  1.00  0.00    -0.504 OA
ATOM     22  H   UNL     1      23.748 -40.012   8.482  1.00  0.00     0.293 HD
ENDBRANCH  18  21
ENDBRANCH   3  13
BRANCH   9  23
ATOM     23  O   UNL     1      21.645 -51.125   6.814  1.00  0.00    -0.507 OA
ATOM     24  H   UNL     1      22.657 -51.111   6.846  1.00  0.00     0.293 HD
ENDBRANCH   9  23
BRANCH   7  25
ATOM     25  O   UNL     1      17.390 -49.718   8.553  1.00  0.00    -0.508 OA
ATOM     26  H   UNL     1      17.167 -50.638   8.913  1.00  0.00     0.293 HD
ENDBRANCH   7  25
TORSDOF 6
ENDMDL
MODEL 2
REMARK VINA RESULT:    -2.755      2.878      6.263
REMARK INTER + INTRA:          -3.532
REMARK INTER:                  -3.925
REMARK INTRA:                   0.393
REMARK UNBOUND:                -0.214
REMARK SMILES Oc1cc(O)c2c(c1)O[C@@H](c1ccc(O)c(O)c1)[C@@H](O)C2
REMARK SMILES IDX 21 1 19 2 10 3 9 4 7 5 8 6 2 7 3 8 4 9 6 10 20 11 11 13
REMARK SMILES IDX 18 14 12 15 16 16 13 17 14 18 17 19 15 21 5 23 1 25
REMARK H PARENT 20 12 17 20 15 22 5 24 1 26
REMARK Flexibility Score: inf
ROOT
ATOM      1  C   UNL     1      21.603 -45.160   7.663  1.00  0.00     0.079 C 
ATOM      2  C   UNL     1      22.173 -46.099   6.582  1.00  0.00     0.164 C 
ATOM      3  C   UNL     1      21.565 -47.502   6.749  1.00  0.00     0.232 C 
ATOM      4  O   UNL     1      20.142 -47.426   6.675  1.00  0.00    -0.482 OA
ATOM      5  C   UNL     1      19.423 -46.378   7.260  1.00  0.00     0.131 A 
ATOM      6  C   UNL     1      18.030 -46.460   7.321  1.00  0.00     0.093 A 
ATOM      7  C   UNL     1      17.287 -45.434   7.914  1.00  0.00     0.122 A 
ATOM      8  C   UNL     1      17.943 -44.326   8.456  1.00  0.00     0.092 A 
ATOM      9  C   UNL     1      19.339 -44.226   8.405  1.00  0.00     0.126 A 
ATOM     10  C   UNL     1      20.092 -45.240   7.765  1.00  0.00     0.039 A 
ENDROOT
BRANCH   2  11
ATOM     11  O   UNL     1      21.870 -45.595   5.304  1.00  0.00    -0.389 OA
ATOM     12  H   UNL     1      21.876 -46.369   4.682  1.00  0.00     0.211 HD
ENDBRANCH   2  11
BRANCH   3  13
ATOM     13  C   UNL     1      22.101 -48.465   5.714  1.00  0.00    -0.001 A 
ATOM     14  C   UNL     1      22.875 -47.984   4.645  1.00  0.00     0.057 A 
ATOM     15  C   UNL     1      21.784 -49.833   5.768  1.00  0.00     0.012 A 
ATOM     16  C   UNL     1      23.350 -48.859   3.658  1.00  0.00     0.157 A 
ATOM     17  C   UNL     1      22.256 -50.707   4.786  1.00  0.00     0.050 A 
ATOM     18  C   UNL     1      23.040 -50.228   3.732  1.00  0.00     0.157 A 
BRANCH  16  19
ATOM     19  O   UNL     1      24.125 -48.375   2.605  1.00  0.00    -0.504 OA
ATOM     20  H   UNL     1      25.090 -48.662   2.482  1.00  0.00     0.293 HD
ENDBRANCH  16  19
BRANCH  18  21
ATOM     21  O   UNL     1      23.498 -51.125   2.766  1.00  0.00    -0.504 OA
ATOM     22  H   UNL     1      24.382 -51.611   2.860  1.00  0.00     0.293 HD
ENDBRANCH  18  21
ENDBRANCH   3  13
BRANCH   9  23
ATOM     23  O   UNL     1      19.940 -43.117   9.004  1.00  0.00    -0.507 OA
ATOM     24  H   UNL     1      20.228 -43.097   9.974  1.00  0.00     0.293 HD
ENDBRANCH   9  23
BRANCH   7  25
ATOM     25  O   UNL     1      15.897 -45.509   7.977  1.00  0.00    -0.508 OA
ATOM     26  H   UNL     1      15.397 -45.342   8.842  1.00  0.00     0.293 HD
ENDBRANCH   7  25
TORSDOF 6
ENDMDL
MODEL 3
REMARK VINA RESULT:    -2.374      3.611      4.752
REMARK INTER + INTRA:          -3.074
REMARK INTER:                  -3.546
REMARK INTRA:                   0.473
REMARK UNBOUND:                -0.214
REMARK SMILES Oc1cc(O)c2c(c1)O[C@@H](c1ccc(O)c(O)c1)[C@@H](O)C2
REMARK SMILES IDX 21 1 19 2 10 3 9 4 7 5 8 6 2 7 3 8 4 9 6 10 20 11 11 13
REMARK SMILES IDX 18 14 12 15 16 16 13 17 14 18 17 19 15 21 5 23 1 25
REMARK H PARENT 20 12 17 20 15 22 5 24 1 26
REMARK Flexibility Score: inf
ROOT
ATOM      1  C   UNL     1      20.873 -48.684   4.912  1.00  0.00     0.079 C 
ATOM      2  C   UNL     1      20.014 -47.536   5.475  1.00  0.00     0.164 C 
ATOM      3  C   UNL     1      19.303 -48.007   6.755  1.00  0.00     0.232 C 
ATOM      4  O   UNL     1      20.266 -48.452   7.710  1.00  0.00    -0.482 OA
ATOM      5  C   UNL     1      21.396 -49.187   7.335  1.00  0.00     0.131 A 
ATOM      6  C   UNL     1      22.195 -49.758   8.330  1.00  0.00     0.093 A 
ATOM      7  C   UNL     1      23.322 -50.510   7.984  1.00  0.00     0.122 A 
ATOM      8  C   UNL     1      23.644 -50.700   6.638  1.00  0.00     0.092 A 
ATOM      9  C   UNL     1      22.855 -50.137   5.628  1.00  0.00     0.126 A 
ATOM     10  C   UNL     1      21.740 -49.336   5.973  1.00  0.00     0.039 A 
ENDROOT
BRANCH   2  11
ATOM     11  O   UNL     1      20.828 -46.427   5.762  1.00  0.00    -0.389 OA
ATOM     12  H   UNL     1      20.619 -46.150   6.692  1.00  0.00     0.211 HD
ENDBRANCH   2  11
BRANCH   3  13
ATOM     13  C   UNL     1      18.437 -46.915   7.342  1.00  0.00    -0.001 A 
ATOM     14  C   UNL     1      18.686 -45.573   7.014  1.00  0.00     0.057 A 
ATOM     15  C   UNL     1      17.422 -47.217   8.267  1.00  0.00     0.012 A 
ATOM     16  C   UNL     1      17.915 -44.546   7.578  1.00  0.00     0.157 A 
ATOM     17  C   UNL     1      16.653 -46.196   8.830  1.00  0.00     0.050 A 
ATOM     18  C   UNL     1      16.892 -44.861   8.488  1.00  0.00     0.157 A 
BRANCH  16  19
ATOM     19  O   UNL     1      18.162 -43.216   7.238  1.00  0.00    -0.504 OA
ATOM     20  H   UNL     1      19.009 -42.942   6.752  1.00  0.00     0.293 HD
ENDBRANCH  16  19
BRANCH  18  21
ATOM     21  O   UNL     1      16.106 -43.863   9.065  1.00  0.00    -0.504 OA
ATOM     22  H   UNL     1      15.649 -43.988   9.960  1.00  0.00     0.293 HD
ENDBRANCH  18  21
ENDBRANCH   3  13
BRANCH   9  23
ATOM     23  O   UNL     1      23.202 -50.399   4.301  1.00  0.00    -0.507 OA
ATOM     24  H   UNL     1      23.383 -51.330   3.947  1.00  0.00     0.293 HD
ENDBRANCH   9  23
BRANCH   7  25
ATOM     25  O   UNL     1      24.125 -51.081   8.970  1.00  0.00    -0.508 OA
ATOM     26  H   UNL     1      23.995 -52.040   9.268  1.00  0.00     0.293 HD
ENDBRANCH   7  25
TORSDOF 6
ENDMDL
MODEL 4
REMARK VINA RESULT:    -1.667      3.331      4.876
REMARK INTER + INTRA:          -2.222
REMARK INTER:                  -2.606
REMARK INTRA:                   0.384
REMARK UNBOUND:                -0.214
REMARK SMILES Oc1cc(O)c2c(c1)O[C@@H](c1ccc(O)c(O)c1)[C@@H](O)C2
REMARK SMILES IDX 21 1 19 2 10 3 9 4 7 5 8 6 2 7 3 8 4 9 6 10 20 11 11 13
REMARK SMILES IDX 18 14 12 15 16 16 13 17 14 18 17 19 15 21 5 23 1 25
REMARK H PARENT 20 12 17 20 15 22 5 24 1 26
REMARK Flexibility Score: inf
ROOT
ATOM      1  C   UNL     1      22.031 -49.214   8.434  1.00  0.00     0.079 C 
ATOM      2  C   UNL     1      20.668 -48.508   8.566  1.00  0.00     0.164 C 
ATOM      3  C   UNL     1      20.628 -47.289   7.629  1.00  0.00     0.232 C 
ATOM      4  O   UNL     1      20.871 -47.702   6.285  1.00  0.00    -0.482 OA
ATOM      5  C   UNL     1      21.820 -48.682   5.970  1.00  0.00     0.131 A 
ATOM      6  C   UNL     1      22.149 -48.903   4.630  1.00  0.00     0.093 A 
ATOM      7  C   UNL     1      23.105 -49.864   4.287  1.00  0.00     0.122 A 
ATOM      8  C   UNL     1      23.740 -50.600   5.291  1.00  0.00     0.092 A 
ATOM      9  C   UNL     1      23.424 -50.392   6.639  1.00  0.00     0.126 A 
ATOM     10  C   UNL     1      22.424 -49.452   6.988  1.00  0.00     0.039 A 
ENDROOT
BRANCH   2  11
ATOM     11  O   UNL     1      19.634 -49.401   8.234  1.00  0.00    -0.389 OA
ATOM     12  H   UNL     1      18.944 -49.317   8.943  1.00  0.00     0.211 HD
ENDBRANCH   2  11
BRANCH   3  13
ATOM     13  C   UNL     1      19.310 -46.555   7.729  1.00  0.00    -0.001 A 
ATOM     14  C   UNL     1      19.191 -45.255   7.212  1.00  0.00     0.057 A 
ATOM     15  C   UNL     1      18.211 -47.131   8.392  1.00  0.00     0.012 A 
ATOM     16  C   UNL     1      17.985 -44.548   7.329  1.00  0.00     0.157 A 
ATOM     17  C   UNL     1      17.010 -46.429   8.509  1.00  0.00     0.050 A 
ATOM     18  C   UNL     1      16.889 -45.141   7.978  1.00  0.00     0.157 A 
BRANCH  16  19
ATOM     19  O   UNL     1      17.874 -43.261   6.804  1.00  0.00    -0.504 OA
ATOM     20  H   UNL     1      17.191 -43.038   6.089  1.00  0.00     0.293 HD
ENDBRANCH  16  19
BRANCH  18  21
ATOM     21  O   UNL     1      15.676 -44.464   8.109  1.00  0.00    -0.504 OA
ATOM     22  H   UNL     1      14.845 -44.747   7.603  1.00  0.00     0.293 HD
ENDBRANCH  18  21
ENDBRANCH   3  13
BRANCH   9  23
ATOM     23  O   UNL     1      24.125 -51.125   7.598  1.00  0.00    -0.507 OA
ATOM     24  H   UNL     1      24.279 -52.123   7.532  1.00  0.00     0.293 HD
ENDBRANCH   9  23
BRANCH   7  25
ATOM     25  O   UNL     1      23.437 -50.092   2.953  1.00  0.00    -0.508 OA
ATOM     26  H   UNL     1      24.083 -49.489   2.459  1.00  0.00     0.293 HD
ENDBRANCH   7  25
TORSDOF 6
ENDMDL
MODEL 5
REMARK VINA RESULT:    -1.348      2.541      6.568
REMARK INTER + INTRA:          -1.838
REMARK INTER:                  -1.813
REMARK INTRA:                  -0.025
REMARK UNBOUND:                -0.214
REMARK SMILES Oc1cc(O)c2c(c1)O[C@@H](c1ccc(O)c(O)c1)[C@@H](O)C2
REMARK SMILES IDX 21 1 19 2 10 3 9 4 7 5 8 6 2 7 3 8 4 9 6 10 20 11 11 13
REMARK SMILES IDX 18 14 12 15 16 16 13 17 14 18 17 19 15 21 5 23 1 25
REMARK H PARENT 20 12 17 20 15 22 5 24 1 26
REMARK Flexibility Score: inf
ROOT
ATOM      1  C   UNL     1      18.015 -46.797   7.044  1.00  0.00     0.079 C 
ATOM      2  C   UNL     1      19.043 -47.889   6.691  1.00  0.00     0.164 C 
ATOM      3  C   UNL     1      20.150 -47.286   5.809  1.00  0.00     0.232 C 
ATOM      4  O   UNL     1      20.766 -46.191   6.486  1.00  0.00    -0.482 OA
ATOM      5  C   UNL     1      20.027 -45.277   7.246  1.00  0.00     0.131 A 
ATOM      6  C   UNL     1      20.655 -44.123   7.721  1.00  0.00     0.093 A 
ATOM      7  C   UNL     1      19.937 -43.186   8.470  1.00  0.00     0.122 A 
ATOM      8  C   UNL     1      18.582 -43.400   8.735  1.00  0.00     0.092 A 
ATOM      9  C   UNL     1      17.935 -44.550   8.266  1.00  0.00     0.126 A 
ATOM     10  C   UNL     1      18.668 -45.524   7.547  1.00  0.00     0.039 A 
ENDROOT
BRANCH   2  11
ATOM     11  O   UNL     1      19.603 -48.416   7.868  1.00  0.00    -0.389 OA
ATOM     12  H   UNL     1      19.810 -49.370   7.684  1.00  0.00     0.211 HD
ENDBRANCH   2  11
BRANCH   3  13
ATOM     13  C   UNL     1      21.181 -48.323   5.427  1.00  0.00    -0.001 A 
ATOM     14  C   UNL     1      22.167 -48.703   6.352  1.00  0.00     0.057 A 
ATOM     15  C   UNL     1      21.210 -48.871   4.133  1.00  0.00     0.012 A 
ATOM     16  C   UNL     1      23.152 -49.638   6.001  1.00  0.00     0.157 A 
ATOM     17  C   UNL     1      22.189 -49.802   3.781  1.00  0.00     0.050 A 
ATOM     18  C   UNL     1      23.160 -50.191   4.710  1.00  0.00     0.157 A 
BRANCH  16  19
ATOM     19  O   UNL     1      24.121 -50.017   6.929  1.00  0.00    -0.504 OA
ATOM     20  H   UNL     1      24.630 -50.889   6.837  1.00  0.00     0.293 HD
ENDBRANCH  16  19
BRANCH  18  21
ATOM     21  O   UNL     1      24.125 -51.125   4.330  1.00  0.00    -0.504 OA
ATOM     22  H   UNL     1      24.055 -52.103   4.583  1.00  0.00     0.293 HD
ENDBRANCH  18  21
ENDBRANCH   3  13
BRANCH   9  23
ATOM     23  O   UNL     1      16.570 -44.686   8.524  1.00  0.00    -0.507 OA
ATOM     24  H   UNL     1      15.934 -45.177   7.909  1.00  0.00     0.293 HD
ENDBRANCH   9  23
BRANCH   7  25
ATOM     25  O   UNL     1      20.557 -42.034   8.949  1.00  0.00    -0.508 OA
ATOM     26  H   UNL     1      21.391 -42.081   9.521  1.00  0.00     0.293 HD
ENDBRANCH   7  25
TORSDOF 6
ENDMDL
MODEL 6
REMARK VINA RESULT:    -1.136      4.403      6.946
REMARK INTER + INTRA:          -1.582
REMARK INTER:                  -1.882
REMARK INTRA:                   0.300
REMARK UNBOUND:                -0.214
REMARK SMILES Oc1cc(O)c2c(c1)O[C@@H](c1ccc(O)c(O)c1)[C@@H](O)C2
REMARK SMILES IDX 21 1 19 2 10 3 9 4 7 5 8 6 2 7 3 8 4 9 6 10 20 11 11 13
REMARK SMILES IDX 18 14 12 15 16 16 13 17 14 18 17 19 15 21 5 23 1 25
REMARK H PARENT 20 12 17 20 15 22 5 24 1 26
REMARK Flexibility Score: inf
ROOT
ATOM      1  C   UNL     1      19.055 -46.851   8.759  1.00  0.00     0.079 C 
ATOM      2  C   UNL     1      17.624 -46.495   8.314  1.00  0.00     0.164 C 
ATOM      3  C   UNL     1      17.253 -45.100   8.845  1.00  0.00     0.232 C 
ATOM      4  O   UNL     1      18.198 -44.137   8.379  1.00  0.00    -0.482 OA
ATOM      5  C   UNL     1      19.567 -44.416   8.305  1.00  0.00     0.131 A 
ATOM      6  C   UNL     1      20.459 -43.377   8.029  1.00  0.00     0.093 A 
ATOM      7  C   UNL     1      21.833 -43.624   7.964  1.00  0.00     0.122 A 
ATOM      8  C   UNL     1      22.317 -44.916   8.186  1.00  0.00     0.092 A 
ATOM      9  C   UNL     1      21.439 -45.970   8.466  1.00  0.00     0.126 A 
ATOM     10  C   UNL     1      20.043 -45.734   8.488  1.00  0.00     0.039 A 
ENDROOT
BRANCH   2  11
ATOM     11  O   UNL     1      17.543 -46.509   6.910  1.00  0.00    -0.389 OA
ATOM     12  H   UNL     1      16.756 -45.957   6.662  1.00  0.00     0.211 HD
ENDBRANCH   2  11
BRANCH   3  13
ATOM     13  C   UNL     1      15.850 -44.707   8.440  1.00  0.00    -0.001 A 
ATOM     14  C   UNL     1      15.276 -43.534   8.955  1.00  0.00     0.057 A 
ATOM     15  C   UNL     1      15.082 -45.534   7.603  1.00  0.00     0.012 A 
ATOM     16  C   UNL     1      13.963 -43.174   8.617  1.00  0.00     0.157 A 
ATOM     17  C   UNL     1      13.774 -45.178   7.265  1.00  0.00     0.050 A 
ATOM     18  C   UNL     1      13.211 -44.000   7.765  1.00  0.00     0.157 A 
BRANCH  16  19
ATOM     19  O   UNL     1      13.405 -42.001   9.125  1.00  0.00    -0.504 OA
ATOM     20  H   UNL     1      13.711 -41.088   8.809  1.00  0.00     0.293 HD
ENDBRANCH  16  19
BRANCH  18  21
ATOM     21  O   UNL     1      11.903 -43.669   7.409  1.00  0.00    -0.504 OA
ATOM     22  H   UNL     1      11.464 -42.808   7.713  1.00  0.00     0.293 HD
ENDBRANCH  18  21
ENDBRANCH   3  13
BRANCH   9  23
ATOM     23  O   UNL     1      21.986 -47.228   8.724  1.00  0.00    -0.507 OA
ATOM     24  H   UNL     1      22.982 -47.407   8.753  1.00  0.00     0.293 HD
ENDBRANCH   9  23
BRANCH   7  25
ATOM     25  O   UNL     1      22.728 -42.593   7.686  1.00  0.00    -0.508 OA
ATOM     26  H   UNL     1      23.722 -42.765   7.597  1.00  0.00     0.293 HD
ENDBRANCH   7  25
TORSDOF 6
ENDMDL
