MODEL 1
REMARK VINA RESULT:    -4.865      0.000      0.000
REMARK INTER + INTRA:          -6.724
REMARK INTER:                  -6.855
REMARK INTRA:                   0.132
REMARK UNBOUND:                 0.132
REMARK SMILES CC1=CCC(=C(C)C)C(=O)CC(C)=CCC1
REMARK SMILES IDX 12 1 14 2 13 3 15 4 16 5 2 6 1 7 3 8 11 10 9 11 10 12 5 13
REMARK SMILES IDX 6 14 7 15 8 16 4 17
REMARK H PARENT
REMARK Flexibility Score: 60.00
ROOT
ATOM      1  C   UNL     1     214.844 152.916 181.137  1.00  0.00    -0.070 C 
ATOM      2  C   UNL     1     215.100 152.977 179.799  1.00  0.00    -0.027 C 
ATOM      3  C   UNL     1     214.399 154.200 181.800  1.00  0.00     0.039 C 
ENDROOT
BRANCH   2   4
ATOM      4  C   UNL     1     215.611 151.926 178.820  1.00  0.00     0.032 C 
BRANCH   4   5
ATOM      5  C   UNL     1     214.639 150.811 178.414  1.00  0.00     0.034 C 
BRANCH   5   6
ATOM      6  C   UNL     1     213.132 151.093 178.504  1.00  0.00    -0.077 C 
ATOM      7  C   UNL     1     212.542 151.845 177.330  1.00  0.00     0.039 C 
ATOM      8  C   UNL     1     212.267 150.834 179.529  1.00  0.00    -0.023 CG0
ATOM      9  G   UNL     1     212.492 150.167 180.873  1.00  0.00     0.000 G0
ENDBRANCH   5   6
ENDBRANCH   4   5
ENDBRANCH   2   4
BRANCH   1  10
ATOM     10  C   UNL     1     214.952 151.692 182.031  1.00  0.00     0.111 C 
BRANCH  10  11
ATOM     11  C   UNL     1     213.673 151.422 182.765  1.00  0.00     0.163 C 
ATOM     12  O   UNL     1     213.692 151.369 184.024  1.00  0.00    -0.294 OA
BRANCH  11  13
ATOM     13  C   UNL     1     212.409 151.179 182.024  1.00  0.00    -0.002 C 
ATOM     14  C   UNL     1     211.248 151.811 182.367  1.00  0.00    -0.069 C 
ATOM     15  C   UNL     1     209.938 151.486 181.686  1.00  0.00     0.039 C 
ATOM     16  C   UNL     1     211.227 152.878 183.438  1.00  0.00     0.039 C 
BRANCH  13  17
ATOM     17  C   UNL     1     212.486 150.183 180.887  1.00  0.00     0.066 CG0
ATOM     18  G   UNL     1     212.277 150.843 179.537  1.00  0.00     0.000 G0
ENDBRANCH  13  17
ENDBRANCH  11  13
ENDBRANCH  10  11
ENDBRANCH   1  10
TORSDOF 0
ENDMDL
MODEL 2
REMARK VINA RESULT:    -4.756      1.553      3.581
REMARK INTER + INTRA:          -6.571
REMARK INTER:                  -6.806
REMARK INTRA:                   0.236
REMARK UNBOUND:                 0.132
REMARK SMILES CC1=CCC(=C(C)C)C(=O)CC(C)=CCC1
REMARK SMILES IDX 12 1 14 2 13 3 15 4 16 5 2 6 1 7 3 8 11 10 9 11 10 12 5 13
REMARK SMILES IDX 6 14 7 15 8 16 4 17
REMARK H PARENT
REMARK Flexibility Score: 60.00
ROOT
ATOM      1  C   UNL     1     211.345 152.522 183.109  1.00  0.00    -0.070 C 
ATOM      2  C   UNL     1     210.575 151.950 182.139  1.00  0.00    -0.027 C 
ATOM      3  C   UNL     1     210.800 153.774 183.757  1.00  0.00     0.039 C 
ENDROOT
BRANCH   2   4
ATOM      4  C   UNL     1     210.813 150.741 181.242  1.00  0.00     0.032 C 
BRANCH   4   5
ATOM      5  C   UNL     1     212.256 150.467 180.800  1.00  0.00     0.034 C 
BRANCH   5   6
ATOM      6  C   UNL     1     212.913 151.444 179.814  1.00  0.00    -0.077 C 
ATOM      7  C   UNL     1     212.376 151.397 178.400  1.00  0.00     0.039 C 
ATOM      8  C   UNL     1     213.968 152.288 180.014  1.00  0.00    -0.023 CG0
ATOM      9  G   UNL     1     214.800 152.563 181.253  1.00  0.00     0.000 G0
ENDBRANCH   5   6
ENDBRANCH   4   5
ENDBRANCH   2   4
BRANCH   1  10
ATOM     10  C   UNL     1     212.692 152.027 183.612  1.00  0.00     0.111 C 
BRANCH  10  11
ATOM     11  C   UNL     1     213.752 153.080 183.494  1.00  0.00     0.163 C 
ATOM     12  O   UNL     1     214.262 153.554 184.544  1.00  0.00    -0.294 OA
BRANCH  11  13
ATOM     13  C   UNL     1     214.169 153.592 182.163  1.00  0.00    -0.002 C 
ATOM     14  C   UNL     1     213.967 154.893 181.803  1.00  0.00    -0.069 C 
ATOM     15  C   UNL     1     214.290 155.391 180.413  1.00  0.00     0.039 C 
ATOM     16  C   UNL     1     213.420 155.900 182.791  1.00  0.00     0.039 C 
BRANCH  13  17
ATOM     17  C   UNL     1     214.811 152.584 181.234  1.00  0.00     0.066 CG0
ATOM     18  G   UNL     1     213.947 152.298 180.020  1.00  0.00     0.000 G0
ENDBRANCH  13  17
ENDBRANCH  11  13
ENDBRANCH  10  11
ENDBRANCH   1  10
TORSDOF 0
ENDMDL
MODEL 3
REMARK VINA RESULT:    -4.655      1.640      2.398
REMARK INTER + INTRA:          -6.428
REMARK INTER:                  -6.410
REMARK INTRA:                  -0.018
REMARK UNBOUND:                 0.132
REMARK SMILES CC1=CCC(=C(C)C)C(=O)CC(C)=CCC1
REMARK SMILES IDX 12 1 14 2 13 3 15 4 16 5 2 6 1 7 3 8 11 10 9 11 10 12 5 13
REMARK SMILES IDX 6 14 7 15 8 16 4 17
REMARK H PARENT
REMARK Flexibility Score: 60.00
ROOT
ATOM      1  C   UNL     1     216.251 150.509 182.325  1.00  0.00    -0.070 C 
ATOM      2  C   UNL     1     216.207 150.051 181.041  1.00  0.00    -0.027 C 
ATOM      3  C   UNL     1     217.282 149.878 183.234  1.00  0.00     0.039 C 
ENDROOT
BRANCH   2   4
ATOM      4  C   UNL     1     215.286 150.397 179.876  1.00  0.00     0.032 C 
BRANCH   4   5
ATOM      5  C   UNL     1     213.825 149.943 179.976  1.00  0.00     0.034 C 
BRANCH   5   6
ATOM      6  C   UNL     1     212.728 151.018 179.979  1.00  0.00    -0.077 C 
ATOM      7  C   UNL     1     212.566 151.782 178.683  1.00  0.00     0.039 C 
ATOM      8  C   UNL     1     211.936 151.437 181.010  1.00  0.00    -0.023 CG0
ATOM      9  G   UNL     1     211.853 150.969 182.451  1.00  0.00     0.000 G0
ENDBRANCH   5   6
ENDBRANCH   4   5
ENDBRANCH   2   4
BRANCH   1  10
ATOM     10  C   UNL     1     215.378 151.593 182.936  1.00  0.00     0.111 C 
BRANCH  10  11
ATOM     11  C   UNL     1     214.144 151.024 183.569  1.00  0.00     0.163 C 
ATOM     12  O   UNL     1     214.236 149.961 184.238  1.00  0.00    -0.294 OA
BRANCH  11  13
ATOM     13  C   UNL     1     212.823 151.676 183.377  1.00  0.00    -0.002 C 
ATOM     14  C   UNL     1     212.510 152.850 184.000  1.00  0.00    -0.069 C 
ATOM     15  C   UNL     1     211.130 153.461 183.895  1.00  0.00     0.039 C 
ATOM     16  C   UNL     1     213.539 153.600 184.815  1.00  0.00     0.039 C 
BRANCH  13  17
ATOM     17  C   UNL     1     211.850 150.955 182.470  1.00  0.00     0.066 CG0
ATOM     18  G   UNL     1     211.945 151.436 181.035  1.00  0.00     0.000 G0
ENDBRANCH  13  17
ENDBRANCH  11  13
ENDBRANCH  10  11
ENDBRANCH   1  10
TORSDOF 0
ENDMDL
MODEL 4
REMARK VINA RESULT:    -4.584      1.933      4.691
REMARK INTER + INTRA:          -6.329
REMARK INTER:                  -6.375
REMARK INTRA:                   0.046
REMARK UNBOUND:                 0.132
REMARK SMILES CC1=CCC(=C(C)C)C(=O)CC(C)=CCC1
REMARK SMILES IDX 12 1 14 2 13 3 15 4 16 5 2 6 1 7 3 8 11 10 9 11 10 12 5 13
REMARK SMILES IDX 6 14 7 15 8 16 4 17
REMARK H PARENT
REMARK Flexibility Score: 60.00
ROOT
ATOM      1  C   UNL     1     213.284 150.992 183.408  1.00  0.00    -0.070 C 
ATOM      2  C   UNL     1     212.256 151.797 183.799  1.00  0.00    -0.027 C 
ATOM      3  C   UNL     1     214.144 150.410 184.507  1.00  0.00     0.039 C 
ENDROOT
BRANCH   2   4
ATOM      4  C   UNL     1     211.232 152.591 182.995  1.00  0.00     0.032 C 
BRANCH   4   5
ATOM      5  C   UNL     1     211.350 154.120 183.023  1.00  0.00     0.034 C 
BRANCH   5   6
ATOM      6  C   UNL     1     212.528 154.772 182.284  1.00  0.00    -0.077 C 
ATOM      7  C   UNL     1     213.048 156.054 182.898  1.00  0.00     0.039 C 
ATOM      8  C   UNL     1     213.116 154.404 181.108  1.00  0.00    -0.023 CG0
ATOM      9  G   UNL     1     212.835 153.238 180.179  1.00  0.00     0.000 G0
ENDBRANCH   5   6
ENDBRANCH   4   5
ENDBRANCH   2   4
BRANCH   1  10
ATOM     10  C   UNL     1     213.652 150.610 181.983  1.00  0.00     0.111 C 
BRANCH  10  11
ATOM     11  C   UNL     1     214.473 151.672 181.316  1.00  0.00     0.163 C 
ATOM     12  O   UNL     1     215.540 152.054 181.866  1.00  0.00    -0.294 OA
BRANCH  11  13
ATOM     13  C   UNL     1     214.018 152.299 180.048  1.00  0.00    -0.002 C 
ATOM     14  C   UNL     1     214.646 152.046 178.862  1.00  0.00    -0.069 C 
ATOM     15  C   UNL     1     214.256 152.764 177.590  1.00  0.00     0.039 C 
ATOM     16  C   UNL     1     215.754 151.022 178.769  1.00  0.00     0.039 C 
BRANCH  13  17
ATOM     17  C   UNL     1     212.838 153.239 180.157  1.00  0.00     0.066 CG0
ATOM     18  G   UNL     1     213.112 154.391 181.106  1.00  0.00     0.000 G0
ENDBRANCH  13  17
ENDBRANCH  11  13
ENDBRANCH  10  11
ENDBRANCH   1  10
TORSDOF 0
ENDMDL
MODEL 5
REMARK VINA RESULT:    -4.486      1.693      4.196
REMARK INTER + INTRA:          -6.190
REMARK INTER:                  -6.352
REMARK INTRA:                   0.162
REMARK UNBOUND:                 0.132
REMARK SMILES CC1=CCC(=C(C)C)C(=O)CC(C)=CCC1
REMARK SMILES IDX 12 1 14 2 13 3 15 4 16 5 2 6 1 7 3 8 11 10 9 11 10 12 5 13
REMARK SMILES IDX 6 14 7 15 8 16 4 17
REMARK H PARENT
REMARK Flexibility Score: 60.00
ROOT
ATOM      1  C   UNL     1     215.682 150.117 182.985  1.00  0.00    -0.070 C 
ATOM      2  C   UNL     1     214.861 150.353 184.048  1.00  0.00    -0.027 C 
ATOM      3  C   UNL     1     217.151 149.933 183.292  1.00  0.00     0.039 C 
ENDROOT
BRANCH   2   4
ATOM      4  C   UNL     1     213.365 150.639 184.125  1.00  0.00     0.032 C 
BRANCH   4   5
ATOM      5  C   UNL     1     212.934 152.108 184.200  1.00  0.00     0.034 C 
BRANCH   5   6
ATOM      6  C   UNL     1     211.915 152.620 183.172  1.00  0.00    -0.077 C 
ATOM      7  C   UNL     1     211.127 153.842 183.593  1.00  0.00     0.039 C 
ATOM      8  C   UNL     1     211.562 152.080 181.968  1.00  0.00    -0.023 CG0
ATOM      9  G   UNL     1     212.069 150.846 181.246  1.00  0.00     0.000 G0
ENDBRANCH   5   6
ENDBRANCH   4   5
ENDBRANCH   2   4
BRANCH   1  10
ATOM     10  C   UNL     1     215.275 150.011 181.524  1.00  0.00     0.111 C 
BRANCH  10  11
ATOM     11  C   UNL     1     214.563 151.243 181.054  1.00  0.00     0.163 C 
ATOM     12  O   UNL     1     215.069 152.371 181.296  1.00  0.00    -0.294 OA
BRANCH  11  13
ATOM     13  C   UNL     1     213.259 151.144 180.349  1.00  0.00    -0.002 C 
ATOM     14  C   UNL     1     213.160 151.337 179.001  1.00  0.00    -0.069 C 
ATOM     15  C   UNL     1     211.822 151.345 178.296  1.00  0.00     0.039 C 
ATOM     16  C   UNL     1     214.393 151.539 178.149  1.00  0.00     0.039 C 
BRANCH  13  17
ATOM     17  C   UNL     1     212.056 150.836 181.215  1.00  0.00     0.066 CG0
ATOM     18  G   UNL     1     211.563 152.062 181.960  1.00  0.00     0.000 G0
ENDBRANCH  13  17
ENDBRANCH  11  13
ENDBRANCH  10  11
ENDBRANCH   1  10
TORSDOF 0
ENDMDL
MODEL 6
REMARK VINA RESULT:    -4.291      1.618      3.102
REMARK INTER + INTRA:          -5.915
REMARK INTER:                  -6.274
REMARK INTRA:                   0.359
REMARK UNBOUND:                 0.132
REMARK SMILES CC1=CCC(=C(C)C)C(=O)CC(C)=CCC1
REMARK SMILES IDX 12 1 14 2 13 3 15 4 16 5 2 6 1 7 3 8 11 10 9 11 10 12 5 13
REMARK SMILES IDX 6 14 7 15 8 16 4 17
REMARK H PARENT
REMARK Flexibility Score: 60.00
ROOT
ATOM      1  C   UNL     1     211.754 150.946 181.607  1.00  0.00    -0.070 C 
ATOM      2  C   UNL     1     211.874 150.688 180.274  1.00  0.00    -0.027 C 
ATOM      3  C   UNL     1     210.557 151.763 182.035  1.00  0.00     0.039 C 
ENDROOT
BRANCH   2   4
ATOM      4  C   UNL     1     212.952 149.962 179.477  1.00  0.00     0.032 C 
BRANCH   4   5
ATOM      5  C   UNL     1     214.333 150.625 179.399  1.00  0.00     0.034 C 
BRANCH   5   6
ATOM      6  C   UNL     1     214.406 152.158 179.427  1.00  0.00    -0.077 C 
ATOM      7  C   UNL     1     214.247 152.840 178.085  1.00  0.00     0.039 C 
ATOM      8  C   UNL     1     214.678 152.988 180.477  1.00  0.00    -0.023 CG0
ATOM      9  G   UNL     1     214.956 152.683 181.937  1.00  0.00     0.000 G0
ENDBRANCH   5   6
ENDBRANCH   4   5
ENDBRANCH   2   4
BRANCH   1  10
ATOM     10  C   UNL     1     212.696 150.491 182.711  1.00  0.00     0.111 C 
BRANCH  10  11
ATOM     11  C   UNL     1     213.233 151.649 183.498  1.00  0.00     0.163 C 
ATOM     12  O   UNL     1     213.225 151.587 184.756  1.00  0.00    -0.294 OA
BRANCH  11  13
ATOM     13  C   UNL     1     213.728 152.869 182.811  1.00  0.00    -0.002 C 
ATOM     14  C   UNL     1     213.094 154.071 182.947  1.00  0.00    -0.069 C 
ATOM     15  C   UNL     1     213.529 155.291 182.166  1.00  0.00     0.039 C 
ATOM     16  C   UNL     1     211.933 154.238 183.901  1.00  0.00     0.039 C 
BRANCH  13  17
ATOM     17  C   UNL     1     214.956 152.694 181.946  1.00  0.00     0.066 CG0
ATOM     18  G   UNL     1     214.671 152.987 180.485  1.00  0.00     0.000 G0
ENDBRANCH  13  17
ENDBRANCH  11  13
ENDBRANCH  10  11
ENDBRANCH   1  10
TORSDOF 0
ENDMDL
MODEL 7
REMARK VINA RESULT:    -4.278      2.190      4.659
REMARK INTER + INTRA:          -5.898
REMARK INTER:                  -6.023
REMARK INTRA:                   0.126
REMARK UNBOUND:                 0.132
REMARK SMILES CC1=CCC(=C(C)C)C(=O)CC(C)=CCC1
REMARK SMILES IDX 12 1 14 2 13 3 15 4 16 5 2 6 1 7 3 8 11 10 9 11 10 12 5 13
REMARK SMILES IDX 6 14 7 15 8 16 4 17
REMARK H PARENT
REMARK Flexibility Score: 60.00
ROOT
ATOM      1  C   UNL     1     213.202 155.698 182.243  1.00  0.00    -0.070 C 
ATOM      2  C   UNL     1     212.100 155.493 183.018  1.00  0.00    -0.027 C 
ATOM      3  C   UNL     1     213.676 157.127 182.103  1.00  0.00     0.039 C 
ENDROOT
BRANCH   2   4
ATOM      4  C   UNL     1     211.312 154.228 183.342  1.00  0.00     0.032 C 
BRANCH   4   5
ATOM      5  C   UNL     1     211.900 153.286 184.399  1.00  0.00     0.034 C 
BRANCH   5   6
ATOM      6  C   UNL     1     212.782 152.122 183.926  1.00  0.00    -0.077 C 
ATOM      7  C   UNL     1     213.729 151.562 184.966  1.00  0.00     0.039 C 
ATOM      8  C   UNL     1     212.892 151.576 182.679  1.00  0.00    -0.023 CG0
ATOM      9  G   UNL     1     212.172 151.906 181.384  1.00  0.00     0.000 G0
ENDBRANCH   5   6
ENDBRANCH   4   5
ENDBRANCH   2   4
BRANCH   1  10
ATOM     10  C   UNL     1     214.010 154.639 181.510  1.00  0.00     0.111 C 
BRANCH  10  11
ATOM     11  C   UNL     1     213.221 153.999 180.408  1.00  0.00     0.163 C 
ATOM     12  O   UNL     1     212.653 154.735 179.557  1.00  0.00    -0.294 OA
BRANCH  11  13
ATOM     13  C   UNL     1     213.072 152.523 180.339  1.00  0.00    -0.002 C 
ATOM     14  C   UNL     1     213.704 151.786 179.380  1.00  0.00    -0.069 C 
ATOM     15  C   UNL     1     213.470 150.299 179.239  1.00  0.00     0.039 C 
ATOM     16  C   UNL     1     214.682 152.427 178.421  1.00  0.00     0.039 C 
BRANCH  13  17
ATOM     17  C   UNL     1     212.168 151.897 181.379  1.00  0.00     0.066 CG0
ATOM     18  G   UNL     1     212.912 151.581 182.663  1.00  0.00     0.000 G0
ENDBRANCH  13  17
ENDBRANCH  11  13
ENDBRANCH  10  11
ENDBRANCH   1  10
TORSDOF 0
ENDMDL
MODEL 8
REMARK VINA RESULT:    -4.267      2.520      4.597
REMARK INTER + INTRA:          -5.881
REMARK INTER:                  -5.826
REMARK INTRA:                  -0.055
REMARK UNBOUND:                 0.132
REMARK SMILES CC1=CCC(=C(C)C)C(=O)CC(C)=CCC1
REMARK SMILES IDX 12 1 14 2 13 3 15 4 16 5 2 6 1 7 3 8 11 10 9 11 10 12 5 13
REMARK SMILES IDX 6 14 7 15 8 16 4 17
REMARK H PARENT
REMARK Flexibility Score: 60.00
ROOT
ATOM      1  C   UNL     1     215.067 151.377 180.465  1.00  0.00    -0.070 C 
ATOM      2  C   UNL     1     214.918 150.339 181.336  1.00  0.00    -0.027 C 
ATOM      3  C   UNL     1     215.463 151.022 179.050  1.00  0.00     0.039 C 
ENDROOT
BRANCH   2   4
ATOM      4  C   UNL     1     214.590 150.308 182.825  1.00  0.00     0.032 C 
BRANCH   4   5
ATOM      5  C   UNL     1     213.195 150.785 183.247  1.00  0.00     0.034 C 
BRANCH   5   6
ATOM      6  C   UNL     1     213.089 152.059 184.098  1.00  0.00    -0.077 C 
ATOM      7  C   UNL     1     213.616 151.940 185.512  1.00  0.00     0.039 C 
ATOM      8  C   UNL     1     212.512 153.257 183.785  1.00  0.00    -0.023 CG0
ATOM      9  G   UNL     1     211.831 153.729 182.514  1.00  0.00     0.000 G0
ENDBRANCH   5   6
ENDBRANCH   4   5
ENDBRANCH   2   4
BRANCH   1  10
ATOM     10  C   UNL     1     214.870 152.854 180.766  1.00  0.00     0.111 C 
BRANCH  10  11
ATOM     11  C   UNL     1     213.439 153.270 180.600  1.00  0.00     0.163 C 
ATOM     12  O   UNL     1     212.766 152.778 179.655  1.00  0.00    -0.294 OA
BRANCH  11  13
ATOM     13  C   UNL     1     212.832 154.279 181.505  1.00  0.00    -0.002 C 
ATOM     14  C   UNL     1     213.166 155.601 181.428  1.00  0.00    -0.069 C 
ATOM     15  C   UNL     1     212.633 156.613 182.417  1.00  0.00     0.039 C 
ATOM     16  C   UNL     1     214.076 156.113 180.334  1.00  0.00     0.039 C 
BRANCH  13  17
ATOM     17  C   UNL     1     211.843 153.751 182.522  1.00  0.00     0.066 CG0
ATOM     18  G   UNL     1     212.529 153.265 183.785  1.00  0.00     0.000 G0
ENDBRANCH  13  17
ENDBRANCH  11  13
ENDBRANCH  10  11
ENDBRANCH   1  10
TORSDOF 0
ENDMDL
MODEL 9
REMARK VINA RESULT:    -4.200      2.343      4.130
REMARK INTER + INTRA:          -5.787
REMARK INTER:                  -6.096
REMARK INTRA:                   0.309
REMARK UNBOUND:                 0.132
REMARK SMILES CC1=CCC(=C(C)C)C(=O)CC(C)=CCC1
REMARK SMILES IDX 12 1 14 2 13 3 15 4 16 5 2 6 1 7 3 8 11 10 9 11 10 12 5 13
REMARK SMILES IDX 6 14 7 15 8 16 4 17
REMARK H PARENT
REMARK Flexibility Score: 60.00
ROOT
ATOM      1  C   UNL     1     213.898 153.587 178.865  1.00  0.00    -0.070 C 
ATOM      2  C   UNL     1     213.333 154.828 178.877  1.00  0.00    -0.027 C 
ATOM      3  C   UNL     1     213.224 152.544 178.002  1.00  0.00     0.039 C 
ENDROOT
BRANCH   2   4
ATOM      4  C   UNL     1     213.687 156.092 179.651  1.00  0.00     0.032 C 
BRANCH   4   5
ATOM      5  C   UNL     1     214.323 155.913 181.035  1.00  0.00     0.034 C 
BRANCH   5   6
ATOM      6  C   UNL     1     213.422 155.474 182.198  1.00  0.00    -0.077 C 
ATOM      7  C   UNL     1     212.426 156.510 182.674  1.00  0.00     0.039 C 
ATOM      8  C   UNL     1     213.449 154.312 182.917  1.00  0.00    -0.023 CG0
ATOM      9  G   UNL     1     214.331 153.085 182.787  1.00  0.00     0.000 G0
ENDBRANCH   5   6
ENDBRANCH   4   5
ENDBRANCH   2   4
BRANCH   1  10
ATOM     10  C   UNL     1     215.139 153.143 179.623  1.00  0.00     0.111 C 
BRANCH  10  11
ATOM     11  C   UNL     1     214.846 152.006 180.554  1.00  0.00     0.163 C 
ATOM     12  O   UNL     1     215.404 150.894 180.353  1.00  0.00    -0.294 OA
BRANCH  11  13
ATOM     13  C   UNL     1     213.883 152.168 181.673  1.00  0.00    -0.002 C 
ATOM     14  C   UNL     1     212.673 151.536 181.671  1.00  0.00    -0.069 C 
ATOM     15  C   UNL     1     211.646 151.783 182.753  1.00  0.00     0.039 C 
ATOM     16  C   UNL     1     212.312 150.546 180.587  1.00  0.00     0.039 C 
BRANCH  13  17
ATOM     17  C   UNL     1     214.317 153.084 182.797  1.00  0.00     0.066 CG0
ATOM     18  G   UNL     1     213.431 154.311 182.906  1.00  0.00     0.000 G0
ENDBRANCH  13  17
ENDBRANCH  11  13
ENDBRANCH  10  11
ENDBRANCH   1  10
TORSDOF 0
ENDMDL
