MODEL 1
REMARK VINA RESULT:    -4.553      0.000      0.000
REMARK INTER + INTRA:          -5.806
REMARK INTER:                  -5.618
REMARK INTRA:                  -0.188
REMARK UNBOUND:                -0.188
REMARK SMILES CCCCC=CC(C)=O
REMARK SMILES IDX 4 1 3 2 2 3 1 4 5 5 6 6 7 7 9 8 8 9
REMARK H PARENT
REMARK Flexibility Score: inf
ROOT
ATOM      1  C   UNL     1     -27.466  21.113 -34.318  1.00  0.00     0.027 C 
ENDROOT
BRANCH   1   2
ATOM      2  C   UNL     1     -28.536  21.244 -33.227  1.00  0.00     0.004 C 
BRANCH   2   3
ATOM      3  C   UNL     1     -28.999  19.865 -32.743  1.00  0.00    -0.003 C 
ATOM      4  C   UNL     1     -30.208  19.379 -33.538  1.00  0.00     0.004 C 
ENDBRANCH   2   3
ENDBRANCH   1   2
BRANCH   1   5
ATOM      5  C   UNL     1     -26.278  20.338 -33.824  1.00  0.00    -0.023 C 
ATOM      6  C   UNL     1     -25.044  20.582 -34.282  1.00  0.00     0.042 C 
BRANCH   6   7
ATOM      7  C   UNL     1     -23.867  19.824 -33.821  1.00  0.00     0.152 C 
ATOM      8  O   UNL     1     -23.038  19.353 -34.647  1.00  0.00    -0.295 OA
ATOM      9  C   UNL     1     -23.652  19.608 -32.358  1.00  0.00     0.093 C 
ENDBRANCH   6   7
ENDBRANCH   1   5
TORSDOF 4
ENDMDL
MODEL 2
REMARK VINA RESULT:    -4.500      1.476      2.022
REMARK INTER + INTRA:          -5.740
REMARK INTER:                  -5.498
REMARK INTRA:                  -0.242
REMARK UNBOUND:                -0.188
REMARK SMILES CCCCC=CC(C)=O
REMARK SMILES IDX 4 1 3 2 2 3 1 4 5 5 6 6 7 7 9 8 8 9
REMARK H PARENT
REMARK Flexibility Score: inf
ROOT
ATOM      1  C   UNL     1     -26.487  20.840 -34.414  1.00  0.00     0.027 C 
ENDROOT
BRANCH   1   2
ATOM      2  C   UNL     1     -27.609  20.101 -33.673  1.00  0.00     0.004 C 
BRANCH   2   3
ATOM      3  C   UNL     1     -28.651  21.086 -33.133  1.00  0.00    -0.003 C 
ATOM      4  C   UNL     1     -28.111  22.513 -33.125  1.00  0.00     0.004 C 
ENDBRANCH   2   3
ENDBRANCH   1   2
BRANCH   1   5
ATOM      5  C   UNL     1     -25.151  20.570 -33.786  1.00  0.00    -0.023 C 
ATOM      6  C   UNL     1     -25.004  19.659 -32.817  1.00  0.00     0.042 C 
BRANCH   6   7
ATOM      7  C   UNL     1     -23.704  19.389 -32.177  1.00  0.00     0.152 C 
ATOM      8  O   UNL     1     -23.276  18.209 -32.057  1.00  0.00    -0.295 OA
ATOM      9  C   UNL     1     -22.882  20.526 -31.662  1.00  0.00     0.093 C 
ENDBRANCH   6   7
ENDBRANCH   1   5
TORSDOF 4
ENDMDL
MODEL 3
REMARK VINA RESULT:    -4.387      2.750      5.319
REMARK INTER + INTRA:          -5.601
REMARK INTER:                  -5.450
REMARK INTRA:                  -0.150
REMARK UNBOUND:                -0.188
REMARK SMILES CCCCC=CC(C)=O
REMARK SMILES IDX 4 1 3 2 2 3 1 4 5 5 6 6 7 7 9 8 8 9
REMARK H PARENT
REMARK Flexibility Score: inf
ROOT
ATOM      1  C   UNL     1     -26.783  21.004 -34.293  1.00  0.00     0.027 C 
ENDROOT
BRANCH   1   2
ATOM      2  C   UNL     1     -25.853  20.057 -33.524  1.00  0.00     0.004 C 
BRANCH   2   3
ATOM      3  C   UNL     1     -24.425  20.611 -33.474  1.00  0.00    -0.003 C 
ATOM      4  C   UNL     1     -23.598  19.910 -32.400  1.00  0.00     0.004 C 
ENDBRANCH   2   3
ENDBRANCH   1   2
BRANCH   1   5
ATOM      5  C   UNL     1     -28.203  20.872 -33.822  1.00  0.00    -0.023 C 
ATOM      6  C   UNL     1     -28.633  19.771 -33.194  1.00  0.00     0.042 C 
BRANCH   6   7
ATOM      7  C   UNL     1     -30.025  19.617 -32.736  1.00  0.00     0.152 C 
ATOM      8  O   UNL     1     -30.350  19.899 -31.551  1.00  0.00    -0.295 OA
ATOM      9  C   UNL     1     -31.066  19.118 -33.685  1.00  0.00     0.093 C 
ENDBRANCH   6   7
ENDBRANCH   1   5
TORSDOF 4
ENDMDL
MODEL 4
REMARK VINA RESULT:    -4.234      2.322      4.933
REMARK INTER + INTRA:          -5.411
REMARK INTER:                  -5.203
REMARK INTRA:                  -0.208
REMARK UNBOUND:                -0.188
REMARK SMILES CCCCC=CC(C)=O
REMARK SMILES IDX 4 1 3 2 2 3 1 4 5 5 6 6 7 7 9 8 8 9
REMARK H PARENT
REMARK Flexibility Score: inf
ROOT
ATOM      1  C   UNL     1     -24.917  20.300 -34.821  1.00  0.00     0.027 C 
ENDROOT
BRANCH   1   2
ATOM      2  C   UNL     1     -23.612  19.944 -34.098  1.00  0.00     0.004 C 
BRANCH   2   3
ATOM      3  C   UNL     1     -23.870  19.632 -32.620  1.00  0.00    -0.003 C 
ATOM      4  C   UNL     1     -22.948  20.444 -31.714  1.00  0.00     0.004 C 
ENDBRANCH   2   3
ENDBRANCH   1   2
BRANCH   1   5
ATOM      5  C   UNL     1     -25.997  20.665 -33.844  1.00  0.00    -0.023 C 
ATOM      6  C   UNL     1     -27.118  21.281 -34.238  1.00  0.00     0.042 C 
BRANCH   6   7
ATOM      7  C   UNL     1     -28.185  21.660 -33.293  1.00  0.00     0.152 C 
ATOM      8  O   UNL     1     -28.336  22.860 -32.938  1.00  0.00    -0.295 OA
ATOM      9  C   UNL     1     -29.097  20.610 -32.748  1.00  0.00     0.093 C 
ENDBRANCH   6   7
ENDBRANCH   1   5
TORSDOF 4
ENDMDL
MODEL 5
REMARK VINA RESULT:    -4.151     11.490     13.938
REMARK INTER + INTRA:          -5.309
REMARK INTER:                  -5.053
REMARK INTRA:                  -0.256
REMARK UNBOUND:                -0.188
REMARK SMILES CCCCC=CC(C)=O
REMARK SMILES IDX 4 1 3 2 2 3 1 4 5 5 6 6 7 7 9 8 8 9
REMARK H PARENT
REMARK Flexibility Score: inf
ROOT
ATOM      1  C   UNL     1     -13.478  16.491 -30.575  1.00  0.00     0.027 C 
ENDROOT
BRANCH   1   2
ATOM      2  C   UNL     1     -12.501  15.514 -31.239  1.00  0.00     0.004 C 
BRANCH   2   3
ATOM      3  C   UNL     1     -11.342  15.171 -30.296  1.00  0.00    -0.003 C 
ATOM      4  C   UNL     1     -11.844  14.901 -28.880  1.00  0.00     0.004 C 
ENDBRANCH   2   3
ENDBRANCH   1   2
BRANCH   1   5
ATOM      5  C   UNL     1     -14.903  16.114 -30.862  1.00  0.00    -0.023 C 
ATOM      6  C   UNL     1     -15.207  15.059 -31.627  1.00  0.00     0.042 C 
BRANCH   6   7
ATOM      7  C   UNL     1     -16.599  14.680 -31.932  1.00  0.00     0.152 C 
ATOM      8  O   UNL     1     -17.210  15.196 -32.907  1.00  0.00    -0.295 OA
ATOM      9  C   UNL     1     -17.296  13.672 -31.076  1.00  0.00     0.093 C 
ENDBRANCH   6   7
ENDBRANCH   1   5
TORSDOF 4
ENDMDL
MODEL 6
REMARK VINA RESULT:    -4.013      7.454      8.212
REMARK INTER + INTRA:          -5.139
REMARK INTER:                  -4.935
REMARK INTRA:                  -0.204
REMARK UNBOUND:                -0.188
REMARK SMILES CCCCC=CC(C)=O
REMARK SMILES IDX 4 1 3 2 2 3 1 4 5 5 6 6 7 7 9 8 8 9
REMARK H PARENT
REMARK Flexibility Score: inf
ROOT
ATOM      1  C   UNL     1     -28.222  12.650 -28.345  1.00  0.00     0.027 C 
ENDROOT
BRANCH   1   2
ATOM      2  C   UNL     1     -29.626  12.364 -28.890  1.00  0.00     0.004 C 
BRANCH   2   3
ATOM      3  C   UNL     1     -29.562  11.457 -30.124  1.00  0.00    -0.003 C 
ATOM      4  C   UNL     1     -30.739  11.715 -31.061  1.00  0.00     0.004 C 
ENDBRANCH   2   3
ENDBRANCH   1   2
BRANCH   1   5
ATOM      5  C   UNL     1     -27.236  12.850 -29.460  1.00  0.00    -0.023 C 
ATOM      6  C   UNL     1     -26.693  14.047 -29.708  1.00  0.00     0.042 C 
BRANCH   6   7
ATOM      7  C   UNL     1     -25.734  14.267 -30.806  1.00  0.00     0.152 C 
ATOM      8  O   UNL     1     -25.965  13.824 -31.964  1.00  0.00    -0.295 OA
ATOM      9  C   UNL     1     -24.472  15.023 -30.545  1.00  0.00     0.093 C 
ENDBRANCH   6   7
ENDBRANCH   1   5
TORSDOF 4
ENDMDL
MODEL 7
REMARK VINA RESULT:    -4.000      6.855      7.549
REMARK INTER + INTRA:          -5.123
REMARK INTER:                  -4.889
REMARK INTRA:                  -0.234
REMARK UNBOUND:                -0.188
REMARK SMILES CCCCC=CC(C)=O
REMARK SMILES IDX 4 1 3 2 2 3 1 4 5 5 6 6 7 7 9 8 8 9
REMARK H PARENT
REMARK Flexibility Score: inf
ROOT
ATOM      1  C   UNL     1     -27.225  12.474 -30.403  1.00  0.00     0.027 C 
ENDROOT
BRANCH   1   2
ATOM      2  C   UNL     1     -27.485  12.670 -28.905  1.00  0.00     0.004 C 
BRANCH   2   3
ATOM      3  C   UNL     1     -28.981  12.563 -28.588  1.00  0.00    -0.003 C 
ATOM      4  C   UNL     1     -29.808  12.439 -29.865  1.00  0.00     0.004 C 
ENDBRANCH   2   3
ENDBRANCH   1   2
BRANCH   1   5
ATOM      5  C   UNL     1     -26.219  13.465 -30.914  1.00  0.00    -0.023 C 
ATOM      6  C   UNL     1     -25.538  14.263 -30.083  1.00  0.00     0.042 C 
BRANCH   6   7
ATOM      7  C   UNL     1     -24.556  15.251 -30.565  1.00  0.00     0.152 C 
ATOM      8  O   UNL     1     -24.923  16.402 -30.926  1.00  0.00    -0.295 OA
ATOM      9  C   UNL     1     -23.109  14.885 -30.628  1.00  0.00     0.093 C 
ENDBRANCH   6   7
ENDBRANCH   1   5
TORSDOF 4
ENDMDL
MODEL 8
REMARK VINA RESULT:    -3.805     11.877     14.468
REMARK INTER + INTRA:          -4.882
REMARK INTER:                  -4.657
REMARK INTRA:                  -0.225
REMARK UNBOUND:                -0.188
REMARK SMILES CCCCC=CC(C)=O
REMARK SMILES IDX 4 1 3 2 2 3 1 4 5 5 6 6 7 7 9 8 8 9
REMARK H PARENT
REMARK Flexibility Score: inf
ROOT
ATOM      1  C   UNL     1     -12.773  15.724 -30.274  1.00  0.00     0.027 C 
ENDROOT
BRANCH   1   2
ATOM      2  C   UNL     1     -11.809  14.850 -29.463  1.00  0.00     0.004 C 
BRANCH   2   3
ATOM      3  C   UNL     1     -12.577  13.868 -28.570  1.00  0.00    -0.003 C 
ATOM      4  C   UNL     1     -12.024  13.868 -27.148  1.00  0.00     0.004 C 
ENDBRANCH   2   3
ENDBRANCH   1   2
BRANCH   1   5
ATOM      5  C   UNL     1     -14.044  14.988 -30.585  1.00  0.00    -0.023 C 
ATOM      6  C   UNL     1     -14.907  15.440 -31.503  1.00  0.00     0.042 C 
BRANCH   6   7
ATOM      7  C   UNL     1     -16.167  14.739 -31.814  1.00  0.00     0.152 C 
ATOM      8  O   UNL     1     -16.939  15.169 -32.713  1.00  0.00    -0.295 OA
ATOM      9  C   UNL     1     -16.535  13.507 -31.054  1.00  0.00     0.093 C 
ENDBRANCH   6   7
ENDBRANCH   1   5
TORSDOF 4
ENDMDL
