MODEL 1
REMARK VINA RESULT:     1.691      0.000      0.000
REMARK INTER + INTRA:           2.593
REMARK INTER:                   2.086
REMARK INTRA:                   0.507
REMARK UNBOUND:                 0.507
REMARK SMILES COc1cc(-c2oc3cc(O)cc(O)c3c(=O)c2O)ccc1O
REMARK SMILES IDX 6 1 18 2 16 3 17 4 15 5 13 6 12 7 10 8 9 9 8 10 7 11 5 12
REMARK SMILES IDX 3 13 22 14 4 15 21 16 20 17 2 18 1 19 23 20 19 22 14 24
REMARK SMILES IDX 11 26
REMARK H PARENT 23 21 19 23 14 25 11 27
REMARK Flexibility Score: inf
ROOT
ATOM      1  C   UNL     1      13.138  -9.772 -28.198  1.00  0.00     0.180 A 
ATOM      2  C   UNL     1      13.664 -10.470 -27.097  1.00  0.00     0.208 A 
ATOM      3  C   UNL     1      13.174 -11.753 -26.805  1.00  0.00     0.238 A 
ATOM      4  O   UNL     1      13.610 -12.349 -25.786  1.00  0.00    -0.285 OA
ATOM      5  C   UNL     1      12.177 -12.329 -27.629  1.00  0.00     0.111 A 
ATOM      6  C   UNL     1      11.636 -13.638 -27.452  1.00  0.00     0.134 A 
ATOM      7  C   UNL     1      10.561 -14.054 -28.246  1.00  0.00     0.093 A 
ATOM      8  C   UNL     1      10.050 -13.234 -29.255  1.00  0.00     0.123 A 
ATOM      9  C   UNL     1      10.611 -11.978 -29.475  1.00  0.00     0.094 A 
ATOM     10  C   UNL     1      11.660 -11.520 -28.674  1.00  0.00     0.146 A 
ATOM     11  O   UNL     1      12.158 -10.312 -28.912  1.00  0.00    -0.452 OA
ENDROOT
BRANCH   1  12
ATOM     12  C   UNL     1      13.624  -8.427 -28.582  1.00  0.00     0.025 A 
ATOM     13  C   UNL     1      13.416  -5.990 -28.566  1.00  0.00     0.161 A 
ATOM     14  C   UNL     1      14.613  -5.890 -29.288  1.00  0.00     0.157 A 
ATOM     15  C   UNL     1      12.929  -7.263 -28.209  1.00  0.00     0.062 A 
ATOM     16  C   UNL     1      15.320  -7.048 -29.641  1.00  0.00     0.051 A 
ATOM     17  C   UNL     1      14.832  -8.306 -29.285  1.00  0.00     0.016 A 
BRANCH  13  18
ATOM     18  O   UNL     1      12.743  -4.807 -28.221  1.00  0.00    -0.493 OA
ATOM     19  C   UNL     1      12.819  -3.592 -28.957  1.00  0.00     0.278 C 
ENDBRANCH  13  18
BRANCH  14  20
ATOM     20  O   UNL     1      15.100  -4.634 -29.647  1.00  0.00    -0.504 OA
ATOM     21  H   UNL     1      14.477  -3.880 -29.915  1.00  0.00     0.293 HD
ENDBRANCH  14  20
ENDBRANCH   1  12
BRANCH   2  22
ATOM     22  O   UNL     1      14.633  -9.874 -26.284  1.00  0.00    -0.502 OA
ATOM     23  H   UNL     1      14.498  -8.968 -25.851  1.00  0.00     0.293 HD
ENDBRANCH   2  22
BRANCH   6  24
ATOM     24  O   UNL     1      12.132 -14.570 -26.535  1.00  0.00    -0.507 OA
ATOM     25  H   UNL     1      13.111 -14.732 -26.354  1.00  0.00     0.293 HD
ENDBRANCH   6  24
BRANCH   8  26
ATOM     26  O   UNL     1       8.990 -13.663 -30.051  1.00  0.00    -0.508 OA
ATOM     27  H   UNL     1       9.119 -14.361 -30.774  1.00  0.00     0.293 HD
ENDBRANCH   8  26
TORSDOF 6
ENDMDL
MODEL 2
REMARK VINA RESULT:     2.734      1.911      2.987
REMARK INTER + INTRA:           3.881
REMARK INTER:                   3.050
REMARK INTRA:                   0.830
REMARK UNBOUND:                 0.507
REMARK SMILES COc1cc(-c2oc3cc(O)cc(O)c3c(=O)c2O)ccc1O
REMARK SMILES IDX 6 1 18 2 16 3 17 4 15 5 13 6 12 7 10 8 9 9 8 10 7 11 5 12
REMARK SMILES IDX 3 13 22 14 4 15 21 16 20 17 2 18 1 19 23 20 19 22 14 24
REMARK SMILES IDX 11 26
REMARK H PARENT 23 21 19 23 14 25 11 27
REMARK Flexibility Score: inf
ROOT
ATOM      1  C   UNL     1      12.543  -9.968 -27.781  1.00  0.00     0.180 A 
ATOM      2  C   UNL     1      12.245 -11.079 -28.590  1.00  0.00     0.208 A 
ATOM      3  C   UNL     1      11.634 -12.201 -28.009  1.00  0.00     0.238 A 
ATOM      4  O   UNL     1      11.420 -13.213 -28.726  1.00  0.00    -0.285 OA
ATOM      5  C   UNL     1      11.313 -12.191 -26.629  1.00  0.00     0.111 A 
ATOM      6  C   UNL     1      10.656 -13.257 -25.943  1.00  0.00     0.134 A 
ATOM      7  C   UNL     1      10.506 -13.194 -24.553  1.00  0.00     0.093 A 
ATOM      8  C   UNL     1      10.930 -12.075 -23.832  1.00  0.00     0.123 A 
ATOM      9  C   UNL     1      11.518 -11.004 -24.500  1.00  0.00     0.094 A 
ATOM     10  C   UNL     1      11.715 -11.054 -25.883  1.00  0.00     0.146 A 
ATOM     11  O   UNL     1      12.290 -10.016 -26.479  1.00  0.00    -0.452 OA
ENDROOT
BRANCH   1  12
ATOM     12  C   UNL     1      13.164  -8.740 -28.329  1.00  0.00     0.025 A 
ATOM     13  C   UNL     1      13.111  -6.340 -28.796  1.00  0.00     0.161 A 
ATOM     14  C   UNL     1      14.403  -6.423 -29.332  1.00  0.00     0.157 A 
ATOM     15  C   UNL     1      12.497  -7.503 -28.289  1.00  0.00     0.062 A 
ATOM     16  C   UNL     1      15.078  -7.651 -29.353  1.00  0.00     0.051 A 
ATOM     17  C   UNL     1      14.465  -8.799 -28.849  1.00  0.00     0.016 A 
BRANCH  13  18
ATOM     18  O   UNL     1      12.472  -5.090 -28.783  1.00  0.00    -0.493 OA
ATOM     19  C   UNL     1      13.120  -3.850 -29.045  1.00  0.00     0.278 C 
ENDBRANCH  13  18
BRANCH  14  20
ATOM     20  O   UNL     1      15.015  -5.277 -29.839  1.00  0.00    -0.504 OA
ATOM     21  H   UNL     1      14.475  -4.461 -30.104  1.00  0.00     0.293 HD
ENDBRANCH  14  20
ENDBRANCH   1  12
BRANCH   2  22
ATOM     22  O   UNL     1      12.591 -11.075 -29.944  1.00  0.00    -0.502 OA
ATOM     23  H   UNL     1      13.363 -10.531 -30.307  1.00  0.00     0.293 HD
ENDBRANCH   2  22
BRANCH   6  24
ATOM     24  O   UNL     1      10.113 -14.378 -26.580  1.00  0.00    -0.507 OA
ATOM     25  H   UNL     1       9.458 -15.017 -26.156  1.00  0.00     0.293 HD
ENDBRANCH   6  24
BRANCH   8  26
ATOM     26  O   UNL     1      10.762 -12.014 -22.450  1.00  0.00    -0.508 OA
ATOM     27  H   UNL     1      10.852 -11.142 -21.944  1.00  0.00     0.293 HD
ENDBRANCH   8  26
TORSDOF 6
ENDMDL
MODEL 3
REMARK VINA RESULT:     2.787      2.014      2.823
REMARK INTER + INTRA:           3.946
REMARK INTER:                   2.544
REMARK INTRA:                   1.402
REMARK UNBOUND:                 0.507
REMARK SMILES COc1cc(-c2oc3cc(O)cc(O)c3c(=O)c2O)ccc1O
REMARK SMILES IDX 6 1 18 2 16 3 17 4 15 5 13 6 12 7 10 8 9 9 8 10 7 11 5 12
REMARK SMILES IDX 3 13 22 14 4 15 21 16 20 17 2 18 1 19 23 20 19 22 14 24
REMARK SMILES IDX 11 26
REMARK H PARENT 23 21 19 23 14 25 11 27
REMARK Flexibility Score: inf
ROOT
ATOM      1  C   UNL     1      13.299  -9.727 -27.598  1.00  0.00     0.180 A 
ATOM      2  C   UNL     1      12.020  -9.906 -27.043  1.00  0.00     0.208 A 
ATOM      3  C   UNL     1      11.709 -11.130 -26.430  1.00  0.00     0.238 A 
ATOM      4  O   UNL     1      10.545 -11.305 -25.984  1.00  0.00    -0.285 OA
ATOM      5  C   UNL     1      12.687 -12.153 -26.364  1.00  0.00     0.111 A 
ATOM      6  C   UNL     1      12.495 -13.418 -25.732  1.00  0.00     0.134 A 
ATOM      7  C   UNL     1      13.485 -14.402 -25.842  1.00  0.00     0.093 A 
ATOM      8  C   UNL     1      14.687 -14.144 -26.505  1.00  0.00     0.123 A 
ATOM      9  C   UNL     1      14.908 -12.892 -27.074  1.00  0.00     0.094 A 
ATOM     10  C   UNL     1      13.924 -11.902 -27.013  1.00  0.00     0.146 A 
ATOM     11  O   UNL     1      14.171 -10.727 -27.579  1.00  0.00    -0.452 OA
ENDROOT
BRANCH   1  12
ATOM     12  C   UNL     1      13.707  -8.454 -28.237  1.00  0.00     0.025 A 
ATOM     13  C   UNL     1      13.415  -6.055 -28.611  1.00  0.00     0.161 A 
ATOM     14  C   UNL     1      14.552  -6.051 -29.430  1.00  0.00     0.157 A 
ATOM     15  C   UNL     1      13.000  -7.260 -28.010  1.00  0.00     0.062 A 
ATOM     16  C   UNL     1      15.271  -7.235 -29.640  1.00  0.00     0.051 A 
ATOM     17  C   UNL     1      14.856  -8.426 -29.042  1.00  0.00     0.016 A 
BRANCH  13  18
ATOM     18  O   UNL     1      12.728  -4.847 -28.416  1.00  0.00    -0.493 OA
ATOM     19  C   UNL     1      13.116  -3.598 -28.978  1.00  0.00     0.278 C 
ENDBRANCH  13  18
BRANCH  14  20
ATOM     20  O   UNL     1      14.966  -4.863 -30.030  1.00  0.00    -0.504 OA
ATOM     21  H   UNL     1      15.641  -4.251 -29.585  1.00  0.00     0.293 HD
ENDBRANCH  14  20
ENDBRANCH   1  12
BRANCH   2  22
ATOM     22  O   UNL     1      11.063  -8.892 -27.138  1.00  0.00    -0.502 OA
ATOM     23  H   UNL     1      10.083  -9.047 -26.935  1.00  0.00     0.293 HD
ENDBRANCH   2  22
BRANCH   6  24
ATOM     24  O   UNL     1      11.371 -13.745 -24.967  1.00  0.00    -0.507 OA
ATOM     25  H   UNL     1      10.417 -13.592 -25.254  1.00  0.00     0.293 HD
ENDBRANCH   6  24
BRANCH   8  26
ATOM     26  O   UNL     1      15.673 -15.124 -26.596  1.00  0.00    -0.508 OA
ATOM     27  H   UNL     1      16.348 -15.127 -27.350  1.00  0.00     0.293 HD
ENDBRANCH   8  26
TORSDOF 6
ENDMDL
MODEL 4
REMARK VINA RESULT:     2.855      1.125      1.651
REMARK INTER + INTRA:           4.029
REMARK INTER:                   2.954
REMARK INTRA:                   1.075
REMARK UNBOUND:                 0.507
REMARK SMILES COc1cc(-c2oc3cc(O)cc(O)c3c(=O)c2O)ccc1O
REMARK SMILES IDX 6 1 18 2 16 3 17 4 15 5 13 6 12 7 10 8 9 9 8 10 7 11 5 12
REMARK SMILES IDX 3 13 22 14 4 15 21 16 20 17 2 18 1 19 23 20 19 22 14 24
REMARK SMILES IDX 11 26
REMARK H PARENT 23 21 19 23 14 25 11 27
REMARK Flexibility Score: inf
ROOT
ATOM      1  C   UNL     1      12.565  -9.781 -28.095  1.00  0.00     0.180 A 
ATOM      2  C   UNL     1      13.524 -10.276 -27.194  1.00  0.00     0.208 A 
ATOM      3  C   UNL     1      13.521 -11.644 -26.880  1.00  0.00     0.238 A 
ATOM      4  O   UNL     1      14.346 -12.071 -26.031  1.00  0.00    -0.285 OA
ATOM      5  C   UNL     1      12.571 -12.503 -27.485  1.00  0.00     0.111 A 
ATOM      6  C   UNL     1      12.502 -13.912 -27.271  1.00  0.00     0.134 A 
ATOM      7  C   UNL     1      11.440 -14.642 -27.819  1.00  0.00     0.093 A 
ATOM      8  C   UNL     1      10.482 -14.025 -28.626  1.00  0.00     0.123 A 
ATOM      9  C   UNL     1      10.575 -12.660 -28.889  1.00  0.00     0.094 A 
ATOM     10  C   UNL     1      11.602 -11.898 -28.326  1.00  0.00     0.146 A 
ATOM     11  O   UNL     1      11.647 -10.599 -28.594  1.00  0.00    -0.452 OA
ENDROOT
BRANCH   1  12
ATOM     12  C   UNL     1      12.523  -8.355 -28.494  1.00  0.00     0.025 A 
ATOM     13  C   UNL     1      13.612  -6.189 -28.819  1.00  0.00     0.161 A 
ATOM     14  C   UNL     1      12.408  -5.666 -29.313  1.00  0.00     0.157 A 
ATOM     15  C   UNL     1      13.665  -7.538 -28.416  1.00  0.00     0.062 A 
ATOM     16  C   UNL     1      11.275  -6.484 -29.412  1.00  0.00     0.051 A 
ATOM     17  C   UNL     1      11.334  -7.820 -29.012  1.00  0.00     0.016 A 
BRANCH  13  18
ATOM     18  O   UNL     1      14.728  -5.341 -28.746  1.00  0.00    -0.493 OA
ATOM     19  C   UNL     1      14.662  -3.936 -28.529  1.00  0.00     0.278 C 
ENDBRANCH  13  18
BRANCH  14  20
ATOM     20  O   UNL     1      12.348  -4.331 -29.710  1.00  0.00    -0.504 OA
ATOM     21  H   UNL     1      13.107  -3.894 -30.220  1.00  0.00     0.293 HD
ENDBRANCH  14  20
ENDBRANCH   1  12
BRANCH   2  22
ATOM     22  O   UNL     1      14.438  -9.407 -26.592  1.00  0.00    -0.502 OA
ATOM     23  H   UNL     1      15.435  -9.465 -26.758  1.00  0.00     0.293 HD
ENDBRANCH   2  22
BRANCH   6  24
ATOM     24  O   UNL     1      13.458 -14.642 -26.557  1.00  0.00    -0.507 OA
ATOM     25  H   UNL     1      14.052 -14.259 -25.837  1.00  0.00     0.293 HD
ENDBRANCH   6  24
BRANCH   8  26
ATOM     26  O   UNL     1       9.437 -14.762 -29.180  1.00  0.00    -0.508 OA
ATOM     27  H   UNL     1       9.372 -14.921 -30.178  1.00  0.00     0.293 HD
ENDBRANCH   8  26
TORSDOF 6
ENDMDL
MODEL 5
REMARK VINA RESULT:     4.022      2.369      2.738
REMARK INTER + INTRA:           5.470
REMARK INTER:                   4.869
REMARK INTRA:                   0.601
REMARK UNBOUND:                 0.507
REMARK SMILES COc1cc(-c2oc3cc(O)cc(O)c3c(=O)c2O)ccc1O
REMARK SMILES IDX 6 1 18 2 16 3 17 4 15 5 13 6 12 7 10 8 9 9 8 10 7 11 5 12
REMARK SMILES IDX 3 13 22 14 4 15 21 16 20 17 2 18 1 19 23 20 19 22 14 24
REMARK SMILES IDX 11 26
REMARK H PARENT 23 21 19 23 14 25 11 27
REMARK Flexibility Score: inf
ROOT
ATOM      1  C   UNL     1      12.835  -9.984 -27.340  1.00  0.00     0.180 A 
ATOM      2  C   UNL     1      14.083 -10.622 -27.452  1.00  0.00     0.208 A 
ATOM      3  C   UNL     1      14.244 -11.904 -26.904  1.00  0.00     0.238 A 
ATOM      4  O   UNL     1      15.378 -12.446 -26.959  1.00  0.00    -0.285 OA
ATOM      5  C   UNL     1      13.151 -12.539 -26.266  1.00  0.00     0.111 A 
ATOM      6  C   UNL     1      13.189 -13.853 -25.711  1.00  0.00     0.134 A 
ATOM      7  C   UNL     1      12.089 -14.330 -24.988  1.00  0.00     0.093 A 
ATOM      8  C   UNL     1      10.927 -13.565 -24.857  1.00  0.00     0.123 A 
ATOM      9  C   UNL     1      10.858 -12.306 -25.446  1.00  0.00     0.094 A 
ATOM     10  C   UNL     1      11.954 -11.788 -26.142  1.00  0.00     0.146 A 
ATOM     11  O   UNL     1      11.849 -10.578 -26.679  1.00  0.00    -0.452 OA
ENDROOT
BRANCH   1  12
ATOM     12  C   UNL     1      12.583  -8.643 -27.916  1.00  0.00     0.025 A 
ATOM     13  C   UNL     1      13.169  -6.284 -28.189  1.00  0.00     0.161 A 
ATOM     14  C   UNL     1      12.096  -6.127 -29.076  1.00  0.00     0.157 A 
ATOM     15  C   UNL     1      13.413  -7.548 -27.616  1.00  0.00     0.062 A 
ATOM     16  C   UNL     1      11.281  -7.222 -29.394  1.00  0.00     0.051 A 
ATOM     17  C   UNL     1      11.526  -8.471 -28.823  1.00  0.00     0.016 A 
BRANCH  13  18
ATOM     18  O   UNL     1      13.971  -5.167 -27.905  1.00  0.00    -0.493 OA
ATOM     19  C   UNL     1      14.349  -4.182 -28.860  1.00  0.00     0.278 C 
ENDBRANCH  13  18
BRANCH  14  20
ATOM     20  O   UNL     1      11.848  -4.878 -29.645  1.00  0.00    -0.504 OA
ATOM     21  H   UNL     1      12.423  -4.513 -30.395  1.00  0.00     0.293 HD
ENDBRANCH  14  20
ENDBRANCH   1  12
BRANCH   2  22
ATOM     22  O   UNL     1      15.154  -9.967 -28.067  1.00  0.00    -0.502 OA
ATOM     23  H   UNL     1      15.477  -9.055 -27.770  1.00  0.00     0.293 HD
ENDBRANCH   2  22
BRANCH   6  24
ATOM     24  O   UNL     1      14.265 -14.734 -25.862  1.00  0.00    -0.507 OA
ATOM     25  H   UNL     1      14.704 -14.958 -26.742  1.00  0.00     0.293 HD
ENDBRANCH   6  24
BRANCH   8  26
ATOM     26  O   UNL     1       9.831 -14.054 -24.149  1.00  0.00    -0.508 OA
ATOM     27  H   UNL     1       8.917 -14.135 -24.578  1.00  0.00     0.293 HD
ENDBRANCH   8  26
TORSDOF 6
ENDMDL
