MODEL 1
REMARK VINA RESULT:    -6.473      0.000      0.000
REMARK INTER + INTRA:          -7.876
REMARK INTER:                  -7.797
REMARK INTRA:                  -0.079
REMARK UNBOUND:                -0.079
REMARK SMILES O=c1c(O)c(-c2ccc(O)c(O)c2)oc2cc(O)cc(O)c12
REMARK SMILES IDX 5 1 3 2 2 3 1 4 22 5 20 6 19 7 17 8 16 9 15 10 14 11 6 12
REMARK SMILES IDX 7 13 8 14 9 15 13 16 11 17 10 18 12 20 4 22 21 24 18 26
REMARK H PARENT 10 19 12 21 4 23 21 25 18 27
REMARK Flexibility Score: inf
ROOT
ATOM      1  C   UNL     1       5.435   4.712 -32.255  1.00  0.00     0.180 A 
ATOM      2  C   UNL     1       5.677   3.645 -33.139  1.00  0.00     0.208 A 
ATOM      3  C   UNL     1       6.945   3.524 -33.730  1.00  0.00     0.238 A 
ATOM      4  O   UNL     1       7.171   2.536 -34.477  1.00  0.00    -0.285 OA
ATOM      5  C   UNL     1       7.950   4.479 -33.443  1.00  0.00     0.111 A 
ATOM      6  C   UNL     1       9.256   4.477 -34.016  1.00  0.00     0.134 A 
ATOM      7  C   UNL     1      10.211   5.395 -33.562  1.00  0.00     0.093 A 
ATOM      8  C   UNL     1       9.887   6.356 -32.602  1.00  0.00     0.123 A 
ATOM      9  C   UNL     1       8.597   6.405 -32.080  1.00  0.00     0.094 A 
ATOM     10  C   UNL     1       7.633   5.479 -32.487  1.00  0.00     0.146 A 
ATOM     11  O   UNL     1       6.418   5.554 -31.956  1.00  0.00    -0.452 OA
ENDROOT
BRANCH   1  12
ATOM     12  C   UNL     1       4.117   4.921 -31.612  1.00  0.00     0.025 A 
ATOM     13  C   UNL     1       3.977   4.919 -30.214  1.00  0.00     0.016 A 
ATOM     14  C   UNL     1       2.720   5.096 -29.630  1.00  0.00     0.051 A 
ATOM     15  C   UNL     1       1.584   5.262 -30.433  1.00  0.00     0.157 A 
ATOM     16  C   UNL     1       2.973   5.067 -32.414  1.00  0.00     0.062 A 
ATOM     17  C   UNL     1       1.712   5.245 -31.832  1.00  0.00     0.158 A 
BRANCH  15  18
ATOM     18  O   UNL     1       0.332   5.440 -29.848  1.00  0.00    -0.504 OA
ATOM     19  H   UNL     1      -0.119   4.699 -29.322  1.00  0.00     0.293 HD
ENDBRANCH  15  18
BRANCH  17  20
ATOM     20  O   UNL     1       0.600   5.399 -32.659  1.00  0.00    -0.504 OA
ATOM     21  H   UNL     1      -0.265   5.806 -32.327  1.00  0.00     0.293 HD
ENDBRANCH  17  20
ENDBRANCH   1  12
BRANCH   2  22
ATOM     22  O   UNL     1       4.677   2.701 -33.389  1.00  0.00    -0.502 OA
ATOM     23  H   UNL     1       4.784   1.721 -33.156  1.00  0.00     0.293 HD
ENDBRANCH   2  22
BRANCH   6  24
ATOM     24  O   UNL     1       9.655   3.619 -35.046  1.00  0.00    -0.507 OA
ATOM     25  H   UNL     1      10.550   3.156 -35.094  1.00  0.00     0.293 HD
ENDBRANCH   6  24
BRANCH   8  26
ATOM     26  O   UNL     1      10.839   7.275 -32.166  1.00  0.00    -0.508 OA
ATOM     27  H   UNL     1      10.808   8.247 -32.454  1.00  0.00     0.293 HD
ENDBRANCH   8  26
TORSDOF 6
ENDMDL
MODEL 2
REMARK VINA RESULT:    -6.303      1.675      6.867
REMARK INTER + INTRA:          -7.671
REMARK INTER:                  -7.901
REMARK INTRA:                   0.230
REMARK UNBOUND:                -0.079
REMARK SMILES O=c1c(O)c(-c2ccc(O)c(O)c2)oc2cc(O)cc(O)c12
REMARK SMILES IDX 5 1 3 2 2 3 1 4 22 5 20 6 19 7 17 8 16 9 15 10 14 11 6 12
REMARK SMILES IDX 7 13 8 14 9 15 13 16 11 17 10 18 12 20 4 22 21 24 18 26
REMARK H PARENT 10 19 12 21 4 23 21 25 18 27
REMARK Flexibility Score: inf
ROOT
ATOM      1  C   UNL     1       6.601   5.647 -32.705  1.00  0.00     0.180 A 
ATOM      2  C   UNL     1       5.809   5.502 -33.858  1.00  0.00     0.208 A 
ATOM      3  C   UNL     1       4.423   5.327 -33.715  1.00  0.00     0.238 A 
ATOM      4  O   UNL     1       3.714   5.253 -34.752  1.00  0.00    -0.285 OA
ATOM      5  C   UNL     1       3.849   5.280 -32.421  1.00  0.00     0.111 A 
ATOM      6  C   UNL     1       2.463   5.066 -32.158  1.00  0.00     0.134 A 
ATOM      7  C   UNL     1       1.986   5.169 -30.846  1.00  0.00     0.093 A 
ATOM      8  C   UNL     1       2.855   5.415 -29.780  1.00  0.00     0.123 A 
ATOM      9  C   UNL     1       4.218   5.566 -30.020  1.00  0.00     0.094 A 
ATOM     10  C   UNL     1       4.719   5.504 -31.323  1.00  0.00     0.146 A 
ATOM     11  O   UNL     1       6.024   5.665 -31.509  1.00  0.00    -0.452 OA
ENDROOT
BRANCH   1  12
ATOM     12  C   UNL     1       8.072   5.811 -32.773  1.00  0.00     0.025 A 
ATOM     13  C   UNL     1       8.825   5.233 -33.810  1.00  0.00     0.016 A 
ATOM     14  C   UNL     1      10.213   5.381 -33.842  1.00  0.00     0.051 A 
ATOM     15  C   UNL     1      10.871   6.097 -32.833  1.00  0.00     0.157 A 
ATOM     16  C   UNL     1       8.737   6.509 -31.753  1.00  0.00     0.062 A 
ATOM     17  C   UNL     1      10.129   6.660 -31.782  1.00  0.00     0.158 A 
BRANCH  15  18
ATOM     18  O   UNL     1      12.257   6.245 -32.868  1.00  0.00    -0.504 OA
ATOM     19  H   UNL     1      12.870   5.462 -33.069  1.00  0.00     0.293 HD
ENDBRANCH  15  18
BRANCH  17  20
ATOM     20  O   UNL     1      10.754   7.371 -30.758  1.00  0.00    -0.504 OA
ATOM     21  H   UNL     1      10.984   8.353 -30.847  1.00  0.00     0.293 HD
ENDBRANCH  17  20
ENDBRANCH   1  12
BRANCH   2  22
ATOM     22  O   UNL     1       6.395   5.574 -35.125  1.00  0.00    -0.502 OA
ATOM     23  H   UNL     1       5.909   5.960 -35.927  1.00  0.00     0.293 HD
ENDBRANCH   2  22
BRANCH   6  24
ATOM     24  O   UNL     1       1.526   4.725 -33.138  1.00  0.00    -0.507 OA
ATOM     25  H   UNL     1       0.964   3.887 -33.128  1.00  0.00     0.293 HD
ENDBRANCH   6  24
BRANCH   8  26
ATOM     26  O   UNL     1       2.374   5.501 -28.476  1.00  0.00    -0.508 OA
ATOM     27  H   UNL     1       2.803   4.984 -27.717  1.00  0.00     0.293 HD
ENDBRANCH   8  26
TORSDOF 6
ENDMDL
MODEL 3
REMARK VINA RESULT:    -6.027      1.810      7.206
REMARK INTER + INTRA:          -7.339
REMARK INTER:                  -7.754
REMARK INTRA:                   0.415
REMARK UNBOUND:                -0.079
REMARK SMILES O=c1c(O)c(-c2ccc(O)c(O)c2)oc2cc(O)cc(O)c12
REMARK SMILES IDX 5 1 3 2 2 3 1 4 22 5 20 6 19 7 17 8 16 9 15 10 14 11 6 12
REMARK SMILES IDX 7 13 8 14 9 15 13 16 11 17 10 18 12 20 4 22 21 24 18 26
REMARK H PARENT 10 19 12 21 4 23 21 25 18 27
REMARK Flexibility Score: inf
ROOT
ATOM      1  C   UNL     1       6.813   5.607 -32.555  1.00  0.00     0.180 A 
ATOM      2  C   UNL     1       6.140   6.160 -31.451  1.00  0.00     0.208 A 
ATOM      3  C   UNL     1       4.791   5.833 -31.241  1.00  0.00     0.238 A 
ATOM      4  O   UNL     1       4.210   6.288 -30.221  1.00  0.00    -0.285 OA
ATOM      5  C   UNL     1       4.126   4.971 -32.147  1.00  0.00     0.111 A 
ATOM      6  C   UNL     1       2.751   4.604 -32.054  1.00  0.00     0.134 A 
ATOM      7  C   UNL     1       2.232   3.643 -32.930  1.00  0.00     0.093 A 
ATOM      8  C   UNL     1       3.023   3.082 -33.935  1.00  0.00     0.123 A 
ATOM      9  C   UNL     1       4.352   3.478 -34.072  1.00  0.00     0.094 A 
ATOM     10  C   UNL     1       4.907   4.409 -33.190  1.00  0.00     0.146 A 
ATOM     11  O   UNL     1       6.181   4.750 -33.348  1.00  0.00    -0.452 OA
ENDROOT
BRANCH   1  12
ATOM     12  C   UNL     1       8.228   5.924 -32.856  1.00  0.00     0.025 A 
ATOM     13  C   UNL     1       8.759   5.747 -34.146  1.00  0.00     0.016 A 
ATOM     14  C   UNL     1      10.102   6.031 -34.402  1.00  0.00     0.051 A 
ATOM     15  C   UNL     1      10.939   6.482 -33.372  1.00  0.00     0.157 A 
ATOM     16  C   UNL     1       9.075   6.356 -31.822  1.00  0.00     0.062 A 
ATOM     17  C   UNL     1      10.422   6.642 -32.076  1.00  0.00     0.158 A 
BRANCH  15  18
ATOM     18  O   UNL     1      12.278   6.766 -33.631  1.00  0.00    -0.504 OA
ATOM     19  H   UNL     1      12.663   6.703 -34.567  1.00  0.00     0.293 HD
ENDBRANCH  15  18
BRANCH  17  20
ATOM     20  O   UNL     1      11.230   7.081 -31.027  1.00  0.00    -0.504 OA
ATOM     21  H   UNL     1      12.196   7.349 -31.168  1.00  0.00     0.293 HD
ENDBRANCH  17  20
ENDBRANCH   1  12
BRANCH   2  22
ATOM     22  O   UNL     1       6.823   6.991 -30.557  1.00  0.00    -0.502 OA
ATOM     23  H   UNL     1       6.364   7.743 -30.057  1.00  0.00     0.293 HD
ENDBRANCH   2  22
BRANCH   6  24
ATOM     24  O   UNL     1       1.851   5.171 -31.146  1.00  0.00    -0.507 OA
ATOM     25  H   UNL     1       1.341   4.655 -30.445  1.00  0.00     0.293 HD
ENDBRANCH   6  24
BRANCH   8  26
ATOM     26  O   UNL     1       2.495   2.137 -34.812  1.00  0.00    -0.508 OA
ATOM     27  H   UNL     1       2.356   1.173 -34.531  1.00  0.00     0.293 HD
ENDBRANCH   8  26
TORSDOF 6
ENDMDL
MODEL 4
REMARK VINA RESULT:    -5.879      1.260      2.855
REMARK INTER + INTRA:          -7.161
REMARK INTER:                  -6.904
REMARK INTRA:                  -0.257
REMARK UNBOUND:                -0.079
REMARK SMILES O=c1c(O)c(-c2ccc(O)c(O)c2)oc2cc(O)cc(O)c12
REMARK SMILES IDX 5 1 3 2 2 3 1 4 22 5 20 6 19 7 17 8 16 9 15 10 14 11 6 12
REMARK SMILES IDX 7 13 8 14 9 15 13 16 11 17 10 18 12 20 4 22 21 24 18 26
REMARK H PARENT 10 19 12 21 4 23 21 25 18 27
REMARK Flexibility Score: inf
ROOT
ATOM      1  C   UNL     1       5.638   5.082 -32.040  1.00  0.00     0.180 A 
ATOM      2  C   UNL     1       6.535   6.160 -31.949  1.00  0.00     0.208 A 
ATOM      3  C   UNL     1       7.825   6.021 -32.486  1.00  0.00     0.238 A 
ATOM      4  O   UNL     1       8.604   7.009 -32.449  1.00  0.00    -0.285 OA
ATOM      5  C   UNL     1       8.208   4.800 -33.092  1.00  0.00     0.111 A 
ATOM      6  C   UNL     1       9.501   4.535 -33.632  1.00  0.00     0.134 A 
ATOM      7  C   UNL     1       9.729   3.339 -34.324  1.00  0.00     0.093 A 
ATOM      8  C   UNL     1       8.728   2.372 -34.438  1.00  0.00     0.123 A 
ATOM      9  C   UNL     1       7.480   2.596 -33.862  1.00  0.00     0.094 A 
ATOM     10  C   UNL     1       7.212   3.795 -33.197  1.00  0.00     0.146 A 
ATOM     11  O   UNL     1       6.005   3.973 -32.672  1.00  0.00    -0.452 OA
ENDROOT
BRANCH   1  12
ATOM     12  C   UNL     1       4.270   5.143 -31.475  1.00  0.00     0.025 A 
ATOM     13  C   UNL     1       4.049   5.116 -30.087  1.00  0.00     0.016 A 
ATOM     14  C   UNL     1       2.750   5.152 -29.578  1.00  0.00     0.051 A 
ATOM     15  C   UNL     1       1.651   5.201 -30.446  1.00  0.00     0.157 A 
ATOM     16  C   UNL     1       3.165   5.171 -32.342  1.00  0.00     0.062 A 
ATOM     17  C   UNL     1       1.861   5.208 -31.835  1.00  0.00     0.158 A 
BRANCH  15  18
ATOM     18  O   UNL     1       0.355   5.238 -29.935  1.00  0.00    -0.504 OA
ATOM     19  H   UNL     1      -0.058   6.100 -29.595  1.00  0.00     0.293 HD
ENDBRANCH  15  18
BRANCH  17  20
ATOM     20  O   UNL     1       0.789   5.248 -32.726  1.00  0.00    -0.504 OA
ATOM     21  H   UNL     1       0.037   5.918 -32.632  1.00  0.00     0.293 HD
ENDBRANCH  17  20
ENDBRANCH   1  12
BRANCH   2  22
ATOM     22  O   UNL     1       6.128   7.364 -31.366  1.00  0.00    -0.502 OA
ATOM     23  H   UNL     1       5.163   7.548 -31.116  1.00  0.00     0.293 HD
ENDBRANCH   2  22
BRANCH   6  24
ATOM     24  O   UNL     1      10.596   5.394 -33.494  1.00  0.00    -0.507 OA
ATOM     25  H   UNL     1      11.366   5.246 -32.859  1.00  0.00     0.293 HD
ENDBRANCH   6  24
BRANCH   8  26
ATOM     26  O   UNL     1       8.967   1.178 -35.115  1.00  0.00    -0.508 OA
ATOM     27  H   UNL     1       8.451   0.930 -35.952  1.00  0.00     0.293 HD
ENDBRANCH   8  26
TORSDOF 6
ENDMDL
MODEL 5
REMARK VINA RESULT:    -5.680      7.961     11.319
REMARK INTER + INTRA:          -6.921
REMARK INTER:                  -6.636
REMARK INTRA:                  -0.285
REMARK UNBOUND:                -0.079
REMARK SMILES O=c1c(O)c(-c2ccc(O)c(O)c2)oc2cc(O)cc(O)c12
REMARK SMILES IDX 5 1 3 2 2 3 1 4 22 5 20 6 19 7 17 8 16 9 15 10 14 11 6 12
REMARK SMILES IDX 7 13 8 14 9 15 13 16 11 17 10 18 12 20 4 22 21 24 18 26
REMARK H PARENT 10 19 12 21 4 23 21 25 18 27
REMARK Flexibility Score: inf
ROOT
ATOM      1  C   UNL     1      16.100   3.769 -31.241  1.00  0.00     0.180 A 
ATOM      2  C   UNL     1      16.327   2.404 -31.489  1.00  0.00     0.208 A 
ATOM      3  C   UNL     1      17.146   1.679 -30.609  1.00  0.00     0.238 A 
ATOM      4  O   UNL     1      17.301   0.445 -30.805  1.00  0.00    -0.285 OA
ATOM      5  C   UNL     1      17.743   2.331 -29.503  1.00  0.00     0.111 A 
ATOM      6  C   UNL     1      18.623   1.704 -28.571  1.00  0.00     0.134 A 
ATOM      7  C   UNL     1      19.051   2.412 -27.442  1.00  0.00     0.093 A 
ATOM      8  C   UNL     1      18.683   3.745 -27.245  1.00  0.00     0.123 A 
ATOM      9  C   UNL     1      17.872   4.385 -28.180  1.00  0.00     0.094 A 
ATOM     10  C   UNL     1      17.400   3.693 -29.298  1.00  0.00     0.146 A 
ATOM     11  O   UNL     1      16.621   4.337 -30.159  1.00  0.00    -0.452 OA
ENDROOT
BRANCH   1  12
ATOM     12  C   UNL     1      15.268   4.606 -32.137  1.00  0.00     0.025 A 
ATOM     13  C   UNL     1      15.752   5.053 -33.379  1.00  0.00     0.016 A 
ATOM     14  C   UNL     1      14.959   5.860 -34.197  1.00  0.00     0.051 A 
ATOM     15  C   UNL     1      13.677   6.245 -33.782  1.00  0.00     0.157 A 
ATOM     16  C   UNL     1      13.991   5.011 -31.715  1.00  0.00     0.062 A 
ATOM     17  C   UNL     1      13.193   5.820 -32.533  1.00  0.00     0.158 A 
BRANCH  15  18
ATOM     18  O   UNL     1      12.887   7.049 -34.601  1.00  0.00    -0.504 OA
ATOM     19  H   UNL     1      13.027   8.052 -34.656  1.00  0.00     0.293 HD
ENDBRANCH  15  18
BRANCH  17  20
ATOM     20  O   UNL     1      11.925   6.192 -32.087  1.00  0.00    -0.504 OA
ATOM     21  H   UNL     1      11.522   7.094 -32.305  1.00  0.00     0.293 HD
ENDBRANCH  17  20
ENDBRANCH   1  12
BRANCH   2  22
ATOM     22  O   UNL     1      15.709   1.775 -32.574  1.00  0.00    -0.502 OA
ATOM     23  H   UNL     1      16.062   1.855 -33.521  1.00  0.00     0.293 HD
ENDBRANCH   2  22
BRANCH   6  24
ATOM     24  O   UNL     1      19.125   0.408 -28.722  1.00  0.00    -0.507 OA
ATOM     25  H   UNL     1      19.049  -0.322 -28.029  1.00  0.00     0.293 HD
ENDBRANCH   6  24
BRANCH   8  26
ATOM     26  O   UNL     1      19.125   4.447 -26.126  1.00  0.00    -0.508 OA
ATOM     27  H   UNL     1      19.949   4.159 -25.610  1.00  0.00     0.293 HD
ENDBRANCH   8  26
TORSDOF 6
ENDMDL
MODEL 6
REMARK VINA RESULT:    -5.645      1.979      7.217
REMARK INTER + INTRA:          -6.879
REMARK INTER:                  -6.582
REMARK INTRA:                  -0.297
REMARK UNBOUND:                -0.079
REMARK SMILES O=c1c(O)c(-c2ccc(O)c(O)c2)oc2cc(O)cc(O)c12
REMARK SMILES IDX 5 1 3 2 2 3 1 4 22 5 20 6 19 7 17 8 16 9 15 10 14 11 6 12
REMARK SMILES IDX 7 13 8 14 9 15 13 16 11 17 10 18 12 20 4 22 21 24 18 26
REMARK H PARENT 10 19 12 21 4 23 21 25 18 27
REMARK Flexibility Score: inf
ROOT
ATOM      1  C   UNL     1       8.650   5.241 -33.136  1.00  0.00     0.180 A 
ATOM      2  C   UNL     1       8.134   4.024 -33.614  1.00  0.00     0.208 A 
ATOM      3  C   UNL     1       6.869   3.600 -33.173  1.00  0.00     0.238 A 
ATOM      4  O   UNL     1       6.390   2.537 -33.647  1.00  0.00    -0.285 OA
ATOM      5  C   UNL     1       6.145   4.390 -32.248  1.00  0.00     0.111 A 
ATOM      6  C   UNL     1       4.874   4.037 -31.704  1.00  0.00     0.134 A 
ATOM      7  C   UNL     1       4.190   4.955 -30.897  1.00  0.00     0.093 A 
ATOM      8  C   UNL     1       4.760   6.185 -30.563  1.00  0.00     0.123 A 
ATOM      9  C   UNL     1       6.026   6.514 -31.040  1.00  0.00     0.094 A 
ATOM     10  C   UNL     1       6.718   5.634 -31.877  1.00  0.00     0.146 A 
ATOM     11  O   UNL     1       7.918   5.991 -32.319  1.00  0.00    -0.452 OA
ENDROOT
BRANCH   1  12
ATOM     12  C   UNL     1       9.986   5.742 -33.534  1.00  0.00     0.025 A 
ATOM     13  C   UNL     1      10.184   6.402 -34.759  1.00  0.00     0.016 A 
ATOM     14  C   UNL     1      11.457   6.846 -35.124  1.00  0.00     0.051 A 
ATOM     15  C   UNL     1      12.552   6.626 -34.279  1.00  0.00     0.157 A 
ATOM     16  C   UNL     1      11.090   5.505 -32.699  1.00  0.00     0.062 A 
ATOM     17  C   UNL     1      12.367   5.949 -33.062  1.00  0.00     0.158 A 
BRANCH  15  18
ATOM     18  O   UNL     1      13.821   7.071 -34.645  1.00  0.00    -0.504 OA
ATOM     19  H   UNL     1      14.125   8.021 -34.460  1.00  0.00     0.293 HD
ENDBRANCH  15  18
BRANCH  17  20
ATOM     20  O   UNL     1      13.438   5.707 -32.202  1.00  0.00    -0.504 OA
ATOM     21  H   UNL     1      13.458   6.062 -31.254  1.00  0.00     0.293 HD
ENDBRANCH  17  20
ENDBRANCH   1  12
BRANCH   2  22
ATOM     22  O   UNL     1       8.857   3.272 -34.544  1.00  0.00    -0.502 OA
ATOM     23  H   UNL     1       8.965   2.267 -34.465  1.00  0.00     0.293 HD
ENDBRANCH   2  22
BRANCH   6  24
ATOM     24  O   UNL     1       4.256   2.798 -31.900  1.00  0.00    -0.507 OA
ATOM     25  H   UNL     1       4.699   1.997 -32.324  1.00  0.00     0.293 HD
ENDBRANCH   6  24
BRANCH   8  26
ATOM     26  O   UNL     1       4.079   7.087 -29.747  1.00  0.00    -0.508 OA
ATOM     27  H   UNL     1       4.334   8.067 -29.712  1.00  0.00     0.293 HD
ENDBRANCH   8  26
TORSDOF 6
ENDMDL
MODEL 7
REMARK VINA RESULT:    -5.575      9.162     12.283
REMARK INTER + INTRA:          -6.794
REMARK INTER:                  -6.472
REMARK INTRA:                  -0.323
REMARK UNBOUND:                -0.079
REMARK SMILES O=c1c(O)c(-c2ccc(O)c(O)c2)oc2cc(O)cc(O)c12
REMARK SMILES IDX 5 1 3 2 2 3 1 4 22 5 20 6 19 7 17 8 16 9 15 10 14 11 6 12
REMARK SMILES IDX 7 13 8 14 9 15 13 16 11 17 10 18 12 20 4 22 21 24 18 26
REMARK H PARENT 10 19 12 21 4 23 21 25 18 27
REMARK Flexibility Score: inf
ROOT
ATOM      1  C   UNL     1      16.774   2.774 -31.498  1.00  0.00     0.180 A 
ATOM      2  C   UNL     1      17.608   2.796 -30.367  1.00  0.00     0.208 A 
ATOM      3  C   UNL     1      18.068   1.580 -29.836  1.00  0.00     0.238 A 
ATOM      4  O   UNL     1      18.857   1.609 -28.856  1.00  0.00    -0.285 OA
ATOM      5  C   UNL     1      17.674   0.358 -30.432  1.00  0.00     0.111 A 
ATOM      6  C   UNL     1      18.047  -0.934 -29.953  1.00  0.00     0.134 A 
ATOM      7  C   UNL     1      17.708  -2.070 -30.697  1.00  0.00     0.093 A 
ATOM      8  C   UNL     1      16.954  -1.966 -31.869  1.00  0.00     0.123 A 
ATOM      9  C   UNL     1      16.535  -0.715 -32.312  1.00  0.00     0.094 A 
ATOM     10  C   UNL     1      16.888   0.441 -31.610  1.00  0.00     0.146 A 
ATOM     11  O   UNL     1      16.477   1.615 -32.074  1.00  0.00    -0.452 OA
ENDROOT
BRANCH   1  12
ATOM     12  C   UNL     1      16.229   4.013 -32.101  1.00  0.00     0.025 A 
ATOM     13  C   UNL     1      16.913   4.690 -33.126  1.00  0.00     0.016 A 
ATOM     14  C   UNL     1      16.391   5.869 -33.664  1.00  0.00     0.051 A 
ATOM     15  C   UNL     1      15.188   6.397 -33.177  1.00  0.00     0.157 A 
ATOM     16  C   UNL     1      15.035   4.557 -31.601  1.00  0.00     0.062 A 
ATOM     17  C   UNL     1      14.509   5.738 -32.139  1.00  0.00     0.158 A 
BRANCH  15  18
ATOM     18  O   UNL     1      14.669   7.573 -33.716  1.00  0.00    -0.504 OA
ATOM     19  H   UNL     1      15.258   8.378 -33.899  1.00  0.00     0.293 HD
ENDBRANCH  15  18
BRANCH  17  20
ATOM     20  O   UNL     1      13.313   6.241 -31.626  1.00  0.00    -0.504 OA
ATOM     21  H   UNL     1      13.145   7.235 -31.530  1.00  0.00     0.293 HD
ENDBRANCH  17  20
ENDBRANCH   1  12
BRANCH   2  22
ATOM     22  O   UNL     1      18.002   4.016 -29.808  1.00  0.00    -0.502 OA
ATOM     23  H   UNL     1      18.344   4.786 -30.371  1.00  0.00     0.293 HD
ENDBRANCH   2  22
BRANCH   6  24
ATOM     24  O   UNL     1      18.721  -1.155 -28.748  1.00  0.00    -0.507 OA
ATOM     25  H   UNL     1      19.594  -0.720 -28.490  1.00  0.00     0.293 HD
ENDBRANCH   6  24
BRANCH   8  26
ATOM     26  O   UNL     1      16.609  -3.103 -32.595  1.00  0.00    -0.508 OA
ATOM     27  H   UNL     1      16.030  -3.046 -33.426  1.00  0.00     0.293 HD
ENDBRANCH   8  26
TORSDOF 6
ENDMDL
MODEL 8
REMARK VINA RESULT:    -5.519      3.891      6.843
REMARK INTER + INTRA:          -6.728
REMARK INTER:                  -6.393
REMARK INTRA:                  -0.335
REMARK UNBOUND:                -0.079
REMARK SMILES O=c1c(O)c(-c2ccc(O)c(O)c2)oc2cc(O)cc(O)c12
REMARK SMILES IDX 5 1 3 2 2 3 1 4 22 5 20 6 19 7 17 8 16 9 15 10 14 11 6 12
REMARK SMILES IDX 7 13 8 14 9 15 13 16 11 17 10 18 12 20 4 22 21 24 18 26
REMARK H PARENT 10 19 12 21 4 23 21 25 18 27
REMARK Flexibility Score: inf
ROOT
ATOM      1  C   UNL     1      11.752   5.750 -32.934  1.00  0.00     0.180 A 
ATOM      2  C   UNL     1      12.486   6.254 -34.022  1.00  0.00     0.208 A 
ATOM      3  C   UNL     1      13.887   6.163 -33.999  1.00  0.00     0.238 A 
ATOM      4  O   UNL     1      14.536   6.566 -35.000  1.00  0.00    -0.285 OA
ATOM      5  C   UNL     1      14.538   5.585 -32.881  1.00  0.00     0.111 A 
ATOM      6  C   UNL     1      15.953   5.478 -32.734  1.00  0.00     0.134 A 
ATOM      7  C   UNL     1      16.482   4.771 -31.647  1.00  0.00     0.093 A 
ATOM      8  C   UNL     1      15.649   4.223 -30.669  1.00  0.00     0.123 A 
ATOM      9  C   UNL     1      14.268   4.374 -30.773  1.00  0.00     0.094 A 
ATOM     10  C   UNL     1      13.709   5.043 -31.865  1.00  0.00     0.146 A 
ATOM     11  O   UNL     1      12.387   5.155 -31.931  1.00  0.00    -0.452 OA
ENDROOT
BRANCH   1  12
ATOM     12  C   UNL     1      10.274   5.832 -32.874  1.00  0.00     0.025 A 
ATOM     13  C   UNL     1       9.625   6.954 -32.331  1.00  0.00     0.016 A 
ATOM     14  C   UNL     1       8.231   7.000 -32.263  1.00  0.00     0.051 A 
ATOM     15  C   UNL     1       7.465   5.921 -32.724  1.00  0.00     0.157 A 
ATOM     16  C   UNL     1       9.503   4.744 -33.315  1.00  0.00     0.062 A 
ATOM     17  C   UNL     1       8.105   4.787 -33.250  1.00  0.00     0.158 A 
BRANCH  15  18
ATOM     18  O   UNL     1       6.074   5.970 -32.657  1.00  0.00    -0.504 OA
ATOM     19  H   UNL     1       5.497   5.228 -33.037  1.00  0.00     0.293 HD
ENDBRANCH  15  18
BRANCH  17  20
ATOM     20  O   UNL     1       7.372   3.693 -33.710  1.00  0.00    -0.504 OA
ATOM     21  H   UNL     1       6.927   3.688 -34.618  1.00  0.00     0.293 HD
ENDBRANCH  17  20
ENDBRANCH   1  12
BRANCH   2  22
ATOM     22  O   UNL     1      11.823   6.800 -35.124  1.00  0.00    -0.502 OA
ATOM     23  H   UNL     1      11.775   6.326 -36.019  1.00  0.00     0.293 HD
ENDBRANCH   2  22
BRANCH   6  24
ATOM     24  O   UNL     1      16.875   6.066 -33.604  1.00  0.00    -0.507 OA
ATOM     25  H   UNL     1      17.758   5.656 -33.869  1.00  0.00     0.293 HD
ENDBRANCH   6  24
BRANCH   8  26
ATOM     26  O   UNL     1      16.184   3.534 -29.583  1.00  0.00    -0.508 OA
ATOM     27  H   UNL     1      16.937   2.865 -29.699  1.00  0.00     0.293 HD
ENDBRANCH   8  26
TORSDOF 6
ENDMDL
MODEL 9
REMARK VINA RESULT:    -5.279      2.100      3.844
REMARK INTER + INTRA:          -6.438
REMARK INTER:                  -6.232
REMARK INTRA:                  -0.205
REMARK UNBOUND:                -0.079
REMARK SMILES O=c1c(O)c(-c2ccc(O)c(O)c2)oc2cc(O)cc(O)c12
REMARK SMILES IDX 5 1 3 2 2 3 1 4 22 5 20 6 19 7 17 8 16 9 15 10 14 11 6 12
REMARK SMILES IDX 7 13 8 14 9 15 13 16 11 17 10 18 12 20 4 22 21 24 18 26
REMARK H PARENT 10 19 12 21 4 23 21 25 18 27
REMARK Flexibility Score: inf
ROOT
ATOM      1  C   UNL     1       7.642   5.773 -33.231  1.00  0.00     0.180 A 
ATOM      2  C   UNL     1       8.029   7.046 -33.684  1.00  0.00     0.208 A 
ATOM      3  C   UNL     1       9.313   7.214 -34.227  1.00  0.00     0.238 A 
ATOM      4  O   UNL     1       9.633   8.344 -34.681  1.00  0.00    -0.285 OA
ATOM      5  C   UNL     1      10.199   6.112 -34.295  1.00  0.00     0.111 A 
ATOM      6  C   UNL     1      11.536   6.178 -34.789  1.00  0.00     0.134 A 
ATOM      7  C   UNL     1      12.278   4.999 -34.931  1.00  0.00     0.093 A 
ATOM      8  C   UNL     1      11.754   3.766 -34.536  1.00  0.00     0.123 A 
ATOM      9  C   UNL     1      10.472   3.699 -33.998  1.00  0.00     0.094 A 
ATOM     10  C   UNL     1       9.694   4.854 -33.877  1.00  0.00     0.146 A 
ATOM     11  O   UNL     1       8.471   4.745 -33.369  1.00  0.00    -0.452 OA
ENDROOT
BRANCH   1  12
ATOM     12  C   UNL     1       6.314   5.521 -32.623  1.00  0.00     0.025 A 
ATOM     13  C   UNL     1       5.331   4.776 -33.297  1.00  0.00     0.016 A 
ATOM     14  C   UNL     1       4.078   4.571 -32.714  1.00  0.00     0.051 A 
ATOM     15  C   UNL     1       3.784   5.118 -31.458  1.00  0.00     0.157 A 
ATOM     16  C   UNL     1       6.008   6.086 -31.374  1.00  0.00     0.062 A 
ATOM     17  C   UNL     1       4.754   5.881 -30.787  1.00  0.00     0.158 A 
BRANCH  15  18
ATOM     18  O   UNL     1       2.534   4.910 -30.878  1.00  0.00    -0.504 OA
ATOM     19  H   UNL     1       2.334   4.084 -30.326  1.00  0.00     0.293 HD
ENDBRANCH  15  18
BRANCH  17  20
ATOM     20  O   UNL     1       4.490   6.446 -29.540  1.00  0.00    -0.504 OA
ATOM     21  H   UNL     1       3.595   6.863 -29.316  1.00  0.00     0.293 HD
ENDBRANCH  17  20
ENDBRANCH   1  12
BRANCH   2  22
ATOM     22  O   UNL     1       7.130   8.115 -33.628  1.00  0.00    -0.502 OA
ATOM     23  H   UNL     1       6.580   8.320 -32.802  1.00  0.00     0.293 HD
ENDBRANCH   2  22
BRANCH   6  24
ATOM     24  O   UNL     1      12.187   7.369 -35.125  1.00  0.00    -0.507 OA
ATOM     25  H   UNL     1      12.261   8.173 -34.521  1.00  0.00     0.293 HD
ENDBRANCH   6  24
BRANCH   8  26
ATOM     26  O   UNL     1      12.505   2.599 -34.667  1.00  0.00    -0.508 OA
ATOM     27  H   UNL     1      12.889   2.123 -33.859  1.00  0.00     0.293 HD
ENDBRANCH   8  26
TORSDOF 6
ENDMDL
