MODEL 1
REMARK VINA RESULT:    -4.706      0.000      0.000
REMARK INTER + INTRA:          -5.001
REMARK INTER:                  -4.981
REMARK INTRA:                  -0.021
REMARK UNBOUND:                -0.021
REMARK SMILES O=C([O-])c1cccnc1
REMARK SMILES IDX 4 1 5 2 9 3 6 4 8 5 7 6 2 7 1 8 3 9
REMARK H PARENT
REMARK Flexibility Score: inf
ROOT
ATOM      1  C   UNL     1      21.452   6.312   6.625  1.00  0.00     0.016 A 
ATOM      2  C   UNL     1      21.453   5.000   7.125  1.00  0.00     0.013 A 
ATOM      3  C   UNL     1      22.357   6.638   5.599  1.00  0.00     0.120 A 
ATOM      4  C   UNL     1      22.339   4.052   6.606  1.00  0.00     0.021 A 
ATOM      5  N   UNL     1      23.209   5.696   5.112  1.00  0.00    -0.264 NA
ATOM      6  C   UNL     1      23.219   4.423   5.589  1.00  0.00     0.111 A 
ENDROOT
BRANCH   1   7
ATOM      7  C   UNL     1      20.519   7.324   7.166  1.00  0.00     0.073 C 
ATOM      8  O   UNL     1      19.994   8.181   6.408  1.00  0.00    -0.545 OA
ATOM      9  O   UNL     1      20.209   7.341   8.521  1.00  0.00    -0.545 OA
ENDBRANCH   1   7
TORSDOF 1
ENDMDL
MODEL 2
REMARK VINA RESULT:    -4.302      0.899      1.600
REMARK INTER + INTRA:          -4.574
REMARK INTER:                  -4.553
REMARK INTRA:                  -0.021
REMARK UNBOUND:                -0.021
REMARK SMILES O=C([O-])c1cccnc1
REMARK SMILES IDX 4 1 5 2 9 3 6 4 8 5 7 6 2 7 1 8 3 9
REMARK H PARENT
REMARK Flexibility Score: inf
ROOT
ATOM      1  C   UNL     1      21.454   6.328   6.604  1.00  0.00     0.016 A 
ATOM      2  C   UNL     1      22.324   6.675   5.558  1.00  0.00     0.013 A 
ATOM      3  C   UNL     1      21.495   5.014   7.102  1.00  0.00     0.120 A 
ATOM      4  C   UNL     1      23.203   5.724   5.034  1.00  0.00     0.021 A 
ATOM      5  N   UNL     1      22.361   4.108   6.573  1.00  0.00    -0.264 NA
ATOM      6  C   UNL     1      23.207   4.432   5.560  1.00  0.00     0.111 A 
ENDROOT
BRANCH   1   7
ATOM      7  C   UNL     1      20.518   7.326   7.167  1.00  0.00     0.073 C 
ATOM      8  O   UNL     1      19.978   8.188   6.424  1.00  0.00    -0.545 OA
ATOM      9  O   UNL     1      20.224   7.327   8.525  1.00  0.00    -0.545 OA
ENDBRANCH   1   7
TORSDOF 1
ENDMDL
MODEL 3
REMARK VINA RESULT:    -3.902      2.710      3.569
REMARK INTER + INTRA:          -4.150
REMARK INTER:                  -4.127
REMARK INTRA:                  -0.023
REMARK UNBOUND:                -0.021
REMARK SMILES O=C([O-])c1cccnc1
REMARK SMILES IDX 4 1 5 2 9 3 6 4 8 5 7 6 2 7 1 8 3 9
REMARK H PARENT
REMARK Flexibility Score: inf
ROOT
ATOM      1  C   UNL     1      21.694   5.493   6.569  1.00  0.00     0.016 A 
ATOM      2  C   UNL     1      21.053   5.582   7.816  1.00  0.00     0.013 A 
ATOM      3  C   UNL     1      21.594   6.583   5.686  1.00  0.00     0.120 A 
ATOM      4  C   UNL     1      20.336   6.732   8.155  1.00  0.00     0.021 A 
ATOM      5  N   UNL     1      20.890   7.691   6.042  1.00  0.00    -0.264 NA
ATOM      6  C   UNL     1      20.265   7.787   7.245  1.00  0.00     0.111 A 
ENDROOT
BRANCH   1   7
ATOM      7  C   UNL     1      22.456   4.281   6.199  1.00  0.00     0.073 C 
ATOM      8  O   UNL     1      23.193   4.274   5.178  1.00  0.00    -0.545 OA
ATOM      9  O   UNL     1      22.367   3.130   6.974  1.00  0.00    -0.545 OA
ENDBRANCH   1   7
TORSDOF 1
ENDMDL
MODEL 4
REMARK VINA RESULT:    -3.399      2.880      4.023
REMARK INTER + INTRA:          -3.618
REMARK INTER:                  -3.595
REMARK INTRA:                  -0.024
REMARK UNBOUND:                -0.021
REMARK SMILES O=C([O-])c1cccnc1
REMARK SMILES IDX 4 1 5 2 9 3 6 4 8 5 7 6 2 7 1 8 3 9
REMARK H PARENT
REMARK Flexibility Score: inf
ROOT
ATOM      1  C   UNL     1      21.690   5.448   6.628  1.00  0.00     0.016 A 
ATOM      2  C   UNL     1      21.605   6.520   5.725  1.00  0.00     0.013 A 
ATOM      3  C   UNL     1      21.035   5.561   7.867  1.00  0.00     0.120 A 
ATOM      4  C   UNL     1      20.882   7.667   6.066  1.00  0.00     0.021 A 
ATOM      5  N   UNL     1      20.338   6.689   8.172  1.00  0.00    -0.264 NA
ATOM      6  C   UNL     1      20.249   7.733   7.307  1.00  0.00     0.111 A 
ENDROOT
BRANCH   1   7
ATOM      7  C   UNL     1      22.452   4.229   6.279  1.00  0.00     0.073 C 
ATOM      8  O   UNL     1      22.461   3.236   7.053  1.00  0.00    -0.545 OA
ATOM      9  O   UNL     1      23.170   4.165   5.090  1.00  0.00    -0.545 OA
ENDBRANCH   1   7
TORSDOF 1
ENDMDL
MODEL 5
REMARK VINA RESULT:    -3.014     18.610     19.417
REMARK INTER + INTRA:          -3.210
REMARK INTER:                  -3.194
REMARK INTRA:                  -0.016
REMARK UNBOUND:                -0.021
REMARK SMILES O=C([O-])c1cccnc1
REMARK SMILES IDX 4 1 5 2 9 3 6 4 8 5 7 6 2 7 1 8 3 9
REMARK H PARENT
REMARK Flexibility Score: inf
ROOT
ATOM      1  C   UNL     1      19.211  -5.044  21.957  1.00  0.00     0.016 A 
ATOM      2  C   UNL     1      19.184  -5.052  20.553  1.00  0.00     0.013 A 
ATOM      3  C   UNL     1      18.040  -5.395  22.651  1.00  0.00     0.120 A 
ATOM      4  C   UNL     1      18.013  -5.401  19.877  1.00  0.00     0.021 A 
ATOM      5  N   UNL     1      16.913  -5.731  21.968  1.00  0.00    -0.264 NA
ATOM      6  C   UNL     1      16.875  -5.742  20.610  1.00  0.00     0.111 A 
ENDROOT
BRANCH   1   7
ATOM      7  C   UNL     1      20.445  -4.675  22.685  1.00  0.00     0.073 C 
ATOM      8  O   UNL     1      21.360  -5.522  22.864  1.00  0.00    -0.545 OA
ATOM      9  O   UNL     1      20.611  -3.388  23.181  1.00  0.00    -0.545 OA
ENDBRANCH   1   7
TORSDOF 1
ENDMDL
MODEL 6
REMARK VINA RESULT:    -2.938      2.933      3.906
REMARK INTER + INTRA:          -3.131
REMARK INTER:                  -3.108
REMARK INTRA:                  -0.023
REMARK UNBOUND:                -0.021
REMARK SMILES O=C([O-])c1cccnc1
REMARK SMILES IDX 4 1 5 2 9 3 6 4 8 5 7 6 2 7 1 8 3 9
REMARK H PARENT
REMARK Flexibility Score: inf
ROOT
ATOM      1  C   UNL     1      22.416   4.396   6.387  1.00  0.00     0.016 A 
ATOM      2  C   UNL     1      23.265   4.853   5.365  1.00  0.00     0.013 A 
ATOM      3  C   UNL     1      21.564   5.322   7.013  1.00  0.00     0.120 A 
ATOM      4  C   UNL     1      23.252   6.199   4.993  1.00  0.00     0.021 A 
ATOM      5  N   UNL     1      21.571   6.628   6.631  1.00  0.00    -0.264 NA
ATOM      6  C   UNL     1      22.389   7.081   5.645  1.00  0.00     0.111 A 
ENDROOT
BRANCH   1   7
ATOM      7  C   UNL     1      22.421   2.973   6.789  1.00  0.00     0.073 C 
ATOM      8  O   UNL     1      21.453   2.485   7.430  1.00  0.00    -0.545 OA
ATOM      9  O   UNL     1      23.497   2.154   6.466  1.00  0.00    -0.545 OA
ENDBRANCH   1   7
TORSDOF 1
ENDMDL
MODEL 7
REMARK VINA RESULT:    -2.727     22.630     23.445
REMARK INTER + INTRA:          -2.907
REMARK INTER:                  -2.890
REMARK INTRA:                  -0.017
REMARK UNBOUND:                -0.021
REMARK SMILES O=C([O-])c1cccnc1
REMARK SMILES IDX 4 1 5 2 9 3 6 4 8 5 7 6 2 7 1 8 3 9
REMARK H PARENT
REMARK Flexibility Score: inf
ROOT
ATOM      1  C   UNL     1      36.091  -1.999  22.586  1.00  0.00     0.016 A 
ATOM      2  C   UNL     1      36.964  -1.873  23.679  1.00  0.00     0.013 A 
ATOM      3  C   UNL     1      34.723  -1.746  22.789  1.00  0.00     0.120 A 
ATOM      4  C   UNL     1      36.469  -1.505  24.932  1.00  0.00     0.021 A 
ATOM      5  N   UNL     1      34.268  -1.389  24.020  1.00  0.00    -0.264 NA
ATOM      6  C   UNL     1      35.103  -1.265  25.085  1.00  0.00     0.111 A 
ENDROOT
BRANCH   1   7
ATOM      7  C   UNL     1      36.604  -2.388  21.254  1.00  0.00     0.073 C 
ATOM      8  O   UNL     1      36.575  -1.573  20.294  1.00  0.00    -0.545 OA
ATOM      9  O   UNL     1      37.125  -3.659  21.044  1.00  0.00    -0.545 OA
ENDBRANCH   1   7
TORSDOF 1
ENDMDL
MODEL 8
REMARK VINA RESULT:    -2.228     21.816     22.591
REMARK INTER + INTRA:          -2.379
REMARK INTER:                  -2.357
REMARK INTRA:                  -0.023
REMARK UNBOUND:                -0.021
REMARK SMILES O=C([O-])c1cccnc1
REMARK SMILES IDX 4 1 5 2 9 3 6 4 8 5 7 6 2 7 1 8 3 9
REMARK H PARENT
REMARK Flexibility Score: inf
ROOT
ATOM      1  C   UNL     1      34.251  -1.563  23.199  1.00  0.00     0.016 A 
ATOM      2  C   UNL     1      35.170  -1.612  22.137  1.00  0.00     0.013 A 
ATOM      3  C   UNL     1      34.746  -1.595  24.514  1.00  0.00     0.120 A 
ATOM      4  C   UNL     1      36.540  -1.693  22.400  1.00  0.00     0.021 A 
ATOM      5  N   UNL     1      36.085  -1.674  24.741  1.00  0.00    -0.264 NA
ATOM      6  C   UNL     1      36.983  -1.723  23.722  1.00  0.00     0.111 A 
ENDROOT
BRANCH   1   7
ATOM      7  C   UNL     1      32.799  -1.477  22.934  1.00  0.00     0.073 C 
ATOM      8  O   UNL     1      32.373  -1.010  21.844  1.00  0.00    -0.545 OA
ATOM      9  O   UNL     1      31.883  -1.911  23.885  1.00  0.00    -0.545 OA
ENDBRANCH   1   7
TORSDOF 1
ENDMDL
