MODEL 1
REMARK VINA RESULT:    -4.420      0.000      0.000
REMARK INTER + INTRA:          -6.404
REMARK INTER:                  -5.971
REMARK INTRA:                  -0.434
REMARK UNBOUND:                -0.434
REMARK SMILES [NH3+]CCCC[C@@H]([NH3+])C(=O)[O-]
REMARK SMILES IDX 4 1 3 2 2 3 1 4 5 8 6 9 7 10 8 14 9 15 10 16
REMARK H PARENT 1 5 1 6 1 7 7 11 7 12 7 13
REMARK Flexibility Score: inf
ROOT
ATOM      1  C   UNL     1      17.043  13.627  12.679  1.00  0.00     0.012 C 
ENDROOT
BRANCH   1   2
ATOM      2  C   UNL     1      16.586  12.371  13.438  1.00  0.00     0.061 C 
BRANCH   2   3
ATOM      3  C   UNL     1      16.501  12.594  14.956  1.00  0.00     0.258 C 
BRANCH   3   4
ATOM      4  N   UNL     1      17.462  11.747  15.662  1.00  0.00    -0.358 N 
ATOM      5  H   UNL     1      16.989  11.250  16.452  1.00  0.00     0.344 HD
ATOM      6  H   UNL     1      17.847  11.039  14.998  1.00  0.00     0.344 HD
ATOM      7  H   UNL     1      18.249  12.328  16.032  1.00  0.00     0.344 HD
ENDBRANCH   3   4
ENDBRANCH   2   3
ENDBRANCH   1   2
BRANCH   1   8
ATOM      8  C   UNL     1      18.389  13.426  11.958  1.00  0.00     0.072 C 
BRANCH   8   9
ATOM      9  C   UNL     1      19.218  12.281  12.581  1.00  0.00     0.227 C 
BRANCH   9  10
ATOM     10  N   UNL     1      19.866  11.486  11.530  1.00  0.00    -0.350 N 
ATOM     11  H   UNL     1      20.654  10.933  11.939  1.00  0.00     0.345 HD
ATOM     12  H   UNL     1      19.181  10.831  11.087  1.00  0.00     0.345 HD
ATOM     13  H   UNL     1      20.260  12.120  10.797  1.00  0.00     0.345 HD
ENDBRANCH   9  10
BRANCH   9  14
ATOM     14  C   UNL     1      20.251  12.817  13.539  1.00  0.00     0.099 C 
ATOM     15  O   UNL     1      19.908  13.545  14.507  1.00  0.00    -0.544 OA
ATOM     16  O   UNL     1      21.591  12.498  13.361  1.00  0.00    -0.544 OA
ENDBRANCH   9  14
ENDBRANCH   8   9
ENDBRANCH   1   8
TORSDOF 7
ENDMDL
MODEL 2
REMARK VINA RESULT:    -4.339      2.869      4.207
REMARK INTER + INTRA:          -6.294
REMARK INTER:                  -6.143
REMARK INTRA:                  -0.151
REMARK UNBOUND:                -0.434
REMARK SMILES [NH3+]CCCC[C@@H]([NH3+])C(=O)[O-]
REMARK SMILES IDX 4 1 3 2 2 3 1 4 5 8 6 9 7 10 8 14 9 15 10 16
REMARK H PARENT 1 5 1 6 1 7 7 11 7 12 7 13
REMARK Flexibility Score: inf
ROOT
ATOM      1  C   UNL     1      20.073  12.559  13.242  1.00  0.00     0.012 C 
ENDROOT
BRANCH   1   2
ATOM      2  C   UNL     1      20.167  13.693  14.275  1.00  0.00     0.061 C 
BRANCH   2   3
ATOM      3  C   UNL     1      21.615  14.124  14.551  1.00  0.00     0.258 C 
BRANCH   3   4
ATOM      4  N   UNL     1      22.560  13.285  13.814  1.00  0.00    -0.358 N 
ATOM      5  H   UNL     1      22.394  13.377  12.785  1.00  0.00     0.344 HD
ATOM      6  H   UNL     1      23.533  13.596  14.028  1.00  0.00     0.344 HD
ATOM      7  H   UNL     1      22.452  12.285  14.101  1.00  0.00     0.344 HD
ENDBRANCH   3   4
ENDBRANCH   2   3
ENDBRANCH   1   2
BRANCH   1   8
ATOM      8  C   UNL     1      18.636  12.035  13.065  1.00  0.00     0.072 C 
BRANCH   8   9
ATOM      9  C   UNL     1      17.584  13.155  13.231  1.00  0.00     0.227 C 
BRANCH   9  10
ATOM     10  N   UNL     1      17.287  13.777  11.934  1.00  0.00    -0.350 N 
ATOM     11  H   UNL     1      17.195  14.812  12.051  1.00  0.00     0.345 HD
ATOM     12  H   UNL     1      18.049  13.576  11.245  1.00  0.00     0.345 HD
ATOM     13  H   UNL     1      16.381  13.408  11.563  1.00  0.00     0.345 HD
ENDBRANCH   9  10
BRANCH   9  14
ATOM     14  C   UNL     1      16.319  12.624  13.854  1.00  0.00     0.099 C 
ATOM     15  O   UNL     1      15.288  12.444  13.154  1.00  0.00    -0.544 OA
ATOM     16  O   UNL     1      16.290  12.320  15.209  1.00  0.00    -0.544 OA
ENDBRANCH   9  14
ENDBRANCH   8   9
ENDBRANCH   1   8
TORSDOF 7
ENDMDL
MODEL 3
REMARK VINA RESULT:    -4.309     18.286     19.363
REMARK INTER + INTRA:          -6.254
REMARK INTER:                  -6.044
REMARK INTRA:                  -0.211
REMARK UNBOUND:                -0.434
REMARK SMILES [NH3+]CCCC[C@@H]([NH3+])C(=O)[O-]
REMARK SMILES IDX 4 1 3 2 2 3 1 4 5 8 6 9 7 10 8 14 9 15 10 16
REMARK H PARENT 1 5 1 6 1 7 7 11 7 12 7 13
REMARK Flexibility Score: inf
ROOT
ATOM      1  C   UNL     1      11.981  -3.509  21.187  1.00  0.00     0.012 C 
ENDROOT
BRANCH   1   2
ATOM      2  C   UNL     1      12.794  -3.770  19.909  1.00  0.00     0.061 C 
BRANCH   2   3
ATOM      3  C   UNL     1      13.233  -2.474  19.210  1.00  0.00     0.258 C 
BRANCH   3   4
ATOM      4  N   UNL     1      14.690  -2.344  19.219  1.00  0.00    -0.358 N 
ATOM      5  H   UNL     1      15.071  -2.515  18.260  1.00  0.00     0.344 HD
ATOM      6  H   UNL     1      14.945  -1.376  19.516  1.00  0.00     0.344 HD
ATOM      7  H   UNL     1      15.108  -3.027  19.892  1.00  0.00     0.344 HD
ENDBRANCH   3   4
ENDBRANCH   2   3
ENDBRANCH   1   2
BRANCH   1   8
ATOM      8  C   UNL     1      12.527  -4.276  22.405  1.00  0.00     0.072 C 
BRANCH   8   9
ATOM      9  C   UNL     1      13.843  -3.666  22.936  1.00  0.00     0.227 C 
BRANCH   9  10
ATOM     10  N   UNL     1      13.658  -3.150  24.298  1.00  0.00    -0.350 N 
ATOM     11  H   UNL     1      14.293  -2.334  24.457  1.00  0.00     0.345 HD
ATOM     12  H   UNL     1      12.667  -2.847  24.446  1.00  0.00     0.345 HD
ATOM     13  H   UNL     1      13.899  -3.892  24.994  1.00  0.00     0.345 HD
ENDBRANCH   9  10
BRANCH   9  14
ATOM     14  C   UNL     1      14.960  -4.678  22.911  1.00  0.00     0.099 C 
ATOM     15  O   UNL     1      14.977  -5.591  22.044  1.00  0.00    -0.544 OA
ATOM     16  O   UNL     1      15.986  -4.599  23.845  1.00  0.00    -0.544 OA
ENDBRANCH   9  14
ENDBRANCH   8   9
ENDBRANCH   1   8
TORSDOF 7
ENDMDL
MODEL 4
REMARK VINA RESULT:    -4.241     18.559     19.583
REMARK INTER + INTRA:          -6.162
REMARK INTER:                  -5.736
REMARK INTRA:                  -0.426
REMARK UNBOUND:                -0.434
REMARK SMILES [NH3+]CCCC[C@@H]([NH3+])C(=O)[O-]
REMARK SMILES IDX 4 1 3 2 2 3 1 4 5 8 6 9 7 10 8 14 9 15 10 16
REMARK H PARENT 1 5 1 6 1 7 7 11 7 12 7 13
REMARK Flexibility Score: inf
ROOT
ATOM      1  C   UNL     1      14.379  -4.979  22.940  1.00  0.00     0.012 C 
ENDROOT
BRANCH   1   2
ATOM      2  C   UNL     1      14.288  -3.646  23.700  1.00  0.00     0.061 C 
BRANCH   2   3
ATOM      3  C   UNL     1      13.000  -3.522  24.529  1.00  0.00     0.258 C 
BRANCH   3   4
ATOM      4  N   UNL     1      12.031  -4.547  24.142  1.00  0.00    -0.358 N 
ATOM      5  H   UNL     1      12.523  -5.447  23.934  1.00  0.00     0.344 HD
ATOM      6  H   UNL     1      11.363  -4.701  24.930  1.00  0.00     0.344 HD
ATOM      7  H   UNL     1      11.495  -4.235  23.299  1.00  0.00     0.344 HD
ENDBRANCH   3   4
ENDBRANCH   2   3
ENDBRANCH   1   2
BRANCH   1   8
ATOM      8  C   UNL     1      14.160  -4.814  21.425  1.00  0.00     0.072 C 
BRANCH   8   9
ATOM      9  C   UNL     1      13.665  -3.397  21.059  1.00  0.00     0.227 C 
BRANCH   9  10
ATOM     10  N   UNL     1      14.483  -2.830  19.979  1.00  0.00    -0.350 N 
ATOM     11  H   UNL     1      15.130  -2.106  20.368  1.00  0.00     0.345 HD
ATOM     12  H   UNL     1      15.046  -3.578  19.512  1.00  0.00     0.345 HD
ATOM     13  H   UNL     1      13.866  -2.370  19.271  1.00  0.00     0.345 HD
ENDBRANCH   9  10
BRANCH   9  14
ATOM     14  C   UNL     1      12.213  -3.415  20.657  1.00  0.00     0.099 C 
ATOM     15  O   UNL     1      11.824  -2.790  19.635  1.00  0.00    -0.544 OA
ATOM     16  O   UNL     1      11.294  -4.135  21.410  1.00  0.00    -0.544 OA
ENDBRANCH   9  14
ENDBRANCH   8   9
ENDBRANCH   1   8
TORSDOF 7
ENDMDL
MODEL 5
REMARK VINA RESULT:    -4.234     18.814     19.744
REMARK INTER + INTRA:          -6.153
REMARK INTER:                  -5.938
REMARK INTRA:                  -0.215
REMARK UNBOUND:                -0.434
REMARK SMILES [NH3+]CCCC[C@@H]([NH3+])C(=O)[O-]
REMARK SMILES IDX 4 1 3 2 2 3 1 4 5 8 6 9 7 10 8 14 9 15 10 16
REMARK H PARENT 1 5 1 6 1 7 7 11 7 12 7 13
REMARK Flexibility Score: inf
ROOT
ATOM      1  C   UNL     1      12.410  -4.212  24.286  1.00  0.00     0.012 C 
ENDROOT
BRANCH   1   2
ATOM      2  C   UNL     1      13.044  -2.817  24.405  1.00  0.00     0.061 C 
BRANCH   2   3
ATOM      3  C   UNL     1      13.954  -2.682  25.636  1.00  0.00     0.258 C 
BRANCH   3   4
ATOM      4  N   UNL     1      15.336  -3.030  25.305  1.00  0.00    -0.358 N 
ATOM      5  H   UNL     1      15.382  -3.437  24.342  1.00  0.00     0.344 HD
ATOM      6  H   UNL     1      15.923  -2.167  25.335  1.00  0.00     0.344 HD
ATOM      7  H   UNL     1      15.708  -3.719  25.998  1.00  0.00     0.344 HD
ENDBRANCH   3   4
ENDBRANCH   2   3
ENDBRANCH   1   2
BRANCH   1   8
ATOM      8  C   UNL     1      12.435  -4.754  22.845  1.00  0.00     0.072 C 
BRANCH   8   9
ATOM      9  C   UNL     1      13.226  -3.832  21.891  1.00  0.00     0.227 C 
BRANCH   9  10
ATOM     10  N   UNL     1      14.510  -4.448  21.530  1.00  0.00    -0.350 N 
ATOM     11  H   UNL     1      15.110  -3.749  21.034  1.00  0.00     0.345 HD
ATOM     12  H   UNL     1      15.011  -4.785  22.384  1.00  0.00     0.345 HD
ATOM     13  H   UNL     1      14.347  -5.255  20.885  1.00  0.00     0.345 HD
ENDBRANCH   9  10
BRANCH   9  14
ATOM     14  C   UNL     1      12.430  -3.525  20.649  1.00  0.00     0.099 C 
ATOM     15  O   UNL     1      11.174  -3.613  20.656  1.00  0.00    -0.544 OA
ATOM     16  O   UNL     1      13.083  -3.130  19.488  1.00  0.00    -0.544 OA
ENDBRANCH   9  14
ENDBRANCH   8   9
ENDBRANCH   1   8
TORSDOF 7
ENDMDL
MODEL 6
REMARK VINA RESULT:    -4.181     18.448     19.429
REMARK INTER + INTRA:          -6.081
REMARK INTER:                  -5.895
REMARK INTRA:                  -0.186
REMARK UNBOUND:                -0.434
REMARK SMILES [NH3+]CCCC[C@@H]([NH3+])C(=O)[O-]
REMARK SMILES IDX 4 1 3 2 2 3 1 4 5 8 6 9 7 10 8 14 9 15 10 16
REMARK H PARENT 1 5 1 6 1 7 7 11 7 12 7 13
REMARK Flexibility Score: inf
ROOT
ATOM      1  C   UNL     1      12.073  -3.906  21.866  1.00  0.00     0.012 C 
ENDROOT
BRANCH   1   2
ATOM      2  C   UNL     1      11.744  -3.473  20.429  1.00  0.00     0.061 C 
BRANCH   2   3
ATOM      3  C   UNL     1      13.001  -3.175  19.597  1.00  0.00     0.258 C 
BRANCH   3   4
ATOM      4  N   UNL     1      12.810  -1.983  18.770  1.00  0.00    -0.358 N 
ATOM      5  H   UNL     1      12.737  -1.133  19.376  1.00  0.00     0.344 HD
ATOM      6  H   UNL     1      13.629  -1.875  18.131  1.00  0.00     0.344 HD
ATOM      7  H   UNL     1      11.942  -2.082  18.194  1.00  0.00     0.344 HD
ENDBRANCH   3   4
ENDBRANCH   2   3
ENDBRANCH   1   2
BRANCH   1   8
ATOM      8  C   UNL     1      13.501  -3.515  22.291  1.00  0.00     0.072 C 
BRANCH   8   9
ATOM      9  C   UNL     1      14.288  -4.717  22.858  1.00  0.00     0.227 C 
BRANCH   9  10
ATOM     10  N   UNL     1      15.002  -5.417  21.782  1.00  0.00    -0.350 N 
ATOM     11  H   UNL     1      14.764  -4.985  20.860  1.00  0.00     0.345 HD
ATOM     12  H   UNL     1      16.037  -5.363  21.930  1.00  0.00     0.345 HD
ATOM     13  H   UNL     1      14.710  -6.421  21.757  1.00  0.00     0.345 HD
ENDBRANCH   9  10
BRANCH   9  14
ATOM     14  C   UNL     1      15.258  -4.276  23.924  1.00  0.00     0.099 C 
ATOM     15  O   UNL     1      14.925  -3.406  24.771  1.00  0.00    -0.544 OA
ATOM     16  O   UNL     1      16.526  -4.840  23.982  1.00  0.00    -0.544 OA
ENDBRANCH   9  14
ENDBRANCH   8   9
ENDBRANCH   1   8
TORSDOF 7
ENDMDL
MODEL 7
REMARK VINA RESULT:    -4.122     10.913     11.631
REMARK INTER + INTRA:          -6.002
REMARK INTER:                  -5.898
REMARK INTRA:                  -0.104
REMARK UNBOUND:                -0.434
REMARK SMILES [NH3+]CCCC[C@@H]([NH3+])C(=O)[O-]
REMARK SMILES IDX 4 1 3 2 2 3 1 4 5 8 6 9 7 10 8 14 9 15 10 16
REMARK H PARENT 1 5 1 6 1 7 7 11 7 12 7 13
REMARK Flexibility Score: inf
ROOT
ATOM      1  C   UNL     1      19.931   4.967  18.708  1.00  0.00     0.012 C 
ENDROOT
BRANCH   1   2
ATOM      2  C   UNL     1      20.968   6.020  18.287  1.00  0.00     0.061 C 
BRANCH   2   3
ATOM      3  C   UNL     1      22.296   5.394  17.830  1.00  0.00     0.258 C 
BRANCH   3   4
ATOM      4  N   UNL     1      22.389   5.375  16.371  1.00  0.00    -0.358 N 
ATOM      5  H   UNL     1      22.073   4.448  16.002  1.00  0.00     0.344 HD
ATOM      6  H   UNL     1      21.774   6.123  15.979  1.00  0.00     0.344 HD
ATOM      7  H   UNL     1      23.375   5.556  16.072  1.00  0.00     0.344 HD
ENDBRANCH   3   4
ENDBRANCH   2   3
ENDBRANCH   1   2
BRANCH   1   8
ATOM      8  C   UNL     1      20.574   3.626  19.105  1.00  0.00     0.072 C 
BRANCH   8   9
ATOM      9  C   UNL     1      19.543   2.635  19.687  1.00  0.00     0.227 C 
BRANCH   9  10
ATOM     10  N   UNL     1      19.089   1.698  18.651  1.00  0.00    -0.350 N 
ATOM     11  H   UNL     1      18.044   1.678  18.625  1.00  0.00     0.345 HD
ATOM     12  H   UNL     1      19.451   1.983  17.712  1.00  0.00     0.345 HD
ATOM     13  H   UNL     1      19.428   0.733  18.872  1.00  0.00     0.345 HD
ENDBRANCH   9  10
BRANCH   9  14
ATOM     14  C   UNL     1      20.116   1.878  20.857  1.00  0.00     0.099 C 
ATOM     15  O   UNL     1      19.717   2.113  22.029  1.00  0.00    -0.544 OA
ATOM     16  O   UNL     1      21.086   0.906  20.645  1.00  0.00    -0.544 OA
ENDBRANCH   9  14
ENDBRANCH   8   9
ENDBRANCH   1   8
TORSDOF 7
ENDMDL
MODEL 8
REMARK VINA RESULT:    -4.011      2.454      4.005
REMARK INTER + INTRA:          -5.851
REMARK INTER:                  -5.614
REMARK INTRA:                  -0.237
REMARK UNBOUND:                -0.434
REMARK SMILES [NH3+]CCCC[C@@H]([NH3+])C(=O)[O-]
REMARK SMILES IDX 4 1 3 2 2 3 1 4 5 8 6 9 7 10 8 14 9 15 10 16
REMARK H PARENT 1 5 1 6 1 7 7 11 7 12 7 13
REMARK Flexibility Score: inf
ROOT
ATOM      1  C   UNL     1      19.018  12.991  11.078  1.00  0.00     0.012 C 
ENDROOT
BRANCH   1   2
ATOM      2  C   UNL     1      19.259  11.485  11.269  1.00  0.00     0.061 C 
BRANCH   2   3
ATOM      3  C   UNL     1      20.688  11.061  10.896  1.00  0.00     0.258 C 
BRANCH   3   4
ATOM      4  N   UNL     1      21.594  11.226  12.032  1.00  0.00    -0.358 N 
ATOM      5  H   UNL     1      21.083  11.052  12.928  1.00  0.00     0.344 HD
ATOM      6  H   UNL     1      22.375  10.537  11.950  1.00  0.00     0.344 HD
ATOM      7  H   UNL     1      21.994  12.192  12.035  1.00  0.00     0.344 HD
ENDBRANCH   3   4
ENDBRANCH   2   3
ENDBRANCH   1   2
BRANCH   1   8
ATOM      8  C   UNL     1      18.313  13.636  12.286  1.00  0.00     0.072 C 
BRANCH   8   9
ATOM      9  C   UNL     1      18.189  12.661  13.477  1.00  0.00     0.227 C 
BRANCH   9  10
ATOM     10  N   UNL     1      19.143  13.018  14.535  1.00  0.00    -0.350 N 
ATOM     11  H   UNL     1      19.929  13.578  14.129  1.00  0.00     0.345 HD
ATOM     12  H   UNL     1      18.673  13.579  15.282  1.00  0.00     0.345 HD
ATOM     13  H   UNL     1      19.546  12.150  14.957  1.00  0.00     0.345 HD
ENDBRANCH   9  10
BRANCH   9  14
ATOM     14  C   UNL     1      16.786  12.648  14.026  1.00  0.00     0.099 C 
ATOM     15  O   UNL     1      16.579  12.422  15.247  1.00  0.00    -0.544 OA
ATOM     16  O   UNL     1      15.711  12.897  13.182  1.00  0.00    -0.544 OA
ENDBRANCH   9  14
ENDBRANCH   8   9
ENDBRANCH   1   8
TORSDOF 7
ENDMDL
MODEL 9
REMARK VINA RESULT:    -3.947     18.404     19.513
REMARK INTER + INTRA:          -5.765
REMARK INTER:                  -5.727
REMARK INTRA:                  -0.038
REMARK UNBOUND:                -0.434
REMARK SMILES [NH3+]CCCC[C@@H]([NH3+])C(=O)[O-]
REMARK SMILES IDX 4 1 3 2 2 3 1 4 5 8 6 9 7 10 8 14 9 15 10 16
REMARK H PARENT 1 5 1 6 1 7 7 11 7 12 7 13
REMARK Flexibility Score: inf
ROOT
ATOM      1  C   UNL     1      13.714  -3.259  21.527  1.00  0.00     0.012 C 
ENDROOT
BRANCH   1   2
ATOM      2  C   UNL     1      12.823  -3.520  20.303  1.00  0.00     0.061 C 
BRANCH   2   3
ATOM      3  C   UNL     1      13.180  -2.624  19.107  1.00  0.00     0.258 C 
BRANCH   3   4
ATOM      4  N   UNL     1      14.605  -2.290  19.112  1.00  0.00    -0.358 N 
ATOM      5  H   UNL     1      15.157  -3.082  19.515  1.00  0.00     0.344 HD
ATOM      6  H   UNL     1      14.920  -2.122  18.131  1.00  0.00     0.344 HD
ATOM      7  H   UNL     1      14.768  -1.423  19.674  1.00  0.00     0.344 HD
ENDBRANCH   3   4
ENDBRANCH   2   3
ENDBRANCH   1   2
BRANCH   1   8
ATOM      8  C   UNL     1      14.287  -4.554  22.130  1.00  0.00     0.072 C 
BRANCH   8   9
ATOM      9  C   UNL     1      14.322  -4.512  23.674  1.00  0.00     0.227 C 
BRANCH   9  10
ATOM     10  N   UNL     1      15.510  -3.786  24.141  1.00  0.00    -0.350 N 
ATOM     11  H   UNL     1      15.226  -3.038  24.814  1.00  0.00     0.345 HD
ATOM     12  H   UNL     1      16.178  -4.437  24.615  1.00  0.00     0.345 HD
ATOM     13  H   UNL     1      15.989  -3.331  23.330  1.00  0.00     0.345 HD
ENDBRANCH   9  10
BRANCH   9  14
ATOM     14  C   UNL     1      13.074  -3.877  24.229  1.00  0.00     0.099 C 
ATOM     15  O   UNL     1      11.938  -4.329  23.926  1.00  0.00    -0.544 OA
ATOM     16  O   UNL     1      13.173  -2.791  25.089  1.00  0.00    -0.544 OA
ENDBRANCH   9  14
ENDBRANCH   8   9
ENDBRANCH   1   8
TORSDOF 7
ENDMDL
