MODEL 1
REMARK VINA RESULT:    -4.102      0.000      0.000
REMARK INTER + INTRA:          -5.247
REMARK INTER:                  -5.062
REMARK INTRA:                  -0.185
REMARK UNBOUND:                -0.185
REMARK SMILES C=CC[C@H](C)C(=O)CC
REMARK SMILES IDX 4 1 5 2 6 3 7 4 8 5 9 6 3 7 2 8 1 9
REMARK H PARENT
REMARK Flexibility Score: inf
ROOT
ATOM      1  C   UNL     1      10.815 -12.521  17.983  1.00  0.00     0.057 C 
ATOM      2  C   UNL     1      11.962 -12.030  17.093  1.00  0.00     0.016 C 
ENDROOT
BRANCH   1   3
ATOM      3  C   UNL     1      10.021 -13.592  17.264  1.00  0.00     0.135 C 
ATOM      4  O   UNL     1       9.636 -13.397  16.119  1.00  0.00    -0.299 OA
BRANCH   3   5
ATOM      5  C   UNL     1       9.683 -14.895  17.940  1.00  0.00     0.072 C 
ATOM      6  C   UNL     1      10.663 -15.988  17.528  1.00  0.00     0.012 C 
ENDBRANCH   3   5
ENDBRANCH   1   3
BRANCH   1   7
ATOM      7  C   UNL     1       9.910 -11.342  18.399  1.00  0.00     0.038 C 
BRANCH   7   8
ATOM      8  C   UNL     1      10.708 -10.120  18.773  1.00  0.00    -0.034 C 
ATOM      9  C   UNL     1      10.334  -8.893  18.399  1.00  0.00     0.004 C 
ENDBRANCH   7   8
ENDBRANCH   1   7
TORSDOF 4
ENDMDL
MODEL 2
REMARK VINA RESULT:    -4.066      1.671      2.962
REMARK INTER + INTRA:          -5.202
REMARK INTER:                  -4.972
REMARK INTRA:                  -0.230
REMARK UNBOUND:                -0.185
REMARK SMILES C=CC[C@H](C)C(=O)CC
REMARK SMILES IDX 4 1 5 2 6 3 7 4 8 5 9 6 3 7 2 8 1 9
REMARK H PARENT
REMARK Flexibility Score: inf
ROOT
ATOM      1  C   UNL     1       9.631 -14.829  16.667  1.00  0.00     0.057 C 
ATOM      2  C   UNL     1       9.393 -15.311  18.103  1.00  0.00     0.016 C 
ENDROOT
BRANCH   1   3
ATOM      3  C   UNL     1      10.711 -15.666  16.011  1.00  0.00     0.135 C 
ATOM      4  O   UNL     1      10.836 -15.650  14.795  1.00  0.00    -0.299 OA
BRANCH   3   5
ATOM      5  C   UNL     1      11.628 -16.532  16.833  1.00  0.00     0.072 C 
ATOM      6  C   UNL     1      12.076 -17.753  16.036  1.00  0.00     0.012 C 
ENDBRANCH   3   5
ENDBRANCH   1   3
BRANCH   1   7
ATOM      7  C   UNL     1      10.002 -13.332  16.654  1.00  0.00     0.038 C 
BRANCH   7   8
ATOM      8  C   UNL     1      10.398 -12.833  18.019  1.00  0.00    -0.034 C 
ATOM      9  C   UNL     1      10.085 -11.604  18.439  1.00  0.00     0.004 C 
ENDBRANCH   7   8
ENDBRANCH   1   7
TORSDOF 4
ENDMDL
MODEL 3
REMARK VINA RESULT:    -4.062      1.688      4.422
REMARK INTER + INTRA:          -5.197
REMARK INTER:                  -5.014
REMARK INTRA:                  -0.183
REMARK UNBOUND:                -0.185
REMARK SMILES C=CC[C@H](C)C(=O)CC
REMARK SMILES IDX 4 1 5 2 6 3 7 4 8 5 9 6 3 7 2 8 1 9
REMARK H PARENT
REMARK Flexibility Score: inf
ROOT
ATOM      1  C   UNL     1      10.499 -11.988  17.530  1.00  0.00     0.057 C 
ATOM      2  C   UNL     1      11.898 -12.159  16.927  1.00  0.00     0.016 C 
ENDROOT
BRANCH   1   3
ATOM      3  C   UNL     1      10.457 -10.748  18.400  1.00  0.00     0.135 C 
ATOM      4  O   UNL     1       9.517  -9.972  18.307  1.00  0.00    -0.299 OA
BRANCH   3   5
ATOM      5  C   UNL     1      11.566 -10.444  19.373  1.00  0.00     0.072 C 
ATOM      6  C   UNL     1      11.516  -8.985  19.813  1.00  0.00     0.012 C 
ENDBRANCH   3   5
ENDBRANCH   1   3
BRANCH   1   7
ATOM      7  C   UNL     1      10.098 -13.244  18.332  1.00  0.00     0.038 C 
BRANCH   7   8
ATOM      8  C   UNL     1      10.369 -14.514  17.568  1.00  0.00    -0.034 C 
ATOM      9  C   UNL     1       9.399 -15.388  17.286  1.00  0.00     0.004 C 
ENDBRANCH   7   8
ENDBRANCH   1   7
TORSDOF 4
ENDMDL
MODEL 4
REMARK VINA RESULT:    -4.021      1.223      4.921
REMARK INTER + INTRA:          -5.147
REMARK INTER:                  -4.980
REMARK INTRA:                  -0.166
REMARK UNBOUND:                -0.185
REMARK SMILES C=CC[C@H](C)C(=O)CC
REMARK SMILES IDX 4 1 5 2 6 3 7 4 8 5 9 6 3 7 2 8 1 9
REMARK H PARENT
REMARK Flexibility Score: inf
ROOT
ATOM      1  C   UNL     1      10.469 -14.764  17.549  1.00  0.00     0.057 C 
ATOM      2  C   UNL     1       9.216 -15.242  18.292  1.00  0.00     0.016 C 
ENDROOT
BRANCH   1   3
ATOM      3  C   UNL     1      10.304 -13.316  17.134  1.00  0.00     0.135 C 
ATOM      4  O   UNL     1       9.687 -13.043  16.114  1.00  0.00    -0.299 OA
BRANCH   3   5
ATOM      5  C   UNL     1      10.902 -12.201  17.951  1.00  0.00     0.072 C 
ATOM      6  C   UNL     1       9.827 -11.209  18.382  1.00  0.00     0.012 C 
ENDBRANCH   3   5
ENDBRANCH   1   3
BRANCH   1   7
ATOM      7  C   UNL     1      10.751 -15.664  16.329  1.00  0.00     0.038 C 
BRANCH   7   8
ATOM      8  C   UNL     1      11.897 -16.610  16.575  1.00  0.00    -0.034 C 
ATOM      9  C   UNL     1      11.971 -17.801  15.974  1.00  0.00     0.004 C 
ENDBRANCH   7   8
ENDBRANCH   1   7
TORSDOF 4
ENDMDL
MODEL 5
REMARK VINA RESULT:    -3.959     16.778     18.094
REMARK INTER + INTRA:          -5.070
REMARK INTER:                  -4.717
REMARK INTRA:                  -0.353
REMARK UNBOUND:                -0.185
REMARK SMILES C=CC[C@H](C)C(=O)CC
REMARK SMILES IDX 4 1 5 2 6 3 7 4 8 5 9 6 3 7 2 8 1 9
REMARK H PARENT
REMARK Flexibility Score: inf
ROOT
ATOM      1  C   UNL     1      -0.263 -24.923  14.474  1.00  0.00     0.057 C 
ATOM      2  C   UNL     1      -1.121 -23.956  15.297  1.00  0.00     0.016 C 
ENDROOT
BRANCH   1   3
ATOM      3  C   UNL     1      -1.152 -25.847  13.667  1.00  0.00     0.135 C 
ATOM      4  O   UNL     1      -0.669 -26.829  13.119  1.00  0.00    -0.299 OA
BRANCH   3   5
ATOM      5  C   UNL     1      -2.624 -25.571  13.513  1.00  0.00     0.072 C 
ATOM      6  C   UNL     1      -3.375 -26.839  13.123  1.00  0.00     0.012 C 
ENDBRANCH   3   5
ENDBRANCH   1   3
BRANCH   1   7
ATOM      7  C   UNL     1       0.684 -25.724  15.393  1.00  0.00     0.038 C 
BRANCH   7   8
ATOM      8  C   UNL     1       0.002 -26.166  16.661  1.00  0.00    -0.034 C 
ATOM      9  C   UNL     1      -0.369 -27.436  16.856  1.00  0.00     0.004 C 
ENDBRANCH   7   8
ENDBRANCH   1   7
TORSDOF 4
ENDMDL
MODEL 6
REMARK VINA RESULT:    -3.895     16.941     18.742
REMARK INTER + INTRA:          -4.990
REMARK INTER:                  -4.574
REMARK INTRA:                  -0.416
REMARK UNBOUND:                -0.185
REMARK SMILES C=CC[C@H](C)C(=O)CC
REMARK SMILES IDX 4 1 5 2 6 3 7 4 8 5 9 6 3 7 2 8 1 9
REMARK H PARENT
REMARK Flexibility Score: inf
ROOT
ATOM      1  C   UNL     1      -1.136 -25.064  14.173  1.00  0.00     0.057 C 
ATOM      2  C   UNL     1      -1.086 -24.076  15.344  1.00  0.00     0.016 C 
ENDROOT
BRANCH   1   3
ATOM      3  C   UNL     1      -2.334 -25.980  14.317  1.00  0.00     0.135 C 
ATOM      4  O   UNL     1      -2.530 -26.562  15.375  1.00  0.00    -0.299 OA
BRANCH   3   5
ATOM      5  C   UNL     1      -3.285 -26.200  13.170  1.00  0.00     0.072 C 
ATOM      6  C   UNL     1      -3.340 -27.676  12.788  1.00  0.00     0.012 C 
ENDBRANCH   3   5
ENDBRANCH   1   3
BRANCH   1   7
ATOM      7  C   UNL     1       0.176 -25.872  14.092  1.00  0.00     0.038 C 
BRANCH   7   8
ATOM      8  C   UNL     1       0.451 -26.367  12.696  1.00  0.00    -0.034 C 
ATOM      9  C   UNL     1       0.414 -27.668  12.389  1.00  0.00     0.004 C 
ENDBRANCH   7   8
ENDBRANCH   1   7
TORSDOF 4
ENDMDL
MODEL 7
REMARK VINA RESULT:    -3.879     16.772     17.911
REMARK INTER + INTRA:          -4.971
REMARK INTER:                  -4.467
REMARK INTRA:                  -0.504
REMARK UNBOUND:                -0.185
REMARK SMILES C=CC[C@H](C)C(=O)CC
REMARK SMILES IDX 4 1 5 2 6 3 7 4 8 5 9 6 3 7 2 8 1 9
REMARK H PARENT
REMARK Flexibility Score: inf
ROOT
ATOM      1  C   UNL     1      -0.398 -25.861  14.638  1.00  0.00     0.057 C 
ATOM      2  C   UNL     1       0.303 -25.766  15.998  1.00  0.00     0.016 C 
ENDROOT
BRANCH   1   3
ATOM      3  C   UNL     1       0.574 -25.518  13.528  1.00  0.00     0.135 C 
ATOM      4  O   UNL     1       1.235 -24.491  13.594  1.00  0.00    -0.299 OA
BRANCH   3   5
ATOM      5  C   UNL     1       0.733 -26.417  12.330  1.00  0.00     0.072 C 
ATOM      6  C   UNL     1       0.319 -27.845  12.666  1.00  0.00     0.012 C 
ENDBRANCH   3   5
ENDBRANCH   1   3
BRANCH   1   7
ATOM      7  C   UNL     1      -1.633 -24.937  14.601  1.00  0.00     0.038 C 
BRANCH   7   8
ATOM      8  C   UNL     1      -2.597 -25.322  13.509  1.00  0.00    -0.034 C 
ATOM      9  C   UNL     1      -3.086 -26.561  13.405  1.00  0.00     0.004 C 
ENDBRANCH   7   8
ENDBRANCH   1   7
TORSDOF 4
ENDMDL
MODEL 8
REMARK VINA RESULT:    -3.828     16.403     18.169
REMARK INTER + INTRA:          -4.909
REMARK INTER:                  -4.449
REMARK INTRA:                  -0.460
REMARK UNBOUND:                -0.185
REMARK SMILES C=CC[C@H](C)C(=O)CC
REMARK SMILES IDX 4 1 5 2 6 3 7 4 8 5 9 6 3 7 2 8 1 9
REMARK H PARENT
REMARK Flexibility Score: inf
ROOT
ATOM      1  C   UNL     1      -0.622 -26.145  13.455  1.00  0.00     0.057 C 
ATOM      2  C   UNL     1       0.461 -26.960  12.738  1.00  0.00     0.016 C 
ENDROOT
BRANCH   1   3
ATOM      3  C   UNL     1       0.009 -24.992  14.208  1.00  0.00     0.135 C 
ATOM      4  O   UNL     1       1.141 -24.628  13.923  1.00  0.00    -0.299 OA
BRANCH   3   5
ATOM      5  C   UNL     1      -0.731 -24.290  15.316  1.00  0.00     0.072 C 
ATOM      6  C   UNL     1      -1.615 -23.179  14.758  1.00  0.00     0.012 C 
ENDBRANCH   3   5
ENDBRANCH   1   3
BRANCH   1   7
ATOM      7  C   UNL     1      -1.440 -27.047  14.402  1.00  0.00     0.038 C 
BRANCH   7   8
ATOM      8  C   UNL     1      -2.911 -27.026  14.076  1.00  0.00    -0.034 C 
ATOM      9  C   UNL     1      -3.405 -26.262  13.098  1.00  0.00     0.004 C 
ENDBRANCH   7   8
ENDBRANCH   1   7
TORSDOF 4
ENDMDL
MODEL 9
REMARK VINA RESULT:    -3.813     16.320     17.843
REMARK INTER + INTRA:          -4.890
REMARK INTER:                  -4.418
REMARK INTRA:                  -0.471
REMARK UNBOUND:                -0.185
REMARK SMILES C=CC[C@H](C)C(=O)CC
REMARK SMILES IDX 4 1 5 2 6 3 7 4 8 5 9 6 3 7 2 8 1 9
REMARK H PARENT
REMARK Flexibility Score: inf
ROOT
ATOM      1  C   UNL     1      -1.269 -24.830  15.080  1.00  0.00     0.057 C 
ATOM      2  C   UNL     1      -1.436 -23.327  15.329  1.00  0.00     0.016 C 
ENDROOT
BRANCH   1   3
ATOM      3  C   UNL     1       0.198 -25.169  14.916  1.00  0.00     0.135 C 
ATOM      4  O   UNL     1       0.838 -24.669  14.001  1.00  0.00    -0.299 OA
BRANCH   3   5
ATOM      5  C   UNL     1       0.884 -26.126  15.855  1.00  0.00     0.072 C 
ATOM      6  C   UNL     1      -0.116 -26.736  16.831  1.00  0.00     0.012 C 
ENDBRANCH   3   5
ENDBRANCH   1   3
BRANCH   1   7
ATOM      7  C   UNL     1      -2.083 -25.267  13.844  1.00  0.00     0.038 C 
BRANCH   7   8
ATOM      8  C   UNL     1      -2.568 -26.689  13.959  1.00  0.00    -0.034 C 
ATOM      9  C   UNL     1      -2.006 -27.684  13.265  1.00  0.00     0.004 C 
ENDBRANCH   7   8
ENDBRANCH   1   7
TORSDOF 4
ENDMDL
