MODEL 1
REMARK VINA RESULT:    -2.531      0.000      0.000
REMARK INTER + INTRA:          -2.531
REMARK INTER:                  -2.531
REMARK INTRA:                   0.000
REMARK UNBOUND:                 0.000
REMARK SMILES CC(=O)[O-]
REMARK SMILES IDX 1 1 2 2 3 3 4 4
REMARK H PARENT
REMARK Flexibility Score: inf
ROOT
ATOM      1  C   UNL     1     -21.100 -28.842 -22.173  1.00  0.00     0.063 C 
ATOM      2  C   UNL     1     -20.441 -28.748 -23.508  1.00  0.00     0.038 C 
ATOM      3  O   UNL     1     -20.520 -29.708 -24.319  1.00  0.00    -0.550 OA
ATOM      4  O   UNL     1     -19.694 -27.625 -23.838  1.00  0.00    -0.550 OA
ENDROOT
TORSDOF 0
ENDMDL
MODEL 2
REMARK VINA RESULT:    -2.486      3.325      4.035
REMARK INTER + INTRA:          -2.486
REMARK INTER:                  -2.486
REMARK INTRA:                   0.000
REMARK UNBOUND:                 0.000
REMARK SMILES CC(=O)[O-]
REMARK SMILES IDX 1 1 2 2 3 3 4 4
REMARK H PARENT
REMARK Flexibility Score: inf
ROOT
ATOM      1  C   UNL     1     -17.653 -25.198 -23.103  1.00  0.00     0.063 C 
ATOM      2  C   UNL     1     -18.350 -25.858 -24.245  1.00  0.00     0.038 C 
ATOM      3  O   UNL     1     -18.276 -25.363 -25.400  1.00  0.00    -0.550 OA
ATOM      4  O   UNL     1     -19.125 -26.989 -24.027  1.00  0.00    -0.550 OA
ENDROOT
TORSDOF 0
ENDMDL
MODEL 3
REMARK VINA RESULT:    -2.389      1.364      2.090
REMARK INTER + INTRA:          -2.389
REMARK INTER:                  -2.389
REMARK INTRA:                   0.000
REMARK UNBOUND:                 0.000
REMARK SMILES CC(=O)[O-]
REMARK SMILES IDX 1 1 2 2 3 3 4 4
REMARK H PARENT
REMARK Flexibility Score: inf
ROOT
ATOM      1  C   UNL     1     -20.481 -29.902 -24.479  1.00  0.00     0.063 C 
ATOM      2  C   UNL     1     -20.448 -28.765 -23.515  1.00  0.00     0.038 C 
ATOM      3  O   UNL     1     -19.764 -27.739 -23.773  1.00  0.00    -0.550 OA
ATOM      4  O   UNL     1     -21.127 -28.856 -22.308  1.00  0.00    -0.550 OA
ENDROOT
TORSDOF 0
ENDMDL
MODEL 4
REMARK VINA RESULT:    -2.373      8.860      9.252
REMARK INTER + INTRA:          -2.373
REMARK INTER:                  -2.373
REMARK INTRA:                   0.000
REMARK UNBOUND:                 0.000
REMARK SMILES CC(=O)[O-]
REMARK SMILES IDX 1 1 2 2 3 3 4 4
REMARK H PARENT
REMARK Flexibility Score: inf
ROOT
ATOM      1  C   UNL     1     -26.521 -23.587 -17.505  1.00  0.00     0.063 C 
ATOM      2  C   UNL     1     -26.729 -24.901 -18.180  1.00  0.00     0.038 C 
ATOM      3  O   UNL     1     -25.738 -25.602 -18.515  1.00  0.00    -0.550 OA
ATOM      4  O   UNL     1     -28.013 -25.329 -18.490  1.00  0.00    -0.550 OA
ENDROOT
TORSDOF 0
ENDMDL
MODEL 5
REMARK VINA RESULT:    -2.346      3.377      4.351
REMARK INTER + INTRA:          -2.346
REMARK INTER:                  -2.346
REMARK INTRA:                   0.000
REMARK UNBOUND:                 0.000
REMARK SMILES CC(=O)[O-]
REMARK SMILES IDX 1 1 2 2 3 3 4 4
REMARK H PARENT
REMARK Flexibility Score: inf
ROOT
ATOM      1  C   UNL     1     -18.282 -25.236 -25.612  1.00  0.00     0.063 C 
ATOM      2  C   UNL     1     -18.333 -25.821 -24.241  1.00  0.00     0.038 C 
ATOM      3  O   UNL     1     -17.652 -25.311 -23.313  1.00  0.00    -0.550 OA
ATOM      4  O   UNL     1     -19.088 -26.960 -23.998  1.00  0.00    -0.550 OA
ENDROOT
TORSDOF 0
ENDMDL
MODEL 6
REMARK VINA RESULT:    -2.333      8.924      9.416
REMARK INTER + INTRA:          -2.333
REMARK INTER:                  -2.333
REMARK INTRA:                   0.000
REMARK UNBOUND:                 0.000
REMARK SMILES CC(=O)[O-]
REMARK SMILES IDX 1 1 2 2 3 3 4 4
REMARK H PARENT
REMARK Flexibility Score: inf
ROOT
ATOM      1  C   UNL     1     -25.397 -25.317 -18.372  1.00  0.00     0.063 C 
ATOM      2  C   UNL     1     -26.710 -24.652 -18.125  1.00  0.00     0.038 C 
ATOM      3  O   UNL     1     -26.749 -23.505 -17.609  1.00  0.00    -0.550 OA
ATOM      4  O   UNL     1     -27.893 -25.319 -18.414  1.00  0.00    -0.550 OA
ENDROOT
TORSDOF 0
ENDMDL
MODEL 7
REMARK VINA RESULT:    -2.324      9.105      9.617
REMARK INTER + INTRA:          -2.324
REMARK INTER:                  -2.324
REMARK INTRA:                   0.000
REMARK UNBOUND:                 0.000
REMARK SMILES CC(=O)[O-]
REMARK SMILES IDX 1 1 2 2 3 3 4 4
REMARK H PARENT
REMARK Flexibility Score: inf
ROOT
ATOM      1  C   UNL     1     -28.220 -24.927 -17.864  1.00  0.00     0.063 C 
ATOM      2  C   UNL     1     -26.834 -24.393 -17.994  1.00  0.00     0.038 C 
ATOM      3  O   UNL     1     -26.581 -23.206 -17.658  1.00  0.00    -0.550 OA
ATOM      4  O   UNL     1     -25.831 -25.185 -18.536  1.00  0.00    -0.550 OA
ENDROOT
TORSDOF 0
ENDMDL
MODEL 8
REMARK VINA RESULT:    -2.287     10.550     10.909
REMARK INTER + INTRA:          -2.287
REMARK INTER:                  -2.287
REMARK INTRA:                   0.000
REMARK UNBOUND:                 0.000
REMARK SMILES CC(=O)[O-]
REMARK SMILES IDX 1 1 2 2 3 3 4 4
REMARK H PARENT
REMARK Flexibility Score: inf
ROOT
ATOM      1  C   UNL     1     -12.619 -28.186 -16.905  1.00  0.00     0.063 C 
ATOM      2  C   UNL     1     -11.619 -27.185 -17.377  1.00  0.00     0.038 C 
ATOM      3  O   UNL     1     -11.911 -26.394 -18.312  1.00  0.00    -0.550 OA
ATOM      4  O   UNL     1     -10.346 -27.158 -16.823  1.00  0.00    -0.550 OA
ENDROOT
TORSDOF 0
ENDMDL
MODEL 9
REMARK VINA RESULT:    -2.260     10.513     10.857
REMARK INTER + INTRA:          -2.260
REMARK INTER:                  -2.260
REMARK INTRA:                   0.000
REMARK UNBOUND:                 0.000
REMARK SMILES CC(=O)[O-]
REMARK SMILES IDX 1 1 2 2 3 3 4 4
REMARK H PARENT
REMARK Flexibility Score: inf
ROOT
ATOM      1  C   UNL     1     -10.409 -26.898 -17.137  1.00  0.00     0.063 C 
ATOM      2  C   UNL     1     -11.832 -27.240 -17.423  1.00  0.00     0.038 C 
ATOM      3  O   UNL     1     -12.498 -26.543 -18.233  1.00  0.00    -0.550 OA
ATOM      4  O   UNL     1     -12.442 -28.294 -16.756  1.00  0.00    -0.550 OA
ENDROOT
TORSDOF 0
ENDMDL
