MODEL 1
REMARK VINA RESULT:    -8.889      0.000      0.000
REMARK INTER + INTRA:          -9.149
REMARK INTER:                  -9.149
REMARK INTRA:                   0.000
REMARK UNBOUND:                 0.000
REMARK SMILES C[C@@H]1CC[C@@]2(OC1)O[C@@H]1C[C@H]3[C@H]4CC=C5C[C@@H](O)CC[C@@]5(C)[C@@H]4CC[C@@]3(C)[C@@H]1[C@@H]2C
REMARK SMILES IDX 1 1 2 2 3 3 4 4 5 5 29 6 28 7 9 8 8 9 10 10 11 11 26 12
REMARK SMILES IDX 25 13 24 14 23 15 12 16 13 17 14 18 15 19 21 20 20 21 19 22
REMARK SMILES IDX 17 23 16 24 22 25 27 26 30 27 6 28 7 29 18 30
REMARK H PARENT 18 31
REMARK Flexibility Score: inf
ROOT
ATOM      1  C   UNL     1      20.256  23.195 178.302  1.00  0.00     0.010 C 
ATOM      2  C   UNL     1      20.215  24.628 177.764  1.00  0.00     0.012 C 
ATOM      3  C   UNL     1      18.768  25.107 177.595  1.00  0.00     0.011 C 
ATOM      4  C   UNL     1      18.743  26.485 176.932  1.00  0.00     0.066 C 
ATOM      5  C   UNL     1      19.586  26.485 175.623  1.00  0.00     0.171 C 
ATOM      6  C   UNL     1      19.604  27.895 174.985  1.00  0.00     0.052 C 
ATOM      7  C   UNL     1      18.272  27.879 174.208  1.00  0.00     0.033 C 
ATOM      8  C   UNL     1      18.091  26.401 173.900  1.00  0.00     0.126 C 
ATOM      9  O   UNL     1      18.997  25.629 174.662  1.00  0.00    -0.346 OA
ATOM     10  C   UNL     1      18.336  26.229 172.392  1.00  0.00     0.037 C 
ATOM     11  C   UNL     1      18.614  27.634 171.811  1.00  0.00     0.002 C 
ATOM     12  C   UNL     1      18.043  28.621 172.855  1.00  0.00    -0.024 C 
ATOM     13  C   UNL     1      16.496  28.764 172.652  1.00  0.00     0.008 C 
ATOM     14  C   UNL     1      16.095  29.094 171.211  1.00  0.00     0.005 C 
ATOM     15  C   UNL     1      16.598  28.021 170.217  1.00  0.00     0.003 C 
ATOM     16  C   UNL     1      18.133  27.877 170.345  1.00  0.00     0.000 C 
ATOM     17  C   UNL     1      18.660  26.774 169.411  1.00  0.00     0.031 C 
ATOM     18  C   UNL     1      18.094  26.845 168.026  1.00  0.00    -0.027 C 
ATOM     19  C   UNL     1      16.892  27.383 167.740  1.00  0.00    -0.065 C 
ATOM     20  C   UNL     1      16.149  28.301 168.724  1.00  0.00    -0.008 C 
ATOM     21  C   UNL     1      14.616  28.023 168.605  1.00  0.00     0.014 C 
ATOM     22  C   UNL     1      14.101  27.987 167.156  1.00  0.00     0.033 C 
ATOM     23  C   UNL     1      14.860  26.950 166.317  1.00  0.00     0.118 C 
ATOM     24  C   UNL     1      16.363  27.246 166.322  1.00  0.00     0.063 C 
ATOM     25  C   UNL     1      16.437  29.771 168.307  1.00  0.00     0.016 C 
ATOM     26  C   UNL     1      18.700  30.031 172.809  1.00  0.00     0.012 C 
ATOM     27  C   UNL     1      20.899  28.092 174.163  1.00  0.00     0.014 C 
ATOM     28  O   UNL     1      20.914  26.059 175.919  1.00  0.00    -0.349 OA
ATOM     29  C   UNL     1      20.947  24.731 176.417  1.00  0.00     0.167 C 
ENDROOT
BRANCH  23  30
ATOM     30  O   UNL     1      14.635  25.654 166.810  1.00  0.00    -0.393 OA
ATOM     31  H   UNL     1      14.659  25.716 167.800  1.00  0.00     0.210 HD
ENDBRANCH  23  30
TORSDOF 1
ENDMDL
MODEL 2
REMARK VINA RESULT:    -8.052      1.089      1.250
REMARK INTER + INTRA:          -8.288
REMARK INTER:                  -8.288
REMARK INTRA:                   0.000
REMARK UNBOUND:                 0.000
REMARK SMILES C[C@@H]1CC[C@@]2(OC1)O[C@@H]1C[C@H]3[C@H]4CC=C5C[C@@H](O)CC[C@@]5(C)[C@@H]4CC[C@@]3(C)[C@@H]1[C@@H]2C
REMARK SMILES IDX 1 1 2 2 3 3 4 4 5 5 29 6 28 7 9 8 8 9 10 10 11 11 26 12
REMARK SMILES IDX 25 13 24 14 23 15 12 16 13 17 14 18 15 19 21 20 20 21 19 22
REMARK SMILES IDX 17 23 16 24 22 25 27 26 30 27 6 28 7 29 18 30
REMARK H PARENT 18 31
REMARK Flexibility Score: inf
ROOT
ATOM      1  C   UNL     1      20.275  22.758 178.865  1.00  0.00     0.010 C 
ATOM      2  C   UNL     1      20.577  24.124 178.241  1.00  0.00     0.012 C 
ATOM      3  C   UNL     1      19.349  25.040 178.315  1.00  0.00     0.011 C 
ATOM      4  C   UNL     1      19.623  26.347 177.570  1.00  0.00     0.066 C 
ATOM      5  C   UNL     1      20.139  26.065 176.128  1.00  0.00     0.171 C 
ATOM      6  C   UNL     1      20.467  27.389 175.396  1.00  0.00     0.052 C 
ATOM      7  C   UNL     1      19.069  27.795 174.889  1.00  0.00     0.033 C 
ATOM      8  C   UNL     1      18.375  26.451 174.731  1.00  0.00     0.126 C 
ATOM      9  O   UNL     1      19.129  25.436 175.361  1.00  0.00    -0.346 OA
ATOM     10  C   UNL     1      18.243  26.197 173.221  1.00  0.00     0.037 C 
ATOM     11  C   UNL     1      18.822  27.433 172.495  1.00  0.00     0.002 C 
ATOM     12  C   UNL     1      18.813  28.560 173.553  1.00  0.00    -0.024 C 
ATOM     13  C   UNL     1      17.381  29.190 173.638  1.00  0.00     0.008 C 
ATOM     14  C   UNL     1      16.820  29.619 172.279  1.00  0.00     0.005 C 
ATOM     15  C   UNL     1      16.749  28.433 171.289  1.00  0.00     0.003 C 
ATOM     16  C   UNL     1      18.153  27.804 171.134  1.00  0.00     0.000 C 
ATOM     17  C   UNL     1      18.108  26.582 170.200  1.00  0.00     0.031 C 
ATOM     18  C   UNL     1      17.323  26.819 168.946  1.00  0.00    -0.027 C 
ATOM     19  C   UNL     1      16.318  27.713 168.855  1.00  0.00    -0.065 C 
ATOM     20  C   UNL     1      16.116  28.829 169.892  1.00  0.00    -0.008 C 
ATOM     21  C   UNL     1      14.582  29.058 170.087  1.00  0.00     0.014 C 
ATOM     22  C   UNL     1      13.799  29.176 168.769  1.00  0.00     0.033 C 
ATOM     23  C   UNL     1      14.008  27.944 167.879  1.00  0.00     0.118 C 
ATOM     24  C   UNL     1      15.496  27.740 167.577  1.00  0.00     0.063 C 
ATOM     25  C   UNL     1      16.758  30.125 169.321  1.00  0.00     0.016 C 
ATOM     26  C   UNL     1      19.855  29.683 173.281  1.00  0.00     0.012 C 
ATOM     27  C   UNL     1      21.563  27.153 174.331  1.00  0.00     0.014 C 
ATOM     28  O   UNL     1      21.298  25.238 176.197  1.00  0.00    -0.349 OA
ATOM     29  C   UNL     1      21.014  23.975 176.775  1.00  0.00     0.167 C 
ENDROOT
BRANCH  23  30
ATOM     30  O   UNL     1      13.494  26.793 168.499  1.00  0.00    -0.393 OA
ATOM     31  H   UNL     1      13.845  26.787 169.428  1.00  0.00     0.210 HD
ENDBRANCH  23  30
TORSDOF 1
ENDMDL
MODEL 3
REMARK VINA RESULT:    -7.537      2.179      8.595
REMARK INTER + INTRA:          -7.757
REMARK INTER:                  -7.757
REMARK INTRA:                   0.000
REMARK UNBOUND:                 0.000
REMARK SMILES C[C@@H]1CC[C@@]2(OC1)O[C@@H]1C[C@H]3[C@H]4CC=C5C[C@@H](O)CC[C@@]5(C)[C@@H]4CC[C@@]3(C)[C@@H]1[C@@H]2C
REMARK SMILES IDX 1 1 2 2 3 3 4 4 5 5 29 6 28 7 9 8 8 9 10 10 11 11 26 12
REMARK SMILES IDX 25 13 24 14 23 15 12 16 13 17 14 18 15 19 21 20 20 21 19 22
REMARK SMILES IDX 17 23 16 24 22 25 27 26 30 27 6 28 7 29 18 30
REMARK H PARENT 18 31
REMARK Flexibility Score: inf
ROOT
ATOM      1  C   UNL     1      15.009  27.513 166.816  1.00  0.00     0.010 C 
ATOM      2  C   UNL     1      16.355  27.693 167.525  1.00  0.00     0.012 C 
ATOM      3  C   UNL     1      16.853  26.360 168.096  1.00  0.00     0.011 C 
ATOM      4  C   UNL     1      18.126  26.581 168.914  1.00  0.00     0.066 C 
ATOM      5  C   UNL     1      17.916  27.705 169.971  1.00  0.00     0.171 C 
ATOM      6  C   UNL     1      19.223  27.964 170.759  1.00  0.00     0.052 C 
ATOM      7  C   UNL     1      19.145  26.853 171.826  1.00  0.00     0.033 C 
ATOM      8  C   UNL     1      17.645  26.652 171.978  1.00  0.00     0.126 C 
ATOM      9  O   UNL     1      16.956  27.301 170.930  1.00  0.00    -0.346 OA
ATOM     10  C   UNL     1      17.258  27.230 173.349  1.00  0.00     0.037 C 
ATOM     11  C   UNL     1      18.559  27.729 174.019  1.00  0.00     0.002 C 
ATOM     12  C   UNL     1      19.700  26.995 173.277  1.00  0.00    -0.024 C 
ATOM     13  C   UNL     1      19.865  25.552 173.862  1.00  0.00     0.008 C 
ATOM     14  C   UNL     1      20.005  25.521 175.387  1.00  0.00     0.005 C 
ATOM     15  C   UNL     1      18.789  26.171 176.087  1.00  0.00     0.003 C 
ATOM     16  C   UNL     1      18.612  27.620 175.576  1.00  0.00     0.000 C 
ATOM     17  C   UNL     1      17.373  28.277 176.209  1.00  0.00     0.031 C 
ATOM     18  C   UNL     1      17.271  28.057 177.687  1.00  0.00    -0.027 C 
ATOM     19  C   UNL     1      17.804  26.992 178.320  1.00  0.00    -0.065 C 
ATOM     20  C   UNL     1      18.874  26.102 177.667  1.00  0.00    -0.008 C 
ATOM     21  C   UNL     1      18.635  24.624 178.115  1.00  0.00     0.014 C 
ATOM     22  C   UNL     1      18.415  24.461 179.628  1.00  0.00     0.033 C 
ATOM     23  C   UNL     1      17.247  25.326 180.123  1.00  0.00     0.118 C 
ATOM     24  C   UNL     1      17.490  26.802 179.793  1.00  0.00     0.063 C 
ATOM     25  C   UNL     1      20.261  26.575 178.185  1.00  0.00     0.016 C 
ATOM     26  C   UNL     1      21.066  27.736 173.341  1.00  0.00     0.012 C 
ATOM     27  C   UNL     1      19.261  29.426 171.264  1.00  0.00     0.014 C 
ATOM     28  O   UNL     1      17.491  28.896 169.313  1.00  0.00    -0.349 OA
ATOM     29  C   UNL     1      16.245  28.725 168.658  1.00  0.00     0.167 C 
ENDROOT
BRANCH  23  30
ATOM     30  O   UNL     1      16.040  24.907 179.539  1.00  0.00    -0.393 OA
ATOM     31  H   UNL     1      16.014  25.297 178.626  1.00  0.00     0.210 HD
ENDBRANCH  23  30
TORSDOF 1
ENDMDL
MODEL 4
REMARK VINA RESULT:    -7.519      1.914      8.515
REMARK INTER + INTRA:          -7.739
REMARK INTER:                  -7.739
REMARK INTRA:                   0.000
REMARK UNBOUND:                 0.000
REMARK SMILES C[C@@H]1CC[C@@]2(OC1)O[C@@H]1C[C@H]3[C@H]4CC=C5C[C@@H](O)CC[C@@]5(C)[C@@H]4CC[C@@]3(C)[C@@H]1[C@@H]2C
REMARK SMILES IDX 1 1 2 2 3 3 4 4 5 5 29 6 28 7 9 8 8 9 10 10 11 11 26 12
REMARK SMILES IDX 25 13 24 14 23 15 12 16 13 17 14 18 15 19 21 20 20 21 19 22
REMARK SMILES IDX 17 23 16 24 22 25 27 26 30 27 6 28 7 29 18 30
REMARK H PARENT 18 31
REMARK Flexibility Score: inf
ROOT
ATOM      1  C   UNL     1      11.531  28.599 167.948  1.00  0.00     0.010 C 
ATOM      2  C   UNL     1      13.052  28.764 168.015  1.00  0.00     0.012 C 
ATOM      3  C   UNL     1      13.747  27.398 168.080  1.00  0.00     0.011 C 
ATOM      4  C   UNL     1      15.251  27.582 168.282  1.00  0.00     0.066 C 
ATOM      5  C   UNL     1      15.536  28.515 169.496  1.00  0.00     0.171 C 
ATOM      6  C   UNL     1      17.058  28.744 169.664  1.00  0.00     0.052 C 
ATOM      7  C   UNL     1      17.455  27.481 170.455  1.00  0.00     0.033 C 
ATOM      8  C   UNL     1      16.178  27.154 171.212  1.00  0.00     0.126 C 
ATOM      9  O   UNL     1      15.098  27.905 170.696  1.00  0.00    -0.346 OA
ATOM     10  C   UNL     1      16.440  27.490 172.689  1.00  0.00     0.037 C 
ATOM     11  C   UNL     1      17.905  27.971 172.796  1.00  0.00     0.002 C 
ATOM     12  C   UNL     1      18.596  27.440 171.518  1.00  0.00    -0.024 C 
ATOM     13  C   UNL     1      18.997  25.940 171.722  1.00  0.00     0.008 C 
ATOM     14  C   UNL     1      19.799  25.689 173.003  1.00  0.00     0.005 C 
ATOM     15  C   UNL     1      19.021  26.138 174.262  1.00  0.00     0.003 C 
ATOM     16  C   UNL     1      18.642  27.632 174.130  1.00  0.00     0.000 C 
ATOM     17  C   UNL     1      17.815  28.097 175.341  1.00  0.00     0.031 C 
ATOM     18  C   UNL     1      18.377  27.648 176.655  1.00  0.00    -0.027 C 
ATOM     19  C   UNL     1      19.131  26.541 176.803  1.00  0.00    -0.065 C 
ATOM     20  C   UNL     1      19.797  25.837 175.609  1.00  0.00    -0.008 C 
ATOM     21  C   UNL     1      19.775  24.295 175.863  1.00  0.00     0.014 C 
ATOM     22  C   UNL     1      20.248  23.890 177.269  1.00  0.00     0.033 C 
ATOM     23  C   UNL     1      19.424  24.585 178.362  1.00  0.00     0.118 C 
ATOM     24  C   UNL     1      19.501  26.107 178.211  1.00  0.00     0.063 C 
ATOM     25  C   UNL     1      21.273  26.323 175.539  1.00  0.00     0.016 C 
ATOM     26  C   UNL     1      19.853  28.257 171.101  1.00  0.00     0.012 C 
ATOM     27  C   UNL     1      17.321  30.111 170.338  1.00  0.00     0.014 C 
ATOM     28  O   UNL     1      14.868  29.760 169.299  1.00  0.00    -0.349 OA
ATOM     29  C   UNL     1      13.460  29.602 169.237  1.00  0.00     0.167 C 
ENDROOT
BRANCH  23  30
ATOM     30  O   UNL     1      18.081  24.176 178.304  1.00  0.00    -0.393 OA
ATOM     31  H   UNL     1      18.086  23.186 178.226  1.00  0.00     0.210 HD
ENDBRANCH  23  30
TORSDOF 1
ENDMDL
MODEL 5
REMARK VINA RESULT:    -7.488      6.756     10.559
REMARK INTER + INTRA:          -7.707
REMARK INTER:                  -7.707
REMARK INTRA:                   0.000
REMARK UNBOUND:                 0.000
REMARK SMILES C[C@@H]1CC[C@@]2(OC1)O[C@@H]1C[C@H]3[C@H]4CC=C5C[C@@H](O)CC[C@@]5(C)[C@@H]4CC[C@@]3(C)[C@@H]1[C@@H]2C
REMARK SMILES IDX 1 1 2 2 3 3 4 4 5 5 29 6 28 7 9 8 8 9 10 10 11 11 26 12
REMARK SMILES IDX 25 13 24 14 23 15 12 16 13 17 14 18 15 19 21 20 20 21 19 22
REMARK SMILES IDX 17 23 16 24 22 25 27 26 30 27 6 28 7 29 18 30
REMARK H PARENT 18 31
REMARK Flexibility Score: inf
ROOT
ATOM      1  C   UNL     1       8.000  24.881 183.622  1.00  0.00     0.010 C 
ATOM      2  C   UNL     1       9.133  25.911 183.639  1.00  0.00     0.012 C 
ATOM      3  C   UNL     1       9.312  26.549 182.256  1.00  0.00     0.011 C 
ATOM      4  C   UNL     1      10.531  27.472 182.256  1.00  0.00     0.066 C 
ATOM      5  C   UNL     1      11.788  26.730 182.798  1.00  0.00     0.171 C 
ATOM      6  C   UNL     1      13.006  27.684 182.849  1.00  0.00     0.052 C 
ATOM      7  C   UNL     1      13.501  27.600 181.390  1.00  0.00     0.033 C 
ATOM      8  C   UNL     1      13.057  26.206 180.974  1.00  0.00     0.126 C 
ATOM      9  O   UNL     1      12.151  25.679 181.922  1.00  0.00    -0.346 OA
ATOM     10  C   UNL     1      14.328  25.348 180.874  1.00  0.00     0.037 C 
ATOM     11  C   UNL     1      15.529  26.269 181.189  1.00  0.00     0.002 C 
ATOM     12  C   UNL     1      15.001  27.706 180.971  1.00  0.00    -0.024 C 
ATOM     13  C   UNL     1      15.039  28.054 179.445  1.00  0.00     0.008 C 
ATOM     14  C   UNL     1      16.400  27.796 178.791  1.00  0.00     0.005 C 
ATOM     15  C   UNL     1      16.836  26.319 178.943  1.00  0.00     0.003 C 
ATOM     16  C   UNL     1      16.860  25.939 180.441  1.00  0.00     0.000 C 
ATOM     17  C   UNL     1      17.232  24.457 180.626  1.00  0.00     0.031 C 
ATOM     18  C   UNL     1      18.402  24.029 179.793  1.00  0.00    -0.027 C 
ATOM     19  C   UNL     1      18.744  24.619 178.630  1.00  0.00    -0.065 C 
ATOM     20  C   UNL     1      18.212  26.003 178.225  1.00  0.00    -0.008 C 
ATOM     21  C   UNL     1      17.983  26.018 176.680  1.00  0.00     0.014 C 
ATOM     22  C   UNL     1      19.165  25.457 175.871  1.00  0.00     0.033 C 
ATOM     23  C   UNL     1      19.517  24.028 176.307  1.00  0.00     0.118 C 
ATOM     24  C   UNL     1      19.849  23.986 177.802  1.00  0.00     0.063 C 
ATOM     25  C   UNL     1      19.301  27.051 178.591  1.00  0.00     0.016 C 
ATOM     26  C   UNL     1      15.785  28.789 181.766  1.00  0.00     0.012 C 
ATOM     27  C   UNL     1      13.989  27.236 183.955  1.00  0.00     0.014 C 
ATOM     28  O   UNL     1      11.506  26.218 184.098  1.00  0.00    -0.349 OA
ATOM     29  C   UNL     1      10.457  25.265 184.078  1.00  0.00     0.167 C 
ENDROOT
BRANCH  23  30
ATOM     30  O   UNL     1      18.451  23.153 176.039  1.00  0.00    -0.393 OA
ATOM     31  H   UNL     1      18.361  22.560 176.831  1.00  0.00     0.210 HD
ENDBRANCH  23  30
TORSDOF 1
ENDMDL
MODEL 6
REMARK VINA RESULT:    -7.441      1.829      8.504
REMARK INTER + INTRA:          -7.659
REMARK INTER:                  -7.659
REMARK INTRA:                   0.000
REMARK UNBOUND:                 0.000
REMARK SMILES C[C@@H]1CC[C@@]2(OC1)O[C@@H]1C[C@H]3[C@H]4CC=C5C[C@@H](O)CC[C@@]5(C)[C@@H]4CC[C@@]3(C)[C@@H]1[C@@H]2C
REMARK SMILES IDX 1 1 2 2 3 3 4 4 5 5 29 6 28 7 9 8 8 9 10 10 11 11 26 12
REMARK SMILES IDX 25 13 24 14 23 15 12 16 13 17 14 18 15 19 21 20 20 21 19 22
REMARK SMILES IDX 17 23 16 24 22 25 27 26 30 27 6 28 7 29 18 30
REMARK H PARENT 18 31
REMARK Flexibility Score: inf
ROOT
ATOM      1  C   UNL     1      14.596  26.751 166.169  1.00  0.00     0.010 C 
ATOM      2  C   UNL     1      15.803  27.462 166.789  1.00  0.00     0.012 C 
ATOM      3  C   UNL     1      16.883  26.451 167.192  1.00  0.00     0.011 C 
ATOM      4  C   UNL     1      18.019  27.161 167.929  1.00  0.00     0.066 C 
ATOM      5  C   UNL     1      17.465  28.022 169.102  1.00  0.00     0.171 C 
ATOM      6  C   UNL     1      18.611  28.783 169.811  1.00  0.00     0.052 C 
ATOM      7  C   UNL     1      19.133  27.693 170.769  1.00  0.00     0.033 C 
ATOM      8  C   UNL     1      17.891  26.850 171.014  1.00  0.00     0.126 C 
ATOM      9  O   UNL     1      16.881  27.190 170.087  1.00  0.00    -0.346 OA
ATOM     10  C   UNL     1      17.445  27.129 172.458  1.00  0.00     0.037 C 
ATOM     11  C   UNL     1      18.471  28.107 173.074  1.00  0.00     0.002 C 
ATOM     12  C   UNL     1      19.728  27.985 172.182  1.00  0.00    -0.024 C 
ATOM     13  C   UNL     1      20.558  26.729 172.613  1.00  0.00     0.008 C 
ATOM     14  C   UNL     1      20.863  26.681 174.113  1.00  0.00     0.005 C 
ATOM     15  C   UNL     1      19.570  26.697 174.961  1.00  0.00     0.003 C 
ATOM     16  C   UNL     1      18.735  27.949 174.605  1.00  0.00     0.000 C 
ATOM     17  C   UNL     1      17.410  27.967 175.388  1.00  0.00     0.031 C 
ATOM     18  C   UNL     1      17.574  27.645 176.843  1.00  0.00    -0.027 C 
ATOM     19  C   UNL     1      18.577  26.887 177.329  1.00  0.00    -0.065 C 
ATOM     20  C   UNL     1      19.847  26.588 176.516  1.00  0.00    -0.008 C 
ATOM     21  C   UNL     1      20.315  25.132 176.838  1.00  0.00     0.014 C 
ATOM     22  C   UNL     1      20.352  24.809 178.341  1.00  0.00     0.033 C 
ATOM     23  C   UNL     1      18.988  25.050 179.002  1.00  0.00     0.118 C 
ATOM     24  C   UNL     1      18.537  26.500 178.797  1.00  0.00     0.063 C 
ATOM     25  C   UNL     1      20.945  27.590 176.972  1.00  0.00     0.016 C 
ATOM     26  C   UNL     1      20.643  29.243 172.214  1.00  0.00     0.012 C 
ATOM     27  C   UNL     1      18.074  30.085 170.449  1.00  0.00     0.014 C 
ATOM     28  O   UNL     1      16.501  28.943 168.594  1.00  0.00    -0.349 OA
ATOM     29  C   UNL     1      15.386  28.281 168.021  1.00  0.00     0.167 C 
ENDROOT
BRANCH  23  30
ATOM     30  O   UNL     1      18.021  24.180 178.472  1.00  0.00    -0.393 OA
ATOM     31  H   UNL     1      17.709  23.609 179.222  1.00  0.00     0.210 HD
ENDBRANCH  23  30
TORSDOF 1
ENDMDL
MODEL 7
REMARK VINA RESULT:    -6.803      6.889     10.046
REMARK INTER + INTRA:          -7.002
REMARK INTER:                  -7.002
REMARK INTRA:                   0.000
REMARK UNBOUND:                 0.000
REMARK SMILES C[C@@H]1CC[C@@]2(OC1)O[C@@H]1C[C@H]3[C@H]4CC=C5C[C@@H](O)CC[C@@]5(C)[C@@H]4CC[C@@]3(C)[C@@H]1[C@@H]2C
REMARK SMILES IDX 1 1 2 2 3 3 4 4 5 5 29 6 28 7 9 8 8 9 10 10 11 11 26 12
REMARK SMILES IDX 25 13 24 14 23 15 12 16 13 17 14 18 15 19 21 20 20 21 19 22
REMARK SMILES IDX 17 23 16 24 22 25 27 26 30 27 6 28 7 29 18 30
REMARK H PARENT 18 31
REMARK Flexibility Score: inf
ROOT
ATOM      1  C   UNL     1      20.295  25.259 175.235  1.00  0.00     0.010 C 
ATOM      2  C   UNL     1      19.932  25.528 176.699  1.00  0.00     0.012 C 
ATOM      3  C   UNL     1      18.892  24.518 177.198  1.00  0.00     0.011 C 
ATOM      4  C   UNL     1      18.443  24.882 178.614  1.00  0.00     0.066 C 
ATOM      5  C   UNL     1      17.991  26.370 178.686  1.00  0.00     0.171 C 
ATOM      6  C   UNL     1      17.589  26.749 180.132  1.00  0.00     0.052 C 
ATOM      7  C   UNL     1      16.136  26.236 180.174  1.00  0.00     0.033 C 
ATOM      8  C   UNL     1      15.708  26.344 178.718  1.00  0.00     0.126 C 
ATOM      9  O   UNL     1      16.834  26.569 177.895  1.00  0.00    -0.346 OA
ATOM     10  C   UNL     1      14.710  27.511 178.636  1.00  0.00     0.037 C 
ATOM     11  C   UNL     1      14.519  28.052 180.071  1.00  0.00     0.002 C 
ATOM     12  C   UNL     1      14.995  26.910 180.998  1.00  0.00    -0.024 C 
ATOM     13  C   UNL     1      13.848  25.856 181.165  1.00  0.00     0.008 C 
ATOM     14  C   UNL     1      12.509  26.469 181.585  1.00  0.00     0.005 C 
ATOM     15  C   UNL     1      12.023  27.531 180.570  1.00  0.00     0.003 C 
ATOM     16  C   UNL     1      13.105  28.623 180.405  1.00  0.00     0.000 C 
ATOM     17  C   UNL     1      12.678  29.665 179.356  1.00  0.00     0.031 C 
ATOM     18  C   UNL     1      11.261  30.125 179.515  1.00  0.00    -0.027 C 
ATOM     19  C   UNL     1      10.294  29.375 180.080  1.00  0.00    -0.065 C 
ATOM     20  C   UNL     1      10.610  28.142 180.942  1.00  0.00    -0.008 C 
ATOM     21  C   UNL     1       9.514  27.059 180.685  1.00  0.00     0.014 C 
ATOM     22  C   UNL     1       8.077  27.603 180.740  1.00  0.00     0.033 C 
ATOM     23  C   UNL     1       7.875  28.758 179.750  1.00  0.00     0.118 C 
ATOM     24  C   UNL     1       8.866  29.891 180.032  1.00  0.00     0.063 C 
ATOM     25  C   UNL     1      10.554  28.583 182.432  1.00  0.00     0.016 C 
ATOM     26  C   UNL     1      15.458  27.394 182.402  1.00  0.00     0.012 C 
ATOM     27  C   UNL     1      17.810  28.262 180.368  1.00  0.00     0.014 C 
ATOM     28  O   UNL     1      19.053  27.206 178.232  1.00  0.00    -0.349 OA
ATOM     29  C   UNL     1      19.385  26.953 176.877  1.00  0.00     0.167 C 
ENDROOT
BRANCH  23  30
ATOM     30  O   UNL     1       8.038  28.311 178.428  1.00  0.00    -0.393 OA
ATOM     31  H   UNL     1       7.388  28.815 177.873  1.00  0.00     0.210 HD
ENDBRANCH  23  30
TORSDOF 1
ENDMDL
MODEL 8
REMARK VINA RESULT:    -6.783      1.774      2.681
REMARK INTER + INTRA:          -6.982
REMARK INTER:                  -6.982
REMARK INTRA:                   0.000
REMARK UNBOUND:                 0.000
REMARK SMILES C[C@@H]1CC[C@@]2(OC1)O[C@@H]1C[C@H]3[C@H]4CC=C5C[C@@H](O)CC[C@@]5(C)[C@@H]4CC[C@@]3(C)[C@@H]1[C@@H]2C
REMARK SMILES IDX 1 1 2 2 3 3 4 4 5 5 29 6 28 7 9 8 8 9 10 10 11 11 26 12
REMARK SMILES IDX 25 13 24 14 23 15 12 16 13 17 14 18 15 19 21 20 20 21 19 22
REMARK SMILES IDX 17 23 16 24 22 25 27 26 30 27 6 28 7 29 18 30
REMARK H PARENT 18 31
REMARK Flexibility Score: inf
ROOT
ATOM      1  C   UNL     1      16.686  25.159 180.483  1.00  0.00     0.010 C 
ATOM      2  C   UNL     1      17.879  25.750 179.726  1.00  0.00     0.012 C 
ATOM      3  C   UNL     1      17.566  27.169 179.237  1.00  0.00     0.011 C 
ATOM      4  C   UNL     1      18.713  27.692 178.370  1.00  0.00     0.066 C 
ATOM      5  C   UNL     1      19.061  26.676 177.243  1.00  0.00     0.171 C 
ATOM      6  C   UNL     1      20.259  27.183 176.402  1.00  0.00     0.052 C 
ATOM      7  C   UNL     1      19.542  28.132 175.419  1.00  0.00     0.033 C 
ATOM      8  C   UNL     1      18.155  27.516 175.323  1.00  0.00     0.126 C 
ATOM      9  O   UNL     1      17.977  26.554 176.342  1.00  0.00    -0.346 OA
ATOM     10  C   UNL     1      18.048  26.883 173.926  1.00  0.00     0.037 C 
ATOM     11  C   UNL     1      19.373  27.178 173.187  1.00  0.00     0.002 C 
ATOM     12  C   UNL     1      20.000  28.370 173.947  1.00  0.00    -0.024 C 
ATOM     13  C   UNL     1      19.345  29.707 173.461  1.00  0.00     0.008 C 
ATOM     14  C   UNL     1      19.355  29.877 171.939  1.00  0.00     0.005 C 
ATOM     15  C   UNL     1      18.623  28.714 171.228  1.00  0.00     0.003 C 
ATOM     16  C   UNL     1      19.266  27.369 171.640  1.00  0.00     0.000 C 
ATOM     17  C   UNL     1      18.522  26.185 170.998  1.00  0.00     0.031 C 
ATOM     18  C   UNL     1      18.229  26.385 169.542  1.00  0.00    -0.027 C 
ATOM     19  C   UNL     1      18.084  27.598 168.971  1.00  0.00    -0.065 C 
ATOM     20  C   UNL     1      18.562  28.888 169.655  1.00  0.00    -0.008 C 
ATOM     21  C   UNL     1      17.555  30.035 169.319  1.00  0.00     0.014 C 
ATOM     22  C   UNL     1      17.191  30.125 167.828  1.00  0.00     0.033 C 
ATOM     23  C   UNL     1      16.625  28.797 167.306  1.00  0.00     0.118 C 
ATOM     24  C   UNL     1      17.627  27.660 167.524  1.00  0.00     0.063 C 
ATOM     25  C   UNL     1      19.957  29.244 169.067  1.00  0.00     0.016 C 
ATOM     26  C   UNL     1      21.545  28.468 173.793  1.00  0.00     0.012 C 
ATOM     27  C   UNL     1      21.029  25.987 175.794  1.00  0.00     0.014 C 
ATOM     28  O   UNL     1      19.368  25.412 177.827  1.00  0.00    -0.349 OA
ATOM     29  C   UNL     1      18.260  24.869 178.526  1.00  0.00     0.167 C 
ENDROOT
BRANCH  23  30
ATOM     30  O   UNL     1      15.416  28.487 167.952  1.00  0.00    -0.393 OA
ATOM     31  H   UNL     1      15.650  28.191 168.871  1.00  0.00     0.210 HD
ENDBRANCH  23  30
TORSDOF 1
ENDMDL
MODEL 9
REMARK VINA RESULT:    -6.048      2.319      3.192
REMARK INTER + INTRA:          -6.225
REMARK INTER:                  -6.225
REMARK INTRA:                   0.000
REMARK UNBOUND:                 0.000
REMARK SMILES C[C@@H]1CC[C@@]2(OC1)O[C@@H]1C[C@H]3[C@H]4CC=C5C[C@@H](O)CC[C@@]5(C)[C@@H]4CC[C@@]3(C)[C@@H]1[C@@H]2C
REMARK SMILES IDX 1 1 2 2 3 3 4 4 5 5 29 6 28 7 9 8 8 9 10 10 11 11 26 12
REMARK SMILES IDX 25 13 24 14 23 15 12 16 13 17 14 18 15 19 21 20 20 21 19 22
REMARK SMILES IDX 17 23 16 24 22 25 27 26 30 27 6 28 7 29 18 30
REMARK H PARENT 18 31
REMARK Flexibility Score: inf
ROOT
ATOM      1  C   UNL     1      21.724  22.814 178.434  1.00  0.00     0.010 C 
ATOM      2  C   UNL     1      20.522  23.651 177.987  1.00  0.00     0.012 C 
ATOM      3  C   UNL     1      19.842  23.020 176.766  1.00  0.00     0.011 C 
ATOM      4  C   UNL     1      18.730  23.935 176.251  1.00  0.00     0.066 C 
ATOM      5  C   UNL     1      19.264  25.380 176.024  1.00  0.00     0.171 C 
ATOM      6  C   UNL     1      18.124  26.316 175.556  1.00  0.00     0.052 C 
ATOM      7  C   UNL     1      18.102  26.013 174.043  1.00  0.00     0.033 C 
ATOM      8  C   UNL     1      19.542  25.611 173.769  1.00  0.00     0.126 C 
ATOM      9  O   UNL     1      20.226  25.388 174.986  1.00  0.00    -0.346 OA
ATOM     10  C   UNL     1      20.178  26.759 172.969  1.00  0.00     0.037 C 
ATOM     11  C   UNL     1      19.077  27.818 172.734  1.00  0.00     0.002 C 
ATOM     12  C   UNL     1      17.744  27.065 172.948  1.00  0.00    -0.024 C 
ATOM     13  C   UNL     1      17.369  26.280 171.646  1.00  0.00     0.008 C 
ATOM     14  C   UNL     1      17.389  27.145 170.382  1.00  0.00     0.005 C 
ATOM     15  C   UNL     1      18.776  27.791 170.153  1.00  0.00     0.003 C 
ATOM     16  C   UNL     1      19.172  28.620 171.397  1.00  0.00     0.000 C 
ATOM     17  C   UNL     1      20.574  29.229 171.228  1.00  0.00     0.031 C 
ATOM     18  C   UNL     1      20.791  29.863 169.888  1.00  0.00    -0.027 C 
ATOM     19  C   UNL     1      20.134  29.487 168.772  1.00  0.00    -0.065 C 
ATOM     20  C   UNL     1      18.850  28.644 168.821  1.00  0.00    -0.008 C 
ATOM     21  C   UNL     1      18.848  27.666 167.602  1.00  0.00     0.014 C 
ATOM     22  C   UNL     1      19.193  28.340 166.264  1.00  0.00     0.033 C 
ATOM     23  C   UNL     1      20.552  29.052 166.327  1.00  0.00     0.118 C 
ATOM     24  C   UNL     1      20.563  30.096 167.448  1.00  0.00     0.063 C 
ATOM     25  C   UNL     1      17.643  29.617 168.698  1.00  0.00     0.016 C 
ATOM     26  C   UNL     1      16.559  27.991 173.350  1.00  0.00     0.012 C 
ATOM     27  C   UNL     1      18.421  27.773 175.979  1.00  0.00     0.014 C 
ATOM     28  O   UNL     1      19.836  25.866 177.236  1.00  0.00    -0.349 OA
ATOM     29  C   UNL     1      20.949  25.088 177.646  1.00  0.00     0.167 C 
ENDROOT
BRANCH  23  30
ATOM     30  O   UNL     1      21.586  28.126 166.539  1.00  0.00    -0.393 OA
ATOM     31  H   UNL     1      22.435  28.640 166.543  1.00  0.00     0.210 HD
ENDBRANCH  23  30
TORSDOF 1
ENDMDL
