MODEL 1
REMARK VINA RESULT:    -4.577      0.000      0.000
REMARK INTER + INTRA:         -11.306
REMARK INTER:                  -8.859
REMARK INTRA:                  -2.447
REMARK UNBOUND:                -2.447
REMARK SMILES CCCCCCCCCCCCCCCCCC(=O)[O-]
REMARK SMILES IDX 10 1 11 2 12 3 13 4 14 5 15 6 16 7 17 8 18 9 19 10 20 11
REMARK SMILES IDX 9 12 8 13 7 14 6 15 5 16 4 17 3 18 2 19 1 20
REMARK H PARENT
REMARK Flexibility Score: inf
ROOT
ATOM      1  C   UNL     1      58.659  15.018  89.714  1.00  0.00     0.000 C 
ENDROOT
BRANCH   1   2
ATOM      2  C   UNL     1      59.224  16.438  89.895  1.00  0.00     0.000 C 
BRANCH   2   3
ATOM      3  C   UNL     1      58.904  17.028  91.278  1.00  0.00     0.000 C 
BRANCH   3   4
ATOM      4  C   UNL     1      60.145  17.118  92.184  1.00  0.00     0.000 C 
BRANCH   4   5
ATOM      5  C   UNL     1      60.377  15.819  92.983  1.00  0.00     0.000 C 
BRANCH   5   6
ATOM      6  C   UNL     1      59.433  15.659  94.186  1.00  0.00     0.000 C 
BRANCH   6   7
ATOM      7  C   UNL     1      59.946  14.643  95.219  1.00  0.00     0.006 C 
BRANCH   7   8
ATOM      8  C   UNL     1      60.036  15.242  96.629  1.00  0.00     0.053 C 
BRANCH   8   9
ATOM      9  C   UNL     1      61.010  16.379  96.686  1.00  0.00     0.041 C 
ATOM     10  O   UNL     1      60.617  17.536  96.989  1.00  0.00    -0.550 OA
ATOM     11  O   UNL     1      62.346  16.167  96.367  1.00  0.00    -0.550 OA
ENDBRANCH   8   9
ENDBRANCH   7   8
ENDBRANCH   6   7
ENDBRANCH   5   6
ENDBRANCH   4   5
ENDBRANCH   3   4
ENDBRANCH   2   3
ENDBRANCH   1   2
BRANCH   1  12
ATOM     12  C   UNL     1      57.170  14.922  90.084  1.00  0.00     0.000 C 
BRANCH  12  13
ATOM     13  C   UNL     1      56.340  14.209  89.001  1.00  0.00    -0.000 C 
BRANCH  13  14
ATOM     14  C   UNL     1      56.068  12.734  89.339  1.00  0.00    -0.000 C 
BRANCH  14  15
ATOM     15  C   UNL     1      56.713  11.765  88.337  1.00  0.00    -0.000 C 
BRANCH  15  16
ATOM     16  C   UNL     1      58.045  11.227  88.871  1.00  0.00    -0.000 C 
BRANCH  16  17
ATOM     17  C   UNL     1      57.989  11.027  90.393  1.00  0.00    -0.000 C 
BRANCH  17  18
ATOM     18  C   UNL     1      59.246  11.573  91.102  1.00  0.00    -0.000 C 
BRANCH  18  19
ATOM     19  C   UNL     1      58.933  12.452  92.323  1.00  0.00    -0.003 C 
ATOM     20  C   UNL     1      57.472  12.372  92.761  1.00  0.00     0.004 C 
ENDBRANCH  18  19
ENDBRANCH  17  18
ENDBRANCH  16  17
ENDBRANCH  15  16
ENDBRANCH  14  15
ENDBRANCH  13  14
ENDBRANCH  12  13
ENDBRANCH   1  12
TORSDOF 16
ENDMDL
MODEL 2
REMARK VINA RESULT:    -4.552      3.826      6.363
REMARK INTER + INTRA:         -11.257
REMARK INTER:                  -8.272
REMARK INTRA:                  -2.985
REMARK UNBOUND:                -2.447
REMARK SMILES CCCCCCCCCCCCCCCCCC(=O)[O-]
REMARK SMILES IDX 10 1 11 2 12 3 13 4 14 5 15 6 16 7 17 8 18 9 19 10 20 11
REMARK SMILES IDX 9 12 8 13 7 14 6 15 5 16 4 17 3 18 2 19 1 20
REMARK H PARENT
REMARK Flexibility Score: inf
ROOT
ATOM      1  C   UNL     1      56.030  13.305  89.344  1.00  0.00     0.000 C 
ENDROOT
BRANCH   1   2
ATOM      2  C   UNL     1      56.123  12.511  88.029  1.00  0.00     0.000 C 
BRANCH   2   3
ATOM      3  C   UNL     1      56.795  11.141  88.213  1.00  0.00     0.000 C 
BRANCH   3   4
ATOM      4  C   UNL     1      58.220  11.253  88.782  1.00  0.00     0.000 C 
BRANCH   4   5
ATOM      5  C   UNL     1      58.408  10.402  90.055  1.00  0.00     0.000 C 
BRANCH   5   6
ATOM      6  C   UNL     1      57.083   9.984  90.717  1.00  0.00     0.000 C 
BRANCH   6   7
ATOM      7  C   UNL     1      56.669  10.916  91.867  1.00  0.00     0.006 C 
BRANCH   7   8
ATOM      8  C   UNL     1      55.157  10.886  92.123  1.00  0.00     0.053 C 
BRANCH   8   9
ATOM      9  C   UNL     1      54.801   9.937  93.227  1.00  0.00     0.041 C 
ATOM     10  O   UNL     1      54.766  10.336  94.421  1.00  0.00    -0.550 OA
ATOM     11  O   UNL     1      54.547   8.601  92.941  1.00  0.00    -0.550 OA
ENDBRANCH   8   9
ENDBRANCH   7   8
ENDBRANCH   6   7
ENDBRANCH   5   6
ENDBRANCH   4   5
ENDBRANCH   3   4
ENDBRANCH   2   3
ENDBRANCH   1   2
BRANCH   1  12
ATOM     12  C   UNL     1      56.811  14.629  89.292  1.00  0.00     0.000 C 
BRANCH  12  13
ATOM     13  C   UNL     1      57.427  15.003  90.652  1.00  0.00    -0.000 C 
BRANCH  13  14
ATOM     14  C   UNL     1      58.543  14.036  91.082  1.00  0.00    -0.000 C 
BRANCH  14  15
ATOM     15  C   UNL     1      58.845  14.108  92.586  1.00  0.00    -0.000 C 
BRANCH  15  16
ATOM     16  C   UNL     1      58.310  15.410  93.193  1.00  0.00    -0.000 C 
BRANCH  16  17
ATOM     17  C   UNL     1      57.405  15.125  94.401  1.00  0.00    -0.000 C 
BRANCH  17  18
ATOM     18  C   UNL     1      56.687  13.763  94.286  1.00  0.00    -0.000 C 
BRANCH  18  19
ATOM     19  C   UNL     1      55.155  13.877  94.227  1.00  0.00    -0.003 C 
ATOM     20  C   UNL     1      54.655  14.613  92.985  1.00  0.00     0.004 C 
ENDBRANCH  18  19
ENDBRANCH  17  18
ENDBRANCH  16  17
ENDBRANCH  15  16
ENDBRANCH  14  15
ENDBRANCH  13  14
ENDBRANCH  12  13
ENDBRANCH   1  12
TORSDOF 16
ENDMDL
MODEL 3
REMARK VINA RESULT:    -4.545      2.883      5.079
REMARK INTER + INTRA:         -11.243
REMARK INTER:                  -8.186
REMARK INTRA:                  -3.057
REMARK UNBOUND:                -2.447
REMARK SMILES CCCCCCCCCCCCCCCCCC(=O)[O-]
REMARK SMILES IDX 10 1 11 2 12 3 13 4 14 5 15 6 16 7 17 8 18 9 19 10 20 11
REMARK SMILES IDX 9 12 8 13 7 14 6 15 5 16 4 17 3 18 2 19 1 20
REMARK H PARENT
REMARK Flexibility Score: inf
ROOT
ATOM      1  C   UNL     1      58.279  10.617  90.209  1.00  0.00     0.000 C 
ENDROOT
BRANCH   1   2
ATOM      2  C   UNL     1      56.917  10.170  90.769  1.00  0.00     0.000 C 
BRANCH   2   3
ATOM      3  C   UNL     1      56.531  10.924  92.052  1.00  0.00     0.000 C 
BRANCH   3   4
ATOM      4  C   UNL     1      55.017  10.890  92.325  1.00  0.00     0.000 C 
BRANCH   4   5
ATOM      5  C   UNL     1      54.324  12.210  91.928  1.00  0.00     0.000 C 
BRANCH   5   6
ATOM      6  C   UNL     1      54.031  13.135  93.121  1.00  0.00     0.000 C 
BRANCH   6   7
ATOM      7  C   UNL     1      54.634  12.622  94.438  1.00  0.00     0.006 C 
BRANCH   7   8
ATOM      8  C   UNL     1      55.785  13.508  94.934  1.00  0.00     0.053 C 
BRANCH   8   9
ATOM      9  C   UNL     1      56.594  12.824  95.994  1.00  0.00     0.041 C 
ATOM     10  O   UNL     1      57.257  13.501  96.823  1.00  0.00    -0.550 OA
ATOM     11  O   UNL     1      56.647  11.436  96.040  1.00  0.00    -0.550 OA
ENDBRANCH   8   9
ENDBRANCH   7   8
ENDBRANCH   6   7
ENDBRANCH   5   6
ENDBRANCH   4   5
ENDBRANCH   3   4
ENDBRANCH   2   3
ENDBRANCH   1   2
BRANCH   1  12
ATOM     12  C   UNL     1      58.143  11.591  89.027  1.00  0.00     0.000 C 
BRANCH  12  13
ATOM     13  C   UNL     1      56.706  11.655  88.481  1.00  0.00    -0.000 C 
BRANCH  13  14
ATOM     14  C   UNL     1      56.061  13.038  88.672  1.00  0.00    -0.000 C 
BRANCH  14  15
ATOM     15  C   UNL     1      56.989  14.034  89.383  1.00  0.00    -0.000 C 
BRANCH  15  16
ATOM     16  C   UNL     1      56.220  14.854  90.425  1.00  0.00    -0.000 C 
BRANCH  16  17
ATOM     17  C   UNL     1      57.016  14.972  91.733  1.00  0.00    -0.000 C 
BRANCH  17  18
ATOM     18  C   UNL     1      58.414  14.326  91.627  1.00  0.00    -0.000 C 
BRANCH  18  19
ATOM     19  C   UNL     1      58.795  13.476  92.849  1.00  0.00    -0.003 C 
ATOM     20  C   UNL     1      60.286  13.150  92.912  1.00  0.00     0.004 C 
ENDBRANCH  18  19
ENDBRANCH  17  18
ENDBRANCH  16  17
ENDBRANCH  15  16
ENDBRANCH  14  15
ENDBRANCH  13  14
ENDBRANCH  12  13
ENDBRANCH   1  12
TORSDOF 16
ENDMDL
MODEL 4
REMARK VINA RESULT:    -4.543      3.514      5.341
REMARK INTER + INTRA:         -11.239
REMARK INTER:                  -8.597
REMARK INTRA:                  -2.642
REMARK UNBOUND:                -2.447
REMARK SMILES CCCCCCCCCCCCCCCCCC(=O)[O-]
REMARK SMILES IDX 10 1 11 2 12 3 13 4 14 5 15 6 16 7 17 8 18 9 19 10 20 11
REMARK SMILES IDX 9 12 8 13 7 14 6 15 5 16 4 17 3 18 2 19 1 20
REMARK H PARENT
REMARK Flexibility Score: inf
ROOT
ATOM      1  C   UNL     1      58.806  12.324  92.093  1.00  0.00     0.000 C 
ENDROOT
BRANCH   1   2
ATOM      2  C   UNL     1      59.525  13.503  92.773  1.00  0.00     0.000 C 
BRANCH   2   3
ATOM      3  C   UNL     1      58.932  13.842  94.149  1.00  0.00     0.000 C 
BRANCH   3   4
ATOM      4  C   UNL     1      58.206  15.198  94.163  1.00  0.00     0.000 C 
BRANCH   4   5
ATOM      5  C   UNL     1      56.695  15.047  94.436  1.00  0.00     0.000 C 
BRANCH   5   6
ATOM      6  C   UNL     1      55.933  14.336  93.306  1.00  0.00     0.000 C 
BRANCH   6   7
ATOM      7  C   UNL     1      55.298  13.010  93.754  1.00  0.00     0.006 C 
BRANCH   7   8
ATOM      8  C   UNL     1      54.856  12.145  92.565  1.00  0.00     0.053 C 
BRANCH   8   9
ATOM      9  C   UNL     1      55.323  10.729  92.707  1.00  0.00     0.041 C 
ATOM     10  O   UNL     1      55.905  10.154  91.750  1.00  0.00    -0.550 OA
ATOM     11  O   UNL     1      55.080  10.031  93.883  1.00  0.00    -0.550 OA
ENDBRANCH   8   9
ENDBRANCH   7   8
ENDBRANCH   6   7
ENDBRANCH   5   6
ENDBRANCH   4   5
ENDBRANCH   3   4
ENDBRANCH   2   3
ENDBRANCH   1   2
BRANCH   1  12
ATOM     12  C   UNL     1      59.779  11.362  91.392  1.00  0.00     0.000 C 
BRANCH  12  13
ATOM     13  C   UNL     1      59.104  10.562  90.263  1.00  0.00    -0.000 C 
BRANCH  13  14
ATOM     14  C   UNL     1      58.614  11.459  89.114  1.00  0.00    -0.000 C 
BRANCH  14  15
ATOM     15  C   UNL     1      57.249  11.024  88.561  1.00  0.00    -0.000 C 
BRANCH  15  16
ATOM     16  C   UNL     1      56.298  12.221  88.443  1.00  0.00    -0.000 C 
BRANCH  16  17
ATOM     17  C   UNL     1      56.475  13.186  89.625  1.00  0.00    -0.000 C 
BRANCH  17  18
ATOM     18  C   UNL     1      56.733  14.636  89.163  1.00  0.00    -0.000 C 
BRANCH  18  19
ATOM     19  C   UNL     1      58.138  15.153  89.510  1.00  0.00    -0.003 C 
ATOM     20  C   UNL     1      58.134  16.201  90.622  1.00  0.00     0.004 C 
ENDBRANCH  18  19
ENDBRANCH  17  18
ENDBRANCH  16  17
ENDBRANCH  15  16
ENDBRANCH  14  15
ENDBRANCH  13  14
ENDBRANCH  12  13
ENDBRANCH   1  12
TORSDOF 16
ENDMDL
MODEL 5
REMARK VINA RESULT:    -4.529      2.825      5.763
REMARK INTER + INTRA:         -11.212
REMARK INTER:                  -8.763
REMARK INTRA:                  -2.449
REMARK UNBOUND:                -2.447
REMARK SMILES CCCCCCCCCCCCCCCCCC(=O)[O-]
REMARK SMILES IDX 10 1 11 2 12 3 13 4 14 5 15 6 16 7 17 8 18 9 19 10 20 11
REMARK SMILES IDX 9 12 8 13 7 14 6 15 5 16 4 17 3 18 2 19 1 20
REMARK H PARENT
REMARK Flexibility Score: inf
ROOT
ATOM      1  C   UNL     1      58.667  14.862  89.689  1.00  0.00     0.000 C 
ENDROOT
BRANCH   1   2
ATOM      2  C   UNL     1      57.241  15.001  89.127  1.00  0.00     0.000 C 
BRANCH   2   3
ATOM      3  C   UNL     1      56.354  13.792  89.462  1.00  0.00     0.000 C 
BRANCH   3   4
ATOM      4  C   UNL     1      57.002  12.850  90.492  1.00  0.00     0.000 C 
BRANCH   4   5
ATOM      5  C   UNL     1      57.116  11.404  89.968  1.00  0.00     0.000 C 
BRANCH   5   6
ATOM      6  C   UNL     1      58.041  11.263  88.747  1.00  0.00     0.000 C 
BRANCH   6   7
ATOM      7  C   UNL     1      59.530  11.232  89.125  1.00  0.00     0.006 C 
BRANCH   7   8
ATOM      8  C   UNL     1      59.824  10.231  90.250  1.00  0.00     0.053 C 
BRANCH   8   9
ATOM      9  C   UNL     1      60.551  10.876  91.390  1.00  0.00     0.041 C 
ATOM     10  O   UNL     1      60.034  11.846  92.005  1.00  0.00    -0.550 OA
ATOM     11  O   UNL     1      61.818  10.431  91.748  1.00  0.00    -0.550 OA
ENDBRANCH   8   9
ENDBRANCH   7   8
ENDBRANCH   6   7
ENDBRANCH   5   6
ENDBRANCH   4   5
ENDBRANCH   3   4
ENDBRANCH   2   3
ENDBRANCH   1   2
BRANCH   1  12
ATOM     12  C   UNL     1      59.355  16.221  89.900  1.00  0.00     0.000 C 
BRANCH  12  13
ATOM     13  C   UNL     1      59.505  16.579  91.389  1.00  0.00    -0.000 C 
BRANCH  13  14
ATOM     14  C   UNL     1      59.658  15.339  92.284  1.00  0.00    -0.000 C 
BRANCH  14  15
ATOM     15  C   UNL     1      58.744  15.379  93.518  1.00  0.00    -0.000 C 
BRANCH  15  16
ATOM     16  C   UNL     1      57.270  15.483  93.107  1.00  0.00    -0.000 C 
BRANCH  16  17
ATOM     17  C   UNL     1      56.434  14.376  93.766  1.00  0.00    -0.000 C 
BRANCH  17  18
ATOM     18  C   UNL     1      54.937  14.482  93.407  1.00  0.00    -0.000 C 
BRANCH  18  19
ATOM     19  C   UNL     1      54.144  13.193  93.683  1.00  0.00    -0.003 C 
ATOM     20  C   UNL     1      54.125  12.235  92.493  1.00  0.00     0.004 C 
ENDBRANCH  18  19
ENDBRANCH  17  18
ENDBRANCH  16  17
ENDBRANCH  15  16
ENDBRANCH  14  15
ENDBRANCH  13  14
ENDBRANCH  12  13
ENDBRANCH   1  12
TORSDOF 16
ENDMDL
MODEL 6
REMARK VINA RESULT:    -4.517      3.011      5.829
REMARK INTER + INTRA:         -11.188
REMARK INTER:                  -8.907
REMARK INTRA:                  -2.281
REMARK UNBOUND:                -2.447
REMARK SMILES CCCCCCCCCCCCCCCCCC(=O)[O-]
REMARK SMILES IDX 10 1 11 2 12 3 13 4 14 5 15 6 16 7 17 8 18 9 19 10 20 11
REMARK SMILES IDX 9 12 8 13 7 14 6 15 5 16 4 17 3 18 2 19 1 20
REMARK H PARENT
REMARK Flexibility Score: inf
ROOT
ATOM      1  C   UNL     1      58.760  15.112  91.402  1.00  0.00     0.000 C 
ENDROOT
BRANCH   1   2
ATOM      2  C   UNL     1      58.529  14.389  90.063  1.00  0.00     0.000 C 
BRANCH   2   3
ATOM      3  C   UNL     1      57.045  14.335  89.670  1.00  0.00     0.000 C 
BRANCH   3   4
ATOM      4  C   UNL     1      56.605  12.934  89.209  1.00  0.00     0.000 C 
BRANCH   4   5
ATOM      5  C   UNL     1      57.793  11.954  89.111  1.00  0.00     0.000 C 
BRANCH   5   6
ATOM      6  C   UNL     1      57.438  10.514  89.517  1.00  0.00     0.000 C 
BRANCH   6   7
ATOM      7  C   UNL     1      58.576   9.806  90.269  1.00  0.00     0.006 C 
BRANCH   7   8
ATOM      8  C   UNL     1      59.933  10.485  90.041  1.00  0.00     0.053 C 
BRANCH   8   9
ATOM      9  C   UNL     1      60.588  10.863  91.335  1.00  0.00     0.041 C 
ATOM     10  O   UNL     1      60.105  11.785  92.045  1.00  0.00    -0.550 OA
ATOM     11  O   UNL     1      61.753  10.223  91.738  1.00  0.00    -0.550 OA
ENDBRANCH   8   9
ENDBRANCH   7   8
ENDBRANCH   6   7
ENDBRANCH   5   6
ENDBRANCH   4   5
ENDBRANCH   3   4
ENDBRANCH   2   3
ENDBRANCH   1   2
BRANCH   1  12
ATOM     12  C   UNL     1      57.985  14.468  92.563  1.00  0.00     0.000 C 
BRANCH  12  13
ATOM     13  C   UNL     1      58.389  15.045  93.932  1.00  0.00    -0.000 C 
BRANCH  13  14
ATOM     14  C   UNL     1      57.231  15.035  94.943  1.00  0.00    -0.000 C 
BRANCH  14  15
ATOM     15  C   UNL     1      55.872  14.743  94.289  1.00  0.00    -0.000 C 
BRANCH  15  16
ATOM     16  C   UNL     1      55.315  13.394  94.759  1.00  0.00    -0.000 C 
BRANCH  16  17
ATOM     17  C   UNL     1      54.276  12.850  93.767  1.00  0.00    -0.000 C 
BRANCH  17  18
ATOM     18  C   UNL     1      54.908  12.452  92.417  1.00  0.00    -0.000 C 
BRANCH  18  19
ATOM     19  C   UNL     1      55.711  11.143  92.474  1.00  0.00    -0.003 C 
ATOM     20  C   UNL     1      54.833   9.908  92.668  1.00  0.00     0.004 C 
ENDBRANCH  18  19
ENDBRANCH  17  18
ENDBRANCH  16  17
ENDBRANCH  15  16
ENDBRANCH  14  15
ENDBRANCH  13  14
ENDBRANCH  12  13
ENDBRANCH   1  12
TORSDOF 16
ENDMDL
MODEL 7
REMARK VINA RESULT:    -4.505      1.444      2.787
REMARK INTER + INTRA:         -11.165
REMARK INTER:                  -7.941
REMARK INTRA:                  -3.224
REMARK UNBOUND:                -2.447
REMARK SMILES CCCCCCCCCCCCCCCCCC(=O)[O-]
REMARK SMILES IDX 10 1 11 2 12 3 13 4 14 5 15 6 16 7 17 8 18 9 19 10 20 11
REMARK SMILES IDX 9 12 8 13 7 14 6 15 5 16 4 17 3 18 2 19 1 20
REMARK H PARENT
REMARK Flexibility Score: inf
ROOT
ATOM      1  C   UNL     1      56.697  14.070  89.120  1.00  0.00     0.000 C 
ENDROOT
BRANCH   1   2
ATOM      2  C   UNL     1      56.163  14.783  90.375  1.00  0.00     0.000 C 
BRANCH   2   3
ATOM      3  C   UNL     1      57.197  15.733  90.998  1.00  0.00     0.000 C 
BRANCH   3   4
ATOM      4  C   UNL     1      58.484  15.840  90.161  1.00  0.00     0.000 C 
BRANCH   4   5
ATOM      5  C   UNL     1      59.715  16.179  91.027  1.00  0.00     0.000 C 
BRANCH   5   6
ATOM      6  C   UNL     1      59.398  16.302  92.527  1.00  0.00     0.000 C 
BRANCH   6   7
ATOM      7  C   UNL     1      60.468  15.653  93.419  1.00  0.00     0.006 C 
BRANCH   7   8
ATOM      8  C   UNL     1      59.994  15.491  94.870  1.00  0.00     0.053 C 
BRANCH   8   9
ATOM      9  C   UNL     1      60.794  14.457  95.602  1.00  0.00     0.041 C 
ATOM     10  O   UNL     1      60.601  14.258  96.830  1.00  0.00    -0.550 OA
ATOM     11  O   UNL     1      61.780  13.741  94.935  1.00  0.00    -0.550 OA
ENDBRANCH   8   9
ENDBRANCH   7   8
ENDBRANCH   6   7
ENDBRANCH   5   6
ENDBRANCH   4   5
ENDBRANCH   3   4
ENDBRANCH   2   3
ENDBRANCH   1   2
BRANCH   1  12
ATOM     12  C   UNL     1      56.166  12.634  88.983  1.00  0.00     0.000 C 
BRANCH  12  13
ATOM     13  C   UNL     1      57.294  11.605  88.789  1.00  0.00    -0.000 C 
BRANCH  13  14
ATOM     14  C   UNL     1      58.605  12.028  89.472  1.00  0.00    -0.000 C 
BRANCH  14  15
ATOM     15  C   UNL     1      58.760  11.434  90.880  1.00  0.00    -0.000 C 
BRANCH  15  16
ATOM     16  C   UNL     1      59.137  12.520  91.896  1.00  0.00    -0.000 C 
BRANCH  16  17
ATOM     17  C   UNL     1      58.031  12.701  92.946  1.00  0.00    -0.000 C 
BRANCH  17  18
ATOM     18  C   UNL     1      56.823  11.775  92.690  1.00  0.00    -0.000 C 
BRANCH  18  19
ATOM     19  C   UNL     1      55.479  12.378  93.130  1.00  0.00    -0.003 C 
ATOM     20  C   UNL     1      54.342  12.085  92.153  1.00  0.00     0.004 C 
ENDBRANCH  18  19
ENDBRANCH  17  18
ENDBRANCH  16  17
ENDBRANCH  15  16
ENDBRANCH  14  15
ENDBRANCH  13  14
ENDBRANCH  12  13
ENDBRANCH   1  12
TORSDOF 16
ENDMDL
MODEL 8
REMARK VINA RESULT:    -4.503      2.672      4.818
REMARK INTER + INTRA:         -11.162
REMARK INTER:                  -8.509
REMARK INTRA:                  -2.653
REMARK UNBOUND:                -2.447
REMARK SMILES CCCCCCCCCCCCCCCCCC(=O)[O-]
REMARK SMILES IDX 10 1 11 2 12 3 13 4 14 5 15 6 16 7 17 8 18 9 19 10 20 11
REMARK SMILES IDX 9 12 8 13 7 14 6 15 5 16 4 17 3 18 2 19 1 20
REMARK H PARENT
REMARK Flexibility Score: inf
ROOT
ATOM      1  C   UNL     1      58.248  11.430  89.142  1.00  0.00     0.000 C 
ENDROOT
BRANCH   1   2
ATOM      2  C   UNL     1      56.893  11.614  88.436  1.00  0.00     0.000 C 
BRANCH   2   3
ATOM      3  C   UNL     1      56.125  12.844  88.945  1.00  0.00     0.000 C 
BRANCH   3   4
ATOM      4  C   UNL     1      57.032  14.074  89.129  1.00  0.00     0.000 C 
BRANCH   4   5
ATOM      5  C   UNL     1      56.983  14.623  90.570  1.00  0.00     0.000 C 
BRANCH   5   6
ATOM      6  C   UNL     1      58.263  14.350  91.377  1.00  0.00     0.000 C 
BRANCH   6   7
ATOM      7  C   UNL     1      58.744  15.576  92.169  1.00  0.00     0.006 C 
BRANCH   7   8
ATOM      8  C   UNL     1      58.368  16.896  91.482  1.00  0.00     0.053 C 
BRANCH   8   9
ATOM      9  C   UNL     1      59.573  17.746  91.218  1.00  0.00     0.041 C 
ATOM     10  O   UNL     1      59.590  18.536  90.237  1.00  0.00    -0.550 OA
ATOM     11  O   UNL     1      60.693  17.637  92.032  1.00  0.00    -0.550 OA
ENDBRANCH   8   9
ENDBRANCH   7   8
ENDBRANCH   6   7
ENDBRANCH   5   6
ENDBRANCH   4   5
ENDBRANCH   3   4
ENDBRANCH   2   3
ENDBRANCH   1   2
BRANCH   1  12
ATOM     12  C   UNL     1      58.120  10.688  90.483  1.00  0.00     0.000 C 
BRANCH  12  13
ATOM     13  C   UNL     1      56.906   9.742  90.518  1.00  0.00    -0.000 C 
BRANCH  13  14
ATOM     14  C   UNL     1      56.001   9.987  91.737  1.00  0.00    -0.000 C 
BRANCH  14  15
ATOM     15  C   UNL     1      56.141  11.406  92.307  1.00  0.00    -0.000 C 
BRANCH  15  16
ATOM     16  C   UNL     1      54.792  12.134  92.304  1.00  0.00    -0.000 C 
BRANCH  16  17
ATOM     17  C   UNL     1      54.532  12.820  93.654  1.00  0.00    -0.000 C 
BRANCH  17  18
ATOM     18  C   UNL     1      54.785  14.342  93.595  1.00  0.00    -0.000 C 
BRANCH  18  19
ATOM     19  C   UNL     1      56.027  14.791  94.381  1.00  0.00    -0.003 C 
ATOM     20  C   UNL     1      56.425  13.812  95.485  1.00  0.00     0.004 C 
ENDBRANCH  18  19
ENDBRANCH  17  18
ENDBRANCH  16  17
ENDBRANCH  15  16
ENDBRANCH  14  15
ENDBRANCH  13  14
ENDBRANCH  12  13
ENDBRANCH   1  12
TORSDOF 16
ENDMDL
MODEL 9
REMARK VINA RESULT:    -4.483      3.245      4.500
REMARK INTER + INTRA:         -11.124
REMARK INTER:                  -8.871
REMARK INTRA:                  -2.253
REMARK UNBOUND:                -2.447
REMARK SMILES CCCCCCCCCCCCCCCCCC(=O)[O-]
REMARK SMILES IDX 10 1 11 2 12 3 13 4 14 5 15 6 16 7 17 8 18 9 19 10 20 11
REMARK SMILES IDX 9 12 8 13 7 14 6 15 5 16 4 17 3 18 2 19 1 20
REMARK H PARENT
REMARK Flexibility Score: inf
ROOT
ATOM      1  C   UNL     1      59.290  13.400  92.606  1.00  0.00     0.000 C 
ENDROOT
BRANCH   1   2
ATOM      2  C   UNL     1      60.396  14.205  93.313  1.00  0.00     0.000 C 
BRANCH   2   3
ATOM      3  C   UNL     1      59.832  15.288  94.247  1.00  0.00     0.000 C 
BRANCH   3   4
ATOM      4  C   UNL     1      59.710  14.807  95.704  1.00  0.00     0.000 C 
BRANCH   4   5
ATOM      5  C   UNL     1      58.285  14.999  96.263  1.00  0.00     0.000 C 
BRANCH   5   6
ATOM      6  C   UNL     1      57.341  13.824  95.959  1.00  0.00     0.000 C 
BRANCH   6   7
ATOM      7  C   UNL     1      56.356  14.128  94.818  1.00  0.00     0.006 C 
BRANCH   7   8
ATOM      8  C   UNL     1      55.250  13.069  94.708  1.00  0.00     0.053 C 
BRANCH   8   9
ATOM      9  C   UNL     1      55.211  12.450  93.344  1.00  0.00     0.041 C 
ATOM     10  O   UNL     1      56.176  11.751  92.936  1.00  0.00    -0.550 OA
ATOM     11  O   UNL     1      54.125  12.677  92.508  1.00  0.00    -0.550 OA
ENDBRANCH   8   9
ENDBRANCH   7   8
ENDBRANCH   6   7
ENDBRANCH   5   6
ENDBRANCH   4   5
ENDBRANCH   3   4
ENDBRANCH   2   3
ENDBRANCH   1   2
BRANCH   1  12
ATOM     12  C   UNL     1      58.378  14.284  91.739  1.00  0.00     0.000 C 
BRANCH  12  13
ATOM     13  C   UNL     1      58.496  13.957  90.240  1.00  0.00    -0.000 C 
BRANCH  13  14
ATOM     14  C   UNL     1      57.153  14.079  89.500  1.00  0.00    -0.000 C 
BRANCH  14  15
ATOM     15  C   UNL     1      56.471  12.722  89.276  1.00  0.00    -0.000 C 
BRANCH  15  16
ATOM     16  C   UNL     1      57.506  11.626  88.995  1.00  0.00    -0.000 C 
BRANCH  16  17
ATOM     17  C   UNL     1      57.313  10.430  89.940  1.00  0.00    -0.000 C 
BRANCH  17  18
ATOM     18  C   UNL     1      58.643   9.710  90.250  1.00  0.00    -0.000 C 
BRANCH  18  19
ATOM     19  C   UNL     1      59.885  10.590  90.036  1.00  0.00    -0.003 C 
ATOM     20  C   UNL     1      60.889  10.500  91.184  1.00  0.00     0.004 C 
ENDBRANCH  18  19
ENDBRANCH  17  18
ENDBRANCH  16  17
ENDBRANCH  15  16
ENDBRANCH  14  15
ENDBRANCH  13  14
ENDBRANCH  12  13
ENDBRANCH   1  12
TORSDOF 16
ENDMDL
