MODEL 1
REMARK VINA RESULT:    -5.400      0.000      0.000
REMARK INTER + INTRA:          -9.640
REMARK INTER:                  -8.242
REMARK INTRA:                  -1.398
REMARK UNBOUND:                -1.398
REMARK SMILES CC(=O)CCC=C(C)CCC=C(C)CCC=C(C)C
REMARK SMILES IDX 10 1 11 2 12 3 13 4 14 5 15 6 16 7 18 8 17 9 19 10 9 11 7 12
REMARK SMILES IDX 6 13 8 14 5 15 4 16 2 17 3 18 1 19
REMARK H PARENT
REMARK Flexibility Score: inf
ROOT
ATOM      1  C   UNL     1      -2.183  28.721  55.326  1.00  0.00     0.032 C 
ENDROOT
BRANCH   1   2
ATOM      2  C   UNL     1      -0.757  28.507  54.882  1.00  0.00    -0.028 C 
ATOM      3  C   UNL     1      -0.371  27.644  53.914  1.00  0.00    -0.077 C 
ATOM      4  C   UNL     1       1.102  27.506  53.629  1.00  0.00     0.039 C 
BRANCH   3   5
ATOM      5  C   UNL     1      -1.356  26.835  53.087  1.00  0.00     0.034 C 
BRANCH   5   6
ATOM      6  C   UNL     1      -1.484  27.374  51.656  1.00  0.00     0.032 C 
BRANCH   6   7
ATOM      7  C   UNL     1      -2.431  28.552  51.596  1.00  0.00    -0.028 C 
ATOM      8  C   UNL     1      -0.601  30.237  51.295  1.00  0.00     0.039 C 
ATOM      9  C   UNL     1      -2.052  29.836  51.408  1.00  0.00    -0.080 C 
ATOM     10  C   UNL     1      -3.123  30.891  51.307  1.00  0.00     0.039 C 
ENDBRANCH   6   7
ENDBRANCH   5   6
ENDBRANCH   3   5
ENDBRANCH   1   2
BRANCH   1  11
ATOM     11  C   UNL     1      -2.309  28.555  56.844  1.00  0.00     0.034 C 
BRANCH  11  12
ATOM     12  C   UNL     1      -2.883  29.803  57.476  1.00  0.00    -0.077 C 
ATOM     13  C   UNL     1      -2.296  30.308  58.585  1.00  0.00    -0.028 C 
ATOM     14  C   UNL     1      -4.094  30.452  56.847  1.00  0.00     0.039 C 
BRANCH  13  15
ATOM     15  C   UNL     1      -2.790  31.509  59.357  1.00  0.00     0.035 C 
BRANCH  15  16
ATOM     16  C   UNL     1      -2.822  31.221  60.862  1.00  0.00     0.079 C 
BRANCH  16  17
ATOM     17  C   UNL     1      -1.861  32.106  61.613  1.00  0.00     0.130 C 
ATOM     18  O   UNL     1      -2.269  32.779  62.548  1.00  0.00    -0.300 OA
ATOM     19  C   UNL     1      -0.411  32.176  61.238  1.00  0.00     0.087 C 
ENDBRANCH  16  17
ENDBRANCH  15  16
ENDBRANCH  13  15
ENDBRANCH  11  12
ENDBRANCH   1  11
TORSDOF 9
ENDMDL
MODEL 2
REMARK VINA RESULT:    -5.233      1.354      3.027
REMARK INTER + INTRA:          -9.384
REMARK INTER:                  -7.795
REMARK INTRA:                  -1.589
REMARK UNBOUND:                -1.398
REMARK SMILES CC(=O)CCC=C(C)CCC=C(C)CCC=C(C)C
REMARK SMILES IDX 10 1 11 2 12 3 13 4 14 5 15 6 16 7 18 8 17 9 19 10 9 11 7 12
REMARK SMILES IDX 6 13 8 14 5 15 4 16 2 17 3 18 1 19
REMARK H PARENT
REMARK Flexibility Score: inf
ROOT
ATOM      1  C   UNL     1      -1.958  28.873  55.556  1.00  0.00     0.032 C 
ENDROOT
BRANCH   1   2
ATOM      2  C   UNL     1      -1.958  29.357  54.127  1.00  0.00    -0.028 C 
ATOM      3  C   UNL     1      -1.993  28.554  53.040  1.00  0.00    -0.077 C 
ATOM      4  C   UNL     1      -1.928  29.196  51.678  1.00  0.00     0.039 C 
BRANCH   3   5
ATOM      5  C   UNL     1      -2.125  27.044  53.131  1.00  0.00     0.034 C 
BRANCH   5   6
ATOM      6  C   UNL     1      -0.827  26.327  52.736  1.00  0.00     0.032 C 
BRANCH   6   7
ATOM      7  C   UNL     1       0.065  26.104  53.936  1.00  0.00    -0.028 C 
ATOM      8  C   UNL     1       1.534  28.070  53.438  1.00  0.00     0.039 C 
ATOM      9  C   UNL     1       1.109  26.891  54.278  1.00  0.00    -0.080 C 
ATOM     10  C   UNL     1       1.861  26.572  55.544  1.00  0.00     0.039 C 
ENDBRANCH   6   7
ENDBRANCH   5   6
ENDBRANCH   3   5
ENDBRANCH   1   2
BRANCH   1  11
ATOM     11  C   UNL     1      -3.263  29.258  56.260  1.00  0.00     0.034 C 
BRANCH  11  12
ATOM     12  C   UNL     1      -2.983  29.868  57.615  1.00  0.00    -0.077 C 
ATOM     13  C   UNL     1      -2.088  29.268  58.432  1.00  0.00    -0.028 C 
ATOM     14  C   UNL     1      -3.709  31.131  58.014  1.00  0.00     0.039 C 
BRANCH  13  15
ATOM     15  C   UNL     1      -1.751  29.726  59.833  1.00  0.00     0.035 C 
BRANCH  15  16
ATOM     16  C   UNL     1      -0.624  30.765  59.814  1.00  0.00     0.079 C 
BRANCH  16  17
ATOM     17  C   UNL     1      -0.797  31.786  60.909  1.00  0.00     0.130 C 
ATOM     18  O   UNL     1       0.086  32.605  61.112  1.00  0.00    -0.300 OA
ATOM     19  C   UNL     1      -2.035  31.818  61.755  1.00  0.00     0.087 C 
ENDBRANCH  16  17
ENDBRANCH  15  16
ENDBRANCH  13  15
ENDBRANCH  11  12
ENDBRANCH   1  11
TORSDOF 9
ENDMDL
MODEL 3
REMARK VINA RESULT:    -5.176      2.741      8.108
REMARK INTER + INTRA:          -9.297
REMARK INTER:                  -8.177
REMARK INTRA:                  -1.120
REMARK UNBOUND:                -1.398
REMARK SMILES CC(=O)CCC=C(C)CCC=C(C)CCC=C(C)C
REMARK SMILES IDX 10 1 11 2 12 3 13 4 14 5 15 6 16 7 18 8 17 9 19 10 9 11 7 12
REMARK SMILES IDX 6 13 8 14 5 15 4 16 2 17 3 18 1 19
REMARK H PARENT
REMARK Flexibility Score: inf
ROOT
ATOM      1  C   UNL     1      -2.605  28.889  56.391  1.00  0.00     0.032 C 
ENDROOT
BRANCH   1   2
ATOM      2  C   UNL     1      -3.319  30.008  57.108  1.00  0.00    -0.028 C 
ATOM      3  C   UNL     1      -3.009  30.454  58.347  1.00  0.00    -0.077 C 
ATOM      4  C   UNL     1      -3.860  31.545  58.945  1.00  0.00     0.039 C 
BRANCH   3   5
ATOM      5  C   UNL     1      -1.828  29.927  59.143  1.00  0.00     0.034 C 
BRANCH   5   6
ATOM      6  C   UNL     1      -1.992  30.175  60.649  1.00  0.00     0.032 C 
BRANCH   6   7
ATOM      7  C   UNL     1      -0.985  31.184  61.152  1.00  0.00    -0.028 C 
ATOM      8  C   UNL     1      -2.668  32.461  62.499  1.00  0.00     0.039 C 
ATOM      9  C   UNL     1      -1.267  32.196  62.002  1.00  0.00    -0.080 C 
ATOM     10  C   UNL     1      -0.137  33.080  62.463  1.00  0.00     0.039 C 
ENDBRANCH   6   7
ENDBRANCH   5   6
ENDBRANCH   3   5
ENDBRANCH   1   2
BRANCH   1  11
ATOM     11  C   UNL     1      -2.968  28.878  54.903  1.00  0.00     0.034 C 
BRANCH  11  12
ATOM     12  C   UNL     1      -1.774  28.490  54.061  1.00  0.00    -0.077 C 
ATOM     13  C   UNL     1      -1.507  27.179  53.864  1.00  0.00    -0.028 C 
ATOM     14  C   UNL     1      -0.916  29.579  53.461  1.00  0.00     0.039 C 
BRANCH  13  15
ATOM     15  C   UNL     1      -0.320  26.642  53.097  1.00  0.00     0.035 C 
BRANCH  15  16
ATOM     16  C   UNL     1       0.665  25.936  54.035  1.00  0.00     0.079 C 
BRANCH  16  17
ATOM     17  C   UNL     1       1.713  26.887  54.552  1.00  0.00     0.130 C 
ATOM     18  O   UNL     1       1.877  27.004  55.758  1.00  0.00    -0.300 OA
ATOM     19  C   UNL     1       2.562  27.695  53.616  1.00  0.00     0.087 C 
ENDBRANCH  16  17
ENDBRANCH  15  16
ENDBRANCH  13  15
ENDBRANCH  11  12
ENDBRANCH   1  11
TORSDOF 9
ENDMDL
MODEL 4
REMARK VINA RESULT:    -5.119      1.558      2.347
REMARK INTER + INTRA:          -9.210
REMARK INTER:                  -8.377
REMARK INTRA:                  -0.833
REMARK UNBOUND:                -1.398
REMARK SMILES CC(=O)CCC=C(C)CCC=C(C)CCC=C(C)C
REMARK SMILES IDX 10 1 11 2 12 3 13 4 14 5 15 6 16 7 18 8 17 9 19 10 9 11 7 12
REMARK SMILES IDX 6 13 8 14 5 15 4 16 2 17 3 18 1 19
REMARK H PARENT
REMARK Flexibility Score: inf
ROOT
ATOM      1  C   UNL     1      -1.892  28.883  55.724  1.00  0.00     0.032 C 
ENDROOT
BRANCH   1   2
ATOM      2  C   UNL     1      -2.113  28.124  54.440  1.00  0.00    -0.028 C 
ATOM      3  C   UNL     1      -1.590  28.468  53.240  1.00  0.00    -0.077 C 
ATOM      4  C   UNL     1      -1.955  27.634  52.039  1.00  0.00     0.039 C 
BRANCH   3   5
ATOM      5  C   UNL     1      -0.632  29.632  53.059  1.00  0.00     0.034 C 
BRANCH   5   6
ATOM      6  C   UNL     1      -1.070  30.568  51.925  1.00  0.00     0.032 C 
BRANCH   6   7
ATOM      7  C   UNL     1      -0.264  30.325  50.669  1.00  0.00    -0.028 C 
ATOM      8  C   UNL     1      -2.109  31.034  49.130  1.00  0.00     0.039 C 
ATOM      9  C   UNL     1      -0.706  30.554  49.413  1.00  0.00    -0.080 C 
ATOM     10  C   UNL     1       0.244  30.322  48.266  1.00  0.00     0.039 C 
ENDBRANCH   6   7
ENDBRANCH   5   6
ENDBRANCH   3   5
ENDBRANCH   1   2
BRANCH   1  11
ATOM     11  C   UNL     1      -3.230  29.267  56.364  1.00  0.00     0.034 C 
BRANCH  11  12
ATOM     12  C   UNL     1      -3.012  29.979  57.681  1.00  0.00    -0.077 C 
ATOM     13  C   UNL     1      -2.091  29.494  58.544  1.00  0.00    -0.028 C 
ATOM     14  C   UNL     1      -3.826  31.213  57.990  1.00  0.00     0.039 C 
BRANCH  13  15
ATOM     15  C   UNL     1      -1.806  30.062  59.916  1.00  0.00     0.035 C 
BRANCH  15  16
ATOM     16  C   UNL     1      -0.716  31.138  59.849  1.00  0.00     0.079 C 
BRANCH  16  17
ATOM     17  C   UNL     1      -0.734  32.018  61.072  1.00  0.00     0.130 C 
ATOM     18  O   UNL     1       0.237  32.715  61.326  1.00  0.00    -0.300 OA
ATOM     19  C   UNL     1      -1.924  32.058  61.985  1.00  0.00     0.087 C 
ENDBRANCH  16  17
ENDBRANCH  15  16
ENDBRANCH  13  15
ENDBRANCH  11  12
ENDBRANCH   1  11
TORSDOF 9
ENDMDL
MODEL 5
REMARK VINA RESULT:    -5.031      2.032      4.296
REMARK INTER + INTRA:          -9.075
REMARK INTER:                  -7.819
REMARK INTRA:                  -1.256
REMARK UNBOUND:                -1.398
REMARK SMILES CC(=O)CCC=C(C)CCC=C(C)CCC=C(C)C
REMARK SMILES IDX 10 1 11 2 12 3 13 4 14 5 15 6 16 7 18 8 17 9 19 10 9 11 7 12
REMARK SMILES IDX 6 13 8 14 5 15 4 16 2 17 3 18 1 19
REMARK H PARENT
REMARK Flexibility Score: inf
ROOT
ATOM      1  C   UNL     1      -1.444  27.526  51.777  1.00  0.00     0.032 C 
ENDROOT
BRANCH   1   2
ATOM      2  C   UNL     1      -2.617  28.274  51.195  1.00  0.00    -0.028 C 
ATOM      3  C   UNL     1      -2.823  29.605  51.319  1.00  0.00    -0.077 C 
ATOM      4  C   UNL     1      -4.078  30.191  50.726  1.00  0.00     0.039 C 
BRANCH   3   5
ATOM      5  C   UNL     1      -1.832  30.535  51.999  1.00  0.00     0.034 C 
BRANCH   5   6
ATOM      6  C   UNL     1      -1.075  31.408  50.989  1.00  0.00     0.032 C 
BRANCH   6   7
ATOM      7  C   UNL     1      -0.262  30.564  50.034  1.00  0.00    -0.028 C 
ATOM      8  C   UNL     1      -1.626  31.195  48.030  1.00  0.00     0.039 C 
ATOM      9  C   UNL     1      -0.480  30.480  48.703  1.00  0.00    -0.080 C 
ATOM     10  C   UNL     1       0.461  29.644  47.875  1.00  0.00     0.039 C 
ENDBRANCH   6   7
ENDBRANCH   5   6
ENDBRANCH   3   5
ENDBRANCH   1   2
BRANCH   1  11
ATOM     11  C   UNL     1      -1.832  26.851  53.097  1.00  0.00     0.034 C 
BRANCH  11  12
ATOM     12  C   UNL     1      -1.758  27.833  54.245  1.00  0.00    -0.077 C 
ATOM     13  C   UNL     1      -2.908  28.313  54.771  1.00  0.00    -0.028 C 
ATOM     14  C   UNL     1      -0.404  28.244  54.772  1.00  0.00     0.039 C 
BRANCH  13  15
ATOM     15  C   UNL     1      -2.991  29.340  55.877  1.00  0.00     0.035 C 
BRANCH  15  16
ATOM     16  C   UNL     1      -2.240  28.865  57.127  1.00  0.00     0.079 C 
BRANCH  16  17
ATOM     17  C   UNL     1      -2.387  29.843  58.263  1.00  0.00     0.130 C 
ATOM     18  O   UNL     1      -1.692  29.714  59.261  1.00  0.00    -0.300 OA
ATOM     19  C   UNL     1      -3.367  30.976  58.195  1.00  0.00     0.087 C 
ENDBRANCH  16  17
ENDBRANCH  15  16
ENDBRANCH  13  15
ENDBRANCH  11  12
ENDBRANCH   1  11
TORSDOF 9
ENDMDL
MODEL 6
REMARK VINA RESULT:    -4.986      3.002      8.486
REMARK INTER + INTRA:          -9.007
REMARK INTER:                  -7.591
REMARK INTRA:                  -1.416
REMARK UNBOUND:                -1.398
REMARK SMILES CC(=O)CCC=C(C)CCC=C(C)CCC=C(C)C
REMARK SMILES IDX 10 1 11 2 12 3 13 4 14 5 15 6 16 7 18 8 17 9 19 10 9 11 7 12
REMARK SMILES IDX 6 13 8 14 5 15 4 16 2 17 3 18 1 19
REMARK H PARENT
REMARK Flexibility Score: inf
ROOT
ATOM      1  C   UNL     1      -3.109  31.270  58.335  1.00  0.00     0.032 C 
ENDROOT
BRANCH   1   2
ATOM      2  C   UNL     1      -3.588  31.136  59.759  1.00  0.00    -0.028 C 
ATOM      3  C   UNL     1      -2.815  30.753  60.801  1.00  0.00    -0.077 C 
ATOM      4  C   UNL     1      -3.463  30.612  62.154  1.00  0.00     0.039 C 
BRANCH   3   5
ATOM      5  C   UNL     1      -1.325  30.490  60.672  1.00  0.00     0.034 C 
BRANCH   5   6
ATOM      6  C   UNL     1      -0.512  31.791  60.629  1.00  0.00     0.032 C 
BRANCH   6   7
ATOM      7  C   UNL     1      -0.285  32.343  62.018  1.00  0.00    -0.028 C 
ATOM      8  C   UNL     1      -1.829  34.290  61.692  1.00  0.00     0.039 C 
ATOM      9  C   UNL     1      -0.888  33.445  62.517  1.00  0.00    -0.080 C 
ATOM     10  C   UNL     1      -0.606  33.830  63.946  1.00  0.00     0.039 C 
ENDBRANCH   6   7
ENDBRANCH   5   6
ENDBRANCH   3   5
ENDBRANCH   1   2
BRANCH   1  11
ATOM     11  C   UNL     1      -3.930  30.377  57.399  1.00  0.00     0.034 C 
BRANCH  11  12
ATOM     12  C   UNL     1      -3.043  29.369  56.703  1.00  0.00    -0.077 C 
ATOM     13  C   UNL     1      -3.134  29.232  55.361  1.00  0.00    -0.028 C 
ATOM     14  C   UNL     1      -2.080  28.548  57.527  1.00  0.00     0.039 C 
BRANCH  13  15
ATOM     15  C   UNL     1      -2.358  28.229  54.538  1.00  0.00     0.035 C 
BRANCH  15  16
ATOM     16  C   UNL     1      -1.081  28.857  53.968  1.00  0.00     0.079 C 
BRANCH  16  17
ATOM     17  C   UNL     1      -0.032  27.813  53.686  1.00  0.00     0.130 C 
ATOM     18  O   UNL     1       1.145  28.141  53.635  1.00  0.00    -0.300 OA
ATOM     19  C   UNL     1      -0.401  26.375  53.470  1.00  0.00     0.087 C 
ENDBRANCH  16  17
ENDBRANCH  15  16
ENDBRANCH  13  15
ENDBRANCH  11  12
ENDBRANCH   1  11
TORSDOF 9
ENDMDL
MODEL 7
REMARK VINA RESULT:    -4.818      3.067      8.272
REMARK INTER + INTRA:          -8.751
REMARK INTER:                  -7.553
REMARK INTRA:                  -1.198
REMARK UNBOUND:                -1.398
REMARK SMILES CC(=O)CCC=C(C)CCC=C(C)CCC=C(C)C
REMARK SMILES IDX 10 1 11 2 12 3 13 4 14 5 15 6 16 7 18 8 17 9 19 10 9 11 7 12
REMARK SMILES IDX 6 13 8 14 5 15 4 16 2 17 3 18 1 19
REMARK H PARENT
REMARK Flexibility Score: inf
ROOT
ATOM      1  C   UNL     1      -2.101  30.560  58.775  1.00  0.00     0.032 C 
ENDROOT
BRANCH   1   2
ATOM      2  C   UNL     1      -2.905  30.687  60.045  1.00  0.00    -0.028 C 
ATOM      3  C   UNL     1      -2.407  31.086  61.238  1.00  0.00    -0.077 C 
ATOM      4  C   UNL     1      -3.334  31.103  62.427  1.00  0.00     0.039 C 
BRANCH   3   5
ATOM      5  C   UNL     1      -0.971  31.544  61.423  1.00  0.00     0.034 C 
BRANCH   5   6
ATOM      6  C   UNL     1      -0.888  32.940  62.054  1.00  0.00     0.032 C 
BRANCH   6   7
ATOM      7  C   UNL     1      -0.330  33.952  61.079  1.00  0.00    -0.028 C 
ATOM      8  C   UNL     1      -2.579  34.590  60.176  1.00  0.00     0.039 C 
ATOM      9  C   UNL     1      -1.076  34.717  60.251  1.00  0.00    -0.080 C 
ATOM     10  C   UNL     1      -0.373  35.727  59.383  1.00  0.00     0.039 C 
ENDBRANCH   6   7
ENDBRANCH   5   6
ENDBRANCH   3   5
ENDBRANCH   1   2
BRANCH   1  11
ATOM     11  C   UNL     1      -2.255  29.160  58.173  1.00  0.00     0.034 C 
BRANCH  11  12
ATOM     12  C   UNL     1      -2.742  29.239  56.744  1.00  0.00    -0.077 C 
ATOM     13  C   UNL     1      -1.981  28.707  55.761  1.00  0.00    -0.028 C 
ATOM     14  C   UNL     1      -4.065  29.907  56.457  1.00  0.00     0.039 C 
BRANCH  13  15
ATOM     15  C   UNL     1      -2.308  28.762  54.286  1.00  0.00     0.035 C 
BRANCH  15  16
ATOM     16  C   UNL     1      -1.940  27.446  53.592  1.00  0.00     0.079 C 
BRANCH  16  17
ATOM     17  C   UNL     1      -0.446  27.264  53.509  1.00  0.00     0.130 C 
ATOM     18  O   UNL     1       0.038  26.163  53.721  1.00  0.00    -0.300 OA
ATOM     19  C   UNL     1       0.460  28.410  53.168  1.00  0.00     0.087 C 
ENDBRANCH  16  17
ENDBRANCH  15  16
ENDBRANCH  13  15
ENDBRANCH  11  12
ENDBRANCH   1  11
TORSDOF 9
ENDMDL
MODEL 8
REMARK VINA RESULT:    -4.581      2.861      8.924
REMARK INTER + INTRA:          -8.390
REMARK INTER:                  -7.119
REMARK INTRA:                  -1.271
REMARK UNBOUND:                -1.398
REMARK SMILES CC(=O)CCC=C(C)CCC=C(C)CCC=C(C)C
REMARK SMILES IDX 10 1 11 2 12 3 13 4 14 5 15 6 16 7 18 8 17 9 19 10 9 11 7 12
REMARK SMILES IDX 6 13 8 14 5 15 4 16 2 17 3 18 1 19
REMARK H PARENT
REMARK Flexibility Score: inf
ROOT
ATOM      1  C   UNL     1      -2.094  30.980  59.777  1.00  0.00     0.032 C 
ENDROOT
BRANCH   1   2
ATOM      2  C   UNL     1      -2.677  30.742  61.148  1.00  0.00    -0.028 C 
ATOM      3  C   UNL     1      -3.335  31.671  61.879  1.00  0.00    -0.077 C 
ATOM      4  C   UNL     1      -3.806  31.288  63.259  1.00  0.00     0.039 C 
BRANCH   3   5
ATOM      5  C   UNL     1      -3.645  33.064  61.360  1.00  0.00     0.034 C 
BRANCH   5   6
ATOM      6  C   UNL     1      -3.058  34.158  62.263  1.00  0.00     0.032 C 
BRANCH   6   7
ATOM      7  C   UNL     1      -1.771  34.709  61.692  1.00  0.00    -0.028 C 
ATOM      8  C   UNL     1      -0.308  33.269  63.129  1.00  0.00     0.039 C 
ATOM      9  C   UNL     1      -0.533  34.302  62.051  1.00  0.00    -0.080 C 
ATOM     10  C   UNL     1       0.652  34.904  61.342  1.00  0.00     0.039 C 
ENDBRANCH   6   7
ENDBRANCH   5   6
ENDBRANCH   3   5
ENDBRANCH   1   2
BRANCH   1  11
ATOM     11  C   UNL     1      -1.950  29.660  59.012  1.00  0.00     0.034 C 
BRANCH  11  12
ATOM     12  C   UNL     1      -2.664  29.731  57.681  1.00  0.00    -0.077 C 
ATOM     13  C   UNL     1      -2.287  28.891  56.689  1.00  0.00    -0.028 C 
ATOM     14  C   UNL     1      -3.778  30.733  57.499  1.00  0.00     0.039 C 
BRANCH  13  15
ATOM     15  C   UNL     1      -2.865  28.885  55.293  1.00  0.00     0.035 C 
BRANCH  15  16
ATOM     16  C   UNL     1      -1.909  28.209  54.304  1.00  0.00     0.079 C 
BRANCH  16  17
ATOM     17  C   UNL     1      -2.091  28.743  52.907  1.00  0.00     0.130 C 
ATOM     18  O   UNL     1      -2.581  29.851  52.747  1.00  0.00    -0.300 OA
ATOM     19  C   UNL     1      -1.680  27.943  51.707  1.00  0.00     0.087 C 
ENDBRANCH  16  17
ENDBRANCH  15  16
ENDBRANCH  13  15
ENDBRANCH  11  12
ENDBRANCH   1  11
TORSDOF 9
ENDMDL
MODEL 9
REMARK VINA RESULT:    -4.579      6.573      9.565
REMARK INTER + INTRA:          -8.386
REMARK INTER:                  -6.368
REMARK INTRA:                  -2.017
REMARK UNBOUND:                -1.398
REMARK SMILES CC(=O)CCC=C(C)CCC=C(C)CCC=C(C)C
REMARK SMILES IDX 10 1 11 2 12 3 13 4 14 5 15 6 16 7 18 8 17 9 19 10 9 11 7 12
REMARK SMILES IDX 6 13 8 14 5 15 4 16 2 17 3 18 1 19
REMARK H PARENT
REMARK Flexibility Score: inf
ROOT
ATOM      1  C   UNL     1      -0.328  33.568  62.414  1.00  0.00     0.032 C 
ENDROOT
BRANCH   1   2
ATOM      2  C   UNL     1      -0.306  32.240  61.697  1.00  0.00    -0.028 C 
ATOM      3  C   UNL     1      -1.406  31.538  61.339  1.00  0.00    -0.077 C 
ATOM      4  C   UNL     1      -1.210  30.197  60.679  1.00  0.00     0.039 C 
BRANCH   3   5
ATOM      5  C   UNL     1      -2.819  32.054  61.543  1.00  0.00     0.034 C 
BRANCH   5   6
ATOM      6  C   UNL     1      -3.366  31.699  62.933  1.00  0.00     0.032 C 
BRANCH   6   7
ATOM      7  C   UNL     1      -3.948  32.914  63.620  1.00  0.00    -0.028 C 
ATOM      8  C   UNL     1      -2.304  32.856  65.510  1.00  0.00     0.039 C 
ATOM      9  C   UNL     1      -3.467  33.459  64.759  1.00  0.00    -0.080 C 
ATOM     10  C   UNL     1      -4.119  34.711  65.285  1.00  0.00     0.039 C 
ENDBRANCH   6   7
ENDBRANCH   5   6
ENDBRANCH   3   5
ENDBRANCH   1   2
BRANCH   1  11
ATOM     11  C   UNL     1      -0.014  34.712  61.445  1.00  0.00     0.034 C 
BRANCH  11  12
ATOM     12  C   UNL     1      -1.284  35.390  60.982  1.00  0.00    -0.077 C 
ATOM     13  C   UNL     1      -1.469  35.603  59.659  1.00  0.00    -0.028 C 
ATOM     14  C   UNL     1      -2.310  35.804  62.010  1.00  0.00     0.039 C 
BRANCH  13  15
ATOM     15  C   UNL     1      -2.656  36.318  59.055  1.00  0.00     0.035 C 
BRANCH  15  16
ATOM     16  C   UNL     1      -2.299  37.763  58.689  1.00  0.00     0.079 C 
BRANCH  16  17
ATOM     17  C   UNL     1      -1.582  37.836  57.366  1.00  0.00     0.130 C 
ATOM     18  O   UNL     1      -2.201  37.624  56.334  1.00  0.00    -0.300 OA
ATOM     19  C   UNL     1      -0.121  38.167  57.290  1.00  0.00     0.087 C 
ENDBRANCH  16  17
ENDBRANCH  15  16
ENDBRANCH  13  15
ENDBRANCH  11  12
ENDBRANCH   1  11
TORSDOF 9
ENDMDL
