MODEL 1
REMARK VINA RESULT:    -3.685      0.000      0.000
REMARK INTER + INTRA:          -4.544
REMARK INTER:                  -4.439
REMARK INTRA:                  -0.104
REMARK UNBOUND:                -0.104
REMARK SMILES CC[C@@H](C)[C@H]([NH3+])C(=O)[O-]
REMARK SMILES IDX 3 1 4 2 5 3 6 4 7 8 8 9 9 10 2 11 1 12
REMARK H PARENT 6 5 6 6 6 7
REMARK Flexibility Score: inf
ROOT
ATOM      1  C   UNL     1     120.360 131.993 136.946  1.00  0.00     0.050 C 
ATOM      2  C   UNL     1     119.833 131.088 138.073  1.00  0.00     0.014 C 
ENDROOT
BRANCH   1   3
ATOM      3  C   UNL     1     120.978 131.182 135.762  1.00  0.00     0.230 C 
BRANCH   3   4
ATOM      4  N   UNL     1     120.884 129.732 135.988  1.00  0.00    -0.350 N 
ATOM      5  H   UNL     1     120.492 129.542 136.939  1.00  0.00     0.345 HD
ATOM      6  H   UNL     1     120.240 129.307 135.281  1.00  0.00     0.345 HD
ATOM      7  H   UNL     1     121.821 129.274 135.904  1.00  0.00     0.345 HD
ENDBRANCH   3   4
BRANCH   3   8
ATOM      8  C   UNL     1     122.386 131.594 135.391  1.00  0.00     0.099 C 
ATOM      9  O   UNL     1     122.832 131.413 134.227  1.00  0.00    -0.544 OA
ATOM     10  O   UNL     1     123.192 132.221 136.331  1.00  0.00    -0.544 OA
ENDBRANCH   3   8
ENDBRANCH   1   3
BRANCH   1  11
ATOM     11  C   UNL     1     119.336 133.096 136.564  1.00  0.00     0.006 C 
ATOM     12  C   UNL     1     119.172 133.358 135.067  1.00  0.00     0.004 C 
ENDBRANCH   1  11
TORSDOF 4
ENDMDL
MODEL 2
REMARK VINA RESULT:    -3.678     12.865     13.952
REMARK INTER + INTRA:          -4.534
REMARK INTER:                  -4.417
REMARK INTRA:                  -0.117
REMARK UNBOUND:                -0.104
REMARK SMILES CC[C@@H](C)[C@H]([NH3+])C(=O)[O-]
REMARK SMILES IDX 3 1 4 2 5 3 6 4 7 8 8 9 9 10 2 11 1 12
REMARK H PARENT 6 5 6 6 6 7
REMARK Flexibility Score: inf
ROOT
ATOM      1  C   UNL     1     135.153 132.127 136.945  1.00  0.00     0.050 C 
ATOM      2  C   UNL     1     134.587 132.964 138.105  1.00  0.00     0.014 C 
ENDROOT
BRANCH   1   3
ATOM      3  C   UNL     1     134.175 132.047 135.728  1.00  0.00     0.230 C 
BRANCH   3   4
ATOM      4  N   UNL     1     133.014 132.933 135.903  1.00  0.00    -0.350 N 
ATOM      5  H   UNL     1     132.138 132.366 135.976  1.00  0.00     0.345 HD
ATOM      6  H   UNL     1     133.121 133.481 136.788  1.00  0.00     0.345 HD
ATOM      7  H   UNL     1     132.925 133.602 135.104  1.00  0.00     0.345 HD
ENDBRANCH   3   4
BRANCH   3   8
ATOM      8  C   UNL     1     133.747 130.642 135.364  1.00  0.00     0.099 C 
ATOM      9  O   UNL     1     133.260 130.383 134.231  1.00  0.00    -0.544 OA
ATOM     10  O   UNL     1     133.932 129.606 136.270  1.00  0.00    -0.544 OA
ENDBRANCH   3   8
ENDBRANCH   1   3
BRANCH   1  11
ATOM     11  C   UNL     1     136.623 132.507 136.621  1.00  0.00     0.006 C 
ATOM     12  C   UNL     1     136.997 132.506 135.139  1.00  0.00     0.004 C 
ENDBRANCH   1  11
TORSDOF 4
ENDMDL
MODEL 3
REMARK VINA RESULT:    -3.626     22.702     23.384
REMARK INTER + INTRA:          -4.472
REMARK INTER:                  -4.352
REMARK INTRA:                  -0.120
REMARK UNBOUND:                -0.104
REMARK SMILES CC[C@@H](C)[C@H]([NH3+])C(=O)[O-]
REMARK SMILES IDX 3 1 4 2 5 3 6 4 7 8 8 9 9 10 2 11 1 12
REMARK H PARENT 6 5 6 6 6 7
REMARK Flexibility Score: inf
ROOT
ATOM      1  C   UNL     1     136.449 123.064 122.387  1.00  0.00     0.050 C 
ATOM      2  C   UNL     1     137.774 123.684 122.865  1.00  0.00     0.014 C 
ENDROOT
BRANCH   1   3
ATOM      3  C   UNL     1     135.963 123.659 121.026  1.00  0.00     0.230 C 
BRANCH   3   4
ATOM      4  N   UNL     1     134.624 124.256 121.140  1.00  0.00    -0.350 N 
ATOM      5  H   UNL     1     134.670 125.132 121.710  1.00  0.00     0.345 HD
ATOM      6  H   UNL     1     134.270 124.507 120.188  1.00  0.00     0.345 HD
ATOM      7  H   UNL     1     133.950 123.592 121.584  1.00  0.00     0.345 HD
ENDBRANCH   3   4
BRANCH   3   8
ATOM      8  C   UNL     1     136.042 122.697 119.861  1.00  0.00     0.099 C 
ATOM      9  O   UNL     1     137.123 122.515 119.239  1.00  0.00    -0.544 OA
ATOM     10  O   UNL     1     134.921 121.965 119.492  1.00  0.00    -0.544 OA
ENDBRANCH   3   8
ENDBRANCH   1   3
BRANCH   1  11
ATOM     11  C   UNL     1     136.463 121.516 122.495  1.00  0.00     0.006 C 
ATOM     12  C   UNL     1     137.843 120.873 122.638  1.00  0.00     0.004 C 
ENDBRANCH   1  11
TORSDOF 4
ENDMDL
MODEL 4
REMARK VINA RESULT:    -3.581     12.712     13.680
REMARK INTER + INTRA:          -4.418
REMARK INTER:                  -4.352
REMARK INTRA:                  -0.066
REMARK UNBOUND:                -0.104
REMARK SMILES CC[C@@H](C)[C@H]([NH3+])C(=O)[O-]
REMARK SMILES IDX 3 1 4 2 5 3 6 4 7 8 8 9 9 10 2 11 1 12
REMARK H PARENT 6 5 6 6 6 7
REMARK Flexibility Score: inf
ROOT
ATOM      1  C   UNL     1     134.450 131.917 134.444  1.00  0.00     0.050 C 
ATOM      2  C   UNL     1     133.438 133.019 134.803  1.00  0.00     0.014 C 
ENDROOT
BRANCH   1   3
ATOM      3  C   UNL     1     133.966 131.020 133.259  1.00  0.00     0.230 C 
BRANCH   3   4
ATOM      4  N   UNL     1     133.072 131.753 132.351  1.00  0.00    -0.350 N 
ATOM      5  H   UNL     1     132.681 131.103 131.631  1.00  0.00     0.345 HD
ATOM      6  H   UNL     1     132.272 132.154 132.893  1.00  0.00     0.345 HD
ATOM      7  H   UNL     1     133.576 132.534 131.872  1.00  0.00     0.345 HD
ENDBRANCH   3   4
BRANCH   3   8
ATOM      8  C   UNL     1     133.361 129.700 133.684  1.00  0.00     0.099 C 
ATOM      9  O   UNL     1     133.010 128.840 132.831  1.00  0.00    -0.544 OA
ATOM     10  O   UNL     1     133.226 129.403 135.034  1.00  0.00    -0.544 OA
ENDBRANCH   3   8
ENDBRANCH   1   3
BRANCH   1  11
ATOM     11  C   UNL     1     135.897 132.470 134.341  1.00  0.00     0.006 C 
ATOM     12  C   UNL     1     136.746 132.344 135.607  1.00  0.00     0.004 C 
ENDBRANCH   1  11
TORSDOF 4
ENDMDL
MODEL 5
REMARK VINA RESULT:    -3.566      2.090      2.716
REMARK INTER + INTRA:          -4.400
REMARK INTER:                  -4.335
REMARK INTRA:                  -0.064
REMARK UNBOUND:                -0.104
REMARK SMILES CC[C@@H](C)[C@H]([NH3+])C(=O)[O-]
REMARK SMILES IDX 3 1 4 2 5 3 6 4 7 8 8 9 9 10 2 11 1 12
REMARK H PARENT 6 5 6 6 6 7
REMARK Flexibility Score: inf
ROOT
ATOM      1  C   UNL     1     120.909 131.495 134.445  1.00  0.00     0.050 C 
ATOM      2  C   UNL     1     120.449 130.078 134.829  1.00  0.00     0.014 C 
ENDROOT
BRANCH   1   3
ATOM      3  C   UNL     1     121.880 131.501 133.221  1.00  0.00     0.230 C 
BRANCH   3   4
ATOM      4  N   UNL     1     121.673 130.330 132.356  1.00  0.00    -0.350 N 
ATOM      5  H   UNL     1     121.482 129.483 132.940  1.00  0.00     0.345 HD
ATOM      6  H   UNL     1     120.845 130.492 131.738  1.00  0.00     0.345 HD
ATOM      7  H   UNL     1     122.510 130.151 131.755  1.00  0.00     0.345 HD
ENDBRANCH   3   4
BRANCH   3   8
ATOM      8  C   UNL     1     123.339 131.671 133.583  1.00  0.00     0.099 C 
ATOM      9  O   UNL     1     123.743 131.481 134.761  1.00  0.00    -0.544 OA
ATOM     10  O   UNL     1     124.262 131.998 132.598  1.00  0.00    -0.544 OA
ENDBRANCH   3   8
ENDBRANCH   1   3
BRANCH   1  11
ATOM     11  C   UNL     1     119.720 132.492 134.386  1.00  0.00     0.006 C 
ATOM     12  C   UNL     1     119.416 133.239 135.686  1.00  0.00     0.004 C 
ENDBRANCH   1  11
TORSDOF 4
ENDMDL
MODEL 6
REMARK VINA RESULT:    -3.545     12.835     13.895
REMARK INTER + INTRA:          -4.375
REMARK INTER:                  -4.252
REMARK INTRA:                  -0.123
REMARK UNBOUND:                -0.104
REMARK SMILES CC[C@@H](C)[C@H]([NH3+])C(=O)[O-]
REMARK SMILES IDX 3 1 4 2 5 3 6 4 7 8 8 9 9 10 2 11 1 12
REMARK H PARENT 6 5 6 6 6 7
REMARK Flexibility Score: inf
ROOT
ATOM      1  C   UNL     1     127.902 119.281 136.856  1.00  0.00     0.050 C 
ATOM      2  C   UNL     1     128.858 119.069 138.043  1.00  0.00     0.014 C 
ENDROOT
BRANCH   1   3
ATOM      3  C   UNL     1     128.425 120.356 135.848  1.00  0.00     0.230 C 
BRANCH   3   4
ATOM      4  N   UNL     1     129.767 120.836 136.211  1.00  0.00    -0.350 N 
ATOM      5  H   UNL     1     130.321 120.060 136.640  1.00  0.00     0.345 HD
ATOM      6  H   UNL     1     130.269 121.157 135.352  1.00  0.00     0.345 HD
ATOM      7  H   UNL     1     129.714 121.633 136.885  1.00  0.00     0.345 HD
ENDBRANCH   3   4
BRANCH   3   8
ATOM      8  C   UNL     1     127.471 121.507 135.614  1.00  0.00     0.099 C 
ATOM      9  O   UNL     1     126.431 121.643 136.312  1.00  0.00    -0.544 OA
ATOM     10  O   UNL     1     127.760 122.458 134.643  1.00  0.00    -0.544 OA
ENDBRANCH   3   8
ENDBRANCH   1   3
BRANCH   1  11
ATOM     11  C   UNL     1     127.432 117.935 136.243  1.00  0.00     0.006 C 
ATOM     12  C   UNL     1     127.402 117.877 134.715  1.00  0.00     0.004 C 
ENDBRANCH   1  11
TORSDOF 4
ENDMDL
MODEL 7
REMARK VINA RESULT:    -3.516     12.771     13.783
REMARK INTER + INTRA:          -4.340
REMARK INTER:                  -4.249
REMARK INTRA:                  -0.091
REMARK UNBOUND:                -0.104
REMARK SMILES CC[C@@H](C)[C@H]([NH3+])C(=O)[O-]
REMARK SMILES IDX 3 1 4 2 5 3 6 4 7 8 8 9 9 10 2 11 1 12
REMARK H PARENT 6 5 6 6 6 7
REMARK Flexibility Score: inf
ROOT
ATOM      1  C   UNL     1     134.909 131.850 136.096  1.00  0.00     0.050 C 
ATOM      2  C   UNL     1     134.346 131.856 137.527  1.00  0.00     0.014 C 
ENDROOT
BRANCH   1   3
ATOM      3  C   UNL     1     133.947 132.529 135.068  1.00  0.00     0.230 C 
BRANCH   3   4
ATOM      4  N   UNL     1     132.782 133.133 135.731  1.00  0.00    -0.350 N 
ATOM      5  H   UNL     1     132.452 132.517 136.509  1.00  0.00     0.345 HD
ATOM      6  H   UNL     1     133.051 134.057 136.141  1.00  0.00     0.345 HD
ATOM      7  H   UNL     1     131.998 133.282 135.055  1.00  0.00     0.345 HD
ENDBRANCH   3   4
BRANCH   3   8
ATOM      8  C   UNL     1     133.529 131.635 133.921  1.00  0.00     0.099 C 
ATOM      9  O   UNL     1     133.105 132.120 132.838  1.00  0.00    -0.544 OA
ATOM     10  O   UNL     1     133.650 130.256 134.039  1.00  0.00    -0.544 OA
ENDBRANCH   3   8
ENDBRANCH   1   3
BRANCH   1  11
ATOM     11  C   UNL     1     136.392 132.307 136.055  1.00  0.00     0.006 C 
ATOM     12  C   UNL     1     136.968 132.567 134.663  1.00  0.00     0.004 C 
ENDBRANCH   1  11
TORSDOF 4
ENDMDL
MODEL 8
REMARK VINA RESULT:    -3.431     12.649     13.742
REMARK INTER + INTRA:          -4.238
REMARK INTER:                  -4.124
REMARK INTRA:                  -0.114
REMARK UNBOUND:                -0.104
REMARK SMILES CC[C@@H](C)[C@H]([NH3+])C(=O)[O-]
REMARK SMILES IDX 3 1 4 2 5 3 6 4 7 8 8 9 9 10 2 11 1 12
REMARK H PARENT 6 5 6 6 6 7
REMARK Flexibility Score: inf
ROOT
ATOM      1  C   UNL     1     135.180 132.028 135.947  1.00  0.00     0.050 C 
ATOM      2  C   UNL     1     136.618 132.500 136.224  1.00  0.00     0.014 C 
ENDROOT
BRANCH   1   3
ATOM      3  C   UNL     1     134.194 132.393 137.103  1.00  0.00     0.230 C 
BRANCH   3   4
ATOM      4  N   UNL     1     134.838 133.233 138.124  1.00  0.00    -0.350 N 
ATOM      5  H   UNL     1     135.730 132.788 138.442  1.00  0.00     0.345 HD
ATOM      6  H   UNL     1     135.069 134.167 137.715  1.00  0.00     0.345 HD
ATOM      7  H   UNL     1     134.212 133.373 138.949  1.00  0.00     0.345 HD
ENDBRANCH   3   4
BRANCH   3   8
ATOM      8  C   UNL     1     133.496 131.204 137.726  1.00  0.00     0.099 C 
ATOM      9  O   UNL     1     132.303 131.285 138.125  1.00  0.00    -0.544 OA
ATOM     10  O   UNL     1     134.158 129.987 137.824  1.00  0.00    -0.544 OA
ENDBRANCH   3   8
ENDBRANCH   1   3
BRANCH   1  11
ATOM     11  C   UNL     1     134.719 132.391 134.509  1.00  0.00     0.006 C 
ATOM     12  C   UNL     1     133.274 132.873 134.379  1.00  0.00     0.004 C 
ENDBRANCH   1  11
TORSDOF 4
ENDMDL
MODEL 9
REMARK VINA RESULT:    -3.430      1.938      2.753
REMARK INTER + INTRA:          -4.236
REMARK INTER:                  -4.142
REMARK INTRA:                  -0.094
REMARK UNBOUND:                -0.104
REMARK SMILES CC[C@@H](C)[C@H]([NH3+])C(=O)[O-]
REMARK SMILES IDX 3 1 4 2 5 3 6 4 7 8 8 9 9 10 2 11 1 12
REMARK H PARENT 6 5 6 6 6 7
REMARK Flexibility Score: inf
ROOT
ATOM      1  C   UNL     1     120.399 132.131 135.896  1.00  0.00     0.050 C 
ATOM      2  C   UNL     1     119.374 133.248 136.157  1.00  0.00     0.014 C 
ENDROOT
BRANCH   1   3
ATOM      3  C   UNL     1     120.499 131.117 137.081  1.00  0.00     0.230 C 
BRANCH   3   4
ATOM      4  N   UNL     1     119.474 131.372 138.104  1.00  0.00    -0.350 N 
ATOM      5  H   UNL     1     119.197 130.476 138.566  1.00  0.00     0.345 HD
ATOM      6  H   UNL     1     119.861 132.009 138.838  1.00  0.00     0.345 HD
ATOM      7  H   UNL     1     118.626 131.819 137.686  1.00  0.00     0.345 HD
ENDBRANCH   3   4
BRANCH   3   8
ATOM      8  C   UNL     1     121.877 131.009 137.695  1.00  0.00     0.099 C 
ATOM      9  O   UNL     1     122.314 129.908 138.125  1.00  0.00    -0.544 OA
ATOM     10  O   UNL     1     122.699 132.127 137.752  1.00  0.00    -0.544 OA
ENDBRANCH   3   8
ENDBRANCH   1   3
BRANCH   1  11
ATOM     11  C   UNL     1     120.240 131.518 134.478  1.00  0.00     0.006 C 
ATOM     12  C   UNL     1     120.876 130.143 134.275  1.00  0.00     0.004 C 
ENDBRANCH   1  11
TORSDOF 4
ENDMDL
