MODEL 1
REMARK VINA RESULT:    -3.155      0.000      0.000
REMARK INTER + INTRA:         -11.306
REMARK INTER:                  -6.844
REMARK INTRA:                  -4.462
REMARK UNBOUND:                -4.462
REMARK SMILES CCCCCCCCCCCCCCCCCCCCCC(=O)[O-]
REMARK SMILES IDX 12 1 11 2 10 3 9 4 8 5 7 6 6 7 5 8 4 9 3 10 2 11 1 12 13 13
REMARK SMILES IDX 14 14 15 15 16 16 17 17 18 18 19 19 20 20 21 21 22 22 23 23
REMARK SMILES IDX 24 24
REMARK H PARENT
REMARK Flexibility Score: inf
ROOT
ATOM      1  C   UNL     1      -1.308  -1.781  36.843  1.00  0.00     0.000 C 
ENDROOT
BRANCH   1   2
ATOM      2  C   UNL     1      -1.513  -2.613  35.563  1.00  0.00     0.000 C 
BRANCH   2   3
ATOM      3  C   UNL     1      -2.450  -1.982  34.516  1.00  0.00     0.000 C 
BRANCH   3   4
ATOM      4  C   UNL     1      -3.609  -2.905  34.112  1.00  0.00    -0.000 C 
BRANCH   4   5
ATOM      5  C   UNL     1      -4.082  -3.740  35.312  1.00  0.00    -0.000 C 
BRANCH   5   6
ATOM      6  C   UNL     1      -5.284  -3.112  36.037  1.00  0.00    -0.000 C 
BRANCH   6   7
ATOM      7  C   UNL     1      -4.917  -2.580  37.435  1.00  0.00    -0.000 C 
BRANCH   7   8
ATOM      8  C   UNL     1      -5.685  -1.298  37.796  1.00  0.00    -0.000 C 
BRANCH   8   9
ATOM      9  C   UNL     1      -6.478  -0.731  36.608  1.00  0.00    -0.000 C 
BRANCH   9  10
ATOM     10  C   UNL     1      -5.924   0.633  36.179  1.00  0.00    -0.000 C 
BRANCH  10  11
ATOM     11  C   UNL     1      -5.078   0.506  34.906  1.00  0.00    -0.003 C 
ATOM     12  C   UNL     1      -5.918   0.004  33.735  1.00  0.00     0.004 C 
ENDBRANCH  10  11
ENDBRANCH   9  10
ENDBRANCH   8   9
ENDBRANCH   7   8
ENDBRANCH   6   7
ENDBRANCH   5   6
ENDBRANCH   4   5
ENDBRANCH   3   4
ENDBRANCH   2   3
ENDBRANCH   1   2
BRANCH   1  13
ATOM     13  C   UNL     1      -2.053  -0.434  36.874  1.00  0.00     0.000 C 
BRANCH  13  14
ATOM     14  C   UNL     1      -1.230   0.723  37.479  1.00  0.00     0.000 C 
BRANCH  14  15
ATOM     15  C   UNL     1      -0.763   1.736  36.417  1.00  0.00     0.000 C 
BRANCH  15  16
ATOM     16  C   UNL     1      -1.519   1.588  35.086  1.00  0.00     0.000 C 
BRANCH  16  17
ATOM     17  C   UNL     1      -0.585   1.278  33.907  1.00  0.00     0.000 C 
BRANCH  17  18
ATOM     18  C   UNL     1       0.789   0.814  34.405  1.00  0.00     0.000 C 
BRANCH  18  19
ATOM     19  C   UNL     1       1.108  -0.602  33.905  1.00  0.00     0.000 C 
BRANCH  19  20
ATOM     20  C   UNL     1       1.922  -1.418  34.921  1.00  0.00     0.006 C 
BRANCH  20  21
ATOM     21  C   UNL     1       2.135  -0.671  36.244  1.00  0.00     0.053 C 
BRANCH  21  22
ATOM     22  C   UNL     1       3.562  -0.779  36.682  1.00  0.00     0.041 C 
ATOM     23  O   UNL     1       4.315  -1.653  36.179  1.00  0.00    -0.550 OA
ATOM     24  O   UNL     1       4.049   0.059  37.677  1.00  0.00    -0.550 OA
ENDBRANCH  21  22
ENDBRANCH  20  21
ENDBRANCH  19  20
ENDBRANCH  18  19
ENDBRANCH  17  18
ENDBRANCH  16  17
ENDBRANCH  15  16
ENDBRANCH  14  15
ENDBRANCH  13  14
ENDBRANCH   1  13
TORSDOF 20
ENDMDL
MODEL 2
REMARK VINA RESULT:    -3.055      3.601      7.388
REMARK INTER + INTRA:         -11.090
REMARK INTER:                  -6.937
REMARK INTRA:                  -4.153
REMARK UNBOUND:                -4.462
REMARK SMILES CCCCCCCCCCCCCCCCCCCCCC(=O)[O-]
REMARK SMILES IDX 12 1 11 2 10 3 9 4 8 5 7 6 6 7 5 8 4 9 3 10 2 11 1 12 13 13
REMARK SMILES IDX 14 14 15 15 16 16 17 17 18 18 19 19 20 20 21 21 22 22 23 23
REMARK SMILES IDX 24 24
REMARK H PARENT
REMARK Flexibility Score: inf
ROOT
ATOM      1  C   UNL     1      -2.623  -1.985  34.631  1.00  0.00     0.000 C 
ENDROOT
BRANCH   1   2
ATOM      2  C   UNL     1      -1.392  -2.469  35.419  1.00  0.00     0.000 C 
BRANCH   2   3
ATOM      3  C   UNL     1      -1.228  -1.852  36.821  1.00  0.00     0.000 C 
BRANCH   3   4
ATOM      4  C   UNL     1      -2.044  -0.565  37.011  1.00  0.00    -0.000 C 
BRANCH   4   5
ATOM      5  C   UNL     1      -1.121   0.663  37.051  1.00  0.00    -0.000 C 
BRANCH   5   6
ATOM      6  C   UNL     1      -1.154   1.474  35.746  1.00  0.00    -0.000 C 
BRANCH   6   7
ATOM      7  C   UNL     1       0.180   1.413  34.979  1.00  0.00    -0.000 C 
BRANCH   7   8
ATOM      8  C   UNL     1       0.102   0.512  33.735  1.00  0.00    -0.000 C 
BRANCH   8   9
ATOM      9  C   UNL     1       1.220  -0.544  33.701  1.00  0.00    -0.000 C 
BRANCH   9  10
ATOM     10  C   UNL     1       1.908  -0.659  35.066  1.00  0.00    -0.000 C 
BRANCH  10  11
ATOM     11  C   UNL     1       2.246  -2.118  35.389  1.00  0.00    -0.003 C 
ATOM     12  C   UNL     1       2.828  -2.832  34.172  1.00  0.00     0.004 C 
ENDBRANCH  10  11
ENDBRANCH   9  10
ENDBRANCH   8   9
ENDBRANCH   7   8
ENDBRANCH   6   7
ENDBRANCH   5   6
ENDBRANCH   4   5
ENDBRANCH   3   4
ENDBRANCH   2   3
ENDBRANCH   1   2
BRANCH   1  13
ATOM     13  C   UNL     1      -3.572  -3.099  34.152  1.00  0.00     0.000 C 
BRANCH  13  14
ATOM     14  C   UNL     1      -4.297  -3.840  35.296  1.00  0.00     0.000 C 
BRANCH  14  15
ATOM     15  C   UNL     1      -5.412  -2.993  35.936  1.00  0.00     0.000 C 
BRANCH  15  16
ATOM     16  C   UNL     1      -5.101  -2.605  37.390  1.00  0.00     0.000 C 
BRANCH  16  17
ATOM     17  C   UNL     1      -5.600  -1.198  37.747  1.00  0.00     0.000 C 
BRANCH  17  18
ATOM     18  C   UNL     1      -6.328  -0.558  36.559  1.00  0.00     0.000 C 
BRANCH  18  19
ATOM     19  C   UNL     1      -5.692   0.787  36.182  1.00  0.00     0.000 C 
BRANCH  19  20
ATOM     20  C   UNL     1      -5.009   0.753  34.806  1.00  0.00     0.006 C 
BRANCH  20  21
ATOM     21  C   UNL     1      -5.775  -0.099  33.787  1.00  0.00     0.053 C 
BRANCH  21  22
ATOM     22  C   UNL     1      -6.653   0.765  32.936  1.00  0.00     0.041 C 
ATOM     23  O   UNL     1      -6.234   1.201  31.833  1.00  0.00    -0.550 OA
ATOM     24  O   UNL     1      -7.919   1.122  33.382  1.00  0.00    -0.550 OA
ENDBRANCH  21  22
ENDBRANCH  20  21
ENDBRANCH  19  20
ENDBRANCH  18  19
ENDBRANCH  17  18
ENDBRANCH  16  17
ENDBRANCH  15  16
ENDBRANCH  14  15
ENDBRANCH  13  14
ENDBRANCH   1  13
TORSDOF 20
ENDMDL
MODEL 3
REMARK VINA RESULT:    -3.024      3.758      6.343
REMARK INTER + INTRA:         -11.021
REMARK INTER:                  -7.165
REMARK INTRA:                  -3.856
REMARK UNBOUND:                -4.462
REMARK SMILES CCCCCCCCCCCCCCCCCCCCCC(=O)[O-]
REMARK SMILES IDX 12 1 11 2 10 3 9 4 8 5 7 6 6 7 5 8 4 9 3 10 2 11 1 12 13 13
REMARK SMILES IDX 14 14 15 15 16 16 17 17 18 18 19 19 20 20 21 21 22 22 23 23
REMARK SMILES IDX 24 24
REMARK H PARENT
REMARK Flexibility Score: inf
ROOT
ATOM      1  C   UNL     1      -5.568  -2.841  36.758  1.00  0.00     0.000 C 
ENDROOT
BRANCH   1   2
ATOM      2  C   UNL     1      -5.202  -2.926  35.264  1.00  0.00     0.000 C 
BRANCH   2   3
ATOM      3  C   UNL     1      -3.904  -3.695  34.952  1.00  0.00     0.000 C 
BRANCH   3   4
ATOM      4  C   UNL     1      -2.887  -3.651  36.101  1.00  0.00    -0.000 C 
BRANCH   4   5
ATOM      5  C   UNL     1      -1.906  -2.483  35.914  1.00  0.00    -0.000 C 
BRANCH   5   6
ATOM      6  C   UNL     1      -0.498  -2.799  36.444  1.00  0.00    -0.000 C 
BRANCH   6   7
ATOM      7  C   UNL     1       0.492  -1.641  36.219  1.00  0.00    -0.000 C 
BRANCH   7   8
ATOM      8  C   UNL     1      -0.195  -0.266  36.251  1.00  0.00    -0.000 C 
BRANCH   8   9
ATOM      9  C   UNL     1       0.209   0.623  35.064  1.00  0.00    -0.000 C 
BRANCH   9  10
ATOM     10  C   UNL     1       0.408  -0.214  33.795  1.00  0.00    -0.000 C 
BRANCH  10  11
ATOM     11  C   UNL     1      -0.882  -0.271  32.968  1.00  0.00    -0.003 C 
ATOM     12  C   UNL     1      -0.948   0.879  31.968  1.00  0.00     0.004 C 
ENDBRANCH  10  11
ENDBRANCH   9  10
ENDBRANCH   8   9
ENDBRANCH   7   8
ENDBRANCH   6   7
ENDBRANCH   5   6
ENDBRANCH   4   5
ENDBRANCH   3   4
ENDBRANCH   2   3
ENDBRANCH   1   2
BRANCH   1  13
ATOM     13  C   UNL     1      -6.427  -1.626  37.152  1.00  0.00     0.000 C 
BRANCH  13  14
ATOM     14  C   UNL     1      -5.851  -0.806  38.327  1.00  0.00     0.000 C 
BRANCH  14  15
ATOM     15  C   UNL     1      -4.330  -0.983  38.482  1.00  0.00     0.000 C 
BRANCH  15  16
ATOM     16  C   UNL     1      -3.533   0.172  37.853  1.00  0.00     0.000 C 
BRANCH  16  17
ATOM     17  C   UNL     1      -4.407   1.398  37.549  1.00  0.00     0.000 C 
BRANCH  17  18
ATOM     18  C   UNL     1      -4.381   1.730  36.052  1.00  0.00     0.000 C 
BRANCH  18  19
ATOM     19  C   UNL     1      -3.583   0.679  35.268  1.00  0.00     0.000 C 
BRANCH  19  20
ATOM     20  C   UNL     1      -4.344   0.152  34.041  1.00  0.00     0.006 C 
BRANCH  20  21
ATOM     21  C   UNL     1      -4.851   1.279  33.131  1.00  0.00     0.053 C 
BRANCH  21  22
ATOM     22  C   UNL     1      -6.249   0.996  32.678  1.00  0.00     0.041 C 
ATOM     23  O   UNL     1      -6.731   1.609  31.690  1.00  0.00    -0.550 OA
ATOM     24  O   UNL     1      -7.034   0.085  33.372  1.00  0.00    -0.550 OA
ENDBRANCH  21  22
ENDBRANCH  20  21
ENDBRANCH  19  20
ENDBRANCH  18  19
ENDBRANCH  17  18
ENDBRANCH  16  17
ENDBRANCH  15  16
ENDBRANCH  14  15
ENDBRANCH  13  14
ENDBRANCH   1  13
TORSDOF 20
ENDMDL
MODEL 4
REMARK VINA RESULT:    -3.005      3.784      6.716
REMARK INTER + INTRA:         -10.980
REMARK INTER:                  -6.538
REMARK INTRA:                  -4.442
REMARK UNBOUND:                -4.462
REMARK SMILES CCCCCCCCCCCCCCCCCCCCCC(=O)[O-]
REMARK SMILES IDX 12 1 11 2 10 3 9 4 8 5 7 6 6 7 5 8 4 9 3 10 2 11 1 12 13 13
REMARK SMILES IDX 14 14 15 15 16 16 17 17 18 18 19 19 20 20 21 21 22 22 23 23
REMARK SMILES IDX 24 24
REMARK H PARENT
REMARK Flexibility Score: inf
ROOT
ATOM      1  C   UNL     1      -4.114  -2.194  34.998  1.00  0.00     0.000 C 
ENDROOT
BRANCH   1   2
ATOM      2  C   UNL     1      -2.659  -2.666  34.821  1.00  0.00     0.000 C 
BRANCH   2   3
ATOM      3  C   UNL     1      -2.007  -3.265  36.082  1.00  0.00     0.000 C 
BRANCH   3   4
ATOM      4  C   UNL     1      -0.695  -2.567  36.470  1.00  0.00    -0.000 C 
BRANCH   4   5
ATOM      5  C   UNL     1      -0.464  -1.321  35.602  1.00  0.00    -0.000 C 
BRANCH   5   6
ATOM      6  C   UNL     1      -0.376  -0.028  36.429  1.00  0.00    -0.000 C 
BRANCH   6   7
ATOM      7  C   UNL     1      -1.584   0.159  37.365  1.00  0.00    -0.000 C 
BRANCH   7   8
ATOM      8  C   UNL     1      -2.822   0.696  36.628  1.00  0.00    -0.000 C 
BRANCH   8   9
ATOM      9  C   UNL     1      -2.555   2.040  35.930  1.00  0.00    -0.000 C 
BRANCH   9  10
ATOM     10  C   UNL     1      -3.254   2.098  34.567  1.00  0.00    -0.000 C 
BRANCH  10  11
ATOM     11  C   UNL     1      -2.854   0.903  33.693  1.00  0.00    -0.003 C 
ATOM     12  C   UNL     1      -1.531   1.162  32.977  1.00  0.00     0.004 C 
ENDBRANCH  10  11
ENDBRANCH   9  10
ENDBRANCH   8   9
ENDBRANCH   7   8
ENDBRANCH   6   7
ENDBRANCH   5   6
ENDBRANCH   4   5
ENDBRANCH   3   4
ENDBRANCH   2   3
ENDBRANCH   1   2
BRANCH   1  13
ATOM     13  C   UNL     1      -5.045  -3.197  35.705  1.00  0.00     0.000 C 
BRANCH  13  14
ATOM     14  C   UNL     1      -5.884  -2.578  36.843  1.00  0.00     0.000 C 
BRANCH  14  15
ATOM     15  C   UNL     1      -5.013  -1.983  37.964  1.00  0.00     0.000 C 
BRANCH  15  16
ATOM     16  C   UNL     1      -5.637  -0.728  38.595  1.00  0.00     0.000 C 
BRANCH  16  17
ATOM     17  C   UNL     1      -6.697  -0.077  37.694  1.00  0.00     0.000 C 
BRANCH  17  18
ATOM     18  C   UNL     1      -6.300   1.359  37.332  1.00  0.00     0.000 C 
BRANCH  18  19
ATOM     19  C   UNL     1      -6.686   1.689  35.883  1.00  0.00     0.000 C 
BRANCH  19  20
ATOM     20  C   UNL     1      -7.276   0.482  35.139  1.00  0.00     0.006 C 
BRANCH  20  21
ATOM     21  C   UNL     1      -6.460   0.096  33.898  1.00  0.00     0.053 C 
BRANCH  21  22
ATOM     22  C   UNL     1      -6.797   0.995  32.750  1.00  0.00     0.041 C 
ATOM     23  O   UNL     1      -5.919   1.292  31.899  1.00  0.00    -0.550 OA
ATOM     24  O   UNL     1      -8.072   1.538  32.643  1.00  0.00    -0.550 OA
ENDBRANCH  21  22
ENDBRANCH  20  21
ENDBRANCH  19  20
ENDBRANCH  18  19
ENDBRANCH  17  18
ENDBRANCH  16  17
ENDBRANCH  15  16
ENDBRANCH  14  15
ENDBRANCH  13  14
ENDBRANCH   1  13
TORSDOF 20
ENDMDL
MODEL 5
REMARK VINA RESULT:    -2.987      1.910      3.563
REMARK INTER + INTRA:         -10.941
REMARK INTER:                  -7.108
REMARK INTRA:                  -3.833
REMARK UNBOUND:                -4.462
REMARK SMILES CCCCCCCCCCCCCCCCCCCCCC(=O)[O-]
REMARK SMILES IDX 12 1 11 2 10 3 9 4 8 5 7 6 6 7 5 8 4 9 3 10 2 11 1 12 13 13
REMARK SMILES IDX 14 14 15 15 16 16 17 17 18 18 19 19 20 20 21 21 22 22 23 23
REMARK SMILES IDX 24 24
REMARK H PARENT
REMARK Flexibility Score: inf
ROOT
ATOM      1  C   UNL     1      -5.007  -2.466  34.249  1.00  0.00     0.000 C 
ENDROOT
BRANCH   1   2
ATOM      2  C   UNL     1      -5.055  -3.321  35.529  1.00  0.00     0.000 C 
BRANCH   2   3
ATOM      3  C   UNL     1      -5.810  -2.686  36.712  1.00  0.00     0.000 C 
BRANCH   3   4
ATOM      4  C   UNL     1      -4.876  -2.178  37.820  1.00  0.00    -0.000 C 
BRANCH   4   5
ATOM      5  C   UNL     1      -5.459  -0.925  38.490  1.00  0.00    -0.000 C 
BRANCH   5   6
ATOM      6  C   UNL     1      -6.855  -0.561  37.959  1.00  0.00    -0.000 C 
BRANCH   6   7
ATOM      7  C   UNL     1      -7.278   0.870  38.341  1.00  0.00    -0.000 C 
BRANCH   7   8
ATOM      8  C   UNL     1      -7.547   1.752  37.111  1.00  0.00    -0.000 C 
BRANCH   8   9
ATOM      9  C   UNL     1      -8.164   0.964  35.944  1.00  0.00    -0.000 C 
BRANCH   9  10
ATOM     10  C   UNL     1      -8.111   1.776  34.645  1.00  0.00    -0.000 C 
BRANCH  10  11
ATOM     11  C   UNL     1      -8.881   1.069  33.523  1.00  0.00    -0.003 C 
ATOM     12  C   UNL     1     -10.188   0.476  34.042  1.00  0.00     0.004 C 
ENDBRANCH  10  11
ENDBRANCH   9  10
ENDBRANCH   8   9
ENDBRANCH   7   8
ENDBRANCH   6   7
ENDBRANCH   5   6
ENDBRANCH   4   5
ENDBRANCH   3   4
ENDBRANCH   2   3
ENDBRANCH   1   2
BRANCH   1  13
ATOM     13  C   UNL     1      -5.725  -1.107  34.344  1.00  0.00     0.000 C 
BRANCH  13  14
ATOM     14  C   UNL     1      -4.797   0.108  34.130  1.00  0.00     0.000 C 
BRANCH  14  15
ATOM     15  C   UNL     1      -4.291   0.707  35.455  1.00  0.00     0.000 C 
BRANCH  15  16
ATOM     16  C   UNL     1      -2.869   0.242  35.810  1.00  0.00     0.000 C 
BRANCH  16  17
ATOM     17  C   UNL     1      -2.062  -0.191  34.577  1.00  0.00     0.000 C 
BRANCH  17  18
ATOM     18  C   UNL     1      -1.676  -1.672  34.668  1.00  0.00     0.000 C 
BRANCH  18  19
ATOM     19  C   UNL     1      -1.540  -2.117  36.131  1.00  0.00     0.000 C 
BRANCH  19  20
ATOM     20  C   UNL     1      -0.141  -2.666  36.454  1.00  0.00     0.006 C 
BRANCH  20  21
ATOM     21  C   UNL     1       0.929  -2.167  35.475  1.00  0.00     0.053 C 
BRANCH  21  22
ATOM     22  C   UNL     1       1.685  -1.019  36.067  1.00  0.00     0.041 C 
ATOM     23  O   UNL     1       2.892  -1.157  36.396  1.00  0.00    -0.550 OA
ATOM     24  O   UNL     1       1.045   0.193  36.292  1.00  0.00    -0.550 OA
ENDBRANCH  21  22
ENDBRANCH  20  21
ENDBRANCH  19  20
ENDBRANCH  18  19
ENDBRANCH  17  18
ENDBRANCH  16  17
ENDBRANCH  15  16
ENDBRANCH  14  15
ENDBRANCH  13  14
ENDBRANCH   1  13
TORSDOF 20
ENDMDL
MODEL 6
REMARK VINA RESULT:    -2.982      3.705      7.117
REMARK INTER + INTRA:         -10.930
REMARK INTER:                  -6.642
REMARK INTRA:                  -4.289
REMARK UNBOUND:                -4.462
REMARK SMILES CCCCCCCCCCCCCCCCCCCCCC(=O)[O-]
REMARK SMILES IDX 12 1 11 2 10 3 9 4 8 5 7 6 6 7 5 8 4 9 3 10 2 11 1 12 13 13
REMARK SMILES IDX 14 14 15 15 16 16 17 17 18 18 19 19 20 20 21 21 22 22 23 23
REMARK SMILES IDX 24 24
REMARK H PARENT
REMARK Flexibility Score: inf
ROOT
ATOM      1  C   UNL     1      -2.421  -1.901  34.420  1.00  0.00     0.000 C 
ENDROOT
BRANCH   1   2
ATOM      2  C   UNL     1      -1.484  -2.394  35.538  1.00  0.00     0.000 C 
BRANCH   2   3
ATOM      3  C   UNL     1      -1.525  -1.568  36.838  1.00  0.00     0.000 C 
BRANCH   3   4
ATOM      4  C   UNL     1      -0.850  -0.196  36.700  1.00  0.00    -0.000 C 
BRANCH   4   5
ATOM      5  C   UNL     1       0.512  -0.327  36.002  1.00  0.00    -0.000 C 
BRANCH   5   6
ATOM      6  C   UNL     1       1.065   1.024  35.518  1.00  0.00    -0.000 C 
BRANCH   6   7
ATOM      7  C   UNL     1       1.228   1.082  33.988  1.00  0.00    -0.000 C 
BRANCH   7   8
ATOM      8  C   UNL     1       0.735  -0.199  33.295  1.00  0.00    -0.000 C 
BRANCH   8   9
ATOM      9  C   UNL     1      -0.240   0.092  32.143  1.00  0.00    -0.000 C 
BRANCH   9  10
ATOM     10  C   UNL     1      -0.939   1.441  32.343  1.00  0.00    -0.000 C 
BRANCH  10  11
ATOM     11  C   UNL     1      -2.378   1.247  32.834  1.00  0.00    -0.003 C 
ATOM     12  C   UNL     1      -2.594   1.918  34.187  1.00  0.00     0.004 C 
ENDBRANCH  10  11
ENDBRANCH   9  10
ENDBRANCH   8   9
ENDBRANCH   7   8
ENDBRANCH   6   7
ENDBRANCH   5   6
ENDBRANCH   4   5
ENDBRANCH   3   4
ENDBRANCH   2   3
ENDBRANCH   1   2
BRANCH   1  13
ATOM     13  C   UNL     1      -3.610  -2.828  34.106  1.00  0.00     0.000 C 
BRANCH  13  14
ATOM     14  C   UNL     1      -4.071  -3.683  35.305  1.00  0.00     0.000 C 
BRANCH  14  15
ATOM     15  C   UNL     1      -5.356  -3.143  35.959  1.00  0.00     0.000 C 
BRANCH  15  16
ATOM     16  C   UNL     1      -5.093  -2.480  37.321  1.00  0.00     0.000 C 
BRANCH  16  17
ATOM     17  C   UNL     1      -5.664  -1.057  37.406  1.00  0.00     0.000 C 
BRANCH  17  18
ATOM     18  C   UNL     1      -4.905  -0.106  36.473  1.00  0.00     0.000 C 
BRANCH  18  19
ATOM     19  C   UNL     1      -5.872   0.829  35.733  1.00  0.00     0.000 C 
BRANCH  19  20
ATOM     20  C   UNL     1      -6.662   0.109  34.628  1.00  0.00     0.006 C 
BRANCH  20  21
ATOM     21  C   UNL     1      -5.931   0.116  33.279  1.00  0.00     0.053 C 
BRANCH  21  22
ATOM     22  C   UNL     1      -6.434   1.231  32.417  1.00  0.00     0.041 C 
ATOM     23  O   UNL     1      -5.631   1.912  31.728  1.00  0.00    -0.550 OA
ATOM     24  O   UNL     1      -7.787   1.544  32.406  1.00  0.00    -0.550 OA
ENDBRANCH  21  22
ENDBRANCH  20  21
ENDBRANCH  19  20
ENDBRANCH  18  19
ENDBRANCH  17  18
ENDBRANCH  16  17
ENDBRANCH  15  16
ENDBRANCH  14  15
ENDBRANCH  13  14
ENDBRANCH   1  13
TORSDOF 20
ENDMDL
MODEL 7
REMARK VINA RESULT:    -2.977      5.174      8.361
REMARK INTER + INTRA:         -10.920
REMARK INTER:                  -6.741
REMARK INTRA:                  -4.179
REMARK UNBOUND:                -4.462
REMARK SMILES CCCCCCCCCCCCCCCCCCCCCC(=O)[O-]
REMARK SMILES IDX 12 1 11 2 10 3 9 4 8 5 7 6 6 7 5 8 4 9 3 10 2 11 1 12 13 13
REMARK SMILES IDX 14 14 15 15 16 16 17 17 18 18 19 19 20 20 21 21 22 22 23 23
REMARK SMILES IDX 24 24
REMARK H PARENT
REMARK Flexibility Score: inf
ROOT
ATOM      1  C   UNL     1      -5.735  -2.672  36.697  1.00  0.00     0.000 C 
ENDROOT
BRANCH   1   2
ATOM      2  C   UNL     1      -4.818  -3.262  35.609  1.00  0.00     0.000 C 
BRANCH   2   3
ATOM      3  C   UNL     1      -4.791  -2.480  34.282  1.00  0.00     0.000 C 
BRANCH   3   4
ATOM      4  C   UNL     1      -5.713  -1.253  34.287  1.00  0.00    -0.000 C 
BRANCH   4   5
ATOM      5  C   UNL     1      -4.899   0.040  34.124  1.00  0.00    -0.000 C 
BRANCH   5   6
ATOM      6  C   UNL     1      -5.426   1.188  35.001  1.00  0.00    -0.000 C 
BRANCH   6   7
ATOM      7  C   UNL     1      -4.376   1.689  36.010  1.00  0.00    -0.000 C 
BRANCH   7   8
ATOM      8  C   UNL     1      -3.038   0.941  35.888  1.00  0.00    -0.000 C 
BRANCH   8   9
ATOM      9  C   UNL     1      -2.378   0.688  37.253  1.00  0.00    -0.000 C 
BRANCH   9  10
ATOM     10  C   UNL     1      -1.830  -0.741  37.340  1.00  0.00    -0.000 C 
BRANCH  10  11
ATOM     11  C   UNL     1      -1.663  -1.351  35.944  1.00  0.00    -0.003 C 
ATOM     12  C   UNL     1      -1.176  -2.795  36.028  1.00  0.00     0.004 C 
ENDBRANCH  10  11
ENDBRANCH   9  10
ENDBRANCH   8   9
ENDBRANCH   7   8
ENDBRANCH   6   7
ENDBRANCH   5   6
ENDBRANCH   4   5
ENDBRANCH   3   4
ENDBRANCH   2   3
ENDBRANCH   1   2
BRANCH   1  13
ATOM     13  C   UNL     1      -5.006  -2.101  37.927  1.00  0.00     0.000 C 
BRANCH  13  14
ATOM     14  C   UNL     1      -5.619  -0.791  38.467  1.00  0.00     0.000 C 
BRANCH  14  15
ATOM     15  C   UNL     1      -6.994  -0.483  37.848  1.00  0.00     0.000 C 
BRANCH  15  16
ATOM     16  C   UNL     1      -7.461   0.955  38.129  1.00  0.00     0.000 C 
BRANCH  16  17
ATOM     17  C   UNL     1      -8.488   1.456  37.103  1.00  0.00     0.000 C 
BRANCH  17  18
ATOM     18  C   UNL     1      -9.309   0.291  36.537  1.00  0.00     0.000 C 
BRANCH  18  19
ATOM     19  C   UNL     1      -9.984   0.682  35.215  1.00  0.00     0.000 C 
BRANCH  19  20
ATOM     20  C   UNL     1      -8.999   0.719  34.037  1.00  0.00     0.006 C 
BRANCH  20  21
ATOM     21  C   UNL     1      -9.243   1.909  33.100  1.00  0.00     0.053 C 
BRANCH  21  22
ATOM     22  C   UNL     1     -10.622   1.845  32.521  1.00  0.00     0.041 C 
ATOM     23  O   UNL     1     -11.449   2.765  32.749  1.00  0.00    -0.550 OA
ATOM     24  O   UNL     1     -11.006   0.747  31.762  1.00  0.00    -0.550 OA
ENDBRANCH  21  22
ENDBRANCH  20  21
ENDBRANCH  19  20
ENDBRANCH  18  19
ENDBRANCH  17  18
ENDBRANCH  16  17
ENDBRANCH  15  16
ENDBRANCH  14  15
ENDBRANCH  13  14
ENDBRANCH   1  13
TORSDOF 20
ENDMDL
MODEL 8
REMARK VINA RESULT:    -2.961      2.572      4.713
REMARK INTER + INTRA:         -10.885
REMARK INTER:                  -6.571
REMARK INTRA:                  -4.314
REMARK UNBOUND:                -4.462
REMARK SMILES CCCCCCCCCCCCCCCCCCCCCC(=O)[O-]
REMARK SMILES IDX 12 1 11 2 10 3 9 4 8 5 7 6 6 7 5 8 4 9 3 10 2 11 1 12 13 13
REMARK SMILES IDX 14 14 15 15 16 16 17 17 18 18 19 19 20 20 21 21 22 22 23 23
REMARK SMILES IDX 24 24
REMARK H PARENT
REMARK Flexibility Score: inf
ROOT
ATOM      1  C   UNL     1      -5.066  -3.166  35.418  1.00  0.00     0.000 C 
ENDROOT
BRANCH   1   2
ATOM      2  C   UNL     1      -5.752  -2.645  36.695  1.00  0.00     0.000 C 
BRANCH   2   3
ATOM      3  C   UNL     1      -4.800  -2.066  37.759  1.00  0.00     0.000 C 
BRANCH   3   4
ATOM      4  C   UNL     1      -5.423  -0.915  38.561  1.00  0.00    -0.000 C 
BRANCH   4   5
ATOM      5  C   UNL     1      -6.820  -0.570  38.023  1.00  0.00    -0.000 C 
BRANCH   5   6
ATOM      6  C   UNL     1      -7.277   0.844  38.417  1.00  0.00    -0.000 C 
BRANCH   6   7
ATOM      7  C   UNL     1      -8.659   1.201  37.839  1.00  0.00    -0.000 C 
BRANCH   7   8
ATOM      8  C   UNL     1      -8.565   1.841  36.444  1.00  0.00    -0.000 C 
BRANCH   8   9
ATOM      9  C   UNL     1      -8.990   0.879  35.323  1.00  0.00    -0.000 C 
BRANCH   9  10
ATOM     10  C   UNL     1      -9.265   1.640  34.021  1.00  0.00    -0.000 C 
BRANCH  10  11
ATOM     11  C   UNL     1      -8.339   2.855  33.890  1.00  0.00    -0.003 C 
ATOM     12  C   UNL     1      -7.879   3.044  32.447  1.00  0.00     0.004 C 
ENDBRANCH  10  11
ENDBRANCH   9  10
ENDBRANCH   8   9
ENDBRANCH   7   8
ENDBRANCH   6   7
ENDBRANCH   5   6
ENDBRANCH   4   5
ENDBRANCH   3   4
ENDBRANCH   2   3
ENDBRANCH   1   2
BRANCH   1  13
ATOM     13  C   UNL     1      -5.009  -2.163  34.251  1.00  0.00     0.000 C 
BRANCH  13  14
ATOM     14  C   UNL     1      -5.976  -0.969  34.403  1.00  0.00     0.000 C 
BRANCH  14  15
ATOM     15  C   UNL     1      -5.710   0.143  33.372  1.00  0.00     0.000 C 
BRANCH  15  16
ATOM     16  C   UNL     1      -4.891   1.306  33.955  1.00  0.00     0.000 C 
BRANCH  16  17
ATOM     17  C   UNL     1      -5.095   1.474  35.468  1.00  0.00     0.000 C 
BRANCH  17  18
ATOM     18  C   UNL     1      -3.756   1.402  36.211  1.00  0.00     0.000 C 
BRANCH  18  19
ATOM     19  C   UNL     1      -2.688   0.706  35.357  1.00  0.00     0.000 C 
BRANCH  19  20
ATOM     20  C   UNL     1      -1.988  -0.441  36.104  1.00  0.00     0.006 C 
BRANCH  20  21
ATOM     21  C   UNL     1      -1.478  -1.537  35.160  1.00  0.00     0.053 C 
BRANCH  21  22
ATOM     22  C   UNL     1      -0.996  -2.718  35.942  1.00  0.00     0.041 C 
ATOM     23  O   UNL     1       0.230  -2.853  36.195  1.00  0.00    -0.550 OA
ATOM     24  O   UNL     1      -1.896  -3.692  36.357  1.00  0.00    -0.550 OA
ENDBRANCH  21  22
ENDBRANCH  20  21
ENDBRANCH  19  20
ENDBRANCH  18  19
ENDBRANCH  17  18
ENDBRANCH  16  17
ENDBRANCH  15  16
ENDBRANCH  14  15
ENDBRANCH  13  14
ENDBRANCH   1  13
TORSDOF 20
ENDMDL
MODEL 9
REMARK VINA RESULT:    -2.949      1.882      3.988
REMARK INTER + INTRA:         -10.859
REMARK INTER:                  -7.181
REMARK INTRA:                  -3.678
REMARK UNBOUND:                -4.462
REMARK SMILES CCCCCCCCCCCCCCCCCCCCCC(=O)[O-]
REMARK SMILES IDX 12 1 11 2 10 3 9 4 8 5 7 6 6 7 5 8 4 9 3 10 2 11 1 12 13 13
REMARK SMILES IDX 14 14 15 15 16 16 17 17 18 18 19 19 20 20 21 21 22 22 23 23
REMARK SMILES IDX 24 24
REMARK H PARENT
REMARK Flexibility Score: inf
ROOT
ATOM      1  C   UNL     1      -4.794  -3.345  35.661  1.00  0.00     0.000 C 
ENDROOT
BRANCH   1   2
ATOM      2  C   UNL     1      -5.739  -2.774  36.734  1.00  0.00     0.000 C 
BRANCH   2   3
ATOM      3  C   UNL     1      -5.040  -2.057  37.906  1.00  0.00     0.000 C 
BRANCH   3   4
ATOM      4  C   UNL     1      -5.742  -0.755  38.318  1.00  0.00    -0.000 C 
BRANCH   4   5
ATOM      5  C   UNL     1      -7.098  -0.619  37.609  1.00  0.00    -0.000 C 
BRANCH   5   6
ATOM      6  C   UNL     1      -7.260   0.730  36.889  1.00  0.00    -0.000 C 
BRANCH   6   7
ATOM      7  C   UNL     1      -8.136   0.625  35.627  1.00  0.00    -0.000 C 
BRANCH   7   8
ATOM      8  C   UNL     1      -8.124   1.916  34.792  1.00  0.00    -0.000 C 
BRANCH   8   9
ATOM      9  C   UNL     1      -8.399   1.657  33.302  1.00  0.00    -0.000 C 
BRANCH   9  10
ATOM     10  C   UNL     1      -7.090   1.547  32.513  1.00  0.00    -0.000 C 
BRANCH  10  11
ATOM     11  C   UNL     1      -6.184   2.754  32.782  1.00  0.00    -0.003 C 
ATOM     12  C   UNL     1      -4.850   2.615  32.052  1.00  0.00     0.004 C 
ENDBRANCH  10  11
ENDBRANCH   9  10
ENDBRANCH   8   9
ENDBRANCH   7   8
ENDBRANCH   6   7
ENDBRANCH   5   6
ENDBRANCH   4   5
ENDBRANCH   3   4
ENDBRANCH   2   3
ENDBRANCH   1   2
BRANCH   1  13
ATOM     13  C   UNL     1      -4.998  -2.780  34.243  1.00  0.00     0.000 C 
BRANCH  13  14
ATOM     14  C   UNL     1      -5.468  -1.310  34.216  1.00  0.00     0.000 C 
BRANCH  14  15
ATOM     15  C   UNL     1      -4.303  -0.319  34.038  1.00  0.00     0.000 C 
BRANCH  15  16
ATOM     16  C   UNL     1      -3.921   0.386  35.350  1.00  0.00     0.000 C 
BRANCH  16  17
ATOM     17  C   UNL     1      -2.558  -0.071  35.892  1.00  0.00     0.000 C 
BRANCH  17  18
ATOM     18  C   UNL     1      -1.787  -0.866  34.832  1.00  0.00     0.000 C 
BRANCH  18  19
ATOM     19  C   UNL     1      -1.530  -2.305  35.301  1.00  0.00     0.000 C 
BRANCH  19  20
ATOM     20  C   UNL     1      -0.562  -2.374  36.492  1.00  0.00     0.006 C 
BRANCH  20  21
ATOM     21  C   UNL     1       0.817  -2.924  36.102  1.00  0.00     0.053 C 
BRANCH  21  22
ATOM     22  C   UNL     1       1.686  -1.827  35.571  1.00  0.00     0.041 C 
ATOM     23  O   UNL     1       2.362  -2.005  34.524  1.00  0.00    -0.550 OA
ATOM     24  O   UNL     1       1.781  -0.622  36.255  1.00  0.00    -0.550 OA
ENDBRANCH  21  22
ENDBRANCH  20  21
ENDBRANCH  19  20
ENDBRANCH  18  19
ENDBRANCH  17  18
ENDBRANCH  16  17
ENDBRANCH  15  16
ENDBRANCH  14  15
ENDBRANCH  13  14
ENDBRANCH   1  13
TORSDOF 20
ENDMDL
