MODEL 1
REMARK VINA RESULT:    -0.981      0.000      0.000
REMARK INTER + INTRA:          -0.981
REMARK INTER:                  -1.325
REMARK INTRA:                   0.345
REMARK UNBOUND:                 0.345
REMARK SMILES CCCCCCCC(=O)[O-]
REMARK SMILES IDX 5 1 6 2 7 3 8 4 9 5 10 6 4 7 3 8 2 9 1 10
REMARK H PARENT
REMARK Flexibility Score: inf
ROOT
ATOM      1  C   UNL     1      75.722  62.497  97.004  1.00  0.00     0.000 C 
ENDROOT
BRANCH   1   2
ATOM      2  C   UNL     1      74.791  63.572  96.416  1.00  0.00     0.006 C 
BRANCH   2   3
ATOM      3  C   UNL     1      74.644  64.796  97.328  1.00  0.00     0.053 C 
BRANCH   3   4
ATOM      4  C   UNL     1      74.255  64.376  98.710  1.00  0.00     0.041 C 
ATOM      5  O   UNL     1      73.041  64.350  99.046  1.00  0.00    -0.550 OA
ATOM      6  O   UNL     1      75.227  63.963  99.612  1.00  0.00    -0.550 OA
ENDBRANCH   3   4
ENDBRANCH   2   3
ENDBRANCH   1   2
BRANCH   1   7
ATOM      7  C   UNL     1      75.002  61.283  97.627  1.00  0.00     0.000 C 
BRANCH   7   8
ATOM      8  C   UNL     1      75.529  59.906  97.174  1.00  0.00    -0.000 C 
BRANCH   8   9
ATOM      9  C   UNL     1      77.020  59.877  96.795  1.00  0.00    -0.003 C 
ATOM     10  C   UNL     1      77.256  60.040  95.294  1.00  0.00     0.004 C 
ENDBRANCH   8   9
ENDBRANCH   7   8
ENDBRANCH   1   7
TORSDOF 6
ENDMDL
MODEL 2
REMARK VINA RESULT:    -0.701      2.726      5.005
REMARK INTER + INTRA:          -0.603
REMARK INTER:                  -1.006
REMARK INTRA:                   0.403
REMARK UNBOUND:                 0.345
REMARK SMILES CCCCCCCC(=O)[O-]
REMARK SMILES IDX 5 1 6 2 7 3 8 4 9 5 10 6 4 7 3 8 2 9 1 10
REMARK H PARENT
REMARK Flexibility Score: inf
ROOT
ATOM      1  C   UNL     1      75.499  62.256  97.778  1.00  0.00     0.000 C 
ENDROOT
BRANCH   1   2
ATOM      2  C   UNL     1      74.971  60.823  97.964  1.00  0.00     0.006 C 
BRANCH   2   3
ATOM      3  C   UNL     1      75.382  59.884  96.822  1.00  0.00     0.053 C 
BRANCH   3   4
ATOM      4  C   UNL     1      76.848  60.002  96.551  1.00  0.00     0.041 C 
ATOM      5  O   UNL     1      77.675  59.946  97.500  1.00  0.00    -0.550 OA
ATOM      6  O   UNL     1      77.307  60.123  95.246  1.00  0.00    -0.550 OA
ENDBRANCH   3   4
ENDBRANCH   2   3
ENDBRANCH   1   2
BRANCH   1   7
ATOM      7  C   UNL     1      75.161  62.904  96.420  1.00  0.00     0.000 C 
BRANCH   7   8
ATOM      8  C   UNL     1      74.582  64.331  96.501  1.00  0.00    -0.000 C 
BRANCH   8   9
ATOM      9  C   UNL     1      74.612  64.962  97.904  1.00  0.00    -0.003 C 
ATOM     10  C   UNL     1      73.565  64.371  98.846  1.00  0.00     0.004 C 
ENDBRANCH   8   9
ENDBRANCH   7   8
ENDBRANCH   1   7
TORSDOF 6
ENDMDL
MODEL 3
REMARK VINA RESULT:    -0.663     15.293     16.978
REMARK INTER + INTRA:          -0.552
REMARK INTER:                  -0.432
REMARK INTRA:                  -0.120
REMARK UNBOUND:                 0.345
REMARK SMILES CCCCCCCC(=O)[O-]
REMARK SMILES IDX 5 1 6 2 7 3 8 4 9 5 10 6 4 7 3 8 2 9 1 10
REMARK H PARENT
REMARK Flexibility Score: inf
ROOT
ATOM      1  C   UNL     1      67.954  76.793  94.474  1.00  0.00     0.000 C 
ENDROOT
BRANCH   1   2
ATOM      2  C   UNL     1      67.879  77.182  92.987  1.00  0.00     0.006 C 
BRANCH   2   3
ATOM      3  C   UNL     1      69.046  76.620  92.165  1.00  0.00     0.053 C 
BRANCH   3   4
ATOM      4  C   UNL     1      68.832  75.168  91.879  1.00  0.00     0.041 C 
ATOM      5  O   UNL     1      69.450  74.294  92.543  1.00  0.00    -0.550 OA
ATOM      6  O   UNL     1      67.914  74.776  90.913  1.00  0.00    -0.550 OA
ENDBRANCH   3   4
ENDBRANCH   2   3
ENDBRANCH   1   2
BRANCH   1   7
ATOM      7  C   UNL     1      67.876  77.975  95.461  1.00  0.00     0.000 C 
BRANCH   7   8
ATOM      8  C   UNL     1      67.990  77.594  96.951  1.00  0.00    -0.000 C 
BRANCH   8   9
ATOM      9  C   UNL     1      67.909  78.779  97.929  1.00  0.00    -0.003 C 
ATOM     10  C   UNL     1      68.845  78.627  99.127  1.00  0.00     0.004 C 
ENDBRANCH   8   9
ENDBRANCH   7   8
ENDBRANCH   1   7
TORSDOF 6
ENDMDL
MODEL 4
REMARK VINA RESULT:    -0.567      2.653      4.412
REMARK INTER + INTRA:          -0.421
REMARK INTER:                  -0.460
REMARK INTRA:                   0.039
REMARK UNBOUND:                 0.345
REMARK SMILES CCCCCCCC(=O)[O-]
REMARK SMILES IDX 5 1 6 2 7 3 8 4 9 5 10 6 4 7 3 8 2 9 1 10
REMARK H PARENT
REMARK Flexibility Score: inf
ROOT
ATOM      1  C   UNL     1      74.679  63.272  99.130  1.00  0.00     0.000 C 
ENDROOT
BRANCH   1   2
ATOM      2  C   UNL     1      75.723  62.487  98.317  1.00  0.00     0.006 C 
BRANCH   2   3
ATOM      3  C   UNL     1      75.137  61.246  97.632  1.00  0.00     0.053 C 
BRANCH   3   4
ATOM      4  C   UNL     1      76.193  60.531  96.853  1.00  0.00     0.041 C 
ATOM      5  O   UNL     1      77.087  59.875  97.451  1.00  0.00    -0.550 OA
ATOM      6  O   UNL     1      76.163  60.544  95.464  1.00  0.00    -0.550 OA
ENDBRANCH   3   4
ENDBRANCH   2   3
ENDBRANCH   1   2
BRANCH   1   7
ATOM      7  C   UNL     1      73.953  64.388  98.350  1.00  0.00     0.000 C 
BRANCH   7   8
ATOM      8  C   UNL     1      74.680  64.882  97.083  1.00  0.00    -0.000 C 
BRANCH   8   9
ATOM      9  C   UNL     1      74.487  63.995  95.840  1.00  0.00    -0.003 C 
ATOM     10  C   UNL     1      75.708  63.981  94.922  1.00  0.00     0.004 C 
ENDBRANCH   8   9
ENDBRANCH   7   8
ENDBRANCH   1   7
TORSDOF 6
ENDMDL
MODEL 5
REMARK VINA RESULT:    -0.443      1.562      1.916
REMARK INTER + INTRA:          -0.253
REMARK INTER:                  -0.403
REMARK INTRA:                   0.150
REMARK UNBOUND:                 0.345
REMARK SMILES CCCCCCCC(=O)[O-]
REMARK SMILES IDX 5 1 6 2 7 3 8 4 9 5 10 6 4 7 3 8 2 9 1 10
REMARK H PARENT
REMARK Flexibility Score: inf
ROOT
ATOM      1  C   UNL     1      75.759  62.227  98.035  1.00  0.00     0.000 C 
ENDROOT
BRANCH   1   2
ATOM      2  C   UNL     1      75.218  63.253  99.047  1.00  0.00     0.006 C 
BRANCH   2   3
ATOM      3  C   UNL     1      74.035  64.062  98.500  1.00  0.00     0.053 C 
BRANCH   3   4
ATOM      4  C   UNL     1      74.316  64.522  97.105  1.00  0.00     0.041 C 
ATOM      5  O   UNL     1      74.691  65.706  96.892  1.00  0.00    -0.550 OA
ATOM      6  O   UNL     1      74.215  63.631  96.045  1.00  0.00    -0.550 OA
ENDBRANCH   3   4
ENDBRANCH   2   3
ENDBRANCH   1   2
BRANCH   1   7
ATOM      7  C   UNL     1      74.995  60.888  97.995  1.00  0.00     0.000 C 
BRANCH   7   8
ATOM      8  C   UNL     1      75.468  59.896  96.913  1.00  0.00    -0.000 C 
BRANCH   8   9
ATOM      9  C   UNL     1      76.988  59.875  96.674  1.00  0.00    -0.003 C 
ATOM     10  C   UNL     1      77.370  60.216  95.235  1.00  0.00     0.004 C 
ENDBRANCH   8   9
ENDBRANCH   7   8
ENDBRANCH   1   7
TORSDOF 6
ENDMDL
MODEL 6
REMARK VINA RESULT:     1.252     16.736     17.396
REMARK INTER + INTRA:           2.035
REMARK INTER:                  -0.113
REMARK INTRA:                   2.148
REMARK UNBOUND:                 0.345
REMARK SMILES CCCCCCCC(=O)[O-]
REMARK SMILES IDX 5 1 6 2 7 3 8 4 9 5 10 6 4 7 3 8 2 9 1 10
REMARK H PARENT
REMARK Flexibility Score: inf
ROOT
ATOM      1  C   UNL     1      87.179  65.470 110.522  1.00  0.00     0.000 C 
ENDROOT
BRANCH   1   2
ATOM      2  C   UNL     1      87.621  66.882 110.943  1.00  0.00     0.006 C 
BRANCH   2   3
ATOM      3  C   UNL     1      86.485  67.910 110.863  1.00  0.00     0.053 C 
BRANCH   3   4
ATOM      4  C   UNL     1      85.161  67.243 111.060  1.00  0.00     0.041 C 
ATOM      5  O   UNL     1      84.109  67.932 111.125  1.00  0.00    -0.550 OA
ATOM      6  O   UNL     1      85.082  65.858 111.122  1.00  0.00    -0.550 OA
ENDBRANCH   3   4
ENDBRANCH   2   3
ENDBRANCH   1   2
BRANCH   1   7
ATOM      7  C   UNL     1      87.003  65.268 109.003  1.00  0.00     0.000 C 
BRANCH   7   8
ATOM      8  C   UNL     1      86.994  63.799 108.534  1.00  0.00    -0.000 C 
BRANCH   8   9
ATOM      9  C   UNL     1      87.987  62.880 109.267  1.00  0.00    -0.003 C 
ATOM     10  C   UNL     1      87.398  62.250 110.528  1.00  0.00     0.004 C 
ENDBRANCH   8   9
ENDBRANCH   7   8
ENDBRANCH   1   7
TORSDOF 6
ENDMDL
