MODEL 1
REMARK VINA RESULT:    -7.490      0.000      0.000
REMARK INTER + INTRA:          -9.324
REMARK INTER:                  -9.022
REMARK INTRA:                  -0.302
REMARK UNBOUND:                -0.302
REMARK SMILES Oc1cc(O)c2c(c1)O[C@@H](c1ccc(O)c(O)c1)[C@H](O)C2
REMARK SMILES IDX 21 1 19 2 10 3 9 4 7 5 8 6 2 7 3 8 4 9 6 10 20 11 11 13
REMARK SMILES IDX 18 14 12 15 16 16 13 17 14 18 17 19 15 21 5 23 1 25
REMARK H PARENT 20 12 17 20 15 22 5 24 1 26
REMARK Flexibility Score: inf
ROOT
ATOM      1  C   UNL     1       4.457  -2.097 -23.060  1.00  0.00     0.079 C 
ATOM      2  C   UNL     1       4.831  -0.627 -22.786  1.00  0.00     0.164 C 
ATOM      3  C   UNL     1       4.116   0.305 -23.786  1.00  0.00     0.232 C 
ATOM      4  O   UNL     1       2.712   0.085 -23.727  1.00  0.00    -0.482 OA
ATOM      5  C   UNL     1       2.160  -1.192 -23.608  1.00  0.00     0.131 A 
ATOM      6  C   UNL     1       0.791  -1.357 -23.812  1.00  0.00     0.093 A 
ATOM      7  C   UNL     1       0.213  -2.625 -23.715  1.00  0.00     0.122 A 
ATOM      8  C   UNL     1       1.010  -3.730 -23.412  1.00  0.00     0.092 A 
ATOM      9  C   UNL     1       2.384  -3.585 -23.207  1.00  0.00     0.126 A 
ATOM     10  C   UNL     1       2.970  -2.298 -23.271  1.00  0.00     0.039 A 
ENDROOT
BRANCH   2  11
ATOM     11  O   UNL     1       6.227  -0.456 -22.837  1.00  0.00    -0.389 OA
ATOM     12  H   UNL     1       6.416   0.318 -23.432  1.00  0.00     0.211 HD
ENDBRANCH   2  11
BRANCH   3  13
ATOM     13  C   UNL     1       4.403   1.760 -23.511  1.00  0.00    -0.001 A 
ATOM     14  C   UNL     1       4.671   2.645 -24.568  1.00  0.00     0.057 A 
ATOM     15  C   UNL     1       4.356   2.257 -22.196  1.00  0.00     0.012 A 
ATOM     16  C   UNL     1       4.855   4.015 -24.327  1.00  0.00     0.157 A 
ATOM     17  C   UNL     1       4.558   3.620 -21.951  1.00  0.00     0.050 A 
ATOM     18  C   UNL     1       4.798   4.503 -23.016  1.00  0.00     0.157 A 
BRANCH  16  19
ATOM     19  O   UNL     1       5.083   4.896 -25.381  1.00  0.00    -0.504 OA
ATOM     20  H   UNL     1       5.470   4.581 -26.266  1.00  0.00     0.293 HD
ENDBRANCH  16  19
BRANCH  18  21
ATOM     21  O   UNL     1       4.976   5.864 -22.778  1.00  0.00    -0.504 OA
ATOM     22  H   UNL     1       5.533   6.196 -21.997  1.00  0.00     0.293 HD
ENDBRANCH  18  21
ENDBRANCH   3  13
BRANCH   9  23
ATOM     23  O   UNL     1       3.132  -4.738 -22.954  1.00  0.00    -0.507 OA
ATOM     24  H   UNL     1       3.898  -5.047 -23.540  1.00  0.00     0.293 HD
ENDBRANCH   9  23
BRANCH   7  25
ATOM     25  O   UNL     1      -1.153  -2.797 -23.914  1.00  0.00    -0.508 OA
ATOM     26  H   UNL     1      -1.517  -3.152 -24.789  1.00  0.00     0.293 HD
ENDBRANCH   7  25
TORSDOF 6
ENDMDL
MODEL 2
REMARK VINA RESULT:    -6.734      1.892      2.135
REMARK INTER + INTRA:          -8.414
REMARK INTER:                  -8.073
REMARK INTRA:                  -0.341
REMARK UNBOUND:                -0.302
REMARK SMILES Oc1cc(O)c2c(c1)O[C@@H](c1ccc(O)c(O)c1)[C@H](O)C2
REMARK SMILES IDX 21 1 19 2 10 3 9 4 7 5 8 6 2 7 3 8 4 9 6 10 20 11 11 13
REMARK SMILES IDX 18 14 12 15 16 16 13 17 14 18 17 19 15 21 5 23 1 25
REMARK H PARENT 20 12 17 20 15 22 5 24 1 26
REMARK Flexibility Score: inf
ROOT
ATOM      1  C   UNL     1       4.852  -0.717 -25.123  1.00  0.00     0.079 C 
ATOM      2  C   UNL     1       5.138   0.741 -24.711  1.00  0.00     0.164 C 
ATOM      3  C   UNL     1       3.863   1.399 -24.143  1.00  0.00     0.232 C 
ATOM      4  O   UNL     1       3.363   0.621 -23.062  1.00  0.00    -0.482 OA
ATOM      5  C   UNL     1       3.347  -0.775 -23.091  1.00  0.00     0.131 A 
ATOM      6  C   UNL     1       2.617  -1.462 -22.122  1.00  0.00     0.093 A 
ATOM      7  C   UNL     1       2.570  -2.857 -22.135  1.00  0.00     0.122 A 
ATOM      8  C   UNL     1       3.256  -3.567 -23.121  1.00  0.00     0.092 A 
ATOM      9  C   UNL     1       3.991  -2.896 -24.102  1.00  0.00     0.126 A 
ATOM     10  C   UNL     1       4.070  -1.483 -24.075  1.00  0.00     0.039 A 
ENDROOT
BRANCH   2  11
ATOM     11  O   UNL     1       5.646   1.470 -25.802  1.00  0.00    -0.389 OA
ATOM     12  H   UNL     1       6.023   0.819 -26.453  1.00  0.00     0.211 HD
ENDBRANCH   2  11
BRANCH   3  13
ATOM     13  C   UNL     1       4.117   2.807 -23.666  1.00  0.00    -0.001 A 
ATOM     14  C   UNL     1       3.672   3.905 -24.421  1.00  0.00     0.057 A 
ATOM     15  C   UNL     1       4.757   3.037 -22.435  1.00  0.00     0.012 A 
ATOM     16  C   UNL     1       3.829   5.215 -23.942  1.00  0.00     0.157 A 
ATOM     17  C   UNL     1       4.932   4.342 -21.965  1.00  0.00     0.050 A 
ATOM     18  C   UNL     1       4.459   5.434 -22.712  1.00  0.00     0.157 A 
BRANCH  16  19
ATOM     19  O   UNL     1       3.353   6.299 -24.676  1.00  0.00    -0.504 OA
ATOM     20  H   UNL     1       3.808   6.606 -25.530  1.00  0.00     0.293 HD
ENDBRANCH  16  19
BRANCH  18  21
ATOM     21  O   UNL     1       4.610   6.734 -22.235  1.00  0.00    -0.504 OA
ATOM     22  H   UNL     1       5.432   7.012 -21.709  1.00  0.00     0.293 HD
ENDBRANCH  18  21
ENDBRANCH   3  13
BRANCH   9  23
ATOM     23  O   UNL     1       4.616  -3.664 -25.088  1.00  0.00    -0.507 OA
ATOM     24  H   UNL     1       4.996  -3.275 -25.943  1.00  0.00     0.293 HD
ENDBRANCH   9  23
BRANCH   7  25
ATOM     25  O   UNL     1       1.846  -3.550 -21.169  1.00  0.00    -0.508 OA
ATOM     26  H   UNL     1       1.741  -4.555 -21.210  1.00  0.00     0.293 HD
ENDBRANCH   7  25
TORSDOF 6
ENDMDL
MODEL 3
REMARK VINA RESULT:    -6.724      1.821      6.932
REMARK INTER + INTRA:          -8.401
REMARK INTER:                  -8.052
REMARK INTRA:                  -0.349
REMARK UNBOUND:                -0.302
REMARK SMILES Oc1cc(O)c2c(c1)O[C@@H](c1ccc(O)c(O)c1)[C@H](O)C2
REMARK SMILES IDX 21 1 19 2 10 3 9 4 7 5 8 6 2 7 3 8 4 9 6 10 20 11 11 13
REMARK SMILES IDX 18 14 12 15 16 16 13 17 14 18 17 19 15 21 5 23 1 25
REMARK H PARENT 20 12 17 20 15 22 5 24 1 26
REMARK Flexibility Score: inf
ROOT
ATOM      1  C   UNL     1       5.636   2.629 -22.887  1.00  0.00     0.079 C 
ATOM      2  C   UNL     1       5.442   1.100 -22.931  1.00  0.00     0.164 C 
ATOM      3  C   UNL     1       3.967   0.754 -23.223  1.00  0.00     0.232 C 
ATOM      4  O   UNL     1       3.555   1.386 -24.428  1.00  0.00    -0.482 OA
ATOM      5  C   UNL     1       3.934   2.689 -24.756  1.00  0.00     0.131 A 
ATOM      6  C   UNL     1       3.294   3.332 -25.814  1.00  0.00     0.093 A 
ATOM      7  C   UNL     1       3.640   4.642 -26.154  1.00  0.00     0.122 A 
ATOM      8  C   UNL     1       4.630   5.309 -25.432  1.00  0.00     0.092 A 
ATOM      9  C   UNL     1       5.282   4.682 -24.366  1.00  0.00     0.126 A 
ATOM     10  C   UNL     1       4.958   3.343 -24.037  1.00  0.00     0.039 A 
ENDROOT
BRANCH   2  11
ATOM     11  O   UNL     1       5.877   0.512 -21.729  1.00  0.00    -0.389 OA
ATOM     12  H   UNL     1       5.809   1.200 -21.013  1.00  0.00     0.211 HD
ENDBRANCH   2  11
BRANCH   3  13
ATOM     13  C   UNL     1       3.747  -0.734 -23.341  1.00  0.00    -0.001 A 
ATOM     14  C   UNL     1       3.090  -1.439 -22.319  1.00  0.00     0.057 A 
ATOM     15  C   UNL     1       4.152  -1.423 -24.499  1.00  0.00     0.012 A 
ATOM     16  C   UNL     1       2.806  -2.807 -22.461  1.00  0.00     0.157 A 
ATOM     17  C   UNL     1       3.887  -2.790 -24.633  1.00  0.00     0.050 A 
ATOM     18  C   UNL     1       3.205  -3.483 -23.620  1.00  0.00     0.157 A 
BRANCH  16  19
ATOM     19  O   UNL     1       2.121  -3.495 -21.462  1.00  0.00    -0.504 OA
ATOM     20  H   UNL     1       1.269  -4.011 -21.659  1.00  0.00     0.293 HD
ENDBRANCH  16  19
BRANCH  18  21
ATOM     21  O   UNL     1       2.918  -4.839 -23.761  1.00  0.00    -0.504 OA
ATOM     22  H   UNL     1       2.534  -5.380 -22.994  1.00  0.00     0.293 HD
ENDBRANCH  18  21
ENDBRANCH   3  13
BRANCH   9  23
ATOM     23  O   UNL     1       6.230   5.421 -23.654  1.00  0.00    -0.507 OA
ATOM     24  H   UNL     1       7.154   5.633 -24.009  1.00  0.00     0.293 HD
ENDBRANCH   9  23
BRANCH   7  25
ATOM     25  O   UNL     1       3.008   5.289 -27.212  1.00  0.00    -0.508 OA
ATOM     26  H   UNL     1       2.046   5.089 -27.452  1.00  0.00     0.293 HD
ENDBRANCH   7  25
TORSDOF 6
ENDMDL
MODEL 4
REMARK VINA RESULT:    -6.686      1.448      7.131
REMARK INTER + INTRA:          -8.355
REMARK INTER:                  -8.071
REMARK INTRA:                  -0.284
REMARK UNBOUND:                -0.302
REMARK SMILES Oc1cc(O)c2c(c1)O[C@@H](c1ccc(O)c(O)c1)[C@H](O)C2
REMARK SMILES IDX 21 1 19 2 10 3 9 4 7 5 8 6 2 7 3 8 4 9 6 10 20 11 11 13
REMARK SMILES IDX 18 14 12 15 16 16 13 17 14 18 17 19 15 21 5 23 1 25
REMARK H PARENT 20 12 17 20 15 22 5 24 1 26
REMARK Flexibility Score: inf
ROOT
ATOM      1  C   UNL     1       4.073   1.295 -26.299  1.00  0.00     0.079 C 
ATOM      2  C   UNL     1       3.189   0.079 -25.961  1.00  0.00     0.164 C 
ATOM      3  C   UNL     1       3.671  -0.592 -24.659  1.00  0.00     0.232 C 
ATOM      4  O   UNL     1       3.697   0.366 -23.607  1.00  0.00    -0.482 OA
ATOM      5  C   UNL     1       4.141   1.676 -23.800  1.00  0.00     0.131 A 
ATOM      6  C   UNL     1       4.380   2.478 -22.686  1.00  0.00     0.093 A 
ATOM      7  C   UNL     1       4.841   3.787 -22.847  1.00  0.00     0.122 A 
ATOM      8  C   UNL     1       5.062   4.292 -24.129  1.00  0.00     0.092 A 
ATOM      9  C   UNL     1       4.831   3.502 -25.258  1.00  0.00     0.126 A 
ATOM     10  C   UNL     1       4.332   2.186 -25.102  1.00  0.00     0.039 A 
ENDROOT
BRANCH   2  11
ATOM     11  O   UNL     1       3.177  -0.835 -27.032  1.00  0.00    -0.389 OA
ATOM     12  H   UNL     1       2.267  -1.233 -27.080  1.00  0.00     0.211 HD
ENDBRANCH   2  11
BRANCH   3  13
ATOM     13  C   UNL     1       2.790  -1.748 -24.256  1.00  0.00    -0.001 A 
ATOM     14  C   UNL     1       3.354  -2.927 -23.740  1.00  0.00     0.057 A 
ATOM     15  C   UNL     1       1.390  -1.641 -24.345  1.00  0.00     0.012 A 
ATOM     16  C   UNL     1       2.537  -3.973 -23.284  1.00  0.00     0.157 A 
ATOM     17  C   UNL     1       0.575  -2.690 -23.909  1.00  0.00     0.050 A 
ATOM     18  C   UNL     1       1.145  -3.854 -23.369  1.00  0.00     0.157 A 
BRANCH  16  19
ATOM     19  O   UNL     1       3.099  -5.125 -22.739  1.00  0.00    -0.504 OA
ATOM     20  H   UNL     1       2.627  -6.023 -22.788  1.00  0.00     0.293 HD
ENDBRANCH  16  19
BRANCH  18  21
ATOM     21  O   UNL     1       0.334  -4.891 -22.912  1.00  0.00    -0.504 OA
ATOM     22  H   UNL     1      -0.097  -5.547 -23.555  1.00  0.00     0.293 HD
ENDBRANCH  18  21
ENDBRANCH   3  13
BRANCH   9  23
ATOM     23  O   UNL     1       5.118   4.053 -26.510  1.00  0.00    -0.507 OA
ATOM     24  H   UNL     1       5.759   4.825 -26.647  1.00  0.00     0.293 HD
ENDBRANCH   9  23
BRANCH   7  25
ATOM     25  O   UNL     1       5.078   4.595 -21.740  1.00  0.00    -0.508 OA
ATOM     26  H   UNL     1       4.317   4.964 -21.184  1.00  0.00     0.293 HD
ENDBRANCH   7  25
TORSDOF 6
ENDMDL
MODEL 5
REMARK VINA RESULT:    -6.595      1.989      7.254
REMARK INTER + INTRA:          -8.246
REMARK INTER:                  -7.916
REMARK INTRA:                  -0.331
REMARK UNBOUND:                -0.302
REMARK SMILES Oc1cc(O)c2c(c1)O[C@@H](c1ccc(O)c(O)c1)[C@H](O)C2
REMARK SMILES IDX 21 1 19 2 10 3 9 4 7 5 8 6 2 7 3 8 4 9 6 10 20 11 11 13
REMARK SMILES IDX 18 14 12 15 16 16 13 17 14 18 17 19 15 21 5 23 1 25
REMARK H PARENT 20 12 17 20 15 22 5 24 1 26
REMARK Flexibility Score: inf
ROOT
ATOM      1  C   UNL     1       3.276   2.666 -25.904  1.00  0.00     0.079 C 
ATOM      2  C   UNL     1       3.040   1.222 -25.420  1.00  0.00     0.164 C 
ATOM      3  C   UNL     1       4.339   0.631 -24.835  1.00  0.00     0.232 C 
ATOM      4  O   UNL     1       4.826   1.475 -23.799  1.00  0.00    -0.482 OA
ATOM      5  C   UNL     1       4.798   2.868 -23.895  1.00  0.00     0.131 A 
ATOM      6  C   UNL     1       5.516   3.623 -22.968  1.00  0.00     0.093 A 
ATOM      7  C   UNL     1       5.520   5.017 -23.049  1.00  0.00     0.122 A 
ATOM      8  C   UNL     1       4.803   5.657 -24.061  1.00  0.00     0.092 A 
ATOM      9  C   UNL     1       4.079   4.917 -25.000  1.00  0.00     0.126 A 
ATOM     10  C   UNL     1       4.044   3.505 -24.904  1.00  0.00     0.039 A 
ENDROOT
BRANCH   2  11
ATOM     11  O   UNL     1       2.544   0.425 -26.468  1.00  0.00    -0.389 OA
ATOM     12  H   UNL     1       1.552   0.406 -26.392  1.00  0.00     0.211 HD
ENDBRANCH   2  11
BRANCH   3  13
ATOM     13  C   UNL     1       4.134  -0.760 -24.288  1.00  0.00    -0.001 A 
ATOM     14  C   UNL     1       3.483  -0.952 -23.058  1.00  0.00     0.057 A 
ATOM     15  C   UNL     1       4.547  -1.883 -25.027  1.00  0.00     0.012 A 
ATOM     16  C   UNL     1       3.213  -2.245 -22.584  1.00  0.00     0.157 A 
ATOM     17  C   UNL     1       4.296  -3.172 -24.548  1.00  0.00     0.050 A 
ATOM     18  C   UNL     1       3.620  -3.357 -23.331  1.00  0.00     0.157 A 
BRANCH  16  19
ATOM     19  O   UNL     1       2.534  -2.432 -21.382  1.00  0.00    -0.504 OA
ATOM     20  H   UNL     1       1.622  -2.019 -21.215  1.00  0.00     0.293 HD
ENDBRANCH  16  19
BRANCH  18  21
ATOM     21  O   UNL     1       3.347  -4.640 -22.862  1.00  0.00    -0.504 OA
ATOM     22  H   UNL     1       2.956  -4.793 -21.939  1.00  0.00     0.293 HD
ENDBRANCH  18  21
ENDBRANCH   3  13
BRANCH   9  23
ATOM     23  O   UNL     1       3.421   5.617 -26.015  1.00  0.00    -0.507 OA
ATOM     24  H   UNL     1       3.535   5.411 -27.000  1.00  0.00     0.293 HD
ENDBRANCH   9  23
BRANCH   7  25
ATOM     25  O   UNL     1       6.232   5.777 -22.126  1.00  0.00    -0.508 OA
ATOM     26  H   UNL     1       7.230   5.917 -22.217  1.00  0.00     0.293 HD
ENDBRANCH   7  25
TORSDOF 6
ENDMDL
MODEL 6
REMARK VINA RESULT:    -6.575      1.733      2.142
REMARK INTER + INTRA:          -8.221
REMARK INTER:                  -7.868
REMARK INTRA:                  -0.353
REMARK UNBOUND:                -0.302
REMARK SMILES Oc1cc(O)c2c(c1)O[C@@H](c1ccc(O)c(O)c1)[C@H](O)C2
REMARK SMILES IDX 21 1 19 2 10 3 9 4 7 5 8 6 2 7 3 8 4 9 6 10 20 11 11 13
REMARK SMILES IDX 18 14 12 15 16 16 13 17 14 18 17 19 15 21 5 23 1 25
REMARK H PARENT 20 12 17 20 15 22 5 24 1 26
REMARK Flexibility Score: inf
ROOT
ATOM      1  C   UNL     1       5.057  -0.901 -22.872  1.00  0.00     0.079 C 
ATOM      2  C   UNL     1       5.230   0.579 -22.476  1.00  0.00     0.164 C 
ATOM      3  C   UNL     1       5.027   1.491 -23.703  1.00  0.00     0.232 C 
ATOM      4  O   UNL     1       3.757   1.234 -24.288  1.00  0.00    -0.482 OA
ATOM      5  C   UNL     1       3.242  -0.058 -24.418  1.00  0.00     0.131 A 
ATOM      6  C   UNL     1       2.121  -0.260 -25.222  1.00  0.00     0.093 A 
ATOM      7  C   UNL     1       1.594  -1.543 -25.383  1.00  0.00     0.122 A 
ATOM      8  C   UNL     1       2.191  -2.626 -24.738  1.00  0.00     0.092 A 
ATOM      9  C   UNL     1       3.317  -2.444 -23.930  1.00  0.00     0.126 A 
ATOM     10  C   UNL     1       3.836  -1.141 -23.735  1.00  0.00     0.039 A 
ENDROOT
BRANCH   2  11
ATOM     11  O   UNL     1       6.491   0.787 -21.887  1.00  0.00    -0.389 OA
ATOM     12  H   UNL     1       6.411   1.558 -21.264  1.00  0.00     0.211 HD
ENDBRANCH   2  11
BRANCH   3  13
ATOM     13  C   UNL     1       5.122   2.953 -23.344  1.00  0.00    -0.001 A 
ATOM     14  C   UNL     1       4.102   3.572 -22.603  1.00  0.00     0.057 A 
ATOM     15  C   UNL     1       6.258   3.701 -23.704  1.00  0.00     0.012 A 
ATOM     16  C   UNL     1       4.223   4.909 -22.193  1.00  0.00     0.157 A 
ATOM     17  C   UNL     1       6.372   5.039 -23.312  1.00  0.00     0.050 A 
ATOM     18  C   UNL     1       5.361   5.643 -22.548  1.00  0.00     0.157 A 
BRANCH  16  19
ATOM     19  O   UNL     1       3.227   5.508 -21.426  1.00  0.00    -0.504 OA
ATOM     20  H   UNL     1       2.261   5.541 -21.739  1.00  0.00     0.293 HD
ENDBRANCH  16  19
BRANCH  18  21
ATOM     21  O   UNL     1       5.483   6.969 -22.136  1.00  0.00    -0.504 OA
ATOM     22  H   UNL     1       6.321   7.507 -22.329  1.00  0.00     0.293 HD
ENDBRANCH  18  21
ENDBRANCH   3  13
BRANCH   9  23
ATOM     23  O   UNL     1       3.894  -3.577 -23.350  1.00  0.00    -0.507 OA
ATOM     24  H   UNL     1       3.680  -3.896 -22.413  1.00  0.00     0.293 HD
ENDBRANCH   9  23
BRANCH   7  25
ATOM     25  O   UNL     1       0.473  -1.752 -26.181  1.00  0.00    -0.508 OA
ATOM     26  H   UNL     1      -0.040  -0.977 -26.582  1.00  0.00     0.293 HD
ENDBRANCH   7  25
TORSDOF 6
ENDMDL
MODEL 7
REMARK VINA RESULT:    -6.533      2.923      7.005
REMARK INTER + INTRA:          -8.172
REMARK INTER:                  -8.538
REMARK INTRA:                   0.366
REMARK UNBOUND:                -0.302
REMARK SMILES Oc1cc(O)c2c(c1)O[C@@H](c1ccc(O)c(O)c1)[C@H](O)C2
REMARK SMILES IDX 21 1 19 2 10 3 9 4 7 5 8 6 2 7 3 8 4 9 6 10 20 11 11 13
REMARK SMILES IDX 18 14 12 15 16 16 13 17 14 18 17 19 15 21 5 23 1 25
REMARK H PARENT 20 12 17 20 15 22 5 24 1 26
REMARK Flexibility Score: inf
ROOT
ATOM      1  C   UNL     1       4.286   3.330 -22.264  1.00  0.00     0.079 C 
ATOM      2  C   UNL     1       4.725   1.882 -22.560  1.00  0.00     0.164 C 
ATOM      3  C   UNL     1       4.033   1.359 -23.835  1.00  0.00     0.232 C 
ATOM      4  O   UNL     1       4.302   2.238 -24.921  1.00  0.00    -0.482 OA
ATOM      5  C   UNL     1       4.306   3.627 -24.775  1.00  0.00     0.131 A 
ATOM      6  C   UNL     1       4.322   4.425 -25.918  1.00  0.00     0.093 A 
ATOM      7  C   UNL     1       4.311   5.817 -25.803  1.00  0.00     0.122 A 
ATOM      8  C   UNL     1       4.284   6.410 -24.540  1.00  0.00     0.092 A 
ATOM      9  C   UNL     1       4.265   5.626 -23.383  1.00  0.00     0.126 A 
ATOM     10  C   UNL     1       4.310   4.215 -23.492  1.00  0.00     0.039 A 
ENDROOT
BRANCH   2  11
ATOM     11  O   UNL     1       4.458   1.050 -21.456  1.00  0.00    -0.389 OA
ATOM     12  H   UNL     1       3.517   1.210 -21.177  1.00  0.00     0.211 HD
ENDBRANCH   2  11
BRANCH   3  13
ATOM     13  C   UNL     1       4.487  -0.033 -24.198  1.00  0.00    -0.001 A 
ATOM     14  C   UNL     1       4.438  -0.472 -25.531  1.00  0.00     0.057 A 
ATOM     15  C   UNL     1       5.014  -0.888 -23.213  1.00  0.00     0.012 A 
ATOM     16  C   UNL     1       4.939  -1.734 -25.888  1.00  0.00     0.157 A 
ATOM     17  C   UNL     1       5.495  -2.153 -23.564  1.00  0.00     0.050 A 
ATOM     18  C   UNL     1       5.469  -2.576 -24.903  1.00  0.00     0.157 A 
BRANCH  16  19
ATOM     19  O   UNL     1       4.923  -2.153 -27.217  1.00  0.00    -0.504 OA
ATOM     20  H   UNL     1       4.285  -1.749 -27.895  1.00  0.00     0.293 HD
ENDBRANCH  16  19
BRANCH  18  21
ATOM     21  O   UNL     1       5.969  -3.826 -25.259  1.00  0.00    -0.504 OA
ATOM     22  H   UNL     1       5.929  -4.158 -26.217  1.00  0.00     0.293 HD
ENDBRANCH  18  21
ENDBRANCH   3  13
BRANCH   9  23
ATOM     23  O   UNL     1       4.190   6.282 -22.152  1.00  0.00    -0.507 OA
ATOM     24  H   UNL     1       4.468   7.246 -22.015  1.00  0.00     0.293 HD
ENDBRANCH   9  23
BRANCH   7  25
ATOM     25  O   UNL     1       4.330   6.621 -26.939  1.00  0.00    -0.508 OA
ATOM     26  H   UNL     1       5.194   6.827 -27.424  1.00  0.00     0.293 HD
ENDBRANCH   7  25
TORSDOF 6
ENDMDL
MODEL 8
REMARK VINA RESULT:    -6.256      1.682      2.340
REMARK INTER + INTRA:          -7.838
REMARK INTER:                  -7.473
REMARK INTRA:                  -0.365
REMARK UNBOUND:                -0.302
REMARK SMILES Oc1cc(O)c2c(c1)O[C@@H](c1ccc(O)c(O)c1)[C@H](O)C2
REMARK SMILES IDX 21 1 19 2 10 3 9 4 7 5 8 6 2 7 3 8 4 9 6 10 20 11 11 13
REMARK SMILES IDX 18 14 12 15 16 16 13 17 14 18 17 19 15 21 5 23 1 25
REMARK H PARENT 20 12 17 20 15 22 5 24 1 26
REMARK Flexibility Score: inf
ROOT
ATOM      1  C   UNL     1       3.803  -1.653 -22.835  1.00  0.00     0.079 C 
ATOM      2  C   UNL     1       4.253  -0.323 -23.470  1.00  0.00     0.164 C 
ATOM      3  C   UNL     1       3.822  -0.261 -24.950  1.00  0.00     0.232 C 
ATOM      4  O   UNL     1       2.417  -0.458 -25.050  1.00  0.00    -0.482 OA
ATOM      5  C   UNL     1       1.738  -1.400 -24.273  1.00  0.00     0.131 A 
ATOM      6  C   UNL     1       0.420  -1.719 -24.599  1.00  0.00     0.093 A 
ATOM      7  C   UNL     1      -0.278  -2.669 -23.850  1.00  0.00     0.122 A 
ATOM      8  C   UNL     1       0.345  -3.300 -22.773  1.00  0.00     0.092 A 
ATOM      9  C   UNL     1       1.666  -2.995 -22.433  1.00  0.00     0.126 A 
ATOM     10  C   UNL     1       2.369  -2.009 -23.167  1.00  0.00     0.039 A 
ENDROOT
BRANCH   2  11
ATOM     11  O   UNL     1       5.644  -0.158 -23.336  1.00  0.00    -0.389 OA
ATOM     12  H   UNL     1       6.019   0.003 -24.243  1.00  0.00     0.211 HD
ENDBRANCH   2  11
BRANCH   3  13
ATOM     13  C   UNL     1       4.185   1.055 -25.592  1.00  0.00    -0.001 A 
ATOM     14  C   UNL     1       3.730   2.265 -25.042  1.00  0.00     0.057 A 
ATOM     15  C   UNL     1       5.027   1.089 -26.718  1.00  0.00     0.012 A 
ATOM     16  C   UNL     1       4.134   3.496 -25.582  1.00  0.00     0.157 A 
ATOM     17  C   UNL     1       5.415   2.314 -27.271  1.00  0.00     0.050 A 
ATOM     18  C   UNL     1       4.979   3.520 -26.699  1.00  0.00     0.157 A 
BRANCH  16  19
ATOM     19  O   UNL     1       3.711   4.694 -25.012  1.00  0.00    -0.504 OA
ATOM     20  H   UNL     1       2.829   4.764 -24.513  1.00  0.00     0.293 HD
ENDBRANCH  16  19
BRANCH  18  21
ATOM     21  O   UNL     1       5.383   4.742 -27.232  1.00  0.00    -0.504 OA
ATOM     22  H   UNL     1       5.294   4.941 -28.223  1.00  0.00     0.293 HD
ENDBRANCH  18  21
ENDBRANCH   3  13
BRANCH   9  23
ATOM     23  O   UNL     1       2.246  -3.698 -21.374  1.00  0.00    -0.507 OA
ATOM     24  H   UNL     1       3.225  -3.628 -21.127  1.00  0.00     0.293 HD
ENDBRANCH   9  23
BRANCH   7  25
ATOM     25  O   UNL     1      -1.595  -2.990 -24.167  1.00  0.00    -0.508 OA
ATOM     26  H   UNL     1      -2.331  -2.939 -23.474  1.00  0.00     0.293 HD
ENDBRANCH   7  25
TORSDOF 6
ENDMDL
MODEL 9
REMARK VINA RESULT:    -5.987      2.503      3.656
REMARK INTER + INTRA:          -7.513
REMARK INTER:                  -7.145
REMARK INTRA:                  -0.369
REMARK UNBOUND:                -0.302
REMARK SMILES Oc1cc(O)c2c(c1)O[C@@H](c1ccc(O)c(O)c1)[C@H](O)C2
REMARK SMILES IDX 21 1 19 2 10 3 9 4 7 5 8 6 2 7 3 8 4 9 6 10 20 11 11 13
REMARK SMILES IDX 18 14 12 15 16 16 13 17 14 18 17 19 15 21 5 23 1 25
REMARK H PARENT 20 12 17 20 15 22 5 24 1 26
REMARK Flexibility Score: inf
ROOT
ATOM      1  C   UNL     1       4.661   0.743 -26.927  1.00  0.00     0.079 C 
ATOM      2  C   UNL     1       4.954   2.094 -26.244  1.00  0.00     0.164 C 
ATOM      3  C   UNL     1       4.072   2.266 -24.991  1.00  0.00     0.232 C 
ATOM      4  O   UNL     1       4.267   1.164 -24.112  1.00  0.00    -0.482 OA
ATOM      5  C   UNL     1       4.390  -0.148 -24.576  1.00  0.00     0.131 A 
ATOM      6  C   UNL     1       4.322  -1.196 -23.659  1.00  0.00     0.093 A 
ATOM      7  C   UNL     1       4.426  -2.519 -24.095  1.00  0.00     0.122 A 
ATOM      8  C   UNL     1       4.599  -2.792 -25.453  1.00  0.00     0.092 A 
ATOM      9  C   UNL     1       4.668  -1.754 -26.387  1.00  0.00     0.126 A 
ATOM     10  C   UNL     1       4.596  -0.410 -25.947  1.00  0.00     0.039 A 
ENDROOT
BRANCH   2  11
ATOM     11  O   UNL     1       4.766   3.155 -27.150  1.00  0.00    -0.389 OA
ATOM     12  H   UNL     1       5.191   2.897 -28.011  1.00  0.00     0.211 HD
ENDBRANCH   2  11
BRANCH   3  13
ATOM     13  C   UNL     1       4.376   3.547 -24.255  1.00  0.00    -0.001 A 
ATOM     14  C   UNL     1       5.671   3.803 -23.776  1.00  0.00     0.057 A 
ATOM     15  C   UNL     1       3.377   4.523 -24.085  1.00  0.00     0.012 A 
ATOM     16  C   UNL     1       5.981   5.029 -23.167  1.00  0.00     0.157 A 
ATOM     17  C   UNL     1       3.679   5.738 -23.461  1.00  0.00     0.050 A 
ATOM     18  C   UNL     1       4.983   5.998 -23.009  1.00  0.00     0.157 A 
BRANCH  16  19
ATOM     19  O   UNL     1       7.276   5.294 -22.727  1.00  0.00    -0.504 OA
ATOM     20  H   UNL     1       7.829   4.593 -22.244  1.00  0.00     0.293 HD
ENDBRANCH  16  19
BRANCH  18  21
ATOM     21  O   UNL     1       5.293   7.216 -22.409  1.00  0.00    -0.504 OA
ATOM     22  H   UNL     1       5.616   7.265 -21.448  1.00  0.00     0.293 HD
ENDBRANCH  18  21
ENDBRANCH   3  13
BRANCH   9  23
ATOM     23  O   UNL     1       4.794  -2.097 -27.735  1.00  0.00    -0.507 OA
ATOM     24  H   UNL     1       5.680  -2.113 -28.227  1.00  0.00     0.293 HD
ENDBRANCH   9  23
BRANCH   7  25
ATOM     25  O   UNL     1       4.362  -3.571 -23.186  1.00  0.00    -0.508 OA
ATOM     26  H   UNL     1       3.658  -3.597 -22.460  1.00  0.00     0.293 HD
ENDBRANCH   7  25
TORSDOF 6
ENDMDL
