MODEL 1
REMARK VINA RESULT:    -2.876      0.000      0.000
REMARK INTER + INTRA:          -9.210
REMARK INTER:                  -7.584
REMARK INTRA:                  -1.625
REMARK UNBOUND:                -1.625
REMARK SMILES CCCCCCCCCCCCCCCCCCCCCCCCCCCCCC(=O)[O-]
REMARK SMILES IDX 16 1 17 2 18 3 19 4 20 5 21 6 22 7 23 8 24 9 25 10 26 11
REMARK SMILES IDX 27 12 28 13 29 14 30 15 31 16 32 17 15 18 14 19 13 20 12 21
REMARK SMILES IDX 11 22 10 23 9 24 8 25 7 26 6 27 5 28 4 29 3 30 2 31 1 32
REMARK H PARENT
REMARK Flexibility Score: inf
ROOT
ATOM      1  C   UNL     1      11.888  20.824  68.904  1.00  0.00     0.000 C 
ENDROOT
BRANCH   1   2
ATOM      2  C   UNL     1      12.299  21.656  67.671  1.00  0.00     0.000 C 
BRANCH   2   3
ATOM      3  C   UNL     1      11.206  21.833  66.601  1.00  0.00     0.000 C 
BRANCH   3   4
ATOM      4  C   UNL     1      11.595  21.218  65.246  1.00  0.00     0.000 C 
BRANCH   4   5
ATOM      5  C   UNL     1      12.804  20.276  65.349  1.00  0.00     0.000 C 
BRANCH   5   6
ATOM      6  C   UNL     1      12.926  19.323  64.145  1.00  0.00     0.000 C 
BRANCH   6   7
ATOM      7  C   UNL     1      11.661  18.479  63.926  1.00  0.00     0.000 C 
BRANCH   7   8
ATOM      8  C   UNL     1      11.824  17.449  62.799  1.00  0.00     0.000 C 
BRANCH   8   9
ATOM      9  C   UNL     1      12.332  16.110  63.347  1.00  0.00     0.000 C 
BRANCH   9  10
ATOM     10  C   UNL     1      11.209  15.342  64.055  1.00  0.00     0.000 C 
BRANCH  10  11
ATOM     11  C   UNL     1      11.781  14.281  65.003  1.00  0.00     0.000 C 
BRANCH  11  12
ATOM     12  C   UNL     1      13.102  13.716  64.466  1.00  0.00     0.000 C 
BRANCH  12  13
ATOM     13  C   UNL     1      13.497  12.437  65.212  1.00  0.00     0.006 C 
BRANCH  13  14
ATOM     14  C   UNL     1      13.493  11.227  64.272  1.00  0.00     0.053 C 
BRANCH  14  15
ATOM     15  C   UNL     1      12.192  10.494  64.364  1.00  0.00     0.041 C 
ATOM     16  O   UNL     1      11.977   9.489  63.638  1.00  0.00    -0.550 OA
ATOM     17  O   UNL     1      11.229  10.900  65.280  1.00  0.00    -0.550 OA
ENDBRANCH  14  15
ENDBRANCH  13  14
ENDBRANCH  12  13
ENDBRANCH  11  12
ENDBRANCH  10  11
ENDBRANCH   9  10
ENDBRANCH   8   9
ENDBRANCH   7   8
ENDBRANCH   6   7
ENDBRANCH   5   6
ENDBRANCH   4   5
ENDBRANCH   3   4
ENDBRANCH   2   3
ENDBRANCH   1   2
BRANCH   1  18
ATOM     18  C   UNL     1      10.917  21.517  69.876  1.00  0.00     0.000 C 
BRANCH  18  19
ATOM     19  C   UNL     1       9.614  21.972  69.196  1.00  0.00     0.000 C 
BRANCH  19  20
ATOM     20  C   UNL     1       8.357  21.530  69.960  1.00  0.00     0.000 C 
BRANCH  20  21
ATOM     21  C   UNL     1       7.121  21.408  69.053  1.00  0.00     0.000 C 
BRANCH  21  22
ATOM     22  C   UNL     1       5.807  21.306  69.847  1.00  0.00     0.000 C 
BRANCH  22  23
ATOM     23  C   UNL     1       4.838  20.206  69.368  1.00  0.00     0.000 C 
BRANCH  23  24
ATOM     24  C   UNL     1       4.991  18.869  70.123  1.00  0.00    -0.000 C 
BRANCH  24  25
ATOM     25  C   UNL     1       6.443  18.357  70.121  1.00  0.00    -0.000 C 
BRANCH  25  26
ATOM     26  C   UNL     1       6.687  17.311  69.010  1.00  0.00    -0.000 C 
BRANCH  26  27
ATOM     27  C   UNL     1       5.483  16.389  68.755  1.00  0.00    -0.000 C 
BRANCH  27  28
ATOM     28  C   UNL     1       4.814  16.643  67.397  1.00  0.00    -0.000 C 
BRANCH  28  29
ATOM     29  C   UNL     1       3.361  17.099  67.576  1.00  0.00    -0.000 C 
BRANCH  29  30
ATOM     30  C   UNL     1       2.576  16.100  68.439  1.00  0.00    -0.000 C 
BRANCH  30  31
ATOM     31  C   UNL     1       2.126  16.705  69.778  1.00  0.00    -0.003 C 
ATOM     32  C   UNL     1       1.569  18.121  69.628  1.00  0.00     0.004 C 
ENDBRANCH  30  31
ENDBRANCH  29  30
ENDBRANCH  28  29
ENDBRANCH  27  28
ENDBRANCH  26  27
ENDBRANCH  25  26
ENDBRANCH  24  25
ENDBRANCH  23  24
ENDBRANCH  22  23
ENDBRANCH  21  22
ENDBRANCH  20  21
ENDBRANCH  19  20
ENDBRANCH  18  19
ENDBRANCH   1  18
TORSDOF 28
ENDMDL
MODEL 2
REMARK VINA RESULT:    -0.747      1.322      2.440
REMARK INTER + INTRA:          -3.595
REMARK INTER:                  -1.465
REMARK INTRA:                  -2.131
REMARK UNBOUND:                -1.625
REMARK SMILES CCCCCCCCCCCCCCCCCCCCCCCCCCCCCC(=O)[O-]
REMARK SMILES IDX 16 1 17 2 18 3 19 4 20 5 21 6 22 7 23 8 24 9 25 10 26 11
REMARK SMILES IDX 27 12 28 13 29 14 30 15 31 16 32 17 15 18 14 19 13 20 12 21
REMARK SMILES IDX 11 22 10 23 9 24 8 25 7 26 6 27 5 28 4 29 3 30 2 31 1 32
REMARK H PARENT
REMARK Flexibility Score: inf
ROOT
ATOM      1  C   UNL     1      11.402  21.285  67.163  1.00  0.00     0.000 C 
ENDROOT
BRANCH   1   2
ATOM      2  C   UNL     1      11.512  22.079  65.845  1.00  0.00     0.000 C 
BRANCH   2   3
ATOM      3  C   UNL     1      12.174  21.327  64.676  1.00  0.00     0.000 C 
BRANCH   3   4
ATOM      4  C   UNL     1      11.514  19.967  64.393  1.00  0.00     0.000 C 
BRANCH   4   5
ATOM      5  C   UNL     1      12.503  18.795  64.498  1.00  0.00     0.000 C 
BRANCH   5   6
ATOM      6  C   UNL     1      12.652  18.018  63.177  1.00  0.00     0.000 C 
BRANCH   6   7
ATOM      7  C   UNL     1      11.548  16.969  62.978  1.00  0.00     0.000 C 
BRANCH   7   8
ATOM      8  C   UNL     1      11.417  16.010  64.170  1.00  0.00     0.000 C 
BRANCH   8   9
ATOM      9  C   UNL     1      12.472  14.899  64.101  1.00  0.00     0.000 C 
BRANCH   9  10
ATOM     10  C   UNL     1      12.433  14.023  65.359  1.00  0.00     0.000 C 
BRANCH  10  11
ATOM     11  C   UNL     1      13.298  12.769  65.184  1.00  0.00     0.000 C 
BRANCH  11  12
ATOM     12  C   UNL     1      13.129  12.174  63.781  1.00  0.00     0.000 C 
BRANCH  12  13
ATOM     13  C   UNL     1      13.486  10.684  63.768  1.00  0.00     0.006 C 
BRANCH  13  14
ATOM     14  C   UNL     1      12.910   9.968  64.994  1.00  0.00     0.053 C 
BRANCH  14  15
ATOM     15  C   UNL     1      11.418   9.899  64.909  1.00  0.00     0.041 C 
ATOM     16  O   UNL     1      10.863   9.374  63.909  1.00  0.00    -0.550 OA
ATOM     17  O   UNL     1      10.640  10.383  65.953  1.00  0.00    -0.550 OA
ENDBRANCH  14  15
ENDBRANCH  13  14
ENDBRANCH  12  13
ENDBRANCH  11  12
ENDBRANCH  10  11
ENDBRANCH   9  10
ENDBRANCH   8   9
ENDBRANCH   7   8
ENDBRANCH   6   7
ENDBRANCH   5   6
ENDBRANCH   4   5
ENDBRANCH   3   4
ENDBRANCH   2   3
ENDBRANCH   1   2
BRANCH   1  18
ATOM     18  C   UNL     1      11.626  22.102  68.448  1.00  0.00     0.000 C 
BRANCH  18  19
ATOM     19  C   UNL     1      11.108  21.387  69.708  1.00  0.00     0.000 C 
BRANCH  19  20
ATOM     20  C   UNL     1       9.987  20.382  69.405  1.00  0.00     0.000 C 
BRANCH  20  21
ATOM     21  C   UNL     1       8.667  20.731  70.113  1.00  0.00     0.000 C 
BRANCH  21  22
ATOM     22  C   UNL     1       8.048  22.045  69.605  1.00  0.00     0.000 C 
BRANCH  22  23
ATOM     23  C   UNL     1       7.832  22.119  68.081  1.00  0.00     0.000 C 
BRANCH  23  24
ATOM     24  C   UNL     1       6.469  21.563  67.617  1.00  0.00    -0.000 C 
BRANCH  24  25
ATOM     25  C   UNL     1       5.312  22.011  68.528  1.00  0.00    -0.000 C 
BRANCH  25  26
ATOM     26  C   UNL     1       4.135  21.011  68.506  1.00  0.00    -0.000 C 
BRANCH  26  27
ATOM     27  C   UNL     1       4.563  19.560  68.230  1.00  0.00    -0.000 C 
BRANCH  27  28
ATOM     28  C   UNL     1       3.956  18.559  69.223  1.00  0.00    -0.000 C 
BRANCH  28  29
ATOM     29  C   UNL     1       3.113  17.504  68.496  1.00  0.00    -0.000 C 
BRANCH  29  30
ATOM     30  C   UNL     1       3.140  16.167  69.251  1.00  0.00    -0.000 C 
BRANCH  30  31
ATOM     31  C   UNL     1       3.862  15.062  68.466  1.00  0.00    -0.003 C 
ATOM     32  C   UNL     1       4.618  15.599  67.250  1.00  0.00     0.004 C 
ENDBRANCH  30  31
ENDBRANCH  29  30
ENDBRANCH  28  29
ENDBRANCH  27  28
ENDBRANCH  26  27
ENDBRANCH  25  26
ENDBRANCH  24  25
ENDBRANCH  23  24
ENDBRANCH  22  23
ENDBRANCH  21  22
ENDBRANCH  20  21
ENDBRANCH  19  20
ENDBRANCH  18  19
ENDBRANCH   1  18
TORSDOF 28
ENDMDL
MODEL 3
REMARK VINA RESULT:    -0.491      1.290      2.037
REMARK INTER + INTRA:          -2.921
REMARK INTER:                  -2.823
REMARK INTRA:                  -0.098
REMARK UNBOUND:                -1.625
REMARK SMILES CCCCCCCCCCCCCCCCCCCCCCCCCCCCCC(=O)[O-]
REMARK SMILES IDX 16 1 17 2 18 3 19 4 20 5 21 6 22 7 23 8 24 9 25 10 26 11
REMARK SMILES IDX 27 12 28 13 29 14 30 15 31 16 32 17 15 18 14 19 13 20 12 21
REMARK SMILES IDX 11 22 10 23 9 24 8 25 7 26 6 27 5 28 4 29 3 30 2 31 1 32
REMARK H PARENT
REMARK Flexibility Score: inf
ROOT
ATOM      1  C   UNL     1      10.854  21.046  69.106  1.00  0.00     0.000 C 
ENDROOT
BRANCH   1   2
ATOM      2  C   UNL     1      10.765  22.119  68.000  1.00  0.00     0.000 C 
BRANCH   2   3
ATOM      3  C   UNL     1       9.987  21.703  66.739  1.00  0.00     0.000 C 
BRANCH   3   4
ATOM      4  C   UNL     1      10.881  21.610  65.491  1.00  0.00     0.000 C 
BRANCH   4   5
ATOM      5  C   UNL     1      12.378  21.562  65.838  1.00  0.00     0.000 C 
BRANCH   5   6
ATOM      6  C   UNL     1      13.139  20.473  65.061  1.00  0.00     0.000 C 
BRANCH   6   7
ATOM      7  C   UNL     1      12.272  19.239  64.765  1.00  0.00     0.000 C 
BRANCH   7   8
ATOM      8  C   UNL     1      11.982  19.064  63.267  1.00  0.00     0.000 C 
BRANCH   8   9
ATOM      9  C   UNL     1      11.917  17.579  62.889  1.00  0.00     0.000 C 
BRANCH   9  10
ATOM     10  C   UNL     1      12.326  16.692  64.071  1.00  0.00     0.000 C 
BRANCH  10  11
ATOM     11  C   UNL     1      11.738  15.282  63.930  1.00  0.00     0.000 C 
BRANCH  11  12
ATOM     12  C   UNL     1      12.358  14.322  64.952  1.00  0.00     0.000 C 
BRANCH  12  13
ATOM     13  C   UNL     1      11.676  12.950  64.903  1.00  0.00     0.006 C 
BRANCH  13  14
ATOM     14  C   UNL     1      12.700  11.833  64.677  1.00  0.00     0.053 C 
BRANCH  14  15
ATOM     15  C   UNL     1      12.046  10.491  64.787  1.00  0.00     0.041 C 
ATOM     16  O   UNL     1      11.388  10.188  65.816  1.00  0.00    -0.550 OA
ATOM     17  O   UNL     1      12.135   9.588  63.735  1.00  0.00    -0.550 OA
ENDBRANCH  14  15
ENDBRANCH  13  14
ENDBRANCH  12  13
ENDBRANCH  11  12
ENDBRANCH  10  11
ENDBRANCH   9  10
ENDBRANCH   8   9
ENDBRANCH   7   8
ENDBRANCH   6   7
ENDBRANCH   5   6
ENDBRANCH   4   5
ENDBRANCH   3   4
ENDBRANCH   2   3
ENDBRANCH   1   2
BRANCH   1  18
ATOM     18  C   UNL     1       9.562  20.816  69.909  1.00  0.00     0.000 C 
BRANCH  18  19
ATOM     19  C   UNL     1       8.293  21.169  69.114  1.00  0.00     0.000 C 
BRANCH  19  20
ATOM     20  C   UNL     1       7.129  21.611  70.014  1.00  0.00     0.000 C 
BRANCH  20  21
ATOM     21  C   UNL     1       5.897  22.064  69.213  1.00  0.00     0.000 C 
BRANCH  21  22
ATOM     22  C   UNL     1       4.595  21.987  70.030  1.00  0.00     0.000 C 
BRANCH  22  23
ATOM     23  C   UNL     1       3.298  22.125  69.208  1.00  0.00     0.000 C 
BRANCH  23  24
ATOM     24  C   UNL     1       2.731  20.779  68.708  1.00  0.00    -0.000 C 
BRANCH  24  25
ATOM     25  C   UNL     1       2.812  19.676  69.779  1.00  0.00    -0.000 C 
BRANCH  25  26
ATOM     26  C   UNL     1       4.196  18.991  69.803  1.00  0.00    -0.000 C 
BRANCH  26  27
ATOM     27  C   UNL     1       4.226  17.633  69.082  1.00  0.00    -0.000 C 
BRANCH  27  28
ATOM     28  C   UNL     1       4.551  17.758  67.588  1.00  0.00    -0.000 C 
BRANCH  28  29
ATOM     29  C   UNL     1       3.664  16.828  66.751  1.00  0.00    -0.000 C 
BRANCH  29  30
ATOM     30  C   UNL     1       2.810  15.927  67.655  1.00  0.00    -0.000 C 
BRANCH  30  31
ATOM     31  C   UNL     1       3.661  15.021  68.557  1.00  0.00    -0.003 C 
ATOM     32  C   UNL     1       4.207  13.798  67.819  1.00  0.00     0.004 C 
ENDBRANCH  30  31
ENDBRANCH  29  30
ENDBRANCH  28  29
ENDBRANCH  27  28
ENDBRANCH  26  27
ENDBRANCH  25  26
ENDBRANCH  24  25
ENDBRANCH  23  24
ENDBRANCH  22  23
ENDBRANCH  21  22
ENDBRANCH  20  21
ENDBRANCH  19  20
ENDBRANCH  18  19
ENDBRANCH   1  18
TORSDOF 28
ENDMDL
MODEL 4
REMARK VINA RESULT:    -0.017     19.195     21.520
REMARK INTER + INTRA:          -1.669
REMARK INTER:                  -2.426
REMARK INTRA:                   0.757
REMARK UNBOUND:                -1.625
REMARK SMILES CCCCCCCCCCCCCCCCCCCCCCCCCCCCCC(=O)[O-]
REMARK SMILES IDX 16 1 17 2 18 3 19 4 20 5 21 6 22 7 23 8 24 9 25 10 26 11
REMARK SMILES IDX 27 12 28 13 29 14 30 15 31 16 32 17 15 18 14 19 13 20 12 21
REMARK SMILES IDX 11 22 10 23 9 24 8 25 7 26 6 27 5 28 4 29 3 30 2 31 1 32
REMARK H PARENT
REMARK Flexibility Score: inf
ROOT
ATOM      1  C   UNL     1       6.830   5.107  53.683  1.00  0.00     0.000 C 
ENDROOT
BRANCH   1   2
ATOM      2  C   UNL     1       7.640   3.974  53.018  1.00  0.00     0.000 C 
BRANCH   2   3
ATOM      3  C   UNL     1       6.967   2.590  53.027  1.00  0.00     0.000 C 
BRANCH   3   4
ATOM      4  C   UNL     1       6.136   2.324  51.761  1.00  0.00     0.000 C 
BRANCH   4   5
ATOM      5  C   UNL     1       6.514   3.255  50.598  1.00  0.00     0.000 C 
BRANCH   5   6
ATOM      6  C   UNL     1       7.894   2.932  49.996  1.00  0.00     0.000 C 
BRANCH   6   7
ATOM      7  C   UNL     1       8.794   4.171  49.875  1.00  0.00     0.000 C 
BRANCH   7   8
ATOM      8  C   UNL     1       8.172   5.421  50.515  1.00  0.00     0.000 C 
BRANCH   8   9
ATOM      9  C   UNL     1       9.205   6.181  51.356  1.00  0.00     0.000 C 
BRANCH   9  10
ATOM     10  C   UNL     1      10.139   7.009  50.466  1.00  0.00     0.000 C 
BRANCH  10  11
ATOM     11  C   UNL     1      11.407   6.221  50.115  1.00  0.00     0.000 C 
BRANCH  11  12
ATOM     12  C   UNL     1      12.381   6.189  51.299  1.00  0.00     0.000 C 
BRANCH  12  13
ATOM     13  C   UNL     1      13.109   4.843  51.377  1.00  0.00     0.006 C 
BRANCH  13  14
ATOM     14  C   UNL     1      12.217   3.704  50.875  1.00  0.00     0.053 C 
BRANCH  14  15
ATOM     15  C   UNL     1      11.710   2.888  52.022  1.00  0.00     0.041 C 
ATOM     16  O   UNL     1      12.484   2.110  52.638  1.00  0.00    -0.550 OA
ATOM     17  O   UNL     1      10.389   3.013  52.434  1.00  0.00    -0.550 OA
ENDBRANCH  14  15
ENDBRANCH  13  14
ENDBRANCH  12  13
ENDBRANCH  11  12
ENDBRANCH  10  11
ENDBRANCH   9  10
ENDBRANCH   8   9
ENDBRANCH   7   8
ENDBRANCH   6   7
ENDBRANCH   5   6
ENDBRANCH   4   5
ENDBRANCH   3   4
ENDBRANCH   2   3
ENDBRANCH   1   2
BRANCH   1  18
ATOM     18  C   UNL     1       5.355   5.204  53.254  1.00  0.00     0.000 C 
BRANCH  18  19
ATOM     19  C   UNL     1       5.187   5.605  51.778  1.00  0.00     0.000 C 
BRANCH  19  20
ATOM     20  C   UNL     1       3.734   5.946  51.415  1.00  0.00     0.000 C 
BRANCH  20  21
ATOM     21  C   UNL     1       3.194   5.089  50.258  1.00  0.00     0.000 C 
BRANCH  21  22
ATOM     22  C   UNL     1       2.876   3.645  50.684  1.00  0.00     0.000 C 
BRANCH  22  23
ATOM     23  C   UNL     1       1.375   3.307  50.781  1.00  0.00     0.000 C 
BRANCH  23  24
ATOM     24  C   UNL     1       0.480   4.180  49.875  1.00  0.00    -0.000 C 
BRANCH  24  25
ATOM     25  C   UNL     1       0.278   5.597  50.442  1.00  0.00    -0.000 C 
BRANCH  25  26
ATOM     26  C   UNL     1      -0.992   6.272  49.877  1.00  0.00    -0.000 C 
BRANCH  26  27
ATOM     27  C   UNL     1      -2.300   5.601  50.328  1.00  0.00    -0.000 C 
BRANCH  27  28
ATOM     28  C   UNL     1      -2.399   4.133  49.890  1.00  0.00    -0.000 C 
BRANCH  28  29
ATOM     29  C   UNL     1      -3.808   3.579  50.138  1.00  0.00    -0.000 C 
BRANCH  29  30
ATOM     30  C   UNL     1      -4.751   4.683  50.637  1.00  0.00    -0.000 C 
BRANCH  30  31
ATOM     31  C   UNL     1      -6.117   4.137  51.078  1.00  0.00    -0.003 C 
ATOM     32  C   UNL     1      -6.043   3.349  52.385  1.00  0.00     0.004 C 
ENDBRANCH  30  31
ENDBRANCH  29  30
ENDBRANCH  28  29
ENDBRANCH  27  28
ENDBRANCH  26  27
ENDBRANCH  25  26
ENDBRANCH  24  25
ENDBRANCH  23  24
ENDBRANCH  22  23
ENDBRANCH  21  22
ENDBRANCH  20  21
ENDBRANCH  19  20
ENDBRANCH  18  19
ENDBRANCH   1  18
TORSDOF 28
ENDMDL
