MODEL 1
REMARK VINA RESULT:    -3.500      0.000      0.000
REMARK INTER + INTRA:          -3.935
REMARK INTER:                  -3.909
REMARK INTRA:                  -0.025
REMARK UNBOUND:                -0.025
REMARK SMILES CCCC(=O)[O-]
REMARK SMILES IDX 3 1 4 2 5 3 6 4 2 5 1 6
REMARK H PARENT
REMARK Flexibility Score: inf
ROOT
ATOM      1  C   UNL     1      10.098 -14.979 -20.851  1.00  0.00     0.052 C 
ENDROOT
BRANCH   1   2
ATOM      2  C   UNL     1      10.712 -14.585 -19.544  1.00  0.00     0.041 C 
ATOM      3  O   UNL     1      11.157 -15.466 -18.761  1.00  0.00    -0.550 OA
ATOM      4  O   UNL     1      10.764 -13.246 -19.173  1.00  0.00    -0.550 OA
ENDBRANCH   1   2
BRANCH   1   5
ATOM      5  C   UNL     1      10.079 -13.812 -21.847  1.00  0.00     0.003 C 
ATOM      6  C   UNL     1      11.006 -14.048 -23.038  1.00  0.00     0.004 C 
ENDBRANCH   1   5
TORSDOF 2
ENDMDL
MODEL 2
REMARK VINA RESULT:    -3.490      0.270      1.350
REMARK INTER + INTRA:          -3.924
REMARK INTER:                  -3.883
REMARK INTRA:                  -0.041
REMARK UNBOUND:                -0.025
REMARK SMILES CCCC(=O)[O-]
REMARK SMILES IDX 3 1 4 2 5 3 6 4 2 5 1 6
REMARK H PARENT
REMARK Flexibility Score: inf
ROOT
ATOM      1  C   UNL     1       9.756 -14.785 -20.699  1.00  0.00     0.052 C 
ENDROOT
BRANCH   1   2
ATOM      2  C   UNL     1      10.583 -14.440 -19.500  1.00  0.00     0.041 C 
ATOM      3  O   UNL     1      10.773 -13.235 -19.186  1.00  0.00    -0.550 OA
ATOM      4  O   UNL     1      11.173 -15.448 -18.746  1.00  0.00    -0.550 OA
ENDBRANCH   1   2
BRANCH   1   5
ATOM      5  C   UNL     1      10.057 -13.857 -21.884  1.00  0.00     0.003 C 
ATOM      6  C   UNL     1      11.155 -14.411 -22.792  1.00  0.00     0.004 C 
ENDBRANCH   1   5
TORSDOF 2
ENDMDL
MODEL 3
REMARK VINA RESULT:    -3.105      1.468      2.021
REMARK INTER + INTRA:          -3.494
REMARK INTER:                  -3.483
REMARK INTRA:                  -0.011
REMARK UNBOUND:                -0.025
REMARK SMILES CCCC(=O)[O-]
REMARK SMILES IDX 3 1 4 2 5 3 6 4 2 5 1 6
REMARK H PARENT
REMARK Flexibility Score: inf
ROOT
ATOM      1  C   UNL     1      10.706 -14.630 -21.325  1.00  0.00     0.052 C 
ENDROOT
BRANCH   1   2
ATOM      2  C   UNL     1      10.470 -13.638 -20.229  1.00  0.00     0.041 C 
ATOM      3  O   UNL     1      10.701 -13.951 -19.031  1.00  0.00    -0.550 OA
ATOM      4  O   UNL     1       9.964 -12.378 -20.525  1.00  0.00    -0.550 OA
ENDBRANCH   1   2
BRANCH   1   5
ATOM      5  C   UNL     1      10.129 -16.009 -20.980  1.00  0.00     0.003 C 
ATOM      6  C   UNL     1      10.736 -17.123 -21.832  1.00  0.00     0.004 C 
ENDBRANCH   1   5
TORSDOF 2
ENDMDL
MODEL 4
REMARK VINA RESULT:    -3.013     15.825     16.400
REMARK INTER + INTRA:          -3.391
REMARK INTER:                  -3.352
REMARK INTRA:                  -0.038
REMARK UNBOUND:                -0.025
REMARK SMILES CCCC(=O)[O-]
REMARK SMILES IDX 3 1 4 2 5 3 6 4 2 5 1 6
REMARK H PARENT
REMARK Flexibility Score: inf
ROOT
ATOM      1  C   UNL     1      23.254  -5.716 -27.439  1.00  0.00     0.052 C 
ENDROOT
BRANCH   1   2
ATOM      2  C   UNL     1      23.399  -6.748 -26.364  1.00  0.00     0.041 C 
ATOM      3  O   UNL     1      23.047  -7.939 -26.577  1.00  0.00    -0.550 OA
ATOM      4  O   UNL     1      23.891  -6.390 -25.115  1.00  0.00    -0.550 OA
ENDBRANCH   1   2
BRANCH   1   5
ATOM      5  C   UNL     1      23.716  -6.246 -28.803  1.00  0.00     0.003 C 
ATOM      6  C   UNL     1      22.556  -6.410 -29.786  1.00  0.00     0.004 C 
ENDBRANCH   1   5
TORSDOF 2
ENDMDL
MODEL 5
REMARK VINA RESULT:    -2.989      2.488      3.203
REMARK INTER + INTRA:          -3.363
REMARK INTER:                  -3.333
REMARK INTRA:                  -0.031
REMARK UNBOUND:                -0.025
REMARK SMILES CCCC(=O)[O-]
REMARK SMILES IDX 3 1 4 2 5 3 6 4 2 5 1 6
REMARK H PARENT
REMARK Flexibility Score: inf
ROOT
ATOM      1  C   UNL     1       9.663 -14.616 -21.653  1.00  0.00     0.052 C 
ENDROOT
BRANCH   1   2
ATOM      2  C   UNL     1      10.264 -13.458 -22.389  1.00  0.00     0.041 C 
ATOM      3  O   UNL     1      11.183 -13.649 -23.228  1.00  0.00    -0.550 OA
ATOM      4  O   UNL     1       9.832 -12.164 -22.124  1.00  0.00    -0.550 OA
ENDBRANCH   1   2
BRANCH   1   5
ATOM      5  C   UNL     1       9.771 -14.442 -20.132  1.00  0.00     0.003 C 
ATOM      6  C   UNL     1      10.950 -15.215 -19.541  1.00  0.00     0.004 C 
ENDBRANCH   1   5
TORSDOF 2
ENDMDL
MODEL 6
REMARK VINA RESULT:    -2.971      2.640      3.311
REMARK INTER + INTRA:          -3.343
REMARK INTER:                  -3.337
REMARK INTRA:                  -0.006
REMARK UNBOUND:                -0.025
REMARK SMILES CCCC(=O)[O-]
REMARK SMILES IDX 3 1 4 2 5 3 6 4 2 5 1 6
REMARK H PARENT
REMARK Flexibility Score: inf
ROOT
ATOM      1  C   UNL     1      10.890 -13.702 -22.938  1.00  0.00     0.052 C 
ENDROOT
BRANCH   1   2
ATOM      2  C   UNL     1      10.118 -12.561 -22.352  1.00  0.00     0.041 C 
ATOM      3  O   UNL     1      10.038 -12.424 -21.103  1.00  0.00    -0.550 OA
ATOM      4  O   UNL     1       9.458 -11.665 -23.185  1.00  0.00    -0.550 OA
ENDBRANCH   1   2
BRANCH   1   5
ATOM      5  C   UNL     1      10.175 -14.311 -24.151  1.00  0.00     0.003 C 
ATOM      6  C   UNL     1      10.687 -15.712 -24.486  1.00  0.00     0.004 C 
ENDBRANCH   1   5
TORSDOF 2
ENDMDL
MODEL 7
REMARK VINA RESULT:    -2.969     15.943     16.312
REMARK INTER + INTRA:          -3.341
REMARK INTER:                  -3.333
REMARK INTRA:                  -0.009
REMARK UNBOUND:                -0.025
REMARK SMILES CCCC(=O)[O-]
REMARK SMILES IDX 3 1 4 2 5 3 6 4 2 5 1 6
REMARK H PARENT
REMARK Flexibility Score: inf
ROOT
ATOM      1  C   UNL     1      23.612  -7.949 -27.004  1.00  0.00     0.052 C 
ENDROOT
BRANCH   1   2
ATOM      2  C   UNL     1      23.513  -6.579 -26.408  1.00  0.00     0.041 C 
ATOM      3  O   UNL     1      23.742  -6.404 -25.182  1.00  0.00    -0.550 OA
ATOM      4  O   UNL     1      23.136  -5.500 -27.198  1.00  0.00    -0.550 OA
ENDBRANCH   1   2
BRANCH   1   5
ATOM      5  C   UNL     1      23.595  -7.905 -28.538  1.00  0.00     0.003 C 
ATOM      6  C   UNL     1      24.017  -9.235 -29.163  1.00  0.00     0.004 C 
ENDBRANCH   1   5
TORSDOF 2
ENDMDL
MODEL 8
REMARK VINA RESULT:    -2.854      6.578      7.477
REMARK INTER + INTRA:          -3.213
REMARK INTER:                  -3.185
REMARK INTRA:                  -0.027
REMARK UNBOUND:                -0.025
REMARK SMILES CCCC(=O)[O-]
REMARK SMILES IDX 3 1 4 2 5 3 6 4 2 5 1 6
REMARK H PARENT
REMARK Flexibility Score: inf
ROOT
ATOM      1  C   UNL     1       9.320  -8.445 -24.884  1.00  0.00     0.052 C 
ENDROOT
BRANCH   1   2
ATOM      2  C   UNL     1       9.842  -9.841 -24.749  1.00  0.00     0.041 C 
ATOM      3  O   UNL     1      10.074 -10.324 -23.608  1.00  0.00    -0.550 OA
ATOM      4  O   UNL     1      10.106 -10.600 -25.883  1.00  0.00    -0.550 OA
ENDBRANCH   1   2
BRANCH   1   5
ATOM      5  C   UNL     1       8.772  -8.175 -26.291  1.00  0.00     0.003 C 
ATOM      6  C   UNL     1       9.352  -6.903 -26.907  1.00  0.00     0.004 C 
ENDBRANCH   1   5
TORSDOF 2
ENDMDL
MODEL 9
REMARK VINA RESULT:    -2.794     16.017     16.925
REMARK INTER + INTRA:          -3.147
REMARK INTER:                  -3.134
REMARK INTRA:                  -0.013
REMARK UNBOUND:                -0.025
REMARK SMILES CCCC(=O)[O-]
REMARK SMILES IDX 3 1 4 2 5 3 6 4 2 5 1 6
REMARK H PARENT
REMARK Flexibility Score: inf
ROOT
ATOM      1  C   UNL     1      23.267  -5.876 -27.678  1.00  0.00     0.052 C 
ENDROOT
BRANCH   1   2
ATOM      2  C   UNL     1      23.391  -6.670 -26.415  1.00  0.00     0.041 C 
ATOM      3  O   UNL     1      23.926  -6.159 -25.395  1.00  0.00    -0.550 OA
ATOM      4  O   UNL     1      22.947  -7.986 -26.371  1.00  0.00    -0.550 OA
ENDBRANCH   1   2
BRANCH   1   5
ATOM      5  C   UNL     1      23.885  -4.479 -27.536  1.00  0.00     0.003 C 
ATOM      6  C   UNL     1      24.260  -3.868 -28.886  1.00  0.00     0.004 C 
ENDBRANCH   1   5
TORSDOF 2
ENDMDL
