MODEL 1
REMARK VINA RESULT:    -2.647      0.000      0.000
REMARK INTER + INTRA:          -2.471
REMARK INTER:                  -2.957
REMARK INTRA:                   0.486
REMARK UNBOUND:                 0.486
REMARK SMILES O=C([O-])c1ccccc1C(=O)[O-]
REMARK SMILES IDX 4 1 9 2 5 3 8 4 6 5 7 6 2 7 1 8 3 9 10 10 11 11 12 12
REMARK H PARENT
REMARK Flexibility Score: inf
ROOT
ATOM      1  C   UNL     1      22.393   2.906   6.089  1.00  0.00     0.006 A 
ATOM      2  C   UNL     1      21.904   1.831   6.881  1.00  0.00     0.006 A 
ATOM      3  C   UNL     1      21.743   4.152   6.149  1.00  0.00     0.010 A 
ATOM      4  C   UNL     1      20.822   2.061   7.752  1.00  0.00     0.010 A 
ATOM      5  C   UNL     1      20.657   4.351   7.004  1.00  0.00     0.001 A 
ATOM      6  C   UNL     1      20.206   3.311   7.813  1.00  0.00     0.001 A 
ENDROOT
BRANCH   1   7
ATOM      7  C   UNL     1      23.608   2.799   5.248  1.00  0.00     0.072 C 
ATOM      8  O   UNL     1      24.040   1.675   4.880  1.00  0.00    -0.545 OA
ATOM      9  O   UNL     1      24.325   3.942   4.909  1.00  0.00    -0.545 OA
ENDBRANCH   1   7
BRANCH   2  10
ATOM     10  C   UNL     1      22.437   0.453   6.778  1.00  0.00     0.072 C 
ATOM     11  O   UNL     1      23.408   0.094   7.497  1.00  0.00    -0.545 OA
ATOM     12  O   UNL     1      21.836  -0.479   5.940  1.00  0.00    -0.545 OA
ENDBRANCH   2  10
TORSDOF 2
ENDMDL
MODEL 2
REMARK VINA RESULT:    -2.563      2.194      3.901
REMARK INTER + INTRA:          -2.376
REMARK INTER:                  -2.504
REMARK INTRA:                   0.128
REMARK UNBOUND:                 0.486
REMARK SMILES O=C([O-])c1ccccc1C(=O)[O-]
REMARK SMILES IDX 4 1 9 2 5 3 8 4 6 5 7 6 2 7 1 8 3 9 10 10 11 11 12 12
REMARK H PARENT
REMARK Flexibility Score: inf
ROOT
ATOM      1  C   UNL     1      21.562   2.660   6.827  1.00  0.00     0.006 A 
ATOM      2  C   UNL     1      22.793   2.470   6.141  1.00  0.00     0.006 A 
ATOM      3  C   UNL     1      20.857   1.535   7.292  1.00  0.00     0.010 A 
ATOM      4  C   UNL     1      23.305   1.165   6.003  1.00  0.00     0.010 A 
ATOM      5  C   UNL     1      21.373   0.249   7.125  1.00  0.00     0.001 A 
ATOM      6  C   UNL     1      22.600   0.066   6.493  1.00  0.00     0.001 A 
ENDROOT
BRANCH   1   7
ATOM      7  C   UNL     1      21.013   4.000   7.140  1.00  0.00     0.072 C 
ATOM      8  O   UNL     1      21.428   4.650   8.135  1.00  0.00    -0.545 OA
ATOM      9  O   UNL     1      19.979   4.526   6.372  1.00  0.00    -0.545 OA
ENDBRANCH   1   7
BRANCH   2  10
ATOM     10  C   UNL     1      23.531   3.580   5.497  1.00  0.00     0.072 C 
ATOM     11  O   UNL     1      22.907   4.481   4.875  1.00  0.00    -0.545 OA
ATOM     12  O   UNL     1      24.912   3.682   5.625  1.00  0.00    -0.545 OA
ENDBRANCH   2  10
TORSDOF 2
ENDMDL
MODEL 3
REMARK VINA RESULT:    -2.522      2.178      3.238
REMARK INTER + INTRA:          -2.330
REMARK INTER:                  -2.426
REMARK INTRA:                   0.095
REMARK UNBOUND:                 0.486
REMARK SMILES O=C([O-])c1ccccc1C(=O)[O-]
REMARK SMILES IDX 4 1 9 2 5 3 8 4 6 5 7 6 2 7 1 8 3 9 10 10 11 11 12 12
REMARK H PARENT
REMARK Flexibility Score: inf
ROOT
ATOM      1  C   UNL     1      22.784   2.459   6.167  1.00  0.00     0.006 A 
ATOM      2  C   UNL     1      21.552   2.633   6.856  1.00  0.00     0.006 A 
ATOM      3  C   UNL     1      23.304   1.162   6.011  1.00  0.00     0.010 A 
ATOM      4  C   UNL     1      20.854   1.495   7.305  1.00  0.00     0.010 A 
ATOM      5  C   UNL     1      22.605   0.050   6.484  1.00  0.00     0.001 A 
ATOM      6  C   UNL     1      21.377   0.216   7.119  1.00  0.00     0.001 A 
ENDROOT
BRANCH   1   7
ATOM      7  C   UNL     1      23.521   3.581   5.539  1.00  0.00     0.072 C 
ATOM      8  O   UNL     1      22.912   4.461   4.875  1.00  0.00    -0.545 OA
ATOM      9  O   UNL     1      24.908   3.636   5.621  1.00  0.00    -0.545 OA
ENDBRANCH   1   7
BRANCH   2  10
ATOM     10  C   UNL     1      21.000   3.966   7.187  1.00  0.00     0.072 C 
ATOM     11  O   UNL     1      21.443   4.608   8.177  1.00  0.00    -0.545 OA
ATOM     12  O   UNL     1      20.037   4.557   6.377  1.00  0.00    -0.545 OA
ENDBRANCH   2  10
TORSDOF 2
ENDMDL
MODEL 4
REMARK VINA RESULT:    -1.842      2.191      4.078
REMARK INTER + INTRA:          -1.571
REMARK INTER:                  -2.654
REMARK INTRA:                   1.084
REMARK UNBOUND:                 0.486
REMARK SMILES O=C([O-])c1ccccc1C(=O)[O-]
REMARK SMILES IDX 4 1 9 2 5 3 8 4 6 5 7 6 2 7 1 8 3 9 10 10 11 11 12 12
REMARK H PARENT
REMARK Flexibility Score: inf
ROOT
ATOM      1  C   UNL     1      22.477   1.753   6.258  1.00  0.00     0.006 A 
ATOM      2  C   UNL     1      22.096   3.124   6.256  1.00  0.00     0.006 A 
ATOM      3  C   UNL     1      23.624   1.361   5.543  1.00  0.00     0.010 A 
ATOM      4  C   UNL     1      22.914   4.060   5.594  1.00  0.00     0.010 A 
ATOM      5  C   UNL     1      24.407   2.304   4.875  1.00  0.00     0.001 A 
ATOM      6  C   UNL     1      24.059   3.652   4.911  1.00  0.00     0.001 A 
ENDROOT
BRANCH   1   7
ATOM      7  C   UNL     1      21.759   0.719   7.038  1.00  0.00     0.072 C 
ATOM      8  O   UNL     1      20.868   1.040   7.867  1.00  0.00    -0.545 OA
ATOM      9  O   UNL     1      22.112  -0.620   6.909  1.00  0.00    -0.545 OA
ENDBRANCH   1   7
BRANCH   2  10
ATOM     10  C   UNL     1      20.834   3.605   6.862  1.00  0.00     0.072 C 
ATOM     11  O   UNL     1      19.879   3.976   6.129  1.00  0.00    -0.545 OA
ATOM     12  O   UNL     1      20.660   3.593   8.242  1.00  0.00    -0.545 OA
ENDBRANCH   2  10
TORSDOF 2
ENDMDL
MODEL 5
REMARK VINA RESULT:    -1.823      2.204      3.265
REMARK INTER + INTRA:          -1.550
REMARK INTER:                  -2.477
REMARK INTRA:                   0.927
REMARK UNBOUND:                 0.486
REMARK SMILES O=C([O-])c1ccccc1C(=O)[O-]
REMARK SMILES IDX 4 1 9 2 5 3 8 4 6 5 7 6 2 7 1 8 3 9 10 10 11 11 12 12
REMARK H PARENT
REMARK Flexibility Score: inf
ROOT
ATOM      1  C   UNL     1      22.100   3.103   6.277  1.00  0.00     0.006 A 
ATOM      2  C   UNL     1      22.475   1.731   6.281  1.00  0.00     0.006 A 
ATOM      3  C   UNL     1      22.912   4.033   5.603  1.00  0.00     0.010 A 
ATOM      4  C   UNL     1      23.614   1.332   5.555  1.00  0.00     0.010 A 
ATOM      5  C   UNL     1      24.049   3.617   4.909  1.00  0.00     0.001 A 
ATOM      6  C   UNL     1      24.392   2.268   4.875  1.00  0.00     0.001 A 
ENDROOT
BRANCH   1   7
ATOM      7  C   UNL     1      20.847   3.597   6.895  1.00  0.00     0.072 C 
ATOM      8  O   UNL     1      19.878   3.967   6.181  1.00  0.00    -0.545 OA
ATOM      9  O   UNL     1      20.754   3.720   8.277  1.00  0.00    -0.545 OA
ENDBRANCH   1   7
BRANCH   2  10
ATOM     10  C   UNL     1      21.760   0.707   7.077  1.00  0.00     0.072 C 
ATOM     11  O   UNL     1      20.851   1.048   7.880  1.00  0.00    -0.545 OA
ATOM     12  O   UNL     1      22.034  -0.645   6.903  1.00  0.00    -0.545 OA
ENDBRANCH   2  10
TORSDOF 2
ENDMDL
MODEL 6
REMARK VINA RESULT:    -0.949     20.632     22.039
REMARK INTER + INTRA:          -0.574
REMARK INTER:                  -0.486
REMARK INTRA:                  -0.088
REMARK UNBOUND:                 0.486
REMARK SMILES O=C([O-])c1ccccc1C(=O)[O-]
REMARK SMILES IDX 4 1 9 2 5 3 8 4 6 5 7 6 2 7 1 8 3 9 10 10 11 11 12 12
REMARK H PARENT
REMARK Flexibility Score: inf
ROOT
ATOM      1  C   UNL     1      34.609  -4.739  22.884  1.00  0.00     0.006 A 
ATOM      2  C   UNL     1      35.878  -5.078  22.340  1.00  0.00     0.006 A 
ATOM      3  C   UNL     1      34.424  -4.796  24.278  1.00  0.00     0.010 A 
ATOM      4  C   UNL     1      36.934  -5.399  23.215  1.00  0.00     0.010 A 
ATOM      5  C   UNL     1      35.479  -5.137  25.125  1.00  0.00     0.001 A 
ATOM      6  C   UNL     1      36.734  -5.427  24.595  1.00  0.00     0.001 A 
ENDROOT
BRANCH   1   7
ATOM      7  C   UNL     1      33.480  -4.257  22.055  1.00  0.00     0.072 C 
ATOM      8  O   UNL     1      33.543  -3.148  21.461  1.00  0.00    -0.545 OA
ATOM      9  O   UNL     1      32.306  -4.998  21.978  1.00  0.00    -0.545 OA
ENDBRANCH   1   7
BRANCH   2  10
ATOM     10  C   UNL     1      36.124  -5.180  20.883  1.00  0.00     0.072 C 
ATOM     11  O   UNL     1      36.386  -4.148  20.210  1.00  0.00    -0.545 OA
ATOM     12  O   UNL     1      36.135  -6.419  20.251  1.00  0.00    -0.545 OA
ENDBRANCH   2  10
TORSDOF 2
ENDMDL
MODEL 7
REMARK VINA RESULT:    -0.852     20.638     21.972
REMARK INTER + INTRA:          -0.466
REMARK INTER:                  -0.348
REMARK INTRA:                  -0.118
REMARK UNBOUND:                 0.486
REMARK SMILES O=C([O-])c1ccccc1C(=O)[O-]
REMARK SMILES IDX 4 1 9 2 5 3 8 4 6 5 7 6 2 7 1 8 3 9 10 10 11 11 12 12
REMARK H PARENT
REMARK Flexibility Score: inf
ROOT
ATOM      1  C   UNL     1      35.878  -5.070  22.330  1.00  0.00     0.006 A 
ATOM      2  C   UNL     1      34.613  -4.780  22.912  1.00  0.00     0.006 A 
ATOM      3  C   UNL     1      36.967  -5.364  23.171  1.00  0.00     0.010 A 
ATOM      4  C   UNL     1      34.470  -4.860  24.311  1.00  0.00     0.010 A 
ATOM      5  C   UNL     1      36.807  -5.416  24.556  1.00  0.00     0.001 A 
ATOM      6  C   UNL     1      35.558  -5.176  25.124  1.00  0.00     0.001 A 
ENDROOT
BRANCH   1   7
ATOM      7  C   UNL     1      36.093  -5.145  20.866  1.00  0.00     0.072 C 
ATOM      8  O   UNL     1      36.061  -6.252  20.266  1.00  0.00    -0.545 OA
ATOM      9  O   UNL     1      36.399  -3.996  20.147  1.00  0.00    -0.545 OA
ENDBRANCH   1   7
BRANCH   2  10
ATOM     10  C   UNL     1      33.450  -4.326  22.116  1.00  0.00     0.072 C 
ATOM     11  O   UNL     1      32.376  -4.986  22.129  1.00  0.00    -0.545 OA
ATOM     12  O   UNL     1      33.503  -3.137  21.398  1.00  0.00    -0.545 OA
ENDBRANCH   2  10
TORSDOF 2
ENDMDL
MODEL 8
REMARK VINA RESULT:    -0.313     20.938     22.260
REMARK INTER + INTRA:           0.137
REMARK INTER:                   0.204
REMARK INTRA:                  -0.068
REMARK UNBOUND:                 0.486
REMARK SMILES O=C([O-])c1ccccc1C(=O)[O-]
REMARK SMILES IDX 4 1 9 2 5 3 8 4 6 5 7 6 2 7 1 8 3 9 10 10 11 11 12 12
REMARK H PARENT
REMARK Flexibility Score: inf
ROOT
ATOM      1  C   UNL     1      34.407  -5.304  22.510  1.00  0.00     0.006 A 
ATOM      2  C   UNL     1      34.231  -5.587  23.893  1.00  0.00     0.006 A 
ATOM      3  C   UNL     1      33.296  -4.897  21.748  1.00  0.00     0.010 A 
ATOM      4  C   UNL     1      32.965  -5.388  24.476  1.00  0.00     0.010 A 
ATOM      5  C   UNL     1      32.045  -4.727  22.344  1.00  0.00     0.001 A 
ATOM      6  C   UNL     1      31.883  -4.961  23.707  1.00  0.00     0.001 A 
ENDROOT
BRANCH   1   7
ATOM      7  C   UNL     1      35.726  -5.352  21.838  1.00  0.00     0.072 C 
ATOM      8  O   UNL     1      36.271  -4.300  21.411  1.00  0.00    -0.545 OA
ATOM      9  O   UNL     1      36.350  -6.574  21.613  1.00  0.00    -0.545 OA
ENDBRANCH   1   7
BRANCH   2  10
ATOM     10  C   UNL     1      35.308  -6.152  24.737  1.00  0.00     0.072 C 
ATOM     11  O   UNL     1      35.248  -7.350  25.125  1.00  0.00    -0.545 OA
ATOM     12  O   UNL     1      36.429  -5.395  25.059  1.00  0.00    -0.545 OA
ENDBRANCH   2  10
TORSDOF 2
ENDMDL
