MODEL 1
REMARK VINA RESULT:    93.248      0.000      0.000
REMARK INTER + INTRA:         100.992
REMARK INTER:                 101.425
REMARK INTRA:                  -0.433
REMARK UNBOUND:                -0.433
REMARK SMILES C=C(C)[C@H]1CC[C@]2(C)CC[C@@]3(C)[C@H](CC[C@@H]4[C@]5(C)CC[C@@H](O)C(C)(C)[C@@H]5CC[C@@]43C)[C@H]12
REMARK SMILES IDX 4 1 5 2 6 3 7 4 31 5 13 6 14 7 15 8 16 9 17 10 19 11 20 12
REMARK SMILES IDX 21 13 23 14 26 15 27 16 28 17 29 18 11 19 10 20 9 21 12 22
REMARK SMILES IDX 30 23 24 24 25 25 18 26 8 27 2 28 3 29 1 30 22 31
REMARK H PARENT 22 32
REMARK Flexibility Score: inf
ROOT
ATOM      1  C   UNL     1     -20.706  26.742  -3.922  1.00  0.00     0.018 C 
ATOM      2  C   UNL     1     -19.208  26.463  -4.014  1.00  0.00     0.009 C 
ATOM      3  C   UNL     1     -18.876  26.593  -5.492  1.00  0.00     0.008 C 
ATOM      4  C   UNL     1     -20.104  26.039  -6.252  1.00  0.00    -0.029 C 
ATOM      5  C   UNL     1     -21.303  26.318  -5.294  1.00  0.00     0.006 C 
ATOM      6  C   UNL     1     -22.371  27.315  -5.869  1.00  0.00    -0.000 C 
ATOM      7  C   UNL     1     -21.910  28.806  -5.877  1.00  0.00     0.005 C 
ATOM      8  C   UNL     1     -22.154  29.601  -7.171  1.00  0.00     0.005 C 
ATOM      9  C   UNL     1     -23.512  29.355  -7.891  1.00  0.00     0.002 C 
ATOM     10  C   UNL     1     -24.575  30.568  -7.703  1.00  0.00    -0.026 C 
ATOM     11  C   UNL     1     -24.568  31.259  -6.274  1.00  0.00     0.010 C 
ATOM     12  C   UNL     1     -25.830  31.093  -5.405  1.00  0.00     0.033 C 
ATOM     13  C   UNL     1     -27.167  31.453  -6.107  1.00  0.00     0.120 C 
ATOM     14  C   UNL     1     -27.182  31.186  -7.657  1.00  0.00    -0.006 C 
ATOM     15  C   UNL     1     -26.061  30.120  -8.042  1.00  0.00     0.003 C 
ATOM     16  C   UNL     1     -26.429  28.720  -7.437  1.00  0.00     0.005 C 
ATOM     17  C   UNL     1     -25.271  27.882  -6.891  1.00  0.00     0.008 C 
ATOM     18  C   UNL     1     -24.032  27.862  -7.815  1.00  0.00    -0.024 C 
ATOM     19  C   UNL     1     -22.909  26.834  -7.261  1.00  0.00    -0.024 C 
ATOM     20  C   UNL     1     -21.686  26.668  -8.256  1.00  0.00     0.008 C 
ATOM     21  C   UNL     1     -20.259  26.722  -7.640  1.00  0.00     0.007 C 
ATOM     22  C   UNL     1     -23.553  25.415  -7.079  1.00  0.00     0.012 C 
ATOM     23  C   UNL     1     -24.514  27.390  -9.238  1.00  0.00     0.012 C 
ATOM     24  C   UNL     1     -28.586  30.648  -8.073  1.00  0.00     0.014 C 
ATOM     25  C   UNL     1     -27.025  32.513  -8.454  1.00  0.00     0.014 C 
ATOM     26  C   UNL     1     -24.089  31.639  -8.748  1.00  0.00     0.012 C 
ATOM     27  C   UNL     1     -19.888  24.518  -6.468  1.00  0.00     0.011 C 
ENDROOT
BRANCH   1  28
ATOM     28  C   UNL     1     -21.372  26.059  -2.731  1.00  0.00    -0.077 C 
ATOM     29  C   UNL     1     -22.245  26.821  -1.764  1.00  0.00     0.039 C 
ATOM     30  C   UNL     1     -21.157  24.754  -2.498  1.00  0.00     0.008 C 
ENDBRANCH   1  28
BRANCH  13  31
ATOM     31  O   UNL     1     -27.594  32.758  -5.784  1.00  0.00    -0.393 OA
ATOM     32  H   UNL     1     -28.358  32.692  -5.154  1.00  0.00     0.210 HD
ENDBRANCH  13  31
TORSDOF 2
ENDMDL
MODEL 2
REMARK VINA RESULT:    94.488      4.151      6.783
REMARK INTER + INTRA:         102.340
REMARK INTER:                 102.791
REMARK INTRA:                  -0.451
REMARK UNBOUND:                -0.433
REMARK SMILES C=C(C)[C@H]1CC[C@]2(C)CC[C@@]3(C)[C@H](CC[C@@H]4[C@]5(C)CC[C@@H](O)C(C)(C)[C@@H]5CC[C@@]43C)[C@H]12
REMARK SMILES IDX 4 1 5 2 6 3 7 4 31 5 13 6 14 7 15 8 16 9 17 10 19 11 20 12
REMARK SMILES IDX 21 13 23 14 26 15 27 16 28 17 29 18 11 19 10 20 9 21 12 22
REMARK SMILES IDX 30 23 24 24 25 25 18 26 8 27 2 28 3 29 1 30 22 31
REMARK H PARENT 22 32
REMARK Flexibility Score: inf
ROOT
ATOM      1  C   UNL     1     -24.832  33.631  -2.948  1.00  0.00     0.018 C 
ATOM      2  C   UNL     1     -24.477  33.161  -1.540  1.00  0.00     0.009 C 
ATOM      3  C   UNL     1     -24.922  31.707  -1.490  1.00  0.00     0.008 C 
ATOM      4  C   UNL     1     -26.213  31.630  -2.337  1.00  0.00    -0.029 C 
ATOM      5  C   UNL     1     -26.045  32.765  -3.393  1.00  0.00     0.006 C 
ATOM      6  C   UNL     1     -25.967  32.260  -4.878  1.00  0.00    -0.000 C 
ATOM      7  C   UNL     1     -24.610  31.586  -5.249  1.00  0.00     0.005 C 
ATOM      8  C   UNL     1     -24.682  30.251  -6.010  1.00  0.00     0.005 C 
ATOM      9  C   UNL     1     -25.767  30.143  -7.121  1.00  0.00     0.002 C 
ATOM     10  C   UNL     1     -25.165  30.234  -8.627  1.00  0.00    -0.026 C 
ATOM     11  C   UNL     1     -23.959  31.249  -8.814  1.00  0.00     0.010 C 
ATOM     12  C   UNL     1     -24.207  32.480  -9.705  1.00  0.00     0.033 C 
ATOM     13  C   UNL     1     -24.799  32.172 -11.107  1.00  0.00     0.120 C 
ATOM     14  C   UNL     1     -25.731  30.906 -11.158  1.00  0.00    -0.006 C 
ATOM     15  C   UNL     1     -26.286  30.573  -9.701  1.00  0.00     0.003 C 
ATOM     16  C   UNL     1     -27.256  31.711  -9.230  1.00  0.00     0.005 C 
ATOM     17  C   UNL     1     -27.187  32.106  -7.753  1.00  0.00     0.008 C 
ATOM     18  C   UNL     1     -27.119  30.898  -6.791  1.00  0.00    -0.024 C 
ATOM     19  C   UNL     1     -27.209  31.377  -5.246  1.00  0.00    -0.024 C 
ATOM     20  C   UNL     1     -27.296  30.162  -4.231  1.00  0.00     0.008 C 
ATOM     21  C   UNL     1     -26.381  30.222  -2.975  1.00  0.00     0.007 C 
ATOM     22  C   UNL     1     -28.505  32.239  -5.048  1.00  0.00     0.012 C 
ATOM     23  C   UNL     1     -28.346  29.967  -7.120  1.00  0.00     0.012 C 
ATOM     24  C   UNL     1     -26.924  31.184 -12.125  1.00  0.00     0.014 C 
ATOM     25  C   UNL     1     -24.991  29.693 -11.793  1.00  0.00     0.014 C 
ATOM     26  C   UNL     1     -24.606  28.784  -8.879  1.00  0.00     0.012 C 
ATOM     27  C   UNL     1     -27.420  31.897  -1.399  1.00  0.00     0.011 C 
ENDROOT
BRANCH   1  28
ATOM     28  C   UNL     1     -25.092  35.132  -3.031  1.00  0.00    -0.077 C 
ATOM     29  C   UNL     1     -26.405  35.684  -3.531  1.00  0.00     0.039 C 
ATOM     30  C   UNL     1     -24.128  36.001  -2.689  1.00  0.00     0.008 C 
ENDBRANCH   1  28
BRANCH  13  31
ATOM     31  O   UNL     1     -23.800  32.142 -12.103  1.00  0.00    -0.393 OA
ATOM     32  H   UNL     1     -24.237  32.231 -12.990  1.00  0.00     0.210 HD
ENDBRANCH  13  31
TORSDOF 2
ENDMDL
