MODEL 1
REMARK VINA RESULT:    -4.763      0.000      0.000
REMARK INTER + INTRA:          -4.763
REMARK INTER:                  -4.763
REMARK INTRA:                   0.000
REMARK UNBOUND:                 0.000
REMARK SMILES c1ccc2ccccc2c1
REMARK SMILES IDX 2 1 1 2 10 3 9 4 8 5 7 6 6 7 5 8 4 9 3 10
REMARK H PARENT
REMARK Flexibility Score: inf
ROOT
ATOM      1  C   UNL     1      -5.843 -19.412   3.761  1.00  0.00     0.001 A 
ATOM      2  C   UNL     1      -5.354 -18.136   3.470  1.00  0.00     0.001 A 
ATOM      3  C   UNL     1      -5.113 -17.222   4.500  1.00  0.00     0.009 A 
ATOM      4  C   UNL     1      -5.362 -17.582   5.833  1.00  0.00    -0.018 A 
ATOM      5  C   UNL     1      -5.124 -16.675   6.877  1.00  0.00     0.009 A 
ATOM      6  C   UNL     1      -5.377 -17.046   8.201  1.00  0.00     0.001 A 
ATOM      7  C   UNL     1      -5.867 -18.322   8.493  1.00  0.00     0.001 A 
ATOM      8  C   UNL     1      -6.108 -19.236   7.462  1.00  0.00     0.009 A 
ATOM      9  C   UNL     1      -5.859 -18.875   6.129  1.00  0.00    -0.018 A 
ATOM     10  C   UNL     1      -6.097 -19.783   5.085  1.00  0.00     0.009 A 
ENDROOT
TORSDOF 0
ENDMDL
MODEL 2
REMARK VINA RESULT:    -4.692      0.358      2.102
REMARK INTER + INTRA:          -4.692
REMARK INTER:                  -4.692
REMARK INTRA:                   0.000
REMARK UNBOUND:                 0.000
REMARK SMILES c1ccc2ccccc2c1
REMARK SMILES IDX 2 1 1 2 10 3 9 4 8 5 7 6 6 7 5 8 4 9 3 10
REMARK H PARENT
REMARK Flexibility Score: inf
ROOT
ATOM      1  C   UNL     1      -5.173 -18.190   3.238  1.00  0.00     0.001 A 
ATOM      2  C   UNL     1      -5.811 -19.379   3.602  1.00  0.00     0.001 A 
ATOM      3  C   UNL     1      -6.125 -19.629   4.941  1.00  0.00     0.009 A 
ATOM      4  C   UNL     1      -5.802 -18.685   5.928  1.00  0.00    -0.018 A 
ATOM      5  C   UNL     1      -6.112 -18.923   7.276  1.00  0.00     0.009 A 
ATOM      6  C   UNL     1      -5.783 -17.975   8.250  1.00  0.00     0.001 A 
ATOM      7  C   UNL     1      -5.145 -16.785   7.886  1.00  0.00     0.001 A 
ATOM      8  C   UNL     1      -4.831 -16.536   6.547  1.00  0.00     0.009 A 
ATOM      9  C   UNL     1      -5.154 -17.480   5.560  1.00  0.00    -0.018 A 
ATOM     10  C   UNL     1      -4.844 -17.242   4.212  1.00  0.00     0.009 A 
ENDROOT
TORSDOF 0
ENDMDL
MODEL 3
REMARK VINA RESULT:    -4.655      0.531      3.448
REMARK INTER + INTRA:          -4.655
REMARK INTER:                  -4.655
REMARK INTRA:                   0.000
REMARK UNBOUND:                 0.000
REMARK SMILES c1ccc2ccccc2c1
REMARK SMILES IDX 2 1 1 2 10 3 9 4 8 5 7 6 6 7 5 8 4 9 3 10
REMARK H PARENT
REMARK Flexibility Score: inf
ROOT
ATOM      1  C   UNL     1      -6.057 -18.840   8.774  1.00  0.00     0.001 A 
ATOM      2  C   UNL     1      -5.694 -17.491   8.723  1.00  0.00     0.001 A 
ATOM      3  C   UNL     1      -5.396 -16.888   7.498  1.00  0.00     0.009 A 
ATOM      4  C   UNL     1      -5.460 -17.634   6.312  1.00  0.00    -0.018 A 
ATOM      5  C   UNL     1      -5.163 -17.040   5.075  1.00  0.00     0.009 A 
ATOM      6  C   UNL     1      -5.230 -17.795   3.900  1.00  0.00     0.001 A 
ATOM      7  C   UNL     1      -5.593 -19.144   3.950  1.00  0.00     0.001 A 
ATOM      8  C   UNL     1      -5.891 -19.747   5.175  1.00  0.00     0.009 A 
ATOM      9  C   UNL     1      -5.827 -19.001   6.362  1.00  0.00    -0.018 A 
ATOM     10  C   UNL     1      -6.124 -19.595   7.599  1.00  0.00     0.009 A 
ENDROOT
TORSDOF 0
ENDMDL
MODEL 4
REMARK VINA RESULT:    -4.628      0.956      3.913
REMARK INTER + INTRA:          -4.628
REMARK INTER:                  -4.628
REMARK INTRA:                   0.000
REMARK UNBOUND:                 0.000
REMARK SMILES c1ccc2ccccc2c1
REMARK SMILES IDX 2 1 1 2 10 3 9 4 8 5 7 6 6 7 5 8 4 9 3 10
REMARK H PARENT
REMARK Flexibility Score: inf
ROOT
ATOM      1  C   UNL     1      -4.205 -15.629   6.877  1.00  0.00     0.001 A 
ATOM      2  C   UNL     1      -4.838 -16.393   7.860  1.00  0.00     0.001 A 
ATOM      3  C   UNL     1      -5.477 -17.589   7.519  1.00  0.00     0.009 A 
ATOM      4  C   UNL     1      -5.484 -18.028   6.187  1.00  0.00    -0.018 A 
ATOM      5  C   UNL     1      -6.121 -19.228   5.831  1.00  0.00     0.009 A 
ATOM      6  C   UNL     1      -6.122 -19.654   4.499  1.00  0.00     0.001 A 
ATOM      7  C   UNL     1      -5.488 -18.889   3.516  1.00  0.00     0.001 A 
ATOM      8  C   UNL     1      -4.850 -17.693   3.857  1.00  0.00     0.009 A 
ATOM      9  C   UNL     1      -4.843 -17.254   5.189  1.00  0.00    -0.018 A 
ATOM     10  C   UNL     1      -4.205 -16.054   5.545  1.00  0.00     0.009 A 
ENDROOT
TORSDOF 0
ENDMDL
MODEL 5
REMARK VINA RESULT:    -4.585      1.000      3.465
REMARK INTER + INTRA:          -4.585
REMARK INTER:                  -4.585
REMARK INTRA:                   0.000
REMARK UNBOUND:                 0.000
REMARK SMILES c1ccc2ccccc2c1
REMARK SMILES IDX 2 1 1 2 10 3 9 4 8 5 7 6 6 7 5 8 4 9 3 10
REMARK H PARENT
REMARK Flexibility Score: inf
ROOT
ATOM      1  C   UNL     1      -4.760 -16.313   7.751  1.00  0.00     0.001 A 
ATOM      2  C   UNL     1      -4.100 -15.580   6.761  1.00  0.00     0.001 A 
ATOM      3  C   UNL     1      -4.107 -16.022   5.435  1.00  0.00     0.009 A 
ATOM      4  C   UNL     1      -4.778 -17.205   5.091  1.00  0.00    -0.018 A 
ATOM      5  C   UNL     1      -4.793 -17.660   3.763  1.00  0.00     0.009 A 
ATOM      6  C   UNL     1      -5.464 -18.841   3.433  1.00  0.00     0.001 A 
ATOM      7  C   UNL     1      -6.125 -19.574   4.423  1.00  0.00     0.001 A 
ATOM      8  C   UNL     1      -6.118 -19.132   5.749  1.00  0.00     0.009 A 
ATOM      9  C   UNL     1      -5.447 -17.949   6.093  1.00  0.00    -0.018 A 
ATOM     10  C   UNL     1      -5.432 -17.494   7.421  1.00  0.00     0.009 A 
ENDROOT
TORSDOF 0
ENDMDL
MODEL 6
REMARK VINA RESULT:    -4.576      0.905      1.462
REMARK INTER + INTRA:          -4.576
REMARK INTER:                  -4.576
REMARK INTRA:                   0.000
REMARK UNBOUND:                 0.000
REMARK SMILES c1ccc2ccccc2c1
REMARK SMILES IDX 2 1 1 2 10 3 9 4 8 5 7 6 6 7 5 8 4 9 3 10
REMARK H PARENT
REMARK Flexibility Score: inf
ROOT
ATOM      1  C   UNL     1      -6.125 -19.825   4.722  1.00  0.00     0.001 A 
ATOM      2  C   UNL     1      -5.615 -19.053   3.674  1.00  0.00     0.001 A 
ATOM      3  C   UNL     1      -5.030 -17.811   3.935  1.00  0.00     0.009 A 
ATOM      4  C   UNL     1      -4.952 -17.332   5.251  1.00  0.00    -0.018 A 
ATOM      5  C   UNL     1      -4.366 -16.085   5.526  1.00  0.00     0.009 A 
ATOM      6  C   UNL     1      -4.295 -15.619   6.842  1.00  0.00     0.001 A 
ATOM      7  C   UNL     1      -4.805 -16.390   7.890  1.00  0.00     0.001 A 
ATOM      8  C   UNL     1      -5.390 -17.633   7.630  1.00  0.00     0.009 A 
ATOM      9  C   UNL     1      -5.469 -18.112   6.314  1.00  0.00    -0.018 A 
ATOM     10  C   UNL     1      -6.054 -19.358   6.038  1.00  0.00     0.009 A 
ENDROOT
TORSDOF 0
ENDMDL
MODEL 7
REMARK VINA RESULT:    -4.447      1.153      2.998
REMARK INTER + INTRA:          -4.447
REMARK INTER:                  -4.447
REMARK INTRA:                   0.000
REMARK UNBOUND:                 0.000
REMARK SMILES c1ccc2ccccc2c1
REMARK SMILES IDX 2 1 1 2 10 3 9 4 8 5 7 6 6 7 5 8 4 9 3 10
REMARK H PARENT
REMARK Flexibility Score: inf
ROOT
ATOM      1  C   UNL     1      -6.124 -19.935   7.762  1.00  0.00     0.001 A 
ATOM      2  C   UNL     1      -5.792 -20.411   6.490  1.00  0.00     0.001 A 
ATOM      3  C   UNL     1      -5.210 -19.556   5.549  1.00  0.00     0.009 A 
ATOM      4  C   UNL     1      -4.956 -18.216   5.877  1.00  0.00    -0.018 A 
ATOM      5  C   UNL     1      -4.371 -17.348   4.942  1.00  0.00     0.009 A 
ATOM      6  C   UNL     1      -4.125 -16.014   5.281  1.00  0.00     0.001 A 
ATOM      7  C   UNL     1      -4.457 -15.538   6.552  1.00  0.00     0.001 A 
ATOM      8  C   UNL     1      -5.039 -16.393   7.493  1.00  0.00     0.009 A 
ATOM      9  C   UNL     1      -5.293 -17.733   7.165  1.00  0.00    -0.018 A 
ATOM     10  C   UNL     1      -5.878 -18.601   8.101  1.00  0.00     0.009 A 
ENDROOT
TORSDOF 0
ENDMDL
MODEL 8
REMARK VINA RESULT:    -4.385      1.187      3.027
REMARK INTER + INTRA:          -4.385
REMARK INTER:                  -4.385
REMARK INTRA:                   0.000
REMARK UNBOUND:                 0.000
REMARK SMILES c1ccc2ccccc2c1
REMARK SMILES IDX 2 1 1 2 10 3 9 4 8 5 7 6 6 7 5 8 4 9 3 10
REMARK H PARENT
REMARK Flexibility Score: inf
ROOT
ATOM      1  C   UNL     1      -5.766 -20.552   6.797  1.00  0.00     0.001 A 
ATOM      2  C   UNL     1      -6.125 -19.958   8.010  1.00  0.00     0.001 A 
ATOM      3  C   UNL     1      -5.929 -18.588   8.209  1.00  0.00     0.009 A 
ATOM      4  C   UNL     1      -5.370 -17.802   7.190  1.00  0.00    -0.018 A 
ATOM      5  C   UNL     1      -5.168 -16.425   7.377  1.00  0.00     0.009 A 
ATOM      6  C   UNL     1      -4.609 -15.653   6.354  1.00  0.00     0.001 A 
ATOM      7  C   UNL     1      -4.251 -16.247   5.140  1.00  0.00     0.001 A 
ATOM      8  C   UNL     1      -4.447 -17.616   4.941  1.00  0.00     0.009 A 
ATOM      9  C   UNL     1      -5.006 -18.403   5.960  1.00  0.00    -0.018 A 
ATOM     10  C   UNL     1      -5.208 -19.780   5.774  1.00  0.00     0.009 A 
ENDROOT
TORSDOF 0
ENDMDL
MODEL 9
REMARK VINA RESULT:    -4.165      4.879      6.569
REMARK INTER + INTRA:          -4.165
REMARK INTER:                  -4.165
REMARK INTRA:                   0.000
REMARK UNBOUND:                 0.000
REMARK SMILES c1ccc2ccccc2c1
REMARK SMILES IDX 2 1 1 2 10 3 9 4 8 5 7 6 6 7 5 8 4 9 3 10
REMARK H PARENT
REMARK Flexibility Score: inf
ROOT
ATOM      1  C   UNL     1      -3.881 -14.971   6.212  1.00  0.00     0.001 A 
ATOM      2  C   UNL     1      -3.301 -15.982   5.441  1.00  0.00     0.001 A 
ATOM      3  C   UNL     1      -2.166 -15.715   4.669  1.00  0.00     0.009 A 
ATOM      4  C   UNL     1      -1.603 -14.431   4.666  1.00  0.00    -0.018 A 
ATOM      5  C   UNL     1      -0.463 -14.149   3.896  1.00  0.00     0.009 A 
ATOM      6  C   UNL     1       0.087 -12.864   3.901  1.00  0.00     0.001 A 
ATOM      7  C   UNL     1      -0.493 -11.853   4.672  1.00  0.00     0.001 A 
ATOM      8  C   UNL     1      -1.628 -12.120   5.443  1.00  0.00     0.009 A 
ATOM      9  C   UNL     1      -2.191 -13.405   5.447  1.00  0.00    -0.018 A 
ATOM     10  C   UNL     1      -3.331 -13.686   6.216  1.00  0.00     0.009 A 
ENDROOT
TORSDOF 0
ENDMDL
