MODEL 1
REMARK VINA RESULT:    -1.719      0.000      0.000
REMARK INTER + INTRA:          -2.898
REMARK INTER:                  -2.422
REMARK INTRA:                  -0.476
REMARK UNBOUND:                -0.476
REMARK SMILES CCCCCCCCC(=O)[O-]
REMARK SMILES IDX 6 1 7 2 8 3 9 4 10 5 11 6 5 7 4 8 3 9 2 10 1 11
REMARK H PARENT
REMARK Flexibility Score: inf
ROOT
ATOM      1  C   UNL     1     172.660 177.102 194.917  1.00  0.00     0.000 C 
ENDROOT
BRANCH   1   2
ATOM      2  C   UNL     1     173.113 178.476 195.436  1.00  0.00     0.006 C 
BRANCH   2   3
ATOM      3  C   UNL     1     173.912 178.334 196.734  1.00  0.00     0.053 C 
BRANCH   3   4
ATOM      4  C   UNL     1     173.004 178.419 197.920  1.00  0.00     0.041 C 
ATOM      5  O   UNL     1     172.619 177.370 198.500  1.00  0.00    -0.550 OA
ATOM      6  O   UNL     1     172.623 179.660 198.416  1.00  0.00    -0.550 OA
ENDBRANCH   3   4
ENDBRANCH   2   3
ENDBRANCH   1   2
BRANCH   1   7
ATOM      7  C   UNL     1     172.089 177.164 193.492  1.00  0.00     0.000 C 
BRANCH   7   8
ATOM      8  C   UNL     1     172.546 178.416 192.726  1.00  0.00    -0.000 C 
BRANCH   8   9
ATOM      9  C   UNL     1     171.482 178.853 191.706  1.00  0.00    -0.000 C 
BRANCH   9  10
ATOM     10  C   UNL     1     171.043 180.312 191.900  1.00  0.00    -0.003 C 
ATOM     11  C   UNL     1     171.802 181.014 193.025  1.00  0.00     0.004 C 
ENDBRANCH   9  10
ENDBRANCH   8   9
ENDBRANCH   7   8
ENDBRANCH   1   7
TORSDOF 7
ENDMDL
MODEL 2
REMARK VINA RESULT:    -1.698      1.479      2.731
REMARK INTER + INTRA:          -2.869
REMARK INTER:                  -2.530
REMARK INTRA:                  -0.338
REMARK UNBOUND:                -0.476
REMARK SMILES CCCCCCCCC(=O)[O-]
REMARK SMILES IDX 6 1 7 2 8 3 9 4 10 5 11 6 5 7 4 8 3 9 2 10 1 11
REMARK H PARENT
REMARK Flexibility Score: inf
ROOT
ATOM      1  C   UNL     1     173.916 177.992 196.767  1.00  0.00     0.000 C 
ENDROOT
BRANCH   1   2
ATOM      2  C   UNL     1     173.022 177.248 197.771  1.00  0.00     0.006 C 
BRANCH   2   3
ATOM      3  C   UNL     1     173.258 177.756 199.195  1.00  0.00     0.053 C 
BRANCH   3   4
ATOM      4  C   UNL     1     172.094 178.571 199.661  1.00  0.00     0.041 C 
ATOM      5  O   UNL     1     171.965 179.765 199.284  1.00  0.00    -0.550 OA
ATOM      6  O   UNL     1     171.123 177.996 200.473  1.00  0.00    -0.550 OA
ENDBRANCH   3   4
ENDBRANCH   2   3
ENDBRANCH   1   2
BRANCH   1   7
ATOM      7  C   UNL     1     173.130 178.978 195.889  1.00  0.00     0.000 C 
BRANCH   7   8
ATOM      8  C   UNL     1     173.105 178.565 194.410  1.00  0.00    -0.000 C 
BRANCH   8   9
ATOM      9  C   UNL     1     172.376 177.224 194.228  1.00  0.00    -0.000 C 
BRANCH   9  10
ATOM     10  C   UNL     1     171.727 177.088 192.842  1.00  0.00    -0.003 C 
ATOM     11  C   UNL     1     171.664 178.415 192.085  1.00  0.00     0.004 C 
ENDBRANCH   9  10
ENDBRANCH   8   9
ENDBRANCH   7   8
ENDBRANCH   1   7
TORSDOF 7
ENDMDL
MODEL 3
REMARK VINA RESULT:    -1.676      1.352      2.210
REMARK INTER + INTRA:          -2.838
REMARK INTER:                  -2.407
REMARK INTRA:                  -0.430
REMARK UNBOUND:                -0.476
REMARK SMILES CCCCCCCCC(=O)[O-]
REMARK SMILES IDX 6 1 7 2 8 3 9 4 10 5 11 6 5 7 4 8 3 9 2 10 1 11
REMARK H PARENT
REMARK Flexibility Score: inf
ROOT
ATOM      1  C   UNL     1     173.038 178.480 195.101  1.00  0.00     0.000 C 
ENDROOT
BRANCH   1   2
ATOM      2  C   UNL     1     173.647 178.696 196.495  1.00  0.00     0.006 C 
BRANCH   2   3
ATOM      3  C   UNL     1     173.177 177.614 197.471  1.00  0.00     0.053 C 
BRANCH   3   4
ATOM      4  C   UNL     1     172.694 178.232 198.745  1.00  0.00     0.041 C 
ATOM      5  O   UNL     1     172.388 179.453 198.781  1.00  0.00    -0.550 OA
ATOM      6  O   UNL     1     172.532 177.448 199.881  1.00  0.00    -0.550 OA
ENDBRANCH   3   4
ENDBRANCH   2   3
ENDBRANCH   1   2
BRANCH   1   7
ATOM      7  C   UNL     1     172.461 177.068 194.918  1.00  0.00     0.000 C 
BRANCH   7   8
ATOM      8  C   UNL     1     171.785 176.877 193.551  1.00  0.00    -0.000 C 
BRANCH   8   9
ATOM      9  C   UNL     1     171.911 178.148 192.695  1.00  0.00    -0.000 C 
BRANCH   9  10
ATOM     10  C   UNL     1     172.312 177.845 191.243  1.00  0.00    -0.003 C 
ATOM     11  C   UNL     1     173.764 177.385 191.114  1.00  0.00     0.004 C 
ENDBRANCH   9  10
ENDBRANCH   8   9
ENDBRANCH   7   8
ENDBRANCH   1   7
TORSDOF 7
ENDMDL
MODEL 4
REMARK VINA RESULT:    -1.622      2.545      5.384
REMARK INTER + INTRA:          -2.762
REMARK INTER:                  -2.094
REMARK INTRA:                  -0.668
REMARK UNBOUND:                -0.476
REMARK SMILES CCCCCCCCC(=O)[O-]
REMARK SMILES IDX 6 1 7 2 8 3 9 4 10 5 11 6 5 7 4 8 3 9 2 10 1 11
REMARK H PARENT
REMARK Flexibility Score: inf
ROOT
ATOM      1  C   UNL     1     174.500 179.080 196.828  1.00  0.00     0.000 C 
ENDROOT
BRANCH   1   2
ATOM      2  C   UNL     1     173.116 179.193 196.168  1.00  0.00     0.006 C 
BRANCH   2   3
ATOM      3  C   UNL     1     173.228 179.099 194.644  1.00  0.00     0.053 C 
BRANCH   3   4
ATOM      4  C   UNL     1     172.825 177.738 194.171  1.00  0.00     0.041 C 
ATOM      5  O   UNL     1     173.132 177.353 193.012  1.00  0.00    -0.550 OA
ATOM      6  O   UNL     1     172.153 176.875 195.029  1.00  0.00    -0.550 OA
ENDBRANCH   3   4
ENDBRANCH   2   3
ENDBRANCH   1   2
BRANCH   1   7
ATOM      7  C   UNL     1     174.600 177.892 197.796  1.00  0.00     0.000 C 
BRANCH   7   8
ATOM      8  C   UNL     1     173.229 177.434 198.316  1.00  0.00    -0.000 C 
BRANCH   8   9
ATOM      9  C   UNL     1     173.013 177.887 199.768  1.00  0.00    -0.000 C 
BRANCH   9  10
ATOM     10  C   UNL     1     171.795 178.810 199.924  1.00  0.00    -0.003 C 
ATOM     11  C   UNL     1     172.105 180.265 199.575  1.00  0.00     0.004 C 
ENDBRANCH   9  10
ENDBRANCH   8   9
ENDBRANCH   7   8
ENDBRANCH   1   7
TORSDOF 7
ENDMDL
MODEL 5
REMARK VINA RESULT:    -1.598      3.049      4.665
REMARK INTER + INTRA:          -2.729
REMARK INTER:                  -1.891
REMARK INTRA:                  -0.837
REMARK UNBOUND:                -0.476
REMARK SMILES CCCCCCCCC(=O)[O-]
REMARK SMILES IDX 6 1 7 2 8 3 9 4 10 5 11 6 5 7 4 8 3 9 2 10 1 11
REMARK H PARENT
REMARK Flexibility Score: inf
ROOT
ATOM      1  C   UNL     1     173.964 178.114 196.807  1.00  0.00     0.000 C 
ENDROOT
BRANCH   1   2
ATOM      2  C   UNL     1     173.066 177.171 197.623  1.00  0.00     0.006 C 
BRANCH   2   3
ATOM      3  C   UNL     1     173.224 177.427 199.124  1.00  0.00     0.053 C 
BRANCH   3   4
ATOM      4  C   UNL     1     171.929 177.883 199.717  1.00  0.00     0.041 C 
ATOM      5  O   UNL     1     171.121 177.044 200.197  1.00  0.00    -0.550 OA
ATOM      6  O   UNL     1     171.634 179.239 199.786  1.00  0.00    -0.550 OA
ENDBRANCH   3   4
ENDBRANCH   2   3
ENDBRANCH   1   2
BRANCH   1   7
ATOM      7  C   UNL     1     173.173 179.229 196.106  1.00  0.00     0.000 C 
BRANCH   7   8
ATOM      8  C   UNL     1     173.237 180.566 196.861  1.00  0.00    -0.000 C 
BRANCH   8   9
ATOM      9  C   UNL     1     174.595 180.736 197.560  1.00  0.00    -0.000 C 
BRANCH   9  10
ATOM     10  C   UNL     1     174.453 181.109 199.044  1.00  0.00    -0.003 C 
ATOM     11  C   UNL     1     175.413 180.331 199.944  1.00  0.00     0.004 C 
ENDBRANCH   9  10
ENDBRANCH   8   9
ENDBRANCH   7   8
ENDBRANCH   1   7
TORSDOF 7
ENDMDL
MODEL 6
REMARK VINA RESULT:    -1.596      3.329      5.761
REMARK INTER + INTRA:          -2.725
REMARK INTER:                  -2.408
REMARK INTRA:                  -0.317
REMARK UNBOUND:                -0.476
REMARK SMILES CCCCCCCCC(=O)[O-]
REMARK SMILES IDX 6 1 7 2 8 3 9 4 10 5 11 6 5 7 4 8 3 9 2 10 1 11
REMARK H PARENT
REMARK Flexibility Score: inf
ROOT
ATOM      1  C   UNL     1     172.375 176.896 195.127  1.00  0.00     0.000 C 
ENDROOT
BRANCH   1   2
ATOM      2  C   UNL     1     172.991 177.592 193.903  1.00  0.00     0.006 C 
BRANCH   2   3
ATOM      3  C   UNL     1     172.574 176.891 192.608  1.00  0.00     0.053 C 
BRANCH   3   4
ATOM      4  C   UNL     1     171.961 177.869 191.657  1.00  0.00     0.041 C 
ATOM      5  O   UNL     1     172.003 177.659 190.416  1.00  0.00    -0.550 OA
ATOM      6  O   UNL     1     171.298 178.990 192.143  1.00  0.00    -0.550 OA
ENDBRANCH   3   4
ENDBRANCH   2   3
ENDBRANCH   1   2
BRANCH   1   7
ATOM      7  C   UNL     1     173.172 177.150 196.417  1.00  0.00     0.000 C 
BRANCH   7   8
ATOM      8  C   UNL     1     173.353 178.646 196.716  1.00  0.00    -0.000 C 
BRANCH   8   9
ATOM      9  C   UNL     1     172.883 178.982 198.140  1.00  0.00    -0.000 C 
BRANCH   9  10
ATOM     10  C   UNL     1     173.122 177.830 199.128  1.00  0.00    -0.003 C 
ATOM     11  C   UNL     1     171.880 177.491 199.953  1.00  0.00     0.004 C 
ENDBRANCH   9  10
ENDBRANCH   8   9
ENDBRANCH   7   8
ENDBRANCH   1   7
TORSDOF 7
ENDMDL
MODEL 7
REMARK VINA RESULT:    -1.595      3.039      5.734
REMARK INTER + INTRA:          -2.723
REMARK INTER:                  -2.055
REMARK INTRA:                  -0.668
REMARK UNBOUND:                -0.476
REMARK SMILES CCCCCCCCC(=O)[O-]
REMARK SMILES IDX 6 1 7 2 8 3 9 4 10 5 11 6 5 7 4 8 3 9 2 10 1 11
REMARK H PARENT
REMARK Flexibility Score: inf
ROOT
ATOM      1  C   UNL     1     174.151 177.584 198.371  1.00  0.00     0.000 C 
ENDROOT
BRANCH   1   2
ATOM      2  C   UNL     1     173.091 177.582 197.258  1.00  0.00     0.006 C 
BRANCH   2   3
ATOM      3  C   UNL     1     173.177 178.859 196.418  1.00  0.00     0.053 C 
BRANCH   3   4
ATOM      4  C   UNL     1     173.475 178.529 194.990  1.00  0.00     0.041 C 
ATOM      5  O   UNL     1     172.622 177.923 194.289  1.00  0.00    -0.550 OA
ATOM      6  O   UNL     1     174.674 178.934 194.418  1.00  0.00    -0.550 OA
ENDBRANCH   3   4
ENDBRANCH   2   3
ENDBRANCH   1   2
BRANCH   1   7
ATOM      7  C   UNL     1     173.542 177.396 199.769  1.00  0.00     0.000 C 
BRANCH   7   8
ATOM      8  C   UNL     1     172.010 177.516 199.769  1.00  0.00    -0.000 C 
BRANCH   8   9
ATOM      9  C   UNL     1     171.541 178.548 200.806  1.00  0.00    -0.000 C 
BRANCH   9  10
ATOM     10  C   UNL     1     172.259 179.898 200.662  1.00  0.00    -0.003 C 
ATOM     11  C   UNL     1     171.815 180.675 199.423  1.00  0.00     0.004 C 
ENDBRANCH   9  10
ENDBRANCH   8   9
ENDBRANCH   7   8
ENDBRANCH   1   7
TORSDOF 7
ENDMDL
