MODEL 1
REMARK VINA RESULT:    -4.203      0.000      0.000
REMARK INTER + INTRA:          -7.852
REMARK INTER:                  -7.396
REMARK INTRA:                  -0.456
REMARK UNBOUND:                -0.456
REMARK SMILES CCCCCCCCCCCCCCC(=O)[O-]
REMARK SMILES IDX 9 1 10 2 11 3 12 4 13 5 14 6 15 7 16 8 17 9 8 10 7 11 6 12
REMARK SMILES IDX 5 13 4 14 3 15 2 16 1 17
REMARK H PARENT
REMARK Flexibility Score: inf
ROOT
ATOM      1  C   UNL     1      -8.343  -7.594 -25.877  1.00  0.00     0.000 C 
ENDROOT
BRANCH   1   2
ATOM      2  C   UNL     1      -8.304  -6.131 -26.347  1.00  0.00     0.000 C 
BRANCH   2   3
ATOM      3  C   UNL     1      -7.296  -5.284 -25.554  1.00  0.00     0.000 C 
BRANCH   3   4
ATOM      4  C   UNL     1      -7.520  -3.771 -25.729  1.00  0.00     0.000 C 
BRANCH   4   5
ATOM      5  C   UNL     1      -7.863  -3.039 -24.414  1.00  0.00     0.006 C 
BRANCH   5   6
ATOM      6  C   UNL     1      -7.110  -1.709 -24.280  1.00  0.00     0.053 C 
BRANCH   6   7
ATOM      7  C   UNL     1      -6.381  -1.649 -22.975  1.00  0.00     0.041 C 
ATOM      8  O   UNL     1      -5.742  -2.651 -22.560  1.00  0.00    -0.550 OA
ATOM      9  O   UNL     1      -6.368  -0.471 -22.239  1.00  0.00    -0.550 OA
ENDBRANCH   6   7
ENDBRANCH   5   6
ENDBRANCH   4   5
ENDBRANCH   3   4
ENDBRANCH   2   3
ENDBRANCH   1   2
BRANCH   1  10
ATOM     10  C   UNL     1      -9.752  -8.207 -25.962  1.00  0.00     0.000 C 
BRANCH  10  11
ATOM     11  C   UNL     1      -9.889  -9.221 -27.109  1.00  0.00    -0.000 C 
BRANCH  11  12
ATOM     12  C   UNL     1     -11.260  -9.146 -27.803  1.00  0.00    -0.000 C 
BRANCH  12  13
ATOM     13  C   UNL     1     -11.994 -10.497 -27.808  1.00  0.00    -0.000 C 
BRANCH  13  14
ATOM     14  C   UNL     1     -11.502 -11.448 -26.702  1.00  0.00    -0.000 C 
BRANCH  14  15
ATOM     15  C   UNL     1     -12.383 -12.710 -26.584  1.00  0.00    -0.000 C 
BRANCH  15  16
ATOM     16  C   UNL     1     -11.806 -13.933 -27.316  1.00  0.00    -0.003 C 
ATOM     17  C   UNL     1     -11.533 -15.114 -26.387  1.00  0.00     0.004 C 
ENDBRANCH  15  16
ENDBRANCH  14  15
ENDBRANCH  13  14
ENDBRANCH  12  13
ENDBRANCH  11  12
ENDBRANCH  10  11
ENDBRANCH   1  10
TORSDOF 13
ENDMDL
MODEL 2
REMARK VINA RESULT:    -4.097      6.319      7.982
REMARK INTER + INTRA:          -7.668
REMARK INTER:                  -5.532
REMARK INTRA:                  -2.136
REMARK UNBOUND:                -0.456
REMARK SMILES CCCCCCCCCCCCCCC(=O)[O-]
REMARK SMILES IDX 9 1 10 2 11 3 12 4 13 5 14 6 15 7 16 8 17 9 8 10 7 11 6 12
REMARK SMILES IDX 5 13 4 14 3 15 2 16 1 17
REMARK H PARENT
REMARK Flexibility Score: inf
ROOT
ATOM      1  C   UNL     1      -8.648   0.570 -25.037  1.00  0.00     0.000 C 
ENDROOT
BRANCH   1   2
ATOM      2  C   UNL     1      -8.154   1.394 -26.238  1.00  0.00     0.000 C 
BRANCH   2   3
ATOM      3  C   UNL     1      -6.621   1.476 -26.305  1.00  0.00     0.000 C 
BRANCH   3   4
ATOM      4  C   UNL     1      -5.929   0.277 -25.635  1.00  0.00     0.000 C 
BRANCH   4   5
ATOM      5  C   UNL     1      -4.942   0.675 -24.517  1.00  0.00     0.006 C 
BRANCH   5   6
ATOM      6  C   UNL     1      -5.315   2.014 -23.866  1.00  0.00     0.053 C 
BRANCH   6   7
ATOM      7  C   UNL     1      -5.978   1.786 -22.545  1.00  0.00     0.041 C 
ATOM      8  O   UNL     1      -6.044   0.627 -22.060  1.00  0.00    -0.550 OA
ATOM      9  O   UNL     1      -6.482   2.863 -21.826  1.00  0.00    -0.550 OA
ENDBRANCH   6   7
ENDBRANCH   5   6
ENDBRANCH   4   5
ENDBRANCH   3   4
ENDBRANCH   2   3
ENDBRANCH   1   2
BRANCH   1  10
ATOM     10  C   UNL     1     -10.062  -0.000 -25.251  1.00  0.00     0.000 C 
BRANCH  10  11
ATOM     11  C   UNL     1     -10.482  -0.003 -26.730  1.00  0.00    -0.000 C 
BRANCH  11  12
ATOM     12  C   UNL     1     -10.515  -1.419 -27.331  1.00  0.00    -0.000 C 
BRANCH  12  13
ATOM     13  C   UNL     1      -9.122  -1.913 -27.755  1.00  0.00    -0.000 C 
BRANCH  13  14
ATOM     14  C   UNL     1      -8.701  -3.203 -27.031  1.00  0.00    -0.000 C 
BRANCH  14  15
ATOM     15  C   UNL     1      -7.521  -2.969 -26.063  1.00  0.00    -0.000 C 
BRANCH  15  16
ATOM     16  C   UNL     1      -7.915  -3.058 -24.580  1.00  0.00    -0.003 C 
ATOM     17  C   UNL     1      -6.827  -2.544 -23.638  1.00  0.00     0.004 C 
ENDBRANCH  15  16
ENDBRANCH  14  15
ENDBRANCH  13  14
ENDBRANCH  12  13
ENDBRANCH  11  12
ENDBRANCH  10  11
ENDBRANCH   1  10
TORSDOF 13
ENDMDL
MODEL 3
REMARK VINA RESULT:    -4.096      4.135      9.342
REMARK INTER + INTRA:          -7.665
REMARK INTER:                  -6.446
REMARK INTRA:                  -1.220
REMARK UNBOUND:                -0.456
REMARK SMILES CCCCCCCCCCCCCCC(=O)[O-]
REMARK SMILES IDX 9 1 10 2 11 3 12 4 13 5 14 6 15 7 16 8 17 9 8 10 7 11 6 12
REMARK SMILES IDX 5 13 4 14 3 15 2 16 1 17
REMARK H PARENT
REMARK Flexibility Score: inf
ROOT
ATOM      1  C   UNL     1      -8.215  -3.647 -24.888  1.00  0.00     0.000 C 
ENDROOT
BRANCH   1   2
ATOM      2  C   UNL     1      -8.239  -4.835 -25.863  1.00  0.00     0.000 C 
BRANCH   2   3
ATOM      3  C   UNL     1      -6.908  -5.603 -25.889  1.00  0.00     0.000 C 
BRANCH   3   4
ATOM      4  C   UNL     1      -7.099  -7.130 -25.854  1.00  0.00     0.000 C 
BRANCH   4   5
ATOM      5  C   UNL     1      -8.578  -7.568 -25.783  1.00  0.00     0.006 C 
BRANCH   5   6
ATOM      6  C   UNL     1      -8.813  -8.922 -26.466  1.00  0.00     0.053 C 
BRANCH   6   7
ATOM      7  C   UNL     1      -9.442  -9.888 -25.512  1.00  0.00     0.041 C 
ATOM      8  O   UNL     1     -10.366  -9.511 -24.746  1.00  0.00    -0.550 OA
ATOM      9  O   UNL     1      -9.039 -11.217 -25.503  1.00  0.00    -0.550 OA
ENDBRANCH   6   7
ENDBRANCH   5   6
ENDBRANCH   4   5
ENDBRANCH   3   4
ENDBRANCH   2   3
ENDBRANCH   1   2
BRANCH   1  10
ATOM     10  C   UNL     1      -6.812  -3.032 -24.738  1.00  0.00     0.000 C 
BRANCH  10  11
ATOM     11  C   UNL     1      -6.571  -2.441 -23.339  1.00  0.00    -0.000 C 
BRANCH  11  12
ATOM     12  C   UNL     1      -6.996  -0.966 -23.241  1.00  0.00    -0.000 C 
BRANCH  12  13
ATOM     13  C   UNL     1      -6.997  -0.259 -24.607  1.00  0.00    -0.000 C 
BRANCH  13  14
ATOM     14  C   UNL     1      -8.225   0.646 -24.809  1.00  0.00    -0.000 C 
BRANCH  14  15
ATOM     15  C   UNL     1      -9.551  -0.135 -24.690  1.00  0.00    -0.000 C 
BRANCH  15  16
ATOM     16  C   UNL     1     -10.358  -0.181 -25.998  1.00  0.00    -0.003 C 
ATOM     17  C   UNL     1      -9.678  -1.000 -27.093  1.00  0.00     0.004 C 
ENDBRANCH  15  16
ENDBRANCH  14  15
ENDBRANCH  13  14
ENDBRANCH  12  13
ENDBRANCH  11  12
ENDBRANCH  10  11
ENDBRANCH   1  10
TORSDOF 13
ENDMDL
MODEL 4
REMARK VINA RESULT:    -4.096      6.346      8.413
REMARK INTER + INTRA:          -7.665
REMARK INTER:                  -5.768
REMARK INTRA:                  -1.897
REMARK UNBOUND:                -0.456
REMARK SMILES CCCCCCCCCCCCCCC(=O)[O-]
REMARK SMILES IDX 9 1 10 2 11 3 12 4 13 5 14 6 15 7 16 8 17 9 8 10 7 11 6 12
REMARK SMILES IDX 5 13 4 14 3 15 2 16 1 17
REMARK H PARENT
REMARK Flexibility Score: inf
ROOT
ATOM      1  C   UNL     1      -7.902  -3.290 -24.616  1.00  0.00     0.000 C 
ENDROOT
BRANCH   1   2
ATOM      2  C   UNL     1      -6.411  -2.953 -24.456  1.00  0.00     0.000 C 
BRANCH   2   3
ATOM      3  C   UNL     1      -6.099  -2.289 -23.105  1.00  0.00     0.000 C 
BRANCH   3   4
ATOM      4  C   UNL     1      -6.997  -1.074 -22.816  1.00  0.00     0.000 C 
BRANCH   4   5
ATOM      5  C   UNL     1      -6.413   0.263 -23.319  1.00  0.00     0.006 C 
BRANCH   5   6
ATOM      6  C   UNL     1      -5.696   1.037 -22.204  1.00  0.00     0.053 C 
BRANCH   6   7
ATOM      7  C   UNL     1      -6.081   2.482 -22.239  1.00  0.00     0.041 C 
ATOM      8  O   UNL     1      -5.536   3.302 -21.455  1.00  0.00    -0.550 OA
ATOM      9  O   UNL     1      -7.008   2.932 -23.171  1.00  0.00    -0.550 OA
ENDBRANCH   6   7
ENDBRANCH   5   6
ENDBRANCH   4   5
ENDBRANCH   3   4
ENDBRANCH   2   3
ENDBRANCH   1   2
BRANCH   1  10
ATOM     10  C   UNL     1      -8.297  -3.547 -26.082  1.00  0.00     0.000 C 
BRANCH  10  11
ATOM     11  C   UNL     1      -7.159  -3.235 -27.066  1.00  0.00    -0.000 C 
BRANCH  11  12
ATOM     12  C   UNL     1      -7.432  -1.973 -27.903  1.00  0.00    -0.000 C 
BRANCH  12  13
ATOM     13  C   UNL     1      -6.393  -0.867 -27.661  1.00  0.00    -0.000 C 
BRANCH  13  14
ATOM     14  C   UNL     1      -6.937   0.286 -26.799  1.00  0.00    -0.000 C 
BRANCH  14  15
ATOM     15  C   UNL     1      -8.470   0.428 -26.918  1.00  0.00    -0.000 C 
BRANCH  15  16
ATOM     16  C   UNL     1      -9.220   0.116 -25.613  1.00  0.00    -0.003 C 
ATOM     17  C   UNL     1     -10.721  -0.077 -25.815  1.00  0.00     0.004 C 
ENDBRANCH  15  16
ENDBRANCH  14  15
ENDBRANCH  13  14
ENDBRANCH  12  13
ENDBRANCH  11  12
ENDBRANCH  10  11
ENDBRANCH   1  10
TORSDOF 13
ENDMDL
MODEL 5
REMARK VINA RESULT:    -4.045      4.938      7.450
REMARK INTER + INTRA:          -7.576
REMARK INTER:                  -5.544
REMARK INTRA:                  -2.032
REMARK UNBOUND:                -0.456
REMARK SMILES CCCCCCCCCCCCCCC(=O)[O-]
REMARK SMILES IDX 9 1 10 2 11 3 12 4 13 5 14 6 15 7 16 8 17 9 8 10 7 11 6 12
REMARK SMILES IDX 5 13 4 14 3 15 2 16 1 17
REMARK H PARENT
REMARK Flexibility Score: inf
ROOT
ATOM      1  C   UNL     1      -9.029   0.462 -25.050  1.00  0.00     0.000 C 
ENDROOT
BRANCH   1   2
ATOM      2  C   UNL     1      -8.263   1.235 -26.136  1.00  0.00     0.000 C 
BRANCH   2   3
ATOM      3  C   UNL     1      -6.742   1.036 -26.039  1.00  0.00     0.000 C 
BRANCH   3   4
ATOM      4  C   UNL     1      -6.147   1.610 -24.741  1.00  0.00     0.000 C 
BRANCH   4   5
ATOM      5  C   UNL     1      -5.121   0.676 -24.064  1.00  0.00     0.006 C 
BRANCH   5   6
ATOM      6  C   UNL     1      -5.469  -0.805 -24.260  1.00  0.00     0.053 C 
BRANCH   6   7
ATOM      7  C   UNL     1      -6.003  -1.390 -22.990  1.00  0.00     0.041 C 
ATOM      8  O   UNL     1      -6.774  -0.717 -22.258  1.00  0.00    -0.550 OA
ATOM      9  O   UNL     1      -5.687  -2.697 -22.641  1.00  0.00    -0.550 OA
ENDBRANCH   6   7
ENDBRANCH   5   6
ENDBRANCH   4   5
ENDBRANCH   3   4
ENDBRANCH   2   3
ENDBRANCH   1   2
BRANCH   1  10
ATOM     10  C   UNL     1     -10.372  -0.097 -25.555  1.00  0.00     0.000 C 
BRANCH  10  11
ATOM     11  C   UNL     1     -10.359  -0.396 -27.063  1.00  0.00    -0.000 C 
BRANCH  11  12
ATOM     12  C   UNL     1      -9.952  -1.847 -27.374  1.00  0.00    -0.000 C 
BRANCH  12  13
ATOM     13  C   UNL     1      -8.590  -1.940 -28.081  1.00  0.00    -0.000 C 
BRANCH  13  14
ATOM     14  C   UNL     1      -7.466  -2.427 -27.150  1.00  0.00    -0.000 C 
BRANCH  14  15
ATOM     15  C   UNL     1      -8.015  -3.008 -25.829  1.00  0.00    -0.000 C 
BRANCH  15  16
ATOM     16  C   UNL     1      -7.341  -4.325 -25.410  1.00  0.00    -0.003 C 
ATOM     17  C   UNL     1      -8.118  -5.563 -25.854  1.00  0.00     0.004 C 
ENDBRANCH  15  16
ENDBRANCH  14  15
ENDBRANCH  13  14
ENDBRANCH  12  13
ENDBRANCH  11  12
ENDBRANCH  10  11
ENDBRANCH   1  10
TORSDOF 13
ENDMDL
MODEL 6
REMARK VINA RESULT:    -4.044      6.674      9.986
REMARK INTER + INTRA:          -7.573
REMARK INTER:                  -5.602
REMARK INTRA:                  -1.971
REMARK UNBOUND:                -0.456
REMARK SMILES CCCCCCCCCCCCCCC(=O)[O-]
REMARK SMILES IDX 9 1 10 2 11 3 12 4 13 5 14 6 15 7 16 8 17 9 8 10 7 11 6 12
REMARK SMILES IDX 5 13 4 14 3 15 2 16 1 17
REMARK H PARENT
REMARK Flexibility Score: inf
ROOT
ATOM      1  C   UNL     1      -5.396   0.140 -23.004  1.00  0.00     0.000 C 
ENDROOT
BRANCH   1   2
ATOM      2  C   UNL     1      -6.657  -0.601 -22.530  1.00  0.00     0.000 C 
BRANCH   2   3
ATOM      3  C   UNL     1      -6.798  -1.992 -23.168  1.00  0.00     0.000 C 
BRANCH   3   4
ATOM      4  C   UNL     1      -5.938  -2.159 -24.432  1.00  0.00     0.000 C 
BRANCH   4   5
ATOM      5  C   UNL     1      -6.434  -3.274 -25.378  1.00  0.00     0.006 C 
BRANCH   5   6
ATOM      6  C   UNL     1      -7.965  -3.310 -25.475  1.00  0.00     0.053 C 
BRANCH   6   7
ATOM      7  C   UNL     1      -8.412  -2.919 -26.848  1.00  0.00     0.041 C 
ATOM      8  O   UNL     1      -7.766  -2.061 -27.505  1.00  0.00    -0.550 OA
ATOM      9  O   UNL     1      -9.515  -3.538 -27.422  1.00  0.00    -0.550 OA
ENDBRANCH   6   7
ENDBRANCH   5   6
ENDBRANCH   4   5
ENDBRANCH   3   4
ENDBRANCH   2   3
ENDBRANCH   1   2
BRANCH   1  10
ATOM     10  C   UNL     1      -5.289   1.560 -22.420  1.00  0.00     0.000 C 
BRANCH  10  11
ATOM     11  C   UNL     1      -6.387   2.500 -22.944  1.00  0.00    -0.000 C 
BRANCH  11  12
ATOM     12  C   UNL     1      -6.466   2.517 -24.480  1.00  0.00    -0.000 C 
BRANCH  12  13
ATOM     13  C   UNL     1      -7.893   2.285 -25.001  1.00  0.00    -0.000 C 
BRANCH  13  14
ATOM     14  C   UNL     1      -8.096   0.871 -25.575  1.00  0.00    -0.000 C 
BRANCH  14  15
ATOM     15  C   UNL     1      -9.293   0.145 -24.924  1.00  0.00    -0.000 C 
BRANCH  15  16
ATOM     16  C   UNL     1     -10.491  -0.036 -25.871  1.00  0.00    -0.003 C 
ATOM     17  C   UNL     1     -10.309   0.672 -27.212  1.00  0.00     0.004 C 
ENDBRANCH  15  16
ENDBRANCH  14  15
ENDBRANCH  13  14
ENDBRANCH  12  13
ENDBRANCH  11  12
ENDBRANCH  10  11
ENDBRANCH   1  10
TORSDOF 13
ENDMDL
MODEL 7
REMARK VINA RESULT:    -4.028     15.057     16.654
REMARK INTER + INTRA:          -7.546
REMARK INTER:                  -5.589
REMARK INTRA:                  -1.956
REMARK UNBOUND:                -0.456
REMARK SMILES CCCCCCCCCCCCCCC(=O)[O-]
REMARK SMILES IDX 9 1 10 2 11 3 12 4 13 5 14 6 15 7 16 8 17 9 8 10 7 11 6 12
REMARK SMILES IDX 5 13 4 14 3 15 2 16 1 17
REMARK H PARENT
REMARK Flexibility Score: inf
ROOT
ATOM      1  C   UNL     1     -20.359   1.161 -24.676  1.00  0.00     0.000 C 
ENDROOT
BRANCH   1   2
ATOM      2  C   UNL     1     -20.274   2.329 -23.680  1.00  0.00     0.000 C 
BRANCH   2   3
ATOM      3  C   UNL     1     -19.742   3.618 -24.328  1.00  0.00     0.000 C 
BRANCH   3   4
ATOM      4  C   UNL     1     -20.096   4.880 -23.522  1.00  0.00     0.000 C 
BRANCH   4   5
ATOM      5  C   UNL     1     -21.029   4.609 -22.322  1.00  0.00     0.006 C 
BRANCH   5   6
ATOM      6  C   UNL     1     -20.385   5.009 -20.988  1.00  0.00     0.053 C 
BRANCH   6   7
ATOM      7  C   UNL     1     -20.797   4.063 -19.904  1.00  0.00     0.041 C 
ATOM      8  O   UNL     1     -20.221   2.951 -19.781  1.00  0.00    -0.550 OA
ATOM      9  O   UNL     1     -21.784   4.432 -18.999  1.00  0.00    -0.550 OA
ENDBRANCH   6   7
ENDBRANCH   5   6
ENDBRANCH   4   5
ENDBRANCH   3   4
ENDBRANCH   2   3
ENDBRANCH   1   2
BRANCH   1  10
ATOM     10  C   UNL     1     -19.220   1.181 -25.712  1.00  0.00     0.000 C 
BRANCH  10  11
ATOM     11  C   UNL     1     -19.734   1.337 -27.153  1.00  0.00    -0.000 C 
BRANCH  11  12
ATOM     12  C   UNL     1     -21.270   1.354 -27.233  1.00  0.00    -0.000 C 
BRANCH  12  13
ATOM     13  C   UNL     1     -21.809   2.584 -27.980  1.00  0.00    -0.000 C 
BRANCH  13  14
ATOM     14  C   UNL     1     -23.167   3.066 -27.436  1.00  0.00    -0.000 C 
BRANCH  14  15
ATOM     15  C   UNL     1     -23.464   2.500 -26.031  1.00  0.00    -0.000 C 
BRANCH  15  16
ATOM     16  C   UNL     1     -23.482   3.571 -24.928  1.00  0.00    -0.003 C 
ATOM     17  C   UNL     1     -23.295   4.989 -25.465  1.00  0.00     0.004 C 
ENDBRANCH  15  16
ENDBRANCH  14  15
ENDBRANCH  13  14
ENDBRANCH  12  13
ENDBRANCH  11  12
ENDBRANCH  10  11
ENDBRANCH   1  10
TORSDOF 13
ENDMDL
MODEL 8
REMARK VINA RESULT:    -4.014      5.776      9.719
REMARK INTER + INTRA:          -7.520
REMARK INTER:                  -5.368
REMARK INTRA:                  -2.152
REMARK UNBOUND:                -0.456
REMARK SMILES CCCCCCCCCCCCCCC(=O)[O-]
REMARK SMILES IDX 9 1 10 2 11 3 12 4 13 5 14 6 15 7 16 8 17 9 8 10 7 11 6 12
REMARK SMILES IDX 5 13 4 14 3 15 2 16 1 17
REMARK H PARENT
REMARK Flexibility Score: inf
ROOT
ATOM      1  C   UNL     1      -7.027  -1.552 -23.269  1.00  0.00     0.000 C 
ENDROOT
BRANCH   1   2
ATOM      2  C   UNL     1      -5.977  -2.629 -22.955  1.00  0.00     0.000 C 
BRANCH   2   3
ATOM      3  C   UNL     1      -5.303  -3.182 -24.221  1.00  0.00     0.000 C 
BRANCH   3   4
ATOM      4  C   UNL     1      -5.633  -2.360 -25.479  1.00  0.00     0.000 C 
BRANCH   4   5
ATOM      5  C   UNL     1      -6.294  -3.186 -26.603  1.00  0.00     0.006 C 
BRANCH   5   6
ATOM      6  C   UNL     1      -6.758  -4.564 -26.112  1.00  0.00     0.053 C 
BRANCH   6   7
ATOM      7  C   UNL     1      -8.252  -4.637 -26.089  1.00  0.00     0.041 C 
ATOM      8  O   UNL     1      -8.831  -5.584 -25.496  1.00  0.00    -0.550 OA
ATOM      9  O   UNL     1      -9.005  -3.631 -26.681  1.00  0.00    -0.550 OA
ENDBRANCH   6   7
ENDBRANCH   5   6
ENDBRANCH   4   5
ENDBRANCH   3   4
ENDBRANCH   2   3
ENDBRANCH   1   2
BRANCH   1  10
ATOM     10  C   UNL     1      -6.736  -0.216 -22.561  1.00  0.00     0.000 C 
BRANCH  10  11
ATOM     11  C   UNL     1      -5.418   0.425 -23.024  1.00  0.00    -0.000 C 
BRANCH  11  12
ATOM     12  C   UNL     1      -5.624   1.449 -24.154  1.00  0.00    -0.000 C 
BRANCH  12  13
ATOM     13  C   UNL     1      -6.966   2.190 -24.041  1.00  0.00    -0.000 C 
BRANCH  13  14
ATOM     14  C   UNL     1      -7.817   2.083 -25.320  1.00  0.00    -0.000 C 
BRANCH  14  15
ATOM     15  C   UNL     1      -7.483   0.816 -26.136  1.00  0.00    -0.000 C 
BRANCH  15  16
ATOM     16  C   UNL     1      -8.687  -0.119 -26.339  1.00  0.00    -0.003 C 
ATOM     17  C   UNL     1      -9.709  -0.036 -25.208  1.00  0.00     0.004 C 
ENDBRANCH  15  16
ENDBRANCH  14  15
ENDBRANCH  13  14
ENDBRANCH  12  13
ENDBRANCH  11  12
ENDBRANCH  10  11
ENDBRANCH   1  10
TORSDOF 13
ENDMDL
MODEL 9
REMARK VINA RESULT:    -3.979      5.664      9.751
REMARK INTER + INTRA:          -7.460
REMARK INTER:                  -5.152
REMARK INTRA:                  -2.308
REMARK UNBOUND:                -0.456
REMARK SMILES CCCCCCCCCCCCCCC(=O)[O-]
REMARK SMILES IDX 9 1 10 2 11 3 12 4 13 5 14 6 15 7 16 8 17 9 8 10 7 11 6 12
REMARK SMILES IDX 5 13 4 14 3 15 2 16 1 17
REMARK H PARENT
REMARK Flexibility Score: inf
ROOT
ATOM      1  C   UNL     1      -7.180  -1.028 -22.869  1.00  0.00     0.000 C 
ENDROOT
BRANCH   1   2
ATOM      2  C   UNL     1      -5.757  -1.470 -23.248  1.00  0.00     0.000 C 
BRANCH   2   3
ATOM      3  C   UNL     1      -5.717  -2.892 -23.830  1.00  0.00     0.000 C 
BRANCH   3   4
ATOM      4  C   UNL     1      -5.126  -2.940 -25.249  1.00  0.00     0.000 C 
BRANCH   4   5
ATOM      5  C   UNL     1      -6.086  -3.537 -26.301  1.00  0.00     0.006 C 
BRANCH   5   6
ATOM      6  C   UNL     1      -6.685  -4.874 -25.843  1.00  0.00     0.053 C 
BRANCH   6   7
ATOM      7  C   UNL     1      -8.175  -4.854 -25.978  1.00  0.00     0.041 C 
ATOM      8  O   UNL     1      -8.748  -3.880 -26.533  1.00  0.00    -0.550 OA
ATOM      9  O   UNL     1      -8.927  -5.934 -25.534  1.00  0.00    -0.550 OA
ENDBRANCH   6   7
ENDBRANCH   5   6
ENDBRANCH   4   5
ENDBRANCH   3   4
ENDBRANCH   2   3
ENDBRANCH   1   2
BRANCH   1  10
ATOM     10  C   UNL     1      -8.242  -1.537 -23.860  1.00  0.00     0.000 C 
BRANCH  10  11
ATOM     11  C   UNL     1      -9.093  -0.402 -24.452  1.00  0.00    -0.000 C 
BRANCH  11  12
ATOM     12  C   UNL     1      -9.201  -0.483 -25.985  1.00  0.00    -0.000 C 
BRANCH  12  13
ATOM     13  C   UNL     1      -7.835  -0.369 -26.680  1.00  0.00    -0.000 C 
BRANCH  13  14
ATOM     14  C   UNL     1      -7.238   1.047 -26.594  1.00  0.00    -0.000 C 
BRANCH  14  15
ATOM     15  C   UNL     1      -5.923   1.076 -25.787  1.00  0.00    -0.000 C 
BRANCH  15  16
ATOM     16  C   UNL     1      -5.781   2.315 -24.888  1.00  0.00    -0.003 C 
ATOM     17  C   UNL     1      -6.994   2.548 -23.990  1.00  0.00     0.004 C 
ENDBRANCH  15  16
ENDBRANCH  14  15
ENDBRANCH  13  14
ENDBRANCH  12  13
ENDBRANCH  11  12
ENDBRANCH  10  11
ENDBRANCH   1  10
TORSDOF 13
ENDMDL
