MODEL 1
REMARK VINA RESULT:    -5.278      0.000      0.000
REMARK INTER + INTRA:          -5.622
REMARK INTER:                  -5.587
REMARK INTRA:                  -0.035
REMARK UNBOUND:                -0.035
REMARK SMILES COc1ccc2ccc(=O)oc2c1
REMARK SMILES IDX 3 1 13 2 12 3 6 4 5 5 4 6 7 7 8 8 9 9 10 10 11 11 2 12 1 13
REMARK H PARENT
REMARK Flexibility Score: inf
ROOT
ATOM      1  C   UNL     1     -16.799  37.106  -3.531  1.00  0.00     0.122 A 
ATOM      2  C   UNL     1     -16.470  36.185  -2.516  1.00  0.00     0.094 A 
ATOM      3  C   UNL     1     -15.463  35.236  -2.723  1.00  0.00     0.142 A 
ATOM      4  C   UNL     1     -14.774  35.201  -3.955  1.00  0.00     0.018 A 
ATOM      5  C   UNL     1     -15.101  36.115  -4.964  1.00  0.00     0.016 A 
ATOM      6  C   UNL     1     -16.108  37.061  -4.749  1.00  0.00     0.047 A 
ATOM      7  C   UNL     1     -13.773  34.241  -4.132  1.00  0.00     0.019 A 
ATOM      8  C   UNL     1     -13.485  33.353  -3.096  1.00  0.00     0.094 A 
ATOM      9  C   UNL     1     -14.209  33.447  -1.902  1.00  0.00     0.336 A 
ATOM     10  O   UNL     1     -13.964  32.654  -0.956  1.00  0.00    -0.246 OA
ATOM     11  O   UNL     1     -15.157  34.370  -1.760  1.00  0.00    -0.423 OA
ENDROOT
BRANCH   1  12
ATOM     12  O   UNL     1     -17.801  38.075  -3.370  1.00  0.00    -0.497 OA
ATOM     13  C   UNL     1     -17.860  38.999  -2.289  1.00  0.00     0.278 C 
ENDBRANCH   1  12
TORSDOF 1
ENDMDL
MODEL 2
REMARK VINA RESULT:    -5.247      1.744      2.272
REMARK INTER + INTRA:          -5.588
REMARK INTER:                  -5.549
REMARK INTRA:                  -0.039
REMARK UNBOUND:                -0.035
REMARK SMILES COc1ccc2ccc(=O)oc2c1
REMARK SMILES IDX 3 1 13 2 12 3 6 4 5 5 4 6 7 7 8 8 9 9 10 10 11 11 2 12 1 13
REMARK H PARENT
REMARK Flexibility Score: inf
ROOT
ATOM      1  C   UNL     1     -15.137  35.987  -4.765  1.00  0.00     0.122 A 
ATOM      2  C   UNL     1     -15.398  35.989  -3.380  1.00  0.00     0.094 A 
ATOM      3  C   UNL     1     -14.896  34.967  -2.566  1.00  0.00     0.142 A 
ATOM      4  C   UNL     1     -14.125  33.930  -3.135  1.00  0.00     0.018 A 
ATOM      5  C   UNL     1     -13.866  33.928  -4.511  1.00  0.00     0.016 A 
ATOM      6  C   UNL     1     -14.370  34.951  -5.318  1.00  0.00     0.047 A 
ATOM      7  C   UNL     1     -13.639  32.923  -2.295  1.00  0.00     0.019 A 
ATOM      8  C   UNL     1     -13.925  32.973  -0.931  1.00  0.00     0.094 A 
ATOM      9  C   UNL     1     -14.695  34.031  -0.437  1.00  0.00     0.336 A 
ATOM     10  O   UNL     1     -14.965  34.092   0.790  1.00  0.00    -0.246 OA
ATOM     11  O   UNL     1     -15.146  34.975  -1.259  1.00  0.00    -0.423 OA
ENDROOT
BRANCH   1  12
ATOM     12  O   UNL     1     -15.618  36.988  -5.622  1.00  0.00    -0.497 OA
ATOM     13  C   UNL     1     -16.275  38.173  -5.186  1.00  0.00     0.278 C 
ENDBRANCH   1  12
TORSDOF 1
ENDMDL
MODEL 3
REMARK VINA RESULT:    -5.220      3.565      4.367
REMARK INTER + INTRA:          -5.560
REMARK INTER:                  -5.521
REMARK INTRA:                  -0.039
REMARK UNBOUND:                -0.035
REMARK SMILES COc1ccc2ccc(=O)oc2c1
REMARK SMILES IDX 3 1 13 2 12 3 6 4 5 5 4 6 7 7 8 8 9 9 10 10 11 11 2 12 1 13
REMARK H PARENT
REMARK Flexibility Score: inf
ROOT
ATOM      1  C   UNL     1     -11.223  37.330  -1.504  1.00  0.00     0.122 A 
ATOM      2  C   UNL     1     -12.339  36.486  -1.338  1.00  0.00     0.094 A 
ATOM      3  C   UNL     1     -12.691  35.576  -2.342  1.00  0.00     0.142 A 
ATOM      4  C   UNL     1     -11.924  35.505  -3.525  1.00  0.00     0.018 A 
ATOM      5  C   UNL     1     -10.816  36.344  -3.690  1.00  0.00     0.016 A 
ATOM      6  C   UNL     1     -10.470  37.250  -2.683  1.00  0.00     0.047 A 
ATOM      7  C   UNL     1     -12.302  34.587  -4.510  1.00  0.00     0.019 A 
ATOM      8  C   UNL     1     -13.414  33.773  -4.297  1.00  0.00     0.094 A 
ATOM      9  C   UNL     1     -14.126  33.899  -3.099  1.00  0.00     0.336 A 
ATOM     10  O   UNL     1     -15.133  33.175  -2.889  1.00  0.00    -0.246 OA
ATOM     11  O   UNL     1     -13.746  34.782  -2.179  1.00  0.00    -0.423 OA
ENDROOT
BRANCH   1  12
ATOM     12  O   UNL     1     -10.830  38.258  -0.527  1.00  0.00    -0.497 OA
ATOM     13  C   UNL     1     -11.402  38.346   0.774  1.00  0.00     0.278 C 
ENDBRANCH   1  12
TORSDOF 1
ENDMDL
MODEL 4
REMARK VINA RESULT:    -5.157      1.437      4.611
REMARK INTER + INTRA:          -5.494
REMARK INTER:                  -5.455
REMARK INTRA:                  -0.039
REMARK UNBOUND:                -0.035
REMARK SMILES COc1ccc2ccc(=O)oc2c1
REMARK SMILES IDX 3 1 13 2 12 3 6 4 5 5 4 6 7 7 8 8 9 9 10 10 11 11 2 12 1 13
REMARK H PARENT
REMARK Flexibility Score: inf
ROOT
ATOM      1  C   UNL     1     -14.411  34.615  -3.430  1.00  0.00     0.122 A 
ATOM      2  C   UNL     1     -15.349  34.991  -2.448  1.00  0.00     0.094 A 
ATOM      3  C   UNL     1     -16.234  36.049  -2.685  1.00  0.00     0.142 A 
ATOM      4  C   UNL     1     -16.186  36.743  -3.913  1.00  0.00     0.018 A 
ATOM      5  C   UNL     1     -15.254  36.370  -4.890  1.00  0.00     0.016 A 
ATOM      6  C   UNL     1     -14.374  35.312  -4.646  1.00  0.00     0.047 A 
ATOM      7  C   UNL     1     -17.082  37.797  -4.120  1.00  0.00     0.019 A 
ATOM      8  C   UNL     1     -17.991  38.128  -3.116  1.00  0.00     0.094 A 
ATOM      9  C   UNL     1     -17.981  37.396  -1.923  1.00  0.00     0.336 A 
ATOM     10  O   UNL     1     -18.793  37.682  -1.005  1.00  0.00    -0.246 OA
ATOM     11  O   UNL     1     -17.117  36.399  -1.753  1.00  0.00    -0.423 OA
ENDROOT
BRANCH   1  12
ATOM     12  O   UNL     1     -13.504  33.562  -3.239  1.00  0.00    -0.497 OA
ATOM     13  C   UNL     1     -13.250  32.936  -1.986  1.00  0.00     0.278 C 
ENDBRANCH   1  12
TORSDOF 1
ENDMDL
MODEL 5
REMARK VINA RESULT:    -5.153      3.625      4.980
REMARK INTER + INTRA:          -5.489
REMARK INTER:                  -5.450
REMARK INTRA:                  -0.039
REMARK UNBOUND:                -0.035
REMARK SMILES COc1ccc2ccc(=O)oc2c1
REMARK SMILES IDX 3 1 13 2 12 3 6 4 5 5 4 6 7 7 8 8 9 9 10 10 11 11 2 12 1 13
REMARK H PARENT
REMARK Flexibility Score: inf
ROOT
ATOM      1  C   UNL     1     -10.855  36.746  -3.052  1.00  0.00     0.122 A 
ATOM      2  C   UNL     1     -11.383  35.826  -3.980  1.00  0.00     0.094 A 
ATOM      3  C   UNL     1     -12.461  35.007  -3.627  1.00  0.00     0.142 A 
ATOM      4  C   UNL     1     -13.022  35.103  -2.335  1.00  0.00     0.018 A 
ATOM      5  C   UNL     1     -12.498  36.017  -1.412  1.00  0.00     0.016 A 
ATOM      6  C   UNL     1     -11.421  36.832  -1.772  1.00  0.00     0.047 A 
ATOM      7  C   UNL     1     -14.098  34.271  -2.011  1.00  0.00     0.019 A 
ATOM      8  C   UNL     1     -14.583  33.378  -2.966  1.00  0.00     0.094 A 
ATOM      9  C   UNL     1     -13.978  33.338  -4.227  1.00  0.00     0.336 A 
ATOM     10  O   UNL     1     -14.400  32.538  -5.101  1.00  0.00    -0.246 OA
ATOM     11  O   UNL     1     -12.954  34.141  -4.508  1.00  0.00    -0.423 OA
ENDROOT
BRANCH   1  12
ATOM     12  O   UNL     1      -9.775  37.588  -3.359  1.00  0.00    -0.497 OA
ATOM     13  C   UNL     1      -8.940  37.440  -4.503  1.00  0.00     0.278 C 
ENDBRANCH   1  12
TORSDOF 1
ENDMDL
MODEL 6
REMARK VINA RESULT:    -5.129      3.727      4.719
REMARK INTER + INTRA:          -5.463
REMARK INTER:                  -5.429
REMARK INTRA:                  -0.034
REMARK UNBOUND:                -0.035
REMARK SMILES COc1ccc2ccc(=O)oc2c1
REMARK SMILES IDX 3 1 13 2 12 3 6 4 5 5 4 6 7 7 8 8 9 9 10 10 11 11 2 12 1 13
REMARK H PARENT
REMARK Flexibility Score: inf
ROOT
ATOM      1  C   UNL     1     -10.868  36.898  -4.772  1.00  0.00     0.122 A 
ATOM      2  C   UNL     1     -11.368  36.114  -3.712  1.00  0.00     0.094 A 
ATOM      3  C   UNL     1     -12.250  35.059  -3.970  1.00  0.00     0.142 A 
ATOM      4  C   UNL     1     -12.639  34.777  -5.298  1.00  0.00     0.018 A 
ATOM      5  C   UNL     1     -12.143  35.556  -6.350  1.00  0.00     0.016 A 
ATOM      6  C   UNL     1     -11.262  36.608  -6.085  1.00  0.00     0.047 A 
ATOM      7  C   UNL     1     -13.522  33.717  -5.523  1.00  0.00     0.019 A 
ATOM      8  C   UNL     1     -13.988  32.972  -4.440  1.00  0.00     0.094 A 
ATOM      9  C   UNL     1     -13.559  33.308  -3.151  1.00  0.00     0.336 A 
ATOM     10  O   UNL     1     -13.969  32.649  -2.161  1.00  0.00    -0.246 OA
ATOM     11  O   UNL     1     -12.718  34.323  -2.965  1.00  0.00    -0.423 OA
ENDROOT
BRANCH   1  12
ATOM     12  O   UNL     1      -9.982  37.966  -4.564  1.00  0.00    -0.497 OA
ATOM     13  C   UNL     1      -8.758  38.145  -5.269  1.00  0.00     0.278 C 
ENDBRANCH   1  12
TORSDOF 1
ENDMDL
MODEL 7
REMARK VINA RESULT:    -5.120      3.707      5.060
REMARK INTER + INTRA:          -5.454
REMARK INTER:                  -5.417
REMARK INTRA:                  -0.038
REMARK UNBOUND:                -0.035
REMARK SMILES COc1ccc2ccc(=O)oc2c1
REMARK SMILES IDX 3 1 13 2 12 3 6 4 5 5 4 6 7 7 8 8 9 9 10 10 11 11 2 12 1 13
REMARK H PARENT
REMARK Flexibility Score: inf
ROOT
ATOM      1  C   UNL     1     -13.613  33.387  -3.188  1.00  0.00     0.122 A 
ATOM      2  C   UNL     1     -12.711  34.468  -3.111  1.00  0.00     0.094 A 
ATOM      3  C   UNL     1     -12.248  35.084  -4.279  1.00  0.00     0.142 A 
ATOM      4  C   UNL     1     -12.686  34.622  -5.539  1.00  0.00     0.018 A 
ATOM      5  C   UNL     1     -13.581  33.548  -5.615  1.00  0.00     0.016 A 
ATOM      6  C   UNL     1     -14.040  32.937  -4.445  1.00  0.00     0.047 A 
ATOM      7  C   UNL     1     -12.204  35.258  -6.687  1.00  0.00     0.019 A 
ATOM      8  C   UNL     1     -11.315  36.324  -6.557  1.00  0.00     0.094 A 
ATOM      9  C   UNL     1     -10.924  36.728  -5.276  1.00  0.00     0.336 A 
ATOM     10  O   UNL     1     -10.121  37.686  -5.138  1.00  0.00    -0.246 OA
ATOM     11  O   UNL     1     -11.397  36.104  -4.199  1.00  0.00    -0.423 OA
ENDROOT
BRANCH   1  12
ATOM     12  O   UNL     1     -14.105  32.736  -2.046  1.00  0.00    -0.497 OA
ATOM     13  C   UNL     1     -14.218  33.341  -0.762  1.00  0.00     0.278 C 
ENDBRANCH   1  12
TORSDOF 1
ENDMDL
MODEL 8
REMARK VINA RESULT:    -5.082      3.516      4.254
REMARK INTER + INTRA:          -5.414
REMARK INTER:                  -5.379
REMARK INTRA:                  -0.035
REMARK UNBOUND:                -0.035
REMARK SMILES COc1ccc2ccc(=O)oc2c1
REMARK SMILES IDX 3 1 13 2 12 3 6 4 5 5 4 6 7 7 8 8 9 9 10 10 11 11 2 12 1 13
REMARK H PARENT
REMARK Flexibility Score: inf
ROOT
ATOM      1  C   UNL     1     -11.343  36.886  -3.032  1.00  0.00     0.122 A 
ATOM      2  C   UNL     1     -12.123  36.609  -1.891  1.00  0.00     0.094 A 
ATOM      3  C   UNL     1     -12.871  35.430  -1.816  1.00  0.00     0.142 A 
ATOM      4  C   UNL     1     -12.846  34.512  -2.889  1.00  0.00     0.018 A 
ATOM      5  C   UNL     1     -12.072  34.786  -4.023  1.00  0.00     0.016 A 
ATOM      6  C   UNL     1     -11.326  35.967  -4.091  1.00  0.00     0.047 A 
ATOM      7  C   UNL     1     -13.605  33.343  -2.785  1.00  0.00     0.019 A 
ATOM      8  C   UNL     1     -14.359  33.117  -1.634  1.00  0.00     0.094 A 
ATOM      9  C   UNL     1     -14.336  34.070  -0.610  1.00  0.00     0.336 A 
ATOM     10  O   UNL     1     -15.011  33.885   0.435  1.00  0.00    -0.246 OA
ATOM     11  O   UNL     1     -13.605  35.175  -0.736  1.00  0.00    -0.423 OA
ENDROOT
BRANCH   1  12
ATOM     12  O   UNL     1     -10.576  38.054  -3.154  1.00  0.00    -0.497 OA
ATOM     13  C   UNL     1      -9.636  38.504  -2.184  1.00  0.00     0.278 C 
ENDBRANCH   1  12
TORSDOF 1
ENDMDL
MODEL 9
REMARK VINA RESULT:    -5.054      2.787      4.234
REMARK INTER + INTRA:          -5.384
REMARK INTER:                  -5.345
REMARK INTRA:                  -0.039
REMARK UNBOUND:                -0.035
REMARK SMILES COc1ccc2ccc(=O)oc2c1
REMARK SMILES IDX 3 1 13 2 12 3 6 4 5 5 4 6 7 7 8 8 9 9 10 10 11 11 2 12 1 13
REMARK H PARENT
REMARK Flexibility Score: inf
ROOT
ATOM      1  C   UNL     1     -14.526  34.272  -0.547  1.00  0.00     0.122 A 
ATOM      2  C   UNL     1     -14.461  35.325  -1.482  1.00  0.00     0.094 A 
ATOM      3  C   UNL     1     -13.778  35.153  -2.691  1.00  0.00     0.142 A 
ATOM      4  C   UNL     1     -13.153  33.920  -2.976  1.00  0.00     0.018 A 
ATOM      5  C   UNL     1     -13.217  32.874  -2.048  1.00  0.00     0.016 A 
ATOM      6  C   UNL     1     -13.901  33.052  -0.841  1.00  0.00     0.047 A 
ATOM      7  C   UNL     1     -12.478  33.780  -4.193  1.00  0.00     0.019 A 
ATOM      8  C   UNL     1     -12.444  34.852  -5.084  1.00  0.00     0.094 A 
ATOM      9  C   UNL     1     -13.087  36.044  -4.734  1.00  0.00     0.336 A 
ATOM     10  O   UNL     1     -13.065  37.024  -5.524  1.00  0.00    -0.246 OA
ATOM     11  O   UNL     1     -13.721  36.151  -3.569  1.00  0.00    -0.423 OA
ENDROOT
BRANCH   1  12
ATOM     12  O   UNL     1     -15.198  34.396   0.679  1.00  0.00    -0.497 OA
ATOM     13  C   UNL     1     -15.915  35.555   1.090  1.00  0.00     0.278 C 
ENDBRANCH   1  12
TORSDOF 1
ENDMDL
