MODEL 1
REMARK VINA RESULT:    -4.134      0.000      0.000
REMARK INTER + INTRA:          -4.502
REMARK INTER:                  -4.859
REMARK INTRA:                   0.357
REMARK UNBOUND:                 0.357
REMARK SMILES C=C[C@@]1(C)CC[C@@H](C(=C)C)C[C@H]1C(=C)C
REMARK SMILES IDX 7 1 6 2 5 3 3 4 12 5 11 6 4 7 8 8 10 9 9 10 13 11 14 12
REMARK SMILES IDX 15 13 2 14 1 15
REMARK H PARENT
REMARK Flexibility Score: inf
ROOT
ATOM      1  C   UNL     1       4.939   7.891  13.087  1.00  0.00     0.015 C 
ATOM      2  C   UNL     1       4.047   7.794  14.339  1.00  0.00     0.009 C 
ATOM      3  C   UNL     1       3.672   9.191  14.857  1.00  0.00     0.012 C 
ATOM      4  C   UNL     1       2.940  10.048  13.782  1.00  0.00    -0.008 C 
ATOM      5  C   UNL     1       3.858  10.119  12.506  1.00  0.00     0.024 C 
ATOM      6  C   UNL     1       4.248   8.714  11.983  1.00  0.00     0.017 C 
ATOM      7  C   UNL     1       2.738  11.474  14.348  1.00  0.00     0.016 C 
ENDROOT
BRANCH   1   8
ATOM      8  C   UNL     1       5.339   6.510  12.582  1.00  0.00    -0.077 C 
ATOM      9  C   UNL     1       6.793   6.174  12.372  1.00  0.00     0.039 C 
ATOM     10  C   UNL     1       4.417   5.568  12.315  1.00  0.00     0.008 C 
ENDBRANCH   1   8
BRANCH   5  11
ATOM     11  C   UNL     1       3.329  11.036  11.396  1.00  0.00    -0.077 C 
ATOM     12  C   UNL     1       4.054  12.042  10.877  1.00  0.00     0.008 C 
ATOM     13  C   UNL     1       1.925  10.840  10.875  1.00  0.00     0.039 C 
ENDBRANCH   5  11
BRANCH   4  14
ATOM     14  C   UNL     1       1.574   9.431  13.472  1.00  0.00    -0.028 C 
ATOM     15  C   UNL     1       0.439  10.142  13.444  1.00  0.00     0.004 C 
ENDBRANCH   4  14
TORSDOF 3
ENDMDL
MODEL 2
REMARK VINA RESULT:    -2.538      1.128      3.103
REMARK INTER + INTRA:          -2.626
REMARK INTER:                  -2.393
REMARK INTRA:                  -0.233
REMARK UNBOUND:                 0.357
REMARK SMILES C=C[C@@]1(C)CC[C@@H](C(=C)C)C[C@H]1C(=C)C
REMARK SMILES IDX 7 1 6 2 5 3 3 4 12 5 11 6 4 7 8 8 10 9 9 10 13 11 14 12
REMARK SMILES IDX 15 13 2 14 1 15
REMARK H PARENT
REMARK Flexibility Score: inf
ROOT
ATOM      1  C   UNL     1       4.848   7.661  13.036  1.00  0.00     0.015 C 
ATOM      2  C   UNL     1       5.233   8.192  11.643  1.00  0.00     0.009 C 
ATOM      3  C   UNL     1       3.995   8.689  10.880  1.00  0.00     0.012 C 
ATOM      4  C   UNL     1       3.230   9.804  11.651  1.00  0.00    -0.008 C 
ATOM      5  C   UNL     1       2.862   9.249  13.077  1.00  0.00     0.024 C 
ATOM      6  C   UNL     1       4.104   8.738  13.848  1.00  0.00     0.017 C 
ATOM      7  C   UNL     1       1.930  10.130  10.877  1.00  0.00     0.016 C 
ENDROOT
BRANCH   1   8
ATOM      8  C   UNL     1       6.066   7.141  13.789  1.00  0.00    -0.077 C 
ATOM      9  C   UNL     1       6.528   5.720  13.591  1.00  0.00     0.039 C 
ATOM     10  C   UNL     1       6.753   7.926  14.637  1.00  0.00     0.008 C 
ENDBRANCH   1   8
BRANCH   5  11
ATOM     11  C   UNL     1       1.991  10.192  13.918  1.00  0.00    -0.077 C 
ATOM     12  C   UNL     1       2.461  10.855  14.989  1.00  0.00     0.008 C 
ATOM     13  C   UNL     1       0.534  10.371  13.566  1.00  0.00     0.039 C 
ENDBRANCH   5  11
BRANCH   4  14
ATOM     14  C   UNL     1       4.096  11.063  11.733  1.00  0.00    -0.028 C 
ATOM     15  C   UNL     1       3.972  12.094  10.885  1.00  0.00     0.004 C 
ENDBRANCH   4  14
TORSDOF 3
ENDMDL
MODEL 3
REMARK VINA RESULT:    -2.164      1.327      5.104
REMARK INTER + INTRA:          -2.186
REMARK INTER:                  -2.051
REMARK INTRA:                  -0.135
REMARK UNBOUND:                 0.357
REMARK SMILES C=C[C@@]1(C)CC[C@@H](C(=C)C)C[C@H]1C(=C)C
REMARK SMILES IDX 7 1 6 2 5 3 3 4 12 5 11 6 4 7 8 8 10 9 9 10 13 11 14 12
REMARK SMILES IDX 15 13 2 14 1 15
REMARK H PARENT
REMARK Flexibility Score: inf
ROOT
ATOM      1  C   UNL     1       3.321  10.088  11.879  1.00  0.00     0.015 C 
ATOM      2  C   UNL     1       3.393   8.922  10.875  1.00  0.00     0.009 C 
ATOM      3  C   UNL     1       4.755   8.216  10.947  1.00  0.00     0.012 C 
ATOM      4  C   UNL     1       5.069   7.674  12.372  1.00  0.00    -0.008 C 
ATOM      5  C   UNL     1       4.973   8.874  13.385  1.00  0.00     0.024 C 
ATOM      6  C   UNL     1       3.605   9.597  13.312  1.00  0.00     0.017 C 
ATOM      7  C   UNL     1       6.513   7.115  12.375  1.00  0.00     0.016 C 
ENDROOT
BRANCH   1   8
ATOM      8  C   UNL     1       1.982  10.812  11.796  1.00  0.00    -0.077 C 
ATOM      9  C   UNL     1       0.876  10.465  12.759  1.00  0.00     0.039 C 
ATOM     10  C   UNL     1       1.757  11.765  10.876  1.00  0.00     0.008 C 
ENDBRANCH   1   8
BRANCH   5  11
ATOM     11  C   UNL     1       5.380   8.524  14.822  1.00  0.00    -0.077 C 
ATOM     12  C   UNL     1       4.513   8.546  15.850  1.00  0.00     0.008 C 
ATOM     13  C   UNL     1       6.816   8.170  15.123  1.00  0.00     0.039 C 
ENDBRANCH   5  11
BRANCH   4  14
ATOM     14  C   UNL     1       4.093   6.548  12.723  1.00  0.00    -0.028 C 
ATOM     15  C   UNL     1       4.289   5.271  12.367  1.00  0.00     0.004 C 
ENDBRANCH   4  14
TORSDOF 3
ENDMDL
MODEL 4
REMARK VINA RESULT:    -1.892      1.604      5.223
REMARK INTER + INTRA:          -1.867
REMARK INTER:                  -1.899
REMARK INTRA:                   0.032
REMARK UNBOUND:                 0.357
REMARK SMILES C=C[C@@]1(C)CC[C@@H](C(=C)C)C[C@H]1C(=C)C
REMARK SMILES IDX 7 1 6 2 5 3 3 4 12 5 11 6 4 7 8 8 10 9 9 10 13 11 14 12
REMARK SMILES IDX 15 13 2 14 1 15
REMARK H PARENT
REMARK Flexibility Score: inf
ROOT
ATOM      1  C   UNL     1       3.898   8.834  12.642  1.00  0.00     0.015 C 
ATOM      2  C   UNL     1       4.250   9.264  14.078  1.00  0.00     0.009 C 
ATOM      3  C   UNL     1       4.807   8.083  14.887  1.00  0.00     0.012 C 
ATOM      4  C   UNL     1       6.068   7.452  14.226  1.00  0.00    -0.008 C 
ATOM      5  C   UNL     1       5.694   7.037  12.755  1.00  0.00     0.024 C 
ATOM      6  C   UNL     1       5.123   8.221  11.936  1.00  0.00     0.017 C 
ATOM      7  C   UNL     1       6.462   6.190  15.031  1.00  0.00     0.016 C 
ENDROOT
BRANCH   1   8
ATOM      8  C   UNL     1       3.319   9.994  11.840  1.00  0.00    -0.077 C 
ATOM      9  C   UNL     1       1.922  10.485  12.123  1.00  0.00     0.039 C 
ATOM     10  C   UNL     1       4.030  10.602  10.875  1.00  0.00     0.008 C 
ENDBRANCH   1   8
BRANCH   5  11
ATOM     11  C   UNL     1       6.802   6.283  12.009  1.00  0.00    -0.077 C 
ATOM     12  C   UNL     1       7.462   6.809  10.961  1.00  0.00     0.008 C 
ATOM     13  C   UNL     1       7.159   4.878  12.429  1.00  0.00     0.039 C 
ENDBRANCH   5  11
BRANCH   4  14
ATOM     14  C   UNL     1       7.226   8.453  14.261  1.00  0.00    -0.028 C 
ATOM     15  C   UNL     1       8.508   8.097  14.103  1.00  0.00     0.004 C 
ENDBRANCH   4  14
TORSDOF 3
ENDMDL
