MODEL 1
REMARK VINA RESULT:    19.702      0.000      0.000
REMARK INTER + INTRA:          44.308
REMARK INTER:                  42.739
REMARK INTRA:                   1.569
REMARK UNBOUND:                 1.569
REMARK SMILES CCCCCCCCCCCCCCCCCCCCCC(=O)[O-]
REMARK SMILES IDX 12 1 11 2 10 3 9 4 8 5 7 6 6 7 5 8 4 9 3 10 2 11 1 12 13 13
REMARK SMILES IDX 14 14 15 15 16 16 17 17 18 18 19 19 20 20 21 21 22 22 23 23
REMARK SMILES IDX 24 24
REMARK H PARENT
REMARK Flexibility Score: inf
ROOT
ATOM      1  C   UNL     1     -17.830   4.764 -18.059  1.00  0.00     0.000 C 
ENDROOT
BRANCH   1   2
ATOM      2  C   UNL     1     -16.568   5.207 -17.299  1.00  0.00     0.000 C 
BRANCH   2   3
ATOM      3  C   UNL     1     -15.872   6.410 -17.959  1.00  0.00     0.000 C 
BRANCH   3   4
ATOM      4  C   UNL     1     -15.944   6.363 -19.496  1.00  0.00    -0.000 C 
BRANCH   4   5
ATOM      5  C   UNL     1     -14.755   7.074 -20.168  1.00  0.00    -0.000 C 
BRANCH   5   6
ATOM      6  C   UNL     1     -14.652   6.873 -21.693  1.00  0.00    -0.000 C 
BRANCH   6   7
ATOM      7  C   UNL     1     -13.839   5.641 -22.139  1.00  0.00    -0.000 C 
BRANCH   7   8
ATOM      8  C   UNL     1     -12.685   5.941 -23.114  1.00  0.00    -0.000 C 
BRANCH   8   9
ATOM      9  C   UNL     1     -11.841   4.701 -23.443  1.00  0.00    -0.000 C 
BRANCH   9  10
ATOM     10  C   UNL     1     -11.316   4.764 -24.885  1.00  0.00    -0.000 C 
BRANCH  10  11
ATOM     11  C   UNL     1      -9.840   4.352 -24.993  1.00  0.00    -0.003 C 
ATOM     12  C   UNL     1      -9.661   2.905 -25.453  1.00  0.00     0.004 C 
ENDBRANCH  10  11
ENDBRANCH   9  10
ENDBRANCH   8   9
ENDBRANCH   7   8
ENDBRANCH   6   7
ENDBRANCH   5   6
ENDBRANCH   4   5
ENDBRANCH   3   4
ENDBRANCH   2   3
ENDBRANCH   1   2
BRANCH   1  13
ATOM     13  C   UNL     1     -19.121   5.352 -17.464  1.00  0.00     0.000 C 
BRANCH  13  14
ATOM     14  C   UNL     1     -19.022   6.822 -17.012  1.00  0.00     0.000 C 
BRANCH  14  15
ATOM     15  C   UNL     1     -19.309   7.069 -15.518  1.00  0.00     0.000 C 
BRANCH  15  16
ATOM     16  C   UNL     1     -19.749   5.822 -14.724  1.00  0.00     0.000 C 
BRANCH  16  17
ATOM     17  C   UNL     1     -20.112   4.598 -15.582  1.00  0.00     0.000 C 
BRANCH  17  18
ATOM     18  C   UNL     1     -19.258   3.364 -15.254  1.00  0.00     0.000 C 
BRANCH  18  19
ATOM     19  C   UNL     1     -19.753   2.133 -16.028  1.00  0.00     0.000 C 
BRANCH  19  20
ATOM     20  C   UNL     1     -19.990   0.913 -15.118  1.00  0.00     0.006 C 
BRANCH  20  21
ATOM     21  C   UNL     1     -19.271  -0.366 -15.573  1.00  0.00     0.053 C 
BRANCH  21  22
ATOM     22  C   UNL     1     -18.751  -1.162 -14.415  1.00  0.00     0.041 C 
ATOM     23  O   UNL     1     -17.609  -0.921 -13.944  1.00  0.00    -0.550 OA
ATOM     24  O   UNL     1     -19.517  -2.190 -13.878  1.00  0.00    -0.550 OA
ENDBRANCH  21  22
ENDBRANCH  20  21
ENDBRANCH  19  20
ENDBRANCH  18  19
ENDBRANCH  17  18
ENDBRANCH  16  17
ENDBRANCH  15  16
ENDBRANCH  14  15
ENDBRANCH  13  14
ENDBRANCH   1  13
TORSDOF 20
ENDMDL
MODEL 2
REMARK VINA RESULT:    21.811     11.787     15.805
REMARK INTER + INTRA:          48.880
REMARK INTER:                  49.355
REMARK INTRA:                  -0.475
REMARK UNBOUND:                 1.569
REMARK SMILES CCCCCCCCCCCCCCCCCCCCCC(=O)[O-]
REMARK SMILES IDX 12 1 11 2 10 3 9 4 8 5 7 6 6 7 5 8 4 9 3 10 2 11 1 12 13 13
REMARK SMILES IDX 14 14 15 15 16 16 17 17 18 18 19 19 20 20 21 21 22 22 23 23
REMARK SMILES IDX 24 24
REMARK H PARENT
REMARK Flexibility Score: inf
ROOT
ATOM      1  C   UNL     1     -15.680  -5.673 -24.952  1.00  0.00     0.000 C 
ENDROOT
BRANCH   1   2
ATOM      2  C   UNL     1     -16.433  -6.266 -23.749  1.00  0.00     0.000 C 
BRANCH   2   3
ATOM      3  C   UNL     1     -17.759  -5.540 -23.465  1.00  0.00     0.000 C 
BRANCH   3   4
ATOM      4  C   UNL     1     -18.241  -5.734 -22.017  1.00  0.00    -0.000 C 
BRANCH   4   5
ATOM      5  C   UNL     1     -17.325  -5.047 -20.988  1.00  0.00    -0.000 C 
BRANCH   5   6
ATOM      6  C   UNL     1     -17.915  -4.923 -19.569  1.00  0.00    -0.000 C 
BRANCH   6   7
ATOM      7  C   UNL     1     -18.440  -3.521 -19.196  1.00  0.00    -0.000 C 
BRANCH   7   8
ATOM      8  C   UNL     1     -19.752  -3.510 -18.390  1.00  0.00    -0.000 C 
BRANCH   8   9
ATOM      9  C   UNL     1     -19.707  -2.560 -17.185  1.00  0.00    -0.000 C 
BRANCH   9  10
ATOM     10  C   UNL     1     -20.122  -1.138 -17.593  1.00  0.00    -0.000 C 
BRANCH  10  11
ATOM     11  C   UNL     1     -19.458  -0.058 -16.726  1.00  0.00    -0.003 C 
ATOM     12  C   UNL     1     -19.944  -0.082 -15.276  1.00  0.00     0.004 C 
ENDBRANCH  10  11
ENDBRANCH   9  10
ENDBRANCH   8   9
ENDBRANCH   7   8
ENDBRANCH   6   7
ENDBRANCH   5   6
ENDBRANCH   4   5
ENDBRANCH   3   4
ENDBRANCH   2   3
ENDBRANCH   1   2
BRANCH   1  13
ATOM     13  C   UNL     1     -16.335  -6.028 -26.298  1.00  0.00     0.000 C 
BRANCH  13  14
ATOM     14  C   UNL     1     -17.651  -6.825 -26.195  1.00  0.00     0.000 C 
BRANCH  14  15
ATOM     15  C   UNL     1     -18.697  -6.507 -27.282  1.00  0.00     0.000 C 
BRANCH  15  16
ATOM     16  C   UNL     1     -19.248  -7.733 -28.036  1.00  0.00     0.000 C 
BRANCH  16  17
ATOM     17  C   UNL     1     -18.268  -8.382 -29.029  1.00  0.00     0.000 C 
BRANCH  17  18
ATOM     18  C   UNL     1     -18.912  -9.501 -29.861  1.00  0.00     0.000 C 
BRANCH  18  19
ATOM     19  C   UNL     1     -17.887 -10.137 -30.812  1.00  0.00     0.000 C 
BRANCH  19  20
ATOM     20  C   UNL     1     -16.687 -10.752 -30.069  1.00  0.00     0.006 C 
BRANCH  20  21
ATOM     21  C   UNL     1     -15.329 -10.507 -30.746  1.00  0.00     0.053 C 
BRANCH  21  22
ATOM     22  C   UNL     1     -14.214 -10.407 -29.751  1.00  0.00     0.041 C 
ATOM     23  O   UNL     1     -14.459 -10.110 -28.553  1.00  0.00    -0.550 OA
ATOM     24  O   UNL     1     -12.900 -10.612 -30.156  1.00  0.00    -0.550 OA
ENDBRANCH  21  22
ENDBRANCH  20  21
ENDBRANCH  19  20
ENDBRANCH  18  19
ENDBRANCH  17  18
ENDBRANCH  16  17
ENDBRANCH  15  16
ENDBRANCH  14  15
ENDBRANCH  13  14
ENDBRANCH   1  13
TORSDOF 20
ENDMDL
MODEL 3
REMARK VINA RESULT:    22.401     13.203     15.488
REMARK INTER + INTRA:          50.161
REMARK INTER:                  50.952
REMARK INTRA:                  -0.791
REMARK UNBOUND:                 1.569
REMARK SMILES CCCCCCCCCCCCCCCCCCCCCC(=O)[O-]
REMARK SMILES IDX 12 1 11 2 10 3 9 4 8 5 7 6 6 7 5 8 4 9 3 10 2 11 1 12 13 13
REMARK SMILES IDX 14 14 15 15 16 16 17 17 18 18 19 19 20 20 21 21 22 22 23 23
REMARK SMILES IDX 24 24
REMARK H PARENT
REMARK Flexibility Score: inf
ROOT
ATOM      1  C   UNL     1     -18.955  -7.332 -28.293  1.00  0.00     0.000 C 
ENDROOT
BRANCH   1   2
ATOM      2  C   UNL     1     -19.961  -8.496 -28.345  1.00  0.00     0.000 C 
BRANCH   2   3
ATOM      3  C   UNL     1     -19.658  -9.487 -29.481  1.00  0.00     0.000 C 
BRANCH   3   4
ATOM      4  C   UNL     1     -18.351  -9.158 -30.221  1.00  0.00    -0.000 C 
BRANCH   4   5
ATOM      5  C   UNL     1     -18.031 -10.164 -31.341  1.00  0.00    -0.000 C 
BRANCH   5   6
ATOM      6  C   UNL     1     -17.647 -11.577 -30.859  1.00  0.00    -0.000 C 
BRANCH   6   7
ATOM      7  C   UNL     1     -17.383 -11.705 -29.345  1.00  0.00    -0.000 C 
BRANCH   7   8
ATOM      8  C   UNL     1     -15.909 -11.549 -28.926  1.00  0.00    -0.000 C 
BRANCH   8   9
ATOM      9  C   UNL     1     -15.426 -10.092 -28.966  1.00  0.00    -0.000 C 
BRANCH   9  10
ATOM     10  C   UNL     1     -13.899 -10.025 -29.116  1.00  0.00    -0.000 C 
BRANCH  10  11
ATOM     11  C   UNL     1     -13.409 -10.631 -30.439  1.00  0.00    -0.003 C 
ATOM     12  C   UNL     1     -14.484 -10.624 -31.527  1.00  0.00     0.004 C 
ENDBRANCH  10  11
ENDBRANCH   9  10
ENDBRANCH   8   9
ENDBRANCH   7   8
ENDBRANCH   6   7
ENDBRANCH   5   6
ENDBRANCH   4   5
ENDBRANCH   3   4
ENDBRANCH   2   3
ENDBRANCH   1   2
BRANCH   1  13
ATOM     13  C   UNL     1     -18.997  -6.568 -26.958  1.00  0.00     0.000 C 
BRANCH  13  14
ATOM     14  C   UNL     1     -19.750  -5.223 -26.998  1.00  0.00     0.000 C 
BRANCH  14  15
ATOM     15  C   UNL     1     -19.666  -4.388 -25.705  1.00  0.00     0.000 C 
BRANCH  15  16
ATOM     16  C   UNL     1     -18.623  -4.874 -24.680  1.00  0.00     0.000 C 
BRANCH  16  17
ATOM     17  C   UNL     1     -17.160  -4.564 -25.041  1.00  0.00     0.000 C 
BRANCH  17  18
ATOM     18  C   UNL     1     -16.255  -5.803 -24.987  1.00  0.00     0.000 C 
BRANCH  18  19
ATOM     19  C   UNL     1     -16.823  -6.856 -24.024  1.00  0.00     0.000 C 
BRANCH  19  20
ATOM     20  C   UNL     1     -16.331  -6.667 -22.577  1.00  0.00     0.006 C 
BRANCH  20  21
ATOM     21  C   UNL     1     -17.454  -6.509 -21.541  1.00  0.00     0.053 C 
BRANCH  21  22
ATOM     22  C   UNL     1     -17.417  -5.170 -20.870  1.00  0.00     0.041 C 
ATOM     23  O   UNL     1     -17.114  -4.141 -21.528  1.00  0.00    -0.550 OA
ATOM     24  O   UNL     1     -17.685  -5.066 -19.510  1.00  0.00    -0.550 OA
ENDBRANCH  21  22
ENDBRANCH  20  21
ENDBRANCH  19  20
ENDBRANCH  18  19
ENDBRANCH  17  18
ENDBRANCH  16  17
ENDBRANCH  15  16
ENDBRANCH  14  15
ENDBRANCH  13  14
ENDBRANCH   1  13
TORSDOF 20
ENDMDL
MODEL 4
REMARK VINA RESULT:    22.601     11.855     15.487
REMARK INTER + INTRA:          50.595
REMARK INTER:                  51.381
REMARK INTRA:                  -0.786
REMARK UNBOUND:                 1.569
REMARK SMILES CCCCCCCCCCCCCCCCCCCCCC(=O)[O-]
REMARK SMILES IDX 12 1 11 2 10 3 9 4 8 5 7 6 6 7 5 8 4 9 3 10 2 11 1 12 13 13
REMARK SMILES IDX 14 14 15 15 16 16 17 17 18 18 19 19 20 20 21 21 22 22 23 23
REMARK SMILES IDX 24 24
REMARK H PARENT
REMARK Flexibility Score: inf
ROOT
ATOM      1  C   UNL     1      -9.948  -5.405 -20.919  1.00  0.00     0.000 C 
ENDROOT
BRANCH   1   2
ATOM      2  C   UNL     1      -9.489  -4.124 -21.636  1.00  0.00     0.000 C 
BRANCH   2   3
ATOM      3  C   UNL     1      -8.791  -3.133 -20.688  1.00  0.00     0.000 C 
BRANCH   3   4
ATOM      4  C   UNL     1      -9.594  -1.836 -20.493  1.00  0.00    -0.000 C 
BRANCH   4   5
ATOM      5  C   UNL     1      -8.694  -0.599 -20.321  1.00  0.00    -0.000 C 
BRANCH   5   6
ATOM      6  C   UNL     1      -9.188   0.673 -21.040  1.00  0.00    -0.000 C 
BRANCH   6   7
ATOM      7  C   UNL     1      -9.135   0.619 -22.580  1.00  0.00    -0.000 C 
BRANCH   7   8
ATOM      8  C   UNL     1      -9.574   1.911 -23.292  1.00  0.00    -0.000 C 
BRANCH   8   9
ATOM      9  C   UNL     1      -8.610   2.337 -24.409  1.00  0.00    -0.000 C 
BRANCH   9  10
ATOM     10  C   UNL     1      -9.375   2.973 -25.579  1.00  0.00    -0.000 C 
BRANCH  10  11
ATOM     11  C   UNL     1      -9.706   1.961 -26.687  1.00  0.00    -0.003 C 
ATOM     12  C   UNL     1     -11.209   1.822 -26.931  1.00  0.00     0.004 C 
ENDBRANCH  10  11
ENDBRANCH   9  10
ENDBRANCH   8   9
ENDBRANCH   7   8
ENDBRANCH   6   7
ENDBRANCH   5   6
ENDBRANCH   4   5
ENDBRANCH   3   4
ENDBRANCH   2   3
ENDBRANCH   1   2
BRANCH   1  13
ATOM     13  C   UNL     1      -9.738  -6.671 -21.768  1.00  0.00     0.000 C 
BRANCH  13  14
ATOM     14  C   UNL     1      -9.356  -7.935 -20.972  1.00  0.00     0.000 C 
BRANCH  14  15
ATOM     15  C   UNL     1      -7.848  -8.253 -20.933  1.00  0.00     0.000 C 
BRANCH  15  16
ATOM     16  C   UNL     1      -7.488  -9.637 -20.355  1.00  0.00     0.000 C 
BRANCH  16  17
ATOM     17  C   UNL     1      -6.370  -9.630 -19.298  1.00  0.00     0.000 C 
BRANCH  17  18
ATOM     18  C   UNL     1      -5.437 -10.846 -19.406  1.00  0.00     0.000 C 
BRANCH  18  19
ATOM     19  C   UNL     1      -5.420 -11.398 -20.839  1.00  0.00     0.000 C 
BRANCH  19  20
ATOM     20  C   UNL     1      -4.355 -12.490 -21.045  1.00  0.00     0.006 C 
BRANCH  20  21
ATOM     21  C   UNL     1      -4.162 -12.920 -22.507  1.00  0.00     0.053 C 
BRANCH  21  22
ATOM     22  C   UNL     1      -2.931 -12.318 -23.114  1.00  0.00     0.041 C 
ATOM     23  O   UNL     1      -2.339 -12.904 -24.057  1.00  0.00    -0.550 OA
ATOM     24  O   UNL     1      -2.422 -11.124 -22.615  1.00  0.00    -0.550 OA
ENDBRANCH  21  22
ENDBRANCH  20  21
ENDBRANCH  19  20
ENDBRANCH  18  19
ENDBRANCH  17  18
ENDBRANCH  16  17
ENDBRANCH  15  16
ENDBRANCH  14  15
ENDBRANCH  13  14
ENDBRANCH   1  13
TORSDOF 20
ENDMDL
