MODEL 1
REMARK VINA RESULT:    -4.028      0.000      0.000
REMARK INTER + INTRA:          -9.025
REMARK INTER:                  -6.971
REMARK INTRA:                  -2.054
REMARK UNBOUND:                -2.054
REMARK SMILES CCCCCCCCCCCCCCO
REMARK SMILES IDX 8 1 7 2 6 3 5 4 4 5 3 6 2 7 1 8 9 9 10 10 11 11 12 12 13 13
REMARK SMILES IDX 14 14 15 15
REMARK H PARENT 15 16
REMARK Flexibility Score: inf
ROOT
ATOM      1  C   UNL     1      13.326  -1.191 -48.566  1.00  0.00     0.000 C 
ENDROOT
BRANCH   1   2
ATOM      2  C   UNL     1      11.932  -0.631 -48.900  1.00  0.00    -0.000 C 
BRANCH   2   3
ATOM      3  C   UNL     1      11.286   0.114 -47.716  1.00  0.00    -0.000 C 
BRANCH   3   4
ATOM      4  C   UNL     1      12.242   0.446 -46.555  1.00  0.00    -0.000 C 
BRANCH   4   5
ATOM      5  C   UNL     1      12.409   1.956 -46.328  1.00  0.00    -0.000 C 
BRANCH   5   6
ATOM      6  C   UNL     1      12.012   2.747 -47.579  1.00  0.00    -0.000 C 
BRANCH   6   7
ATOM      7  C   UNL     1      13.246   3.340 -48.271  1.00  0.00    -0.003 C 
ATOM      8  C   UNL     1      13.412   2.777 -49.678  1.00  0.00     0.004 C 
ENDBRANCH   6   7
ENDBRANCH   5   6
ENDBRANCH   4   5
ENDBRANCH   3   4
ENDBRANCH   2   3
ENDBRANCH   1   2
BRANCH   1   9
ATOM      9  C   UNL     1      14.313  -1.047 -49.736  1.00  0.00     0.000 C 
BRANCH   9  10
ATOM     10  C   UNL     1      15.698  -0.558 -49.280  1.00  0.00     0.000 C 
BRANCH  10  11
ATOM     11  C   UNL     1      15.698  -0.053 -47.828  1.00  0.00     0.000 C 
BRANCH  11  12
ATOM     12  C   UNL     1      16.293   1.356 -47.688  1.00  0.00     0.002 C 
BRANCH  12  13
ATOM     13  C   UNL     1      16.129   1.880 -46.254  1.00  0.00     0.028 C 
BRANCH  13  14
ATOM     14  C   UNL     1      17.451   1.851 -45.486  1.00  0.00     0.156 C 
BRANCH  14  15
ATOM     15  O   UNL     1      17.325   2.556 -44.281  1.00  0.00    -0.396 OA
ATOM     16  H   UNL     1      16.352   2.639 -44.112  1.00  0.00     0.210 HD
ENDBRANCH  14  15
ENDBRANCH  13  14
ENDBRANCH  12  13
ENDBRANCH  11  12
ENDBRANCH  10  11
ENDBRANCH   9  10
ENDBRANCH   1   9
TORSDOF 13
ENDMDL
MODEL 2
REMARK VINA RESULT:    -3.793      1.392      3.657
REMARK INTER + INTRA:          -8.620
REMARK INTER:                  -7.225
REMARK INTRA:                  -1.395
REMARK UNBOUND:                -2.054
REMARK SMILES CCCCCCCCCCCCCCO
REMARK SMILES IDX 8 1 7 2 6 3 5 4 4 5 3 6 2 7 1 8 9 9 10 10 11 11 12 12 13 13
REMARK SMILES IDX 14 14 15 15
REMARK H PARENT 15 16
REMARK Flexibility Score: inf
ROOT
ATOM      1  C   UNL     1      12.047   1.813 -46.766  1.00  0.00     0.000 C 
ENDROOT
BRANCH   1   2
ATOM      2  C   UNL     1      11.776   1.296 -48.189  1.00  0.00    -0.000 C 
BRANCH   2   3
ATOM      3  C   UNL     1      12.983   1.472 -49.131  1.00  0.00    -0.000 C 
BRANCH   3   4
ATOM      4  C   UNL     1      13.460   0.185 -49.827  1.00  0.00    -0.000 C 
BRANCH   4   5
ATOM      5  C   UNL     1      13.000  -1.092 -49.109  1.00  0.00    -0.000 C 
BRANCH   5   6
ATOM      6  C   UNL     1      13.936  -2.266 -49.422  1.00  0.00    -0.000 C 
BRANCH   6   7
ATOM      7  C   UNL     1      15.257  -2.135 -48.655  1.00  0.00    -0.003 C 
ATOM      8  C   UNL     1      16.438  -2.001 -49.611  1.00  0.00     0.004 C 
ENDBRANCH   6   7
ENDBRANCH   5   6
ENDBRANCH   4   5
ENDBRANCH   3   4
ENDBRANCH   2   3
ENDBRANCH   1   2
BRANCH   1   9
ATOM      9  C   UNL     1      13.114   0.984 -46.032  1.00  0.00     0.000 C 
BRANCH   9  10
ATOM     10  C   UNL     1      14.494   1.664 -46.039  1.00  0.00     0.000 C 
BRANCH  10  11
ATOM     11  C   UNL     1      15.615   0.720 -46.502  1.00  0.00     0.000 C 
BRANCH  11  12
ATOM     12  C   UNL     1      16.460   1.313 -47.639  1.00  0.00     0.002 C 
BRANCH  12  13
ATOM     13  C   UNL     1      17.670   2.078 -47.083  1.00  0.00     0.028 C 
BRANCH  13  14
ATOM     14  C   UNL     1      17.876   1.805 -45.593  1.00  0.00     0.156 C 
BRANCH  14  15
ATOM     15  O   UNL     1      19.217   1.488 -45.341  1.00  0.00    -0.396 OA
ATOM     16  H   UNL     1      19.571   2.222 -44.774  1.00  0.00     0.210 HD
ENDBRANCH  14  15
ENDBRANCH  13  14
ENDBRANCH  12  13
ENDBRANCH  11  12
ENDBRANCH  10  11
ENDBRANCH   9  10
ENDBRANCH   1   9
TORSDOF 13
ENDMDL
MODEL 3
REMARK VINA RESULT:    -3.774      4.030      6.271
REMARK INTER + INTRA:          -8.586
REMARK INTER:                  -8.030
REMARK INTRA:                  -0.556
REMARK UNBOUND:                -2.054
REMARK SMILES CCCCCCCCCCCCCCO
REMARK SMILES IDX 8 1 7 2 6 3 5 4 4 5 3 6 2 7 1 8 9 9 10 10 11 11 12 12 13 13
REMARK SMILES IDX 14 14 15 15
REMARK H PARENT 15 16
REMARK Flexibility Score: inf
ROOT
ATOM      1  C   UNL     1      15.750  -3.073 -49.723  1.00  0.00     0.000 C 
ENDROOT
BRANCH   1   2
ATOM      2  C   UNL     1      14.290  -3.414 -49.376  1.00  0.00    -0.000 C 
BRANCH   2   3
ATOM      3  C   UNL     1      13.884  -4.833 -49.820  1.00  0.00    -0.000 C 
BRANCH   3   4
ATOM      4  C   UNL     1      13.571  -5.811 -48.673  1.00  0.00    -0.000 C 
BRANCH   4   5
ATOM      5  C   UNL     1      14.532  -7.009 -48.625  1.00  0.00    -0.000 C 
BRANCH   5   6
ATOM      6  C   UNL     1      14.035  -8.073 -47.640  1.00  0.00    -0.000 C 
BRANCH   6   7
ATOM      7  C   UNL     1      12.503  -8.095 -47.580  1.00  0.00    -0.003 C 
ATOM      8  C   UNL     1      12.003  -7.877 -46.156  1.00  0.00     0.004 C 
ENDBRANCH   6   7
ENDBRANCH   5   6
ENDBRANCH   4   5
ENDBRANCH   3   4
ENDBRANCH   2   3
ENDBRANCH   1   2
BRANCH   1   9
ATOM      9  C   UNL     1      16.107  -1.615 -49.393  1.00  0.00     0.000 C 
BRANCH   9  10
ATOM     10  C   UNL     1      14.875  -0.694 -49.388  1.00  0.00     0.000 C 
BRANCH  10  11
ATOM     11  C   UNL     1      15.058   0.533 -48.480  1.00  0.00     0.000 C 
BRANCH  11  12
ATOM     12  C   UNL     1      16.326   0.450 -47.617  1.00  0.00     0.002 C 
BRANCH  12  13
ATOM     13  C   UNL     1      16.815   1.852 -47.224  1.00  0.00     0.028 C 
BRANCH  13  14
ATOM     14  C   UNL     1      17.400   1.874 -45.812  1.00  0.00     0.156 C 
BRANCH  14  15
ATOM     15  O   UNL     1      18.750   1.500 -45.842  1.00  0.00    -0.396 OA
ATOM     16  H   UNL     1      18.995   1.434 -46.801  1.00  0.00     0.210 HD
ENDBRANCH  14  15
ENDBRANCH  13  14
ENDBRANCH  12  13
ENDBRANCH  11  12
ENDBRANCH  10  11
ENDBRANCH   9  10
ENDBRANCH   1   9
TORSDOF 13
ENDMDL
MODEL 4
REMARK VINA RESULT:    -3.675      1.963      4.488
REMARK INTER + INTRA:          -8.415
REMARK INTER:                  -7.070
REMARK INTRA:                  -1.345
REMARK UNBOUND:                -2.054
REMARK SMILES CCCCCCCCCCCCCCO
REMARK SMILES IDX 8 1 7 2 6 3 5 4 4 5 3 6 2 7 1 8 9 9 10 10 11 11 12 12 13 13
REMARK SMILES IDX 14 14 15 15
REMARK H PARENT 15 16
REMARK Flexibility Score: inf
ROOT
ATOM      1  C   UNL     1      14.106  -3.006 -48.923  1.00  0.00     0.000 C 
ENDROOT
BRANCH   1   2
ATOM      2  C   UNL     1      15.420  -3.255 -49.684  1.00  0.00    -0.000 C 
BRANCH   2   3
ATOM      3  C   UNL     1      16.433  -2.106 -49.522  1.00  0.00    -0.000 C 
BRANCH   3   4
ATOM      4  C   UNL     1      15.813  -0.704 -49.374  1.00  0.00    -0.000 C 
BRANCH   4   5
ATOM      5  C   UNL     1      16.160  -0.032 -48.037  1.00  0.00    -0.000 C 
BRANCH   5   6
ATOM      6  C   UNL     1      16.474   1.455 -48.235  1.00  0.00    -0.000 C 
BRANCH   6   7
ATOM      7  C   UNL     1      17.180   2.037 -47.004  1.00  0.00    -0.003 C 
ATOM      8  C   UNL     1      16.595   1.471 -45.714  1.00  0.00     0.004 C 
ENDBRANCH   6   7
ENDBRANCH   5   6
ENDBRANCH   4   5
ENDBRANCH   3   4
ENDBRANCH   2   3
ENDBRANCH   1   2
BRANCH   1   9
ATOM      9  C   UNL     1      12.864  -3.251 -49.796  1.00  0.00     0.000 C 
BRANCH   9  10
ATOM     10  C   UNL     1      11.840  -2.108 -49.698  1.00  0.00     0.000 C 
BRANCH  10  11
ATOM     11  C   UNL     1      12.202  -1.082 -48.612  1.00  0.00     0.000 C 
BRANCH  11  12
ATOM     12  C   UNL     1      12.388   0.336 -49.171  1.00  0.00     0.002 C 
BRANCH  12  13
ATOM     13  C   UNL     1      12.767   1.320 -48.054  1.00  0.00     0.028 C 
BRANCH  13  14
ATOM     14  C   UNL     1      12.663   2.773 -48.520  1.00  0.00     0.156 C 
BRANCH  14  15
ATOM     15  O   UNL     1      13.481   3.593 -47.732  1.00  0.00    -0.396 OA
ATOM     16  H   UNL     1      12.891   4.305 -47.373  1.00  0.00     0.210 HD
ENDBRANCH  14  15
ENDBRANCH  13  14
ENDBRANCH  12  13
ENDBRANCH  11  12
ENDBRANCH  10  11
ENDBRANCH   9  10
ENDBRANCH   1   9
TORSDOF 13
ENDMDL
MODEL 5
REMARK VINA RESULT:    -3.666      2.335      4.836
REMARK INTER + INTRA:          -8.399
REMARK INTER:                  -7.220
REMARK INTRA:                  -1.179
REMARK UNBOUND:                -2.054
REMARK SMILES CCCCCCCCCCCCCCO
REMARK SMILES IDX 8 1 7 2 6 3 5 4 4 5 3 6 2 7 1 8 9 9 10 10 11 11 12 12 13 13
REMARK SMILES IDX 14 14 15 15
REMARK H PARENT 15 16
REMARK Flexibility Score: inf
ROOT
ATOM      1  C   UNL     1      12.962   1.143 -48.823  1.00  0.00     0.000 C 
ENDROOT
BRANCH   1   2
ATOM      2  C   UNL     1      13.748   0.170 -49.720  1.00  0.00    -0.000 C 
BRANCH   2   3
ATOM      3  C   UNL     1      13.699  -1.284 -49.214  1.00  0.00    -0.000 C 
BRANCH   3   4
ATOM      4  C   UNL     1      15.067  -1.904 -48.878  1.00  0.00    -0.000 C 
BRANCH   4   5
ATOM      5  C   UNL     1      15.294  -3.262 -49.558  1.00  0.00    -0.000 C 
BRANCH   5   6
ATOM      6  C   UNL     1      13.999  -4.081 -49.597  1.00  0.00    -0.000 C 
BRANCH   6   7
ATOM      7  C   UNL     1      14.250  -5.530 -49.161  1.00  0.00    -0.003 C 
ATOM      8  C   UNL     1      12.980  -6.167 -48.608  1.00  0.00     0.004 C 
ENDBRANCH   6   7
ENDBRANCH   5   6
ENDBRANCH   4   5
ENDBRANCH   3   4
ENDBRANCH   2   3
ENDBRANCH   1   2
BRANCH   1   9
ATOM      9  C   UNL     1      12.370   0.452 -47.584  1.00  0.00     0.000 C 
BRANCH   9  10
ATOM     10  C   UNL     1      12.964   0.990 -46.271  1.00  0.00     0.000 C 
BRANCH  10  11
ATOM     11  C   UNL     1      14.214   1.854 -46.498  1.00  0.00     0.000 C 
BRANCH  11  12
ATOM     12  C   UNL     1      15.509   1.154 -46.061  1.00  0.00     0.002 C 
BRANCH  12  13
ATOM     13  C   UNL     1      16.557   1.189 -47.182  1.00  0.00     0.028 C 
BRANCH  13  14
ATOM     14  C   UNL     1      17.755   2.065 -46.812  1.00  0.00     0.156 C 
BRANCH  14  15
ATOM     15  O   UNL     1      18.540   1.426 -45.843  1.00  0.00    -0.396 OA
ATOM     16  H   UNL     1      17.904   1.034 -45.190  1.00  0.00     0.210 HD
ENDBRANCH  14  15
ENDBRANCH  13  14
ENDBRANCH  12  13
ENDBRANCH  11  12
ENDBRANCH  10  11
ENDBRANCH   9  10
ENDBRANCH   1   9
TORSDOF 13
ENDMDL
MODEL 6
REMARK VINA RESULT:    -3.581      1.758      4.064
REMARK INTER + INTRA:          -8.253
REMARK INTER:                  -7.046
REMARK INTRA:                  -1.207
REMARK UNBOUND:                -2.054
REMARK SMILES CCCCCCCCCCCCCCO
REMARK SMILES IDX 8 1 7 2 6 3 5 4 4 5 3 6 2 7 1 8 9 9 10 10 11 11 12 12 13 13
REMARK SMILES IDX 14 14 15 15
REMARK H PARENT 15 16
REMARK Flexibility Score: inf
ROOT
ATOM      1  C   UNL     1      12.766   0.338 -48.489  1.00  0.00     0.000 C 
ENDROOT
BRANCH   1   2
ATOM      2  C   UNL     1      12.705  -0.243 -49.913  1.00  0.00    -0.000 C 
BRANCH   2   3
ATOM      3  C   UNL     1      11.943  -1.581 -49.982  1.00  0.00    -0.000 C 
BRANCH   3   4
ATOM      4  C   UNL     1      12.556  -2.724 -49.153  1.00  0.00    -0.000 C 
BRANCH   4   5
ATOM      5  C   UNL     1      13.601  -3.538 -49.932  1.00  0.00    -0.000 C 
BRANCH   5   6
ATOM      6  C   UNL     1      14.915  -3.635 -49.149  1.00  0.00    -0.000 C 
BRANCH   6   7
ATOM      7  C   UNL     1      16.036  -2.865 -49.858  1.00  0.00    -0.003 C 
ATOM      8  C   UNL     1      16.100  -1.419 -49.377  1.00  0.00     0.004 C 
ENDBRANCH   6   7
ENDBRANCH   5   6
ENDBRANCH   4   5
ENDBRANCH   3   4
ENDBRANCH   2   3
ENDBRANCH   1   2
BRANCH   1   9
ATOM      9  C   UNL     1      12.743   1.875 -48.480  1.00  0.00     0.000 C 
BRANCH   9  10
ATOM     10  C   UNL     1      13.918   2.476 -47.690  1.00  0.00     0.000 C 
BRANCH  10  11
ATOM     11  C   UNL     1      14.197   1.721 -46.381  1.00  0.00     0.000 C 
BRANCH  11  12
ATOM     12  C   UNL     1      15.641   1.206 -46.287  1.00  0.00     0.002 C 
BRANCH  12  13
ATOM     13  C   UNL     1      16.465   1.657 -47.503  1.00  0.00     0.028 C 
BRANCH  13  14
ATOM     14  C   UNL     1      17.797   2.281 -47.085  1.00  0.00     0.156 C 
BRANCH  14  15
ATOM     15  O   UNL     1      18.446   1.458 -46.156  1.00  0.00    -0.396 OA
ATOM     16  H   UNL     1      17.742   0.881 -45.762  1.00  0.00     0.210 HD
ENDBRANCH  14  15
ENDBRANCH  13  14
ENDBRANCH  12  13
ENDBRANCH  11  12
ENDBRANCH  10  11
ENDBRANCH   9  10
ENDBRANCH   1   9
TORSDOF 13
ENDMDL
MODEL 7
REMARK VINA RESULT:    -3.567     11.184     12.888
REMARK INTER + INTRA:          -8.228
REMARK INTER:                  -7.626
REMARK INTRA:                  -0.602
REMARK UNBOUND:                -2.054
REMARK SMILES CCCCCCCCCCCCCCO
REMARK SMILES IDX 8 1 7 2 6 3 5 4 4 5 3 6 2 7 1 8 9 9 10 10 11 11 12 12 13 13
REMARK SMILES IDX 14 14 15 15
REMARK H PARENT 15 16
REMARK Flexibility Score: inf
ROOT
ATOM      1  C   UNL     1      18.450 -10.117 -47.533  1.00  0.00     0.000 C 
ENDROOT
BRANCH   1   2
ATOM      2  C   UNL     1      17.958  -9.901 -48.975  1.00  0.00    -0.000 C 
BRANCH   2   3
ATOM      3  C   UNL     1      16.772  -8.922 -49.064  1.00  0.00    -0.000 C 
BRANCH   3   4
ATOM      4  C   UNL     1      15.380  -9.578 -49.043  1.00  0.00    -0.000 C 
BRANCH   4   5
ATOM      5  C   UNL     1      14.257  -8.593 -48.687  1.00  0.00    -0.000 C 
BRANCH   5   6
ATOM      6  C   UNL     1      14.356  -8.152 -47.222  1.00  0.00    -0.000 C 
BRANCH   6   7
ATOM      7  C   UNL     1      12.965  -8.020 -46.592  1.00  0.00    -0.003 C 
ATOM      8  C   UNL     1      11.947  -8.898 -47.314  1.00  0.00     0.004 C 
ENDBRANCH   6   7
ENDBRANCH   5   6
ENDBRANCH   4   5
ENDBRANCH   3   4
ENDBRANCH   2   3
ENDBRANCH   1   2
BRANCH   1   9
ATOM      9  C   UNL     1      19.977 -10.271 -47.449  1.00  0.00     0.000 C 
BRANCH   9  10
ATOM     10  C   UNL     1      20.669 -10.014 -48.799  1.00  0.00     0.000 C 
BRANCH  10  11
ATOM     11  C   UNL     1      21.140 -11.310 -49.477  1.00  0.00     0.000 C 
BRANCH  11  12
ATOM     12  C   UNL     1      21.216 -12.497 -48.506  1.00  0.00     0.002 C 
BRANCH  12  13
ATOM     13  C   UNL     1      22.231 -13.541 -48.994  1.00  0.00     0.028 C 
BRANCH  13  14
ATOM     14  C   UNL     1      22.363 -14.706 -48.011  1.00  0.00     0.156 C 
BRANCH  14  15
ATOM     15  O   UNL     1      22.032 -14.285 -46.716  1.00  0.00    -0.396 OA
ATOM     16  H   UNL     1      21.043 -14.207 -46.698  1.00  0.00     0.210 HD
ENDBRANCH  14  15
ENDBRANCH  13  14
ENDBRANCH  12  13
ENDBRANCH  11  12
ENDBRANCH  10  11
ENDBRANCH   9  10
ENDBRANCH   1   9
TORSDOF 13
ENDMDL
MODEL 8
REMARK VINA RESULT:    -3.554     12.662     14.473
REMARK INTER + INTRA:          -8.205
REMARK INTER:                  -7.530
REMARK INTRA:                  -0.675
REMARK UNBOUND:                -2.054
REMARK SMILES CCCCCCCCCCCCCCO
REMARK SMILES IDX 8 1 7 2 6 3 5 4 4 5 3 6 2 7 1 8 9 9 10 10 11 11 12 12 13 13
REMARK SMILES IDX 14 14 15 15
REMARK H PARENT 15 16
REMARK Flexibility Score: inf
ROOT
ATOM      1  C   UNL     1      20.686 -10.358 -47.969  1.00  0.00     0.000 C 
ENDROOT
BRANCH   1   2
ATOM      2  C   UNL     1      20.646  -9.329 -49.113  1.00  0.00    -0.000 C 
BRANCH   2   3
ATOM      3  C   UNL     1      19.517  -9.602 -50.125  1.00  0.00    -0.000 C 
BRANCH   3   4
ATOM      4  C   UNL     1      18.117  -9.141 -49.680  1.00  0.00    -0.000 C 
BRANCH   4   5
ATOM      5  C   UNL     1      17.015 -10.156 -50.018  1.00  0.00    -0.000 C 
BRANCH   5   6
ATOM      6  C   UNL     1      15.634  -9.491 -50.010  1.00  0.00    -0.000 C 
BRANCH   6   7
ATOM      7  C   UNL     1      15.309  -8.914 -48.627  1.00  0.00    -0.003 C 
ATOM      8  C   UNL     1      14.555  -7.593 -48.745  1.00  0.00     0.004 C 
ENDBRANCH   6   7
ENDBRANCH   5   6
ENDBRANCH   4   5
ENDBRANCH   3   4
ENDBRANCH   2   3
ENDBRANCH   1   2
BRANCH   1   9
ATOM      9  C   UNL     1      20.328 -11.776 -48.441  1.00  0.00     0.000 C 
BRANCH   9  10
ATOM     10  C   UNL     1      21.495 -12.765 -48.271  1.00  0.00     0.000 C 
BRANCH  10  11
ATOM     11  C   UNL     1      22.180 -13.105 -49.604  1.00  0.00     0.000 C 
BRANCH  11  12
ATOM     12  C   UNL     1      23.178 -14.267 -49.481  1.00  0.00     0.002 C 
BRANCH  12  13
ATOM     13  C   UNL     1      23.066 -14.943 -48.107  1.00  0.00     0.028 C 
BRANCH  13  14
ATOM     14  C   UNL     1      24.312 -15.767 -47.778  1.00  0.00     0.156 C 
BRANCH  14  15
ATOM     15  O   UNL     1      24.630 -15.640 -46.420  1.00  0.00    -0.396 OA
ATOM     16  H   UNL     1      23.878 -16.052 -45.922  1.00  0.00     0.210 HD
ENDBRANCH  14  15
ENDBRANCH  13  14
ENDBRANCH  12  13
ENDBRANCH  11  12
ENDBRANCH  10  11
ENDBRANCH   9  10
ENDBRANCH   1   9
TORSDOF 13
ENDMDL
MODEL 9
REMARK VINA RESULT:    -3.545      2.105      4.366
REMARK INTER + INTRA:          -8.189
REMARK INTER:                  -7.042
REMARK INTRA:                  -1.147
REMARK UNBOUND:                -2.054
REMARK SMILES CCCCCCCCCCCCCCO
REMARK SMILES IDX 8 1 7 2 6 3 5 4 4 5 3 6 2 7 1 8 9 9 10 10 11 11 12 12 13 13
REMARK SMILES IDX 14 14 15 15
REMARK H PARENT 15 16
REMARK Flexibility Score: inf
ROOT
ATOM      1  C   UNL     1      16.078  -1.067 -49.249  1.00  0.00     0.000 C 
ENDROOT
BRANCH   1   2
ATOM      2  C   UNL     1      16.207  -2.595 -49.378  1.00  0.00    -0.000 C 
BRANCH   2   3
ATOM      3  C   UNL     1      14.953  -3.253 -49.984  1.00  0.00    -0.000 C 
BRANCH   3   4
ATOM      4  C   UNL     1      14.433  -4.488 -49.226  1.00  0.00    -0.000 C 
BRANCH   4   5
ATOM      5  C   UNL     1      12.947  -4.774 -49.490  1.00  0.00    -0.000 C 
BRANCH   5   6
ATOM      6  C   UNL     1      12.147  -3.470 -49.598  1.00  0.00    -0.000 C 
BRANCH   6   7
ATOM      7  C   UNL     1      11.335  -3.216 -48.323  1.00  0.00    -0.003 C 
ATOM      8  C   UNL     1      11.282  -1.728 -47.991  1.00  0.00     0.004 C 
ENDBRANCH   6   7
ENDBRANCH   5   6
ENDBRANCH   4   5
ENDBRANCH   3   4
ENDBRANCH   2   3
ENDBRANCH   1   2
BRANCH   1   9
ATOM      9  C   UNL     1      14.613  -0.600 -49.238  1.00  0.00     0.000 C 
BRANCH   9  10
ATOM     10  C   UNL     1      14.329   0.417 -48.119  1.00  0.00     0.000 C 
BRANCH  10  11
ATOM     11  C   UNL     1      14.871   1.818 -48.442  1.00  0.00     0.000 C 
BRANCH  11  12
ATOM     12  C   UNL     1      16.143   2.161 -47.652  1.00  0.00     0.002 C 
BRANCH  12  13
ATOM     13  C   UNL     1      15.990   1.779 -46.173  1.00  0.00     0.028 C 
BRANCH  13  14
ATOM     14  C   UNL     1      17.255   1.117 -45.625  1.00  0.00     0.156 C 
BRANCH  14  15
ATOM     15  O   UNL     1      18.384   1.603 -46.295  1.00  0.00    -0.396 OA
ATOM     16  H   UNL     1      18.058   2.317 -46.901  1.00  0.00     0.210 HD
ENDBRANCH  14  15
ENDBRANCH  13  14
ENDBRANCH  12  13
ENDBRANCH  11  12
ENDBRANCH  10  11
ENDBRANCH   9  10
ENDBRANCH   1   9
TORSDOF 13
ENDMDL
