MODEL 1
REMARK VINA RESULT:    -6.432      0.000      0.000
REMARK INTER + INTRA:         -10.709
REMARK INTER:                 -10.004
REMARK INTRA:                  -0.704
REMARK UNBOUND:                -0.704
REMARK SMILES COc1cc(CNC(=O)CCCCC=CC(C)C)ccc1O
REMARK SMILES IDX 11 1 12 2 13 3 14 4 15 5 16 6 17 7 18 8 10 9 8 10 9 11 7 12
REMARK SMILES IDX 6 14 5 15 4 16 19 17 3 18 20 19 21 20 2 21 1 22 22 23
REMARK H PARENT 7 13 22 24
REMARK Flexibility Score: inf
ROOT
ATOM      1  C   UNL     1       8.588  16.596 -19.181  1.00  0.00     0.010 C 
ENDROOT
BRANCH   1   2
ATOM      2  C   UNL     1       8.343  16.713 -20.696  1.00  0.00     0.005 C 
BRANCH   2   3
ATOM      3  C   UNL     1       8.302  15.340 -21.384  1.00  0.00     0.027 C 
BRANCH   3   4
ATOM      4  C   UNL     1       8.951  15.370 -22.742  1.00  0.00    -0.031 C 
ATOM      5  C   UNL     1       8.574  16.251 -23.683  1.00  0.00    -0.028 C 
BRANCH   5   6
ATOM      6  C   UNL     1       9.249  16.296 -25.033  1.00  0.00     0.005 C 
ATOM      7  C   UNL     1       8.296  15.794 -26.125  1.00  0.00     0.012 C 
ATOM      8  C   UNL     1      10.532  15.458 -25.021  1.00  0.00     0.012 C 
ENDBRANCH   5   6
ENDBRANCH   3   4
ENDBRANCH   2   3
ENDBRANCH   1   2
BRANCH   1   9
ATOM      9  C   UNL     1       8.898  15.157 -18.749  1.00  0.00     0.100 C 
BRANCH   9  10
ATOM     10  C   UNL     1       9.591  15.119 -17.418  1.00  0.00     0.220 C 
ATOM     11  O   UNL     1      10.845  15.243 -17.370  1.00  0.00    -0.275 OA
ATOM     12  N   UNL     1       8.840  14.881 -16.219  1.00  0.00    -0.352 N 
ATOM     13  H   UNL     1       7.798  14.854 -16.276  1.00  0.00     0.163 HD
BRANCH  12  14
ATOM     14  C   UNL     1       9.468  14.387 -14.997  1.00  0.00     0.151 C 
BRANCH  14  15
ATOM     15  C   UNL     1       8.992  12.989 -14.716  1.00  0.00    -0.025 A 
ATOM     16  C   UNL     1       9.399  11.931 -15.546  1.00  0.00     0.056 A 
ATOM     17  C   UNL     1       8.240  12.713 -13.565  1.00  0.00     0.009 A 
ATOM     18  C   UNL     1       9.052  10.600 -15.234  1.00  0.00     0.160 A 
ATOM     19  C   UNL     1       7.888  11.399 -13.255  1.00  0.00     0.050 A 
ATOM     20  C   UNL     1       8.287  10.343 -14.082  1.00  0.00     0.157 A 
BRANCH  18  21
ATOM     21  O   UNL     1       9.459   9.519 -16.034  1.00  0.00    -0.493 OA
ATOM     22  C   UNL     1      10.719   8.864 -15.925  1.00  0.00     0.278 C 
ENDBRANCH  18  21
BRANCH  20  23
ATOM     23  O   UNL     1       7.921   9.044 -13.737  1.00  0.00    -0.504 OA
ATOM     24  H   UNL     1       7.135   8.571 -14.172  1.00  0.00     0.293 HD
ENDBRANCH  20  23
ENDBRANCH  14  15
ENDBRANCH  12  14
ENDBRANCH   9  10
ENDBRANCH   1   9
TORSDOF 10
ENDMDL
MODEL 2
REMARK VINA RESULT:    -6.353      2.844      9.069
REMARK INTER + INTRA:         -10.585
REMARK INTER:                  -9.848
REMARK INTRA:                  -0.737
REMARK UNBOUND:                -0.704
REMARK SMILES COc1cc(CNC(=O)CCCCC=CC(C)C)ccc1O
REMARK SMILES IDX 11 1 12 2 13 3 14 4 15 5 16 6 17 7 18 8 10 9 8 10 9 11 7 12
REMARK SMILES IDX 6 14 5 15 4 16 19 17 3 18 20 19 21 20 2 21 1 22 22 23
REMARK H PARENT 7 13 22 24
REMARK Flexibility Score: inf
ROOT
ATOM      1  C   UNL     1       9.432  10.178 -15.656  1.00  0.00     0.010 C 
ENDROOT
BRANCH   1   2
ATOM      2  C   UNL     1       9.982   8.748 -15.797  1.00  0.00     0.005 C 
BRANCH   2   3
ATOM      3  C   UNL     1       9.285   7.763 -14.846  1.00  0.00     0.027 C 
BRANCH   3   4
ATOM      4  C   UNL     1       8.195   8.425 -14.046  1.00  0.00    -0.031 C 
ATOM      5  C   UNL     1       7.678   7.849 -12.949  1.00  0.00    -0.028 C 
BRANCH   5   6
ATOM      6  C   UNL     1       6.606   8.532 -12.134  1.00  0.00     0.005 C 
ATOM      7  C   UNL     1       6.644  10.048 -12.362  1.00  0.00     0.012 C 
ATOM      8  C   UNL     1       6.779   8.215 -10.645  1.00  0.00     0.012 C 
ENDBRANCH   5   6
ENDBRANCH   3   4
ENDBRANCH   2   3
ENDBRANCH   1   2
BRANCH   1   9
ATOM      9  C   UNL     1      10.391  11.231 -16.226  1.00  0.00     0.100 C 
BRANCH   9  10
ATOM     10  C   UNL     1      10.019  12.615 -15.779  1.00  0.00     0.220 C 
ATOM     11  O   UNL     1       9.204  12.759 -14.827  1.00  0.00    -0.275 OA
ATOM     12  N   UNL     1      10.539  13.761 -16.468  1.00  0.00    -0.352 N 
ATOM     13  H   UNL     1      11.265  13.618 -17.204  1.00  0.00     0.163 HD
BRANCH  12  14
ATOM     14  C   UNL     1       9.890  15.067 -16.396  1.00  0.00     0.151 C 
BRANCH  14  15
ATOM     15  C   UNL     1       9.471  15.497 -17.774  1.00  0.00    -0.025 A 
ATOM     16  C   UNL     1       9.227  14.532 -18.765  1.00  0.00     0.056 A 
ATOM     17  C   UNL     1       9.207  16.847 -18.047  1.00  0.00     0.009 A 
ATOM     18  C   UNL     1       8.729  14.911 -20.029  1.00  0.00     0.160 A 
ATOM     19  C   UNL     1       8.720  17.229 -19.298  1.00  0.00     0.050 A 
ATOM     20  C   UNL     1       8.481  16.271 -20.289  1.00  0.00     0.157 A 
BRANCH  18  21
ATOM     21  O   UNL     1       8.458  13.968 -21.035  1.00  0.00    -0.493 OA
ATOM     22  C   UNL     1       8.453  12.557 -20.838  1.00  0.00     0.278 C 
ENDBRANCH  18  21
BRANCH  20  23
ATOM     23  O   UNL     1       7.989  16.689 -21.524  1.00  0.00    -0.504 OA
ATOM     24  H   UNL     1       8.540  17.256 -22.160  1.00  0.00     0.293 HD
ENDBRANCH  20  23
ENDBRANCH  14  15
ENDBRANCH  12  14
ENDBRANCH   9  10
ENDBRANCH   1   9
TORSDOF 10
ENDMDL
MODEL 3
REMARK VINA RESULT:    -6.351      1.475      2.419
REMARK INTER + INTRA:         -10.582
REMARK INTER:                  -9.935
REMARK INTRA:                  -0.647
REMARK UNBOUND:                -0.704
REMARK SMILES COc1cc(CNC(=O)CCCCC=CC(C)C)ccc1O
REMARK SMILES IDX 11 1 12 2 13 3 14 4 15 5 16 6 17 7 18 8 10 9 8 10 9 11 7 12
REMARK SMILES IDX 6 14 5 15 4 16 19 17 3 18 20 19 21 20 2 21 1 22 22 23
REMARK H PARENT 7 13 22 24
REMARK Flexibility Score: inf
ROOT
ATOM      1  C   UNL     1       9.077  15.716 -19.094  1.00  0.00     0.010 C 
ENDROOT
BRANCH   1   2
ATOM      2  C   UNL     1       8.525  16.289 -20.411  1.00  0.00     0.005 C 
BRANCH   2   3
ATOM      3  C   UNL     1       8.110  15.185 -21.395  1.00  0.00     0.027 C 
BRANCH   3   4
ATOM      4  C   UNL     1       8.842  15.293 -22.706  1.00  0.00    -0.031 C 
ATOM      5  C   UNL     1       8.453  16.152 -23.661  1.00  0.00    -0.028 C 
BRANCH   5   6
ATOM      6  C   UNL     1       9.209  16.277 -24.962  1.00  0.00     0.005 C 
ATOM      7  C   UNL     1       8.367  15.737 -26.125  1.00  0.00     0.012 C 
ATOM      8  C   UNL     1      10.544  15.529 -24.882  1.00  0.00     0.012 C 
ENDBRANCH   5   6
ENDBRANCH   3   4
ENDBRANCH   2   3
ENDBRANCH   1   2
BRANCH   1   9
ATOM      9  C   UNL     1       9.089  14.182 -19.084  1.00  0.00     0.100 C 
BRANCH   9  10
ATOM     10  C   UNL     1       8.456  13.634 -17.838  1.00  0.00     0.220 C 
ATOM     11  O   UNL     1       7.263  13.936 -17.567  1.00  0.00    -0.275 OA
ATOM     12  N   UNL     1       9.223  12.824 -16.935  1.00  0.00    -0.352 N 
ATOM     13  H   UNL     1      10.183  12.529 -17.217  1.00  0.00     0.163 HD
BRANCH  12  14
ATOM     14  C   UNL     1       8.838  12.648 -15.537  1.00  0.00     0.151 C 
BRANCH  14  15
ATOM     15  C   UNL     1       8.966  11.198 -15.160  1.00  0.00    -0.025 A 
ATOM     16  C   UNL     1       8.121  10.653 -14.179  1.00  0.00     0.056 A 
ATOM     17  C   UNL     1       9.843  10.357 -15.860  1.00  0.00     0.009 A 
ATOM     18  C   UNL     1       8.154   9.273 -13.891  1.00  0.00     0.160 A 
ATOM     19  C   UNL     1       9.884   8.992 -15.575  1.00  0.00     0.050 A 
ATOM     20  C   UNL     1       9.048   8.446 -14.595  1.00  0.00     0.157 A 
BRANCH  18  21
ATOM     21  O   UNL     1       7.309   8.694 -12.929  1.00  0.00    -0.493 OA
ATOM     22  C   UNL     1       6.755   9.391 -11.817  1.00  0.00     0.278 C 
ENDBRANCH  18  21
BRANCH  20  23
ATOM     23  O   UNL     1       9.113   7.077 -14.342  1.00  0.00    -0.504 OA
ATOM     24  H   UNL     1       9.017   6.696 -13.406  1.00  0.00     0.293 HD
ENDBRANCH  20  23
ENDBRANCH  14  15
ENDBRANCH  12  14
ENDBRANCH   9  10
ENDBRANCH   1   9
TORSDOF 10
ENDMDL
MODEL 4
REMARK VINA RESULT:    -6.296      2.578      9.509
REMARK INTER + INTRA:         -10.497
REMARK INTER:                  -9.731
REMARK INTRA:                  -0.766
REMARK UNBOUND:                -0.704
REMARK SMILES COc1cc(CNC(=O)CCCCC=CC(C)C)ccc1O
REMARK SMILES IDX 11 1 12 2 13 3 14 4 15 5 16 6 17 7 18 8 10 9 8 10 9 11 7 12
REMARK SMILES IDX 6 14 5 15 4 16 19 17 3 18 20 19 21 20 2 21 1 22 22 23
REMARK H PARENT 7 13 22 24
REMARK Flexibility Score: inf
ROOT
ATOM      1  C   UNL     1      10.308   9.562 -15.880  1.00  0.00     0.010 C 
ENDROOT
BRANCH   1   2
ATOM      2  C   UNL     1      10.218   8.246 -15.089  1.00  0.00     0.005 C 
BRANCH   2   3
ATOM      3  C   UNL     1       8.856   7.557 -15.264  1.00  0.00     0.027 C 
BRANCH   3   4
ATOM      4  C   UNL     1       7.792   8.182 -14.401  1.00  0.00    -0.031 C 
ATOM      5  C   UNL     1       7.664   7.867 -13.102  1.00  0.00    -0.028 C 
BRANCH   5   6
ATOM      6  C   UNL     1       6.615   8.519 -12.235  1.00  0.00     0.005 C 
ATOM      7  C   UNL     1       6.750  10.046 -12.287  1.00  0.00     0.012 C 
ATOM      8  C   UNL     1       6.729   8.025 -10.789  1.00  0.00     0.012 C 
ENDBRANCH   5   6
ENDBRANCH   3   4
ENDBRANCH   2   3
ENDBRANCH   1   2
BRANCH   1   9
ATOM      9  C   UNL     1       9.930   9.385 -17.356  1.00  0.00     0.100 C 
BRANCH   9  10
ATOM     10  C   UNL     1       9.071  10.514 -17.846  1.00  0.00     0.220 C 
ATOM     11  O   UNL     1       7.984  10.763 -17.257  1.00  0.00    -0.275 OA
ATOM     12  N   UNL     1       9.454  11.261 -19.009  1.00  0.00    -0.352 N 
ATOM     13  H   UNL     1      10.390  11.084 -19.435  1.00  0.00     0.163 HD
BRANCH  12  14
ATOM     14  C   UNL     1       8.487  12.032 -19.787  1.00  0.00     0.151 C 
BRANCH  14  15
ATOM     15  C   UNL     1       8.791  13.498 -19.655  1.00  0.00    -0.025 A 
ATOM     16  C   UNL     1       8.444  14.381 -20.692  1.00  0.00     0.056 A 
ATOM     17  C   UNL     1       9.312  14.011 -18.459  1.00  0.00     0.009 A 
ATOM     18  C   UNL     1       8.622  15.771 -20.540  1.00  0.00     0.160 A 
ATOM     19  C   UNL     1       9.497  15.385 -18.305  1.00  0.00     0.050 A 
ATOM     20  C   UNL     1       9.157  16.267 -19.337  1.00  0.00     0.157 A 
BRANCH  18  21
ATOM     21  O   UNL     1       8.268  16.681 -21.551  1.00  0.00    -0.493 OA
ATOM     22  C   UNL     1       8.610  16.533 -22.925  1.00  0.00     0.278 C 
ENDBRANCH  18  21
BRANCH  20  23
ATOM     23  O   UNL     1       9.350  17.633 -19.145  1.00  0.00    -0.504 OA
ATOM     24  H   UNL     1       9.103  18.318 -19.852  1.00  0.00     0.293 HD
ENDBRANCH  20  23
ENDBRANCH  14  15
ENDBRANCH  12  14
ENDBRANCH   9  10
ENDBRANCH   1   9
TORSDOF 10
ENDMDL
MODEL 5
REMARK VINA RESULT:    -6.295      2.207      3.170
REMARK INTER + INTRA:         -10.495
REMARK INTER:                  -9.652
REMARK INTRA:                  -0.844
REMARK UNBOUND:                -0.704
REMARK SMILES COc1cc(CNC(=O)CCCCC=CC(C)C)ccc1O
REMARK SMILES IDX 11 1 12 2 13 3 14 4 15 5 16 6 17 7 18 8 10 9 8 10 9 11 7 12
REMARK SMILES IDX 6 14 5 15 4 16 19 17 3 18 20 19 21 20 2 21 1 22 22 23
REMARK H PARENT 7 13 22 24
REMARK Flexibility Score: inf
ROOT
ATOM      1  C   UNL     1       8.874  14.470 -19.415  1.00  0.00     0.010 C 
ENDROOT
BRANCH   1   2
ATOM      2  C   UNL     1       9.176  15.789 -20.146  1.00  0.00     0.005 C 
BRANCH   2   3
ATOM      3  C   UNL     1       8.138  16.098 -21.236  1.00  0.00     0.027 C 
BRANCH   3   4
ATOM      4  C   UNL     1       8.786  16.466 -22.545  1.00  0.00    -0.031 C 
ATOM      5  C   UNL     1       8.668  15.687 -23.632  1.00  0.00    -0.028 C 
BRANCH   5   6
ATOM      6  C   UNL     1       9.295  16.076 -24.949  1.00  0.00     0.005 C 
ATOM      7  C   UNL     1       8.350  15.743 -26.111  1.00  0.00     0.012 C 
ATOM      8  C   UNL     1      10.639  15.364 -25.137  1.00  0.00     0.012 C 
ENDBRANCH   5   6
ENDBRANCH   3   4
ENDBRANCH   2   3
ENDBRANCH   1   2
BRANCH   1   9
ATOM      9  C   UNL     1       8.492  13.340 -20.380  1.00  0.00     0.100 C 
BRANCH   9  10
ATOM     10  C   UNL     1       8.363  12.026 -19.667  1.00  0.00     0.220 C 
ATOM     11  O   UNL     1       7.216  11.595 -19.369  1.00  0.00    -0.275 OA
ATOM     12  N   UNL     1       9.535  11.298 -19.275  1.00  0.00    -0.352 N 
ATOM     13  H   UNL     1      10.469  11.638 -19.596  1.00  0.00     0.163 HD
BRANCH  12  14
ATOM     14  C   UNL     1       9.504  10.291 -18.218  1.00  0.00     0.151 C 
BRANCH  14  15
ATOM     15  C   UNL     1       9.336  10.967 -16.885  1.00  0.00    -0.025 A 
ATOM     16  C   UNL     1       9.952  12.207 -16.646  1.00  0.00     0.056 A 
ATOM     17  C   UNL     1       8.475  10.427 -15.919  1.00  0.00     0.009 A 
ATOM     18  C   UNL     1       9.716  12.905 -15.444  1.00  0.00     0.160 A 
ATOM     19  C   UNL     1       8.244  11.110 -14.724  1.00  0.00     0.050 A 
ATOM     20  C   UNL     1       8.859  12.342 -14.481  1.00  0.00     0.157 A 
BRANCH  18  21
ATOM     21  O   UNL     1      10.303  14.154 -15.183  1.00  0.00    -0.493 OA
ATOM     22  C   UNL     1      11.077  14.895 -16.121  1.00  0.00     0.278 C 
ENDBRANCH  18  21
BRANCH  20  23
ATOM     23  O   UNL     1       8.599  12.998 -13.279  1.00  0.00    -0.504 OA
ATOM     24  H   UNL     1       7.905  13.734 -13.204  1.00  0.00     0.293 HD
ENDBRANCH  20  23
ENDBRANCH  14  15
ENDBRANCH  12  14
ENDBRANCH   9  10
ENDBRANCH   1   9
TORSDOF 10
ENDMDL
MODEL 6
REMARK VINA RESULT:    -6.283      2.900      9.604
REMARK INTER + INTRA:         -10.477
REMARK INTER:                  -9.843
REMARK INTRA:                  -0.634
REMARK UNBOUND:                -0.704
REMARK SMILES COc1cc(CNC(=O)CCCCC=CC(C)C)ccc1O
REMARK SMILES IDX 11 1 12 2 13 3 14 4 15 5 16 6 17 7 18 8 10 9 8 10 9 11 7 12
REMARK SMILES IDX 6 14 5 15 4 16 19 17 3 18 20 19 21 20 2 21 1 22 22 23
REMARK H PARENT 7 13 22 24
REMARK Flexibility Score: inf
ROOT
ATOM      1  C   UNL     1      10.424   9.049 -16.363  1.00  0.00     0.010 C 
ENDROOT
BRANCH   1   2
ATOM      2  C   UNL     1      10.060   8.415 -15.009  1.00  0.00     0.005 C 
BRANCH   2   3
ATOM      3  C   UNL     1       8.847   7.479 -15.115  1.00  0.00     0.027 C 
BRANCH   3   4
ATOM      4  C   UNL     1       7.699   7.942 -14.258  1.00  0.00    -0.031 C 
ATOM      5  C   UNL     1       7.752   7.881 -12.917  1.00  0.00    -0.028 C 
BRANCH   5   6
ATOM      6  C   UNL     1       6.610   8.376 -12.062  1.00  0.00     0.005 C 
ATOM      7  C   UNL     1       6.391   9.878 -12.279  1.00  0.00     0.012 C 
ATOM      8  C   UNL     1       6.882   8.086 -10.582  1.00  0.00     0.012 C 
ENDBRANCH   5   6
ENDBRANCH   3   4
ENDBRANCH   2   3
ENDBRANCH   1   2
BRANCH   1   9
ATOM      9  C   UNL     1       9.386  10.081 -16.823  1.00  0.00     0.100 C 
BRANCH   9  10
ATOM     10  C   UNL     1       9.965  11.465 -16.860  1.00  0.00     0.220 C 
ATOM     11  O   UNL     1      11.033  11.706 -16.235  1.00  0.00    -0.275 OA
ATOM     12  N   UNL     1       9.276  12.518 -17.551  1.00  0.00    -0.352 N 
ATOM     13  H   UNL     1       8.434  12.278 -18.120  1.00  0.00     0.163 HD
BRANCH  12  14
ATOM     14  C   UNL     1       9.521  13.927 -17.256  1.00  0.00     0.151 C 
BRANCH  14  15
ATOM     15  C   UNL     1       9.005  14.774 -18.386  1.00  0.00    -0.025 A 
ATOM     16  C   UNL     1       8.800  16.150 -18.192  1.00  0.00     0.056 A 
ATOM     17  C   UNL     1       8.837  14.225 -19.665  1.00  0.00     0.009 A 
ATOM     18  C   UNL     1       8.422  16.978 -19.269  1.00  0.00     0.160 A 
ATOM     19  C   UNL     1       8.455  15.038 -20.733  1.00  0.00     0.050 A 
ATOM     20  C   UNL     1       8.246  16.408 -20.543  1.00  0.00     0.157 A 
BRANCH  18  21
ATOM     21  O   UNL     1       8.228  18.360 -19.111  1.00  0.00    -0.493 OA
ATOM     22  C   UNL     1       7.161  18.947 -18.372  1.00  0.00     0.278 C 
ENDBRANCH  18  21
BRANCH  20  23
ATOM     23  O   UNL     1       7.872  17.189 -21.635  1.00  0.00    -0.504 OA
ATOM     24  H   UNL     1       7.170  16.884 -22.302  1.00  0.00     0.293 HD
ENDBRANCH  20  23
ENDBRANCH  14  15
ENDBRANCH  12  14
ENDBRANCH   9  10
ENDBRANCH   1   9
TORSDOF 10
ENDMDL
MODEL 7
REMARK VINA RESULT:    -6.266      1.705      2.723
REMARK INTER + INTRA:         -10.451
REMARK INTER:                  -9.715
REMARK INTRA:                  -0.735
REMARK UNBOUND:                -0.704
REMARK SMILES COc1cc(CNC(=O)CCCCC=CC(C)C)ccc1O
REMARK SMILES IDX 11 1 12 2 13 3 14 4 15 5 16 6 17 7 18 8 10 9 8 10 9 11 7 12
REMARK SMILES IDX 6 14 5 15 4 16 19 17 3 18 20 19 21 20 2 21 1 22 22 23
REMARK H PARENT 7 13 22 24
REMARK Flexibility Score: inf
ROOT
ATOM      1  C   UNL     1      10.310  15.751 -17.480  1.00  0.00     0.010 C 
ENDROOT
BRANCH   1   2
ATOM      2  C   UNL     1       9.648  16.661 -18.529  1.00  0.00     0.005 C 
BRANCH   2   3
ATOM      3  C   UNL     1       8.370  16.038 -19.111  1.00  0.00     0.027 C 
BRANCH   3   4
ATOM      4  C   UNL     1       8.183  16.386 -20.564  1.00  0.00    -0.031 C 
ATOM      5  C   UNL     1       8.653  15.596 -21.543  1.00  0.00    -0.028 C 
BRANCH   5   6
ATOM      6  C   UNL     1       8.436  15.935 -22.998  1.00  0.00     0.005 C 
ATOM      7  C   UNL     1       9.751  15.813 -23.778  1.00  0.00     0.012 C 
ATOM      8  C   UNL     1       7.864  17.349 -23.141  1.00  0.00     0.012 C 
ENDBRANCH   5   6
ENDBRANCH   3   4
ENDBRANCH   2   3
ENDBRANCH   1   2
BRANCH   1   9
ATOM      9  C   UNL     1       9.297  14.850 -16.763  1.00  0.00     0.100 C 
BRANCH   9  10
ATOM     10  C   UNL     1       9.637  13.398 -16.927  1.00  0.00     0.220 C 
ATOM     11  O   UNL     1       9.574  12.874 -18.072  1.00  0.00    -0.275 OA
ATOM     12  N   UNL     1       9.971  12.600 -15.781  1.00  0.00    -0.352 N 
ATOM     13  H   UNL     1      10.087  13.072 -14.857  1.00  0.00     0.163 HD
BRANCH  12  14
ATOM     14  C   UNL     1       9.864  11.144 -15.794  1.00  0.00     0.151 C 
BRANCH  14  15
ATOM     15  C   UNL     1       8.858  10.705 -14.767  1.00  0.00    -0.025 A 
ATOM     16  C   UNL     1       8.584   9.338 -14.596  1.00  0.00     0.056 A 
ATOM     17  C   UNL     1       8.277  11.639 -13.897  1.00  0.00     0.009 A 
ATOM     18  C   UNL     1       7.726   8.902 -13.564  1.00  0.00     0.160 A 
ATOM     19  C   UNL     1       7.423  11.214 -12.879  1.00  0.00     0.050 A 
ATOM     20  C   UNL     1       7.143   9.854 -12.709  1.00  0.00     0.157 A 
BRANCH  18  21
ATOM     21  O   UNL     1       7.446   7.541 -13.356  1.00  0.00    -0.493 OA
ATOM     22  C   UNL     1       6.539   6.774 -14.142  1.00  0.00     0.278 C 
ENDBRANCH  18  21
BRANCH  20  23
ATOM     23  O   UNL     1       6.289   9.467 -11.678  1.00  0.00    -0.504 OA
ATOM     24  H   UNL     1       5.893   8.534 -11.627  1.00  0.00     0.293 HD
ENDBRANCH  20  23
ENDBRANCH  14  15
ENDBRANCH  12  14
ENDBRANCH   9  10
ENDBRANCH   1   9
TORSDOF 10
ENDMDL
MODEL 8
REMARK VINA RESULT:    -6.258      1.802      3.154
REMARK INTER + INTRA:         -10.438
REMARK INTER:                  -9.683
REMARK INTRA:                  -0.754
REMARK UNBOUND:                -0.704
REMARK SMILES COc1cc(CNC(=O)CCCCC=CC(C)C)ccc1O
REMARK SMILES IDX 11 1 12 2 13 3 14 4 15 5 16 6 17 7 18 8 10 9 8 10 9 11 7 12
REMARK SMILES IDX 6 14 5 15 4 16 19 17 3 18 20 19 21 20 2 21 1 22 22 23
REMARK H PARENT 7 13 22 24
REMARK Flexibility Score: inf
ROOT
ATOM      1  C   UNL     1       8.806  13.352 -17.917  1.00  0.00     0.010 C 
ENDROOT
BRANCH   1   2
ATOM      2  C   UNL     1       8.894  13.951 -19.332  1.00  0.00     0.005 C 
BRANCH   2   3
ATOM      3  C   UNL     1       8.766  15.482 -19.322  1.00  0.00     0.027 C 
BRANCH   3   4
ATOM      4  C   UNL     1       8.722  16.054 -20.713  1.00  0.00    -0.031 C 
ATOM      5  C   UNL     1       8.478  15.282 -21.785  1.00  0.00    -0.028 C 
BRANCH   5   6
ATOM      6  C   UNL     1       8.405  15.867 -23.175  1.00  0.00     0.005 C 
ATOM      7  C   UNL     1       9.763  15.748 -23.878  1.00  0.00     0.012 C 
ATOM      8  C   UNL     1       7.962  17.333 -23.119  1.00  0.00     0.012 C 
ENDBRANCH   5   6
ENDBRANCH   3   4
ENDBRANCH   2   3
ENDBRANCH   1   2
BRANCH   1   9
ATOM      9  C   UNL     1       9.750  14.047 -16.928  1.00  0.00     0.100 C 
BRANCH   9  10
ATOM     10  C   UNL     1       9.272  13.899 -15.513  1.00  0.00     0.220 C 
ATOM     11  O   UNL     1       9.832  14.562 -14.599  1.00  0.00    -0.275 OA
ATOM     12  N   UNL     1       8.229  12.965 -15.197  1.00  0.00    -0.352 N 
ATOM     13  H   UNL     1       7.733  12.482 -15.978  1.00  0.00     0.163 HD
BRANCH  12  14
ATOM     14  C   UNL     1       8.038  12.447 -13.845  1.00  0.00     0.151 C 
BRANCH  14  15
ATOM     15  C   UNL     1       8.184  10.950 -13.855  1.00  0.00    -0.025 A 
ATOM     16  C   UNL     1       7.392  10.164 -13.003  1.00  0.00     0.056 A 
ATOM     17  C   UNL     1       9.021  10.325 -14.790  1.00  0.00     0.009 A 
ATOM     18  C   UNL     1       7.438   8.756 -13.077  1.00  0.00     0.160 A 
ATOM     19  C   UNL     1       9.077   8.932 -14.863  1.00  0.00     0.050 A 
ATOM     20  C   UNL     1       8.292   8.146 -14.013  1.00  0.00     0.157 A 
BRANCH  18  21
ATOM     21  O   UNL     1       6.644   7.942 -12.251  1.00  0.00    -0.493 OA
ATOM     22  C   UNL     1       6.679   7.959 -10.827  1.00  0.00     0.278 C 
ENDBRANCH  18  21
BRANCH  20  23
ATOM     23  O   UNL     1       8.369   6.759 -14.119  1.00  0.00    -0.504 OA
ATOM     24  H   UNL     1       7.596   6.154 -13.860  1.00  0.00     0.293 HD
ENDBRANCH  20  23
ENDBRANCH  14  15
ENDBRANCH  12  14
ENDBRANCH   9  10
ENDBRANCH   1   9
TORSDOF 10
ENDMDL
MODEL 9
REMARK VINA RESULT:    -6.238      2.618      8.654
REMARK INTER + INTRA:         -10.407
REMARK INTER:                  -9.340
REMARK INTRA:                  -1.067
REMARK UNBOUND:                -0.704
REMARK SMILES COc1cc(CNC(=O)CCCCC=CC(C)C)ccc1O
REMARK SMILES IDX 11 1 12 2 13 3 14 4 15 5 16 6 17 7 18 8 10 9 8 10 9 11 7 12
REMARK SMILES IDX 6 14 5 15 4 16 19 17 3 18 20 19 21 20 2 21 1 22 22 23
REMARK H PARENT 7 13 22 24
REMARK Flexibility Score: inf
ROOT
ATOM      1  C   UNL     1       6.547  10.450 -12.576  1.00  0.00     0.010 C 
ENDROOT
BRANCH   1   2
ATOM      2  C   UNL     1       6.930   9.349 -11.572  1.00  0.00     0.005 C 
BRANCH   2   3
ATOM      3  C   UNL     1       6.515   7.952 -12.057  1.00  0.00     0.027 C 
BRANCH   3   4
ATOM      4  C   UNL     1       7.059   7.645 -13.426  1.00  0.00    -0.031 C 
ATOM      5  C   UNL     1       8.355   7.824 -13.725  1.00  0.00    -0.028 C 
BRANCH   5   6
ATOM      6  C   UNL     1       8.901   7.486 -15.092  1.00  0.00     0.005 C 
ATOM      7  C   UNL     1      10.161   8.309 -15.385  1.00  0.00     0.012 C 
ATOM      8  C   UNL     1       7.842   7.734 -16.171  1.00  0.00     0.012 C 
ENDBRANCH   5   6
ENDBRANCH   3   4
ENDBRANCH   2   3
ENDBRANCH   1   2
BRANCH   1   9
ATOM      9  C   UNL     1       7.698  11.430 -12.835  1.00  0.00     0.100 C 
BRANCH   9  10
ATOM     10  C   UNL     1       8.034  11.514 -14.296  1.00  0.00     0.220 C 
ATOM     11  O   UNL     1       7.246  11.009 -15.141  1.00  0.00    -0.275 OA
ATOM     12  N   UNL     1       9.269  12.108 -14.721  1.00  0.00    -0.352 N 
ATOM     13  H   UNL     1       9.869  12.582 -14.010  1.00  0.00     0.163 HD
BRANCH  12  14
ATOM     14  C   UNL     1       9.856  11.822 -16.027  1.00  0.00     0.151 C 
BRANCH  14  15
ATOM     15  C   UNL     1       9.956  13.095 -16.822  1.00  0.00    -0.025 A 
ATOM     16  C   UNL     1       9.153  13.274 -17.960  1.00  0.00     0.056 A 
ATOM     17  C   UNL     1      10.759  14.152 -16.371  1.00  0.00     0.009 A 
ATOM     18  C   UNL     1       9.155  14.502 -18.653  1.00  0.00     0.160 A 
ATOM     19  C   UNL     1      10.771  15.367 -17.056  1.00  0.00     0.050 A 
ATOM     20  C   UNL     1       9.976  15.548 -18.193  1.00  0.00     0.157 A 
BRANCH  18  21
ATOM     21  O   UNL     1       8.350  14.718 -19.784  1.00  0.00    -0.493 OA
ATOM     22  C   UNL     1       8.462  13.994 -21.006  1.00  0.00     0.278 C 
ENDBRANCH  18  21
BRANCH  20  23
ATOM     23  O   UNL     1      10.009  16.777 -18.849  1.00  0.00    -0.504 OA
ATOM     24  H   UNL     1      10.508  16.910 -19.722  1.00  0.00     0.293 HD
ENDBRANCH  20  23
ENDBRANCH  14  15
ENDBRANCH  12  14
ENDBRANCH   9  10
ENDBRANCH   1   9
TORSDOF 10
ENDMDL
