MODEL 1
REMARK VINA RESULT:    -2.873      0.000      0.000
REMARK INTER + INTRA:         -10.778
REMARK INTER:                  -7.240
REMARK INTRA:                  -3.538
REMARK UNBOUND:                -3.538
REMARK SMILES CCCCCCCCCCCCCCCCCCCCCCCCCCCC(=O)[O-]
REMARK SMILES IDX 15 1 16 2 17 3 18 4 19 5 20 6 21 7 22 8 23 9 24 10 25 11
REMARK SMILES IDX 26 12 27 13 28 14 29 15 30 16 14 17 13 18 12 19 11 20 10 21
REMARK SMILES IDX 9 22 8 23 7 24 6 25 5 26 4 27 3 28 2 29 1 30
REMARK H PARENT
REMARK Flexibility Score: inf
ROOT
ATOM      1  C   UNL     1     -16.749  43.960  -7.289  1.00  0.00     0.000 C 
ENDROOT
BRANCH   1   2
ATOM      2  C   UNL     1     -15.692  45.033  -7.003  1.00  0.00     0.000 C 
BRANCH   2   3
ATOM      3  C   UNL     1     -15.687  45.422  -5.518  1.00  0.00     0.000 C 
BRANCH   3   4
ATOM      4  C   UNL     1     -15.865  46.934  -5.293  1.00  0.00     0.000 C 
BRANCH   4   5
ATOM      5  C   UNL     1     -17.211  47.314  -4.639  1.00  0.00     0.000 C 
BRANCH   5   6
ATOM      6  C   UNL     1     -18.399  47.120  -5.600  1.00  0.00     0.000 C 
BRANCH   6   7
ATOM      7  C   UNL     1     -18.354  48.076  -6.804  1.00  0.00     0.000 C 
BRANCH   7   8
ATOM      8  C   UNL     1     -18.004  47.352  -8.116  1.00  0.00     0.000 C 
BRANCH   8   9
ATOM      9  C   UNL     1     -16.934  48.092  -8.937  1.00  0.00     0.000 C 
BRANCH   9  10
ATOM     10  C   UNL     1     -16.362  47.238 -10.083  1.00  0.00     0.000 C 
BRANCH  10  11
ATOM     11  C   UNL     1     -14.828  47.296 -10.154  1.00  0.00     0.000 C 
BRANCH  11  12
ATOM     12  C   UNL     1     -14.317  48.535 -10.908  1.00  0.00     0.006 C 
BRANCH  12  13
ATOM     13  C   UNL     1     -13.876  49.653  -9.953  1.00  0.00     0.053 C 
BRANCH  13  14
ATOM     14  C   UNL     1     -14.850  50.791  -9.940  1.00  0.00     0.041 C 
ATOM     15  O   UNL     1     -15.834  50.792 -10.725  1.00  0.00    -0.550 OA
ATOM     16  O   UNL     1     -14.692  51.833  -9.033  1.00  0.00    -0.550 OA
ENDBRANCH  13  14
ENDBRANCH  12  13
ENDBRANCH  11  12
ENDBRANCH  10  11
ENDBRANCH   9  10
ENDBRANCH   8   9
ENDBRANCH   7   8
ENDBRANCH   6   7
ENDBRANCH   5   6
ENDBRANCH   4   5
ENDBRANCH   3   4
ENDBRANCH   2   3
ENDBRANCH   1   2
BRANCH   1  17
ATOM     17  C   UNL     1     -16.290  43.018  -8.412  1.00  0.00     0.000 C 
BRANCH  17  18
ATOM     18  C   UNL     1     -16.122  43.750  -9.761  1.00  0.00     0.000 C 
BRANCH  18  19
ATOM     19  C   UNL     1     -17.379  43.715 -10.648  1.00  0.00     0.000 C 
BRANCH  19  20
ATOM     20  C   UNL     1     -18.405  42.671 -10.183  1.00  0.00     0.000 C 
BRANCH  20  21
ATOM     21  C   UNL     1     -19.643  42.588 -11.095  1.00  0.00     0.000 C 
BRANCH  21  22
ATOM     22  C   UNL     1     -20.869  43.384 -10.611  1.00  0.00    -0.000 C 
BRANCH  22  23
ATOM     23  C   UNL     1     -20.670  44.907 -10.691  1.00  0.00    -0.000 C 
BRANCH  23  24
ATOM     24  C   UNL     1     -20.518  45.563  -9.309  1.00  0.00    -0.000 C 
BRANCH  24  25
ATOM     25  C   UNL     1     -20.889  44.610  -8.160  1.00  0.00    -0.000 C 
BRANCH  25  26
ATOM     26  C   UNL     1     -20.158  44.940  -6.846  1.00  0.00    -0.000 C 
BRANCH  26  27
ATOM     27  C   UNL     1     -20.048  43.776  -5.843  1.00  0.00    -0.000 C 
BRANCH  27  28
ATOM     28  C   UNL     1     -21.060  43.881  -4.688  1.00  0.00    -0.000 C 
BRANCH  28  29
ATOM     29  C   UNL     1     -20.753  42.904  -3.542  1.00  0.00    -0.003 C 
ATOM     30  C   UNL     1     -21.621  41.646  -3.584  1.00  0.00     0.004 C 
ENDBRANCH  28  29
ENDBRANCH  27  28
ENDBRANCH  26  27
ENDBRANCH  25  26
ENDBRANCH  24  25
ENDBRANCH  23  24
ENDBRANCH  22  23
ENDBRANCH  21  22
ENDBRANCH  20  21
ENDBRANCH  19  20
ENDBRANCH  18  19
ENDBRANCH  17  18
ENDBRANCH   1  17
TORSDOF 26
ENDMDL
MODEL 2
REMARK VINA RESULT:    -2.449      2.102      4.556
REMARK INTER + INTRA:          -9.710
REMARK INTER:                  -6.068
REMARK INTRA:                  -3.642
REMARK UNBOUND:                -3.538
REMARK SMILES CCCCCCCCCCCCCCCCCCCCCCCCCCCC(=O)[O-]
REMARK SMILES IDX 15 1 16 2 17 3 18 4 19 5 20 6 21 7 22 8 23 9 24 10 25 11
REMARK SMILES IDX 26 12 27 13 28 14 29 15 30 16 14 17 13 18 12 19 11 20 10 21
REMARK SMILES IDX 9 22 8 23 7 24 6 25 5 26 4 27 3 28 2 29 1 30
REMARK H PARENT
REMARK Flexibility Score: inf
ROOT
ATOM      1  C   UNL     1     -19.423  46.175  -8.160  1.00  0.00     0.000 C 
ENDROOT
BRANCH   1   2
ATOM      2  C   UNL     1     -18.114  46.565  -8.855  1.00  0.00     0.000 C 
BRANCH   2   3
ATOM      3  C   UNL     1     -18.326  46.759 -10.363  1.00  0.00     0.000 C 
BRANCH   3   4
ATOM      4  C   UNL     1     -17.065  47.265 -11.086  1.00  0.00     0.000 C 
BRANCH   4   5
ATOM      5  C   UNL     1     -16.626  48.682 -10.659  1.00  0.00     0.000 C 
BRANCH   5   6
ATOM      6  C   UNL     1     -15.107  48.889 -10.809  1.00  0.00     0.000 C 
BRANCH   6   7
ATOM      7  C   UNL     1     -14.498  49.696  -9.650  1.00  0.00     0.000 C 
BRANCH   7   8
ATOM      8  C   UNL     1     -13.880  48.794  -8.566  1.00  0.00     0.000 C 
BRANCH   8   9
ATOM      9  C   UNL     1     -14.304  47.322  -8.704  1.00  0.00     0.000 C 
BRANCH   9  10
ATOM     10  C   UNL     1     -14.106  46.519  -7.406  1.00  0.00     0.000 C 
BRANCH  10  11
ATOM     11  C   UNL     1     -13.878  47.421  -6.183  1.00  0.00     0.000 C 
BRANCH  11  12
ATOM     12  C   UNL     1     -14.871  47.137  -5.043  1.00  0.00     0.006 C 
BRANCH  12  13
ATOM     13  C   UNL     1     -16.218  46.620  -5.565  1.00  0.00     0.053 C 
BRANCH  13  14
ATOM     14  C   UNL     1     -17.358  47.476  -5.107  1.00  0.00     0.041 C 
ATOM     15  O   UNL     1     -18.236  47.855  -5.927  1.00  0.00    -0.550 OA
ATOM     16  O   UNL     1     -17.473  47.826  -3.765  1.00  0.00    -0.550 OA
ENDBRANCH  13  14
ENDBRANCH  12  13
ENDBRANCH  11  12
ENDBRANCH  10  11
ENDBRANCH   9  10
ENDBRANCH   8   9
ENDBRANCH   7   8
ENDBRANCH   6   7
ENDBRANCH   5   6
ENDBRANCH   4   5
ENDBRANCH   3   4
ENDBRANCH   2   3
ENDBRANCH   1   2
BRANCH   1  17
ATOM     17  C   UNL     1     -20.474  45.710  -9.181  1.00  0.00     0.000 C 
BRANCH  17  18
ATOM     18  C   UNL     1     -20.998  44.290  -8.878  1.00  0.00     0.000 C 
BRANCH  18  19
ATOM     19  C   UNL     1     -20.069  43.166  -9.372  1.00  0.00     0.000 C 
BRANCH  19  20
ATOM     20  C   UNL     1     -19.452  43.468 -10.746  1.00  0.00     0.000 C 
BRANCH  20  21
ATOM     21  C   UNL     1     -18.091  42.781 -10.963  1.00  0.00     0.000 C 
BRANCH  21  22
ATOM     22  C   UNL     1     -16.867  43.711 -10.885  1.00  0.00    -0.000 C 
BRANCH  22  23
ATOM     23  C   UNL     1     -15.930  43.379  -9.711  1.00  0.00    -0.000 C 
BRANCH  23  24
ATOM     24  C   UNL     1     -16.224  44.218  -8.457  1.00  0.00    -0.000 C 
BRANCH  24  25
ATOM     25  C   UNL     1     -16.487  43.350  -7.214  1.00  0.00    -0.000 C 
BRANCH  25  26
ATOM     26  C   UNL     1     -17.985  43.202  -6.892  1.00  0.00    -0.000 C 
BRANCH  26  27
ATOM     27  C   UNL     1     -18.415  43.726  -5.509  1.00  0.00    -0.000 C 
BRANCH  27  28
ATOM     28  C   UNL     1     -19.605  44.701  -5.580  1.00  0.00    -0.000 C 
BRANCH  28  29
ATOM     29  C   UNL     1     -20.916  44.071  -5.085  1.00  0.00    -0.003 C 
ATOM     30  C   UNL     1     -20.690  42.935  -4.088  1.00  0.00     0.004 C 
ENDBRANCH  28  29
ENDBRANCH  27  28
ENDBRANCH  26  27
ENDBRANCH  25  26
ENDBRANCH  24  25
ENDBRANCH  23  24
ENDBRANCH  22  23
ENDBRANCH  21  22
ENDBRANCH  20  21
ENDBRANCH  19  20
ENDBRANCH  18  19
ENDBRANCH  17  18
ENDBRANCH   1  17
TORSDOF 26
ENDMDL
MODEL 3
REMARK VINA RESULT:    -2.364      1.790      5.004
REMARK INTER + INTRA:          -9.495
REMARK INTER:                  -6.034
REMARK INTRA:                  -3.461
REMARK UNBOUND:                -3.538
REMARK SMILES CCCCCCCCCCCCCCCCCCCCCCCCCCCC(=O)[O-]
REMARK SMILES IDX 15 1 16 2 17 3 18 4 19 5 20 6 21 7 22 8 23 9 24 10 25 11
REMARK SMILES IDX 26 12 27 13 28 14 29 15 30 16 14 17 13 18 12 19 11 20 10 21
REMARK SMILES IDX 9 22 8 23 7 24 6 25 5 26 4 27 3 28 2 29 1 30
REMARK H PARENT
REMARK Flexibility Score: inf
ROOT
ATOM      1  C   UNL     1     -20.460  44.874  -6.062  1.00  0.00     0.000 C 
ENDROOT
BRANCH   1   2
ATOM      2  C   UNL     1     -20.562  44.804  -7.590  1.00  0.00     0.000 C 
BRANCH   2   3
ATOM      3  C   UNL     1     -20.469  43.354  -8.084  1.00  0.00     0.000 C 
BRANCH   3   4
ATOM      4  C   UNL     1     -20.522  43.237  -9.618  1.00  0.00     0.000 C 
BRANCH   4   5
ATOM      5  C   UNL     1     -19.587  44.223 -10.351  1.00  0.00     0.000 C 
BRANCH   5   6
ATOM      6  C   UNL     1     -20.368  45.337 -11.072  1.00  0.00     0.000 C 
BRANCH   6   7
ATOM      7  C   UNL     1     -19.663  46.702 -11.002  1.00  0.00     0.000 C 
BRANCH   7   8
ATOM      8  C   UNL     1     -18.282  46.616 -10.330  1.00  0.00     0.000 C 
BRANCH   8   9
ATOM      9  C   UNL     1     -17.189  47.355 -11.120  1.00  0.00     0.000 C 
BRANCH   9  10
ATOM     10  C   UNL     1     -16.886  48.755 -10.555  1.00  0.00     0.000 C 
BRANCH  10  11
ATOM     11  C   UNL     1     -15.589  49.352 -11.123  1.00  0.00     0.000 C 
BRANCH  11  12
ATOM     12  C   UNL     1     -14.472  49.452 -10.069  1.00  0.00     0.006 C 
BRANCH  12  13
ATOM     13  C   UNL     1     -14.772  50.519  -9.008  1.00  0.00     0.053 C 
BRANCH  13  14
ATOM     14  C   UNL     1     -14.580  51.905  -9.542  1.00  0.00     0.041 C 
ATOM     15  O   UNL     1     -14.236  52.840  -8.771  1.00  0.00    -0.550 OA
ATOM     16  O   UNL     1     -14.743  52.158 -10.900  1.00  0.00    -0.550 OA
ENDBRANCH  13  14
ENDBRANCH  12  13
ENDBRANCH  11  12
ENDBRANCH  10  11
ENDBRANCH   9  10
ENDBRANCH   8   9
ENDBRANCH   7   8
ENDBRANCH   6   7
ENDBRANCH   5   6
ENDBRANCH   4   5
ENDBRANCH   3   4
ENDBRANCH   2   3
ENDBRANCH   1   2
BRANCH   1  17
ATOM     17  C   UNL     1     -19.033  45.231  -5.619  1.00  0.00     0.000 C 
BRANCH  17  18
ATOM     18  C   UNL     1     -18.105  43.998  -5.579  1.00  0.00     0.000 C 
BRANCH  18  19
ATOM     19  C   UNL     1     -17.085  43.950  -6.731  1.00  0.00     0.000 C 
BRANCH  19  20
ATOM     20  C   UNL     1     -16.937  42.544  -7.333  1.00  0.00     0.000 C 
BRANCH  20  21
ATOM     21  C   UNL     1     -16.418  42.558  -8.784  1.00  0.00     0.000 C 
BRANCH  21  22
ATOM     22  C   UNL     1     -16.396  43.942  -9.459  1.00  0.00    -0.000 C 
BRANCH  22  23
ATOM     23  C   UNL     1     -15.114  44.196 -10.271  1.00  0.00    -0.000 C 
BRANCH  23  24
ATOM     24  C   UNL     1     -14.679  45.670 -10.255  1.00  0.00    -0.000 C 
BRANCH  24  25
ATOM     25  C   UNL     1     -13.883  46.037  -8.991  1.00  0.00    -0.000 C 
BRANCH  25  26
ATOM     26  C   UNL     1     -14.763  46.636  -7.880  1.00  0.00    -0.000 C 
BRANCH  26  27
ATOM     27  C   UNL     1     -14.270  46.386  -6.442  1.00  0.00    -0.000 C 
BRANCH  27  28
ATOM     28  C   UNL     1     -15.061  47.185  -5.389  1.00  0.00    -0.000 C 
BRANCH  28  29
ATOM     29  C   UNL     1     -14.420  47.120  -3.994  1.00  0.00    -0.003 C 
ATOM     30  C   UNL     1     -13.925  45.719  -3.631  1.00  0.00     0.004 C 
ENDBRANCH  28  29
ENDBRANCH  27  28
ENDBRANCH  26  27
ENDBRANCH  25  26
ENDBRANCH  24  25
ENDBRANCH  23  24
ENDBRANCH  22  23
ENDBRANCH  21  22
ENDBRANCH  20  21
ENDBRANCH  19  20
ENDBRANCH  18  19
ENDBRANCH  17  18
ENDBRANCH   1  17
TORSDOF 26
ENDMDL
MODEL 4
REMARK VINA RESULT:    -2.237      1.470      3.379
REMARK INTER + INTRA:          -9.175
REMARK INTER:                  -6.207
REMARK INTRA:                  -2.969
REMARK UNBOUND:                -3.538
REMARK SMILES CCCCCCCCCCCCCCCCCCCCCCCCCCCC(=O)[O-]
REMARK SMILES IDX 15 1 16 2 17 3 18 4 19 5 20 6 21 7 22 8 23 9 24 10 25 11
REMARK SMILES IDX 26 12 27 13 28 14 29 15 30 16 14 17 13 18 12 19 11 20 10 21
REMARK SMILES IDX 9 22 8 23 7 24 6 25 5 26 4 27 3 28 2 29 1 30
REMARK H PARENT
REMARK Flexibility Score: inf
ROOT
ATOM      1  C   UNL     1     -18.666  47.132  -5.655  1.00  0.00     0.000 C 
ENDROOT
BRANCH   1   2
ATOM      2  C   UNL     1     -17.248  47.710  -5.723  1.00  0.00     0.000 C 
BRANCH   2   3
ATOM      3  C   UNL     1     -16.269  46.870  -4.892  1.00  0.00     0.000 C 
BRANCH   3   4
ATOM      4  C   UNL     1     -15.460  45.875  -5.743  1.00  0.00     0.000 C 
BRANCH   4   5
ATOM      5  C   UNL     1     -15.516  46.160  -7.259  1.00  0.00     0.000 C 
BRANCH   5   6
ATOM      6  C   UNL     1     -14.505  47.240  -7.685  1.00  0.00     0.000 C 
BRANCH   6   7
ATOM      7  C   UNL     1     -13.876  46.960  -9.061  1.00  0.00     0.000 C 
BRANCH   7   8
ATOM      8  C   UNL     1     -14.933  46.790 -10.166  1.00  0.00     0.000 C 
BRANCH   8   9
ATOM      9  C   UNL     1     -15.817  48.036 -10.341  1.00  0.00     0.000 C 
BRANCH   9  10
ATOM     10  C   UNL     1     -15.003  49.312 -10.624  1.00  0.00     0.000 C 
BRANCH  10  11
ATOM     11  C   UNL     1     -15.426  50.491  -9.734  1.00  0.00     0.000 C 
BRANCH  11  12
ATOM     12  C   UNL     1     -14.241  51.124  -8.985  1.00  0.00     0.006 C 
BRANCH  12  13
ATOM     13  C   UNL     1     -14.070  52.611  -9.324  1.00  0.00     0.053 C 
BRANCH  13  14
ATOM     14  C   UNL     1     -13.932  53.450  -8.091  1.00  0.00     0.041 C 
ATOM     15  O   UNL     1     -13.898  54.706  -8.178  1.00  0.00    -0.550 OA
ATOM     16  O   UNL     1     -13.879  52.846  -6.839  1.00  0.00    -0.550 OA
ENDBRANCH  13  14
ENDBRANCH  12  13
ENDBRANCH  11  12
ENDBRANCH  10  11
ENDBRANCH   9  10
ENDBRANCH   8   9
ENDBRANCH   7   8
ENDBRANCH   6   7
ENDBRANCH   5   6
ENDBRANCH   4   5
ENDBRANCH   3   4
ENDBRANCH   2   3
ENDBRANCH   1   2
BRANCH   1  17
ATOM     17  C   UNL     1     -19.439  47.411  -6.954  1.00  0.00     0.000 C 
BRANCH  17  18
ATOM     18  C   UNL     1     -18.709  46.866  -8.200  1.00  0.00     0.000 C 
BRANCH  18  19
ATOM     19  C   UNL     1     -19.441  45.699  -8.888  1.00  0.00     0.000 C 
BRANCH  19  20
ATOM     20  C   UNL     1     -19.496  45.851 -10.415  1.00  0.00     0.000 C 
BRANCH  20  21
ATOM     21  C   UNL     1     -20.247  44.702 -11.112  1.00  0.00     0.000 C 
BRANCH  21  22
ATOM     22  C   UNL     1     -19.512  43.349 -11.123  1.00  0.00    -0.000 C 
BRANCH  22  23
ATOM     23  C   UNL     1     -17.981  43.495 -11.117  1.00  0.00    -0.000 C 
BRANCH  23  24
ATOM     24  C   UNL     1     -17.314  42.758  -9.944  1.00  0.00    -0.000 C 
BRANCH  24  25
ATOM     25  C   UNL     1     -16.735  43.722  -8.895  1.00  0.00    -0.000 C 
BRANCH  25  26
ATOM     26  C   UNL     1     -17.072  43.312  -7.450  1.00  0.00    -0.000 C 
BRANCH  26  27
ATOM     27  C   UNL     1     -18.539  43.525  -7.030  1.00  0.00    -0.000 C 
BRANCH  27  28
ATOM     28  C   UNL     1     -18.707  43.707  -5.511  1.00  0.00    -0.000 C 
BRANCH  28  29
ATOM     29  C   UNL     1     -20.134  44.124  -5.120  1.00  0.00    -0.003 C 
ATOM     30  C   UNL     1     -20.820  43.108  -4.206  1.00  0.00     0.004 C 
ENDBRANCH  28  29
ENDBRANCH  27  28
ENDBRANCH  26  27
ENDBRANCH  25  26
ENDBRANCH  24  25
ENDBRANCH  23  24
ENDBRANCH  22  23
ENDBRANCH  21  22
ENDBRANCH  20  21
ENDBRANCH  19  20
ENDBRANCH  18  19
ENDBRANCH  17  18
ENDBRANCH   1  17
TORSDOF 26
ENDMDL
MODEL 5
REMARK VINA RESULT:    -2.204      3.203      5.777
REMARK INTER + INTRA:          -9.093
REMARK INTER:                  -5.419
REMARK INTRA:                  -3.674
REMARK UNBOUND:                -3.538
REMARK SMILES CCCCCCCCCCCCCCCCCCCCCCCCCCCC(=O)[O-]
REMARK SMILES IDX 15 1 16 2 17 3 18 4 19 5 20 6 21 7 22 8 23 9 24 10 25 11
REMARK SMILES IDX 26 12 27 13 28 14 29 15 30 16 14 17 13 18 12 19 11 20 10 21
REMARK SMILES IDX 9 22 8 23 7 24 6 25 5 26 4 27 3 28 2 29 1 30
REMARK H PARENT
REMARK Flexibility Score: inf
ROOT
ATOM      1  C   UNL     1     -16.893  47.849  -8.862  1.00  0.00     0.000 C 
ENDROOT
BRANCH   1   2
ATOM      2  C   UNL     1     -18.006  47.019  -8.213  1.00  0.00     0.000 C 
BRANCH   2   3
ATOM      3  C   UNL     1     -18.759  47.836  -7.154  1.00  0.00     0.000 C 
BRANCH   3   4
ATOM      4  C   UNL     1     -18.766  47.163  -5.770  1.00  0.00     0.000 C 
BRANCH   4   5
ATOM      5  C   UNL     1     -17.929  47.908  -4.708  1.00  0.00     0.000 C 
BRANCH   5   6
ATOM      6  C   UNL     1     -16.586  47.206  -4.430  1.00  0.00     0.000 C 
BRANCH   6   7
ATOM      7  C   UNL     1     -15.598  47.321  -5.603  1.00  0.00     0.000 C 
BRANCH   7   8
ATOM      8  C   UNL     1     -14.869  45.997  -5.889  1.00  0.00     0.000 C 
BRANCH   8   9
ATOM      9  C   UNL     1     -15.729  45.006  -6.691  1.00  0.00     0.000 C 
BRANCH   9  10
ATOM     10  C   UNL     1     -16.907  44.442  -5.876  1.00  0.00     0.000 C 
BRANCH  10  11
ATOM     11  C   UNL     1     -17.742  43.426  -6.673  1.00  0.00     0.000 C 
BRANCH  11  12
ATOM     12  C   UNL     1     -19.252  43.708  -6.594  1.00  0.00     0.006 C 
BRANCH  12  13
ATOM     13  C   UNL     1     -19.666  44.262  -5.223  1.00  0.00     0.053 C 
BRANCH  13  14
ATOM     14  C   UNL     1     -20.864  43.550  -4.675  1.00  0.00     0.041 C 
ATOM     15  O   UNL     1     -21.988  43.681  -5.227  1.00  0.00    -0.550 OA
ATOM     16  O   UNL     1     -20.733  42.710  -3.574  1.00  0.00    -0.550 OA
ENDBRANCH  13  14
ENDBRANCH  12  13
ENDBRANCH  11  12
ENDBRANCH  10  11
ENDBRANCH   9  10
ENDBRANCH   8   9
ENDBRANCH   7   8
ENDBRANCH   6   7
ENDBRANCH   5   6
ENDBRANCH   4   5
ENDBRANCH   3   4
ENDBRANCH   2   3
ENDBRANCH   1   2
BRANCH   1  17
ATOM     17  C   UNL     1     -17.043  47.876 -10.391  1.00  0.00     0.000 C 
BRANCH  17  18
ATOM     18  C   UNL     1     -15.874  47.168 -11.108  1.00  0.00     0.000 C 
BRANCH  18  19
ATOM     19  C   UNL     1     -14.818  46.586 -10.151  1.00  0.00     0.000 C 
BRANCH  19  20
ATOM     20  C   UNL     1     -14.508  45.109 -10.436  1.00  0.00     0.000 C 
BRANCH  20  21
ATOM     21  C   UNL     1     -15.669  44.368 -11.124  1.00  0.00     0.000 C 
BRANCH  21  22
ATOM     22  C   UNL     1     -16.902  44.113 -10.237  1.00  0.00    -0.000 C 
BRANCH  22  23
ATOM     23  C   UNL     1     -17.949  43.207 -10.905  1.00  0.00    -0.000 C 
BRANCH  23  24
ATOM     24  C   UNL     1     -18.809  42.437  -9.889  1.00  0.00    -0.000 C 
BRANCH  24  25
ATOM     25  C   UNL     1     -20.311  42.731 -10.045  1.00  0.00    -0.000 C 
BRANCH  25  26
ATOM     26  C   UNL     1     -20.604  43.811 -11.102  1.00  0.00    -0.000 C 
BRANCH  26  27
ATOM     27  C   UNL     1     -20.615  45.260 -10.577  1.00  0.00    -0.000 C 
BRANCH  27  28
ATOM     28  C   UNL     1     -20.510  45.343  -9.044  1.00  0.00    -0.000 C 
BRANCH  28  29
ATOM     29  C   UNL     1     -21.838  45.742  -8.381  1.00  0.00    -0.003 C 
ATOM     30  C   UNL     1     -22.685  46.667  -9.256  1.00  0.00     0.004 C 
ENDBRANCH  28  29
ENDBRANCH  27  28
ENDBRANCH  26  27
ENDBRANCH  25  26
ENDBRANCH  24  25
ENDBRANCH  23  24
ENDBRANCH  22  23
ENDBRANCH  21  22
ENDBRANCH  20  21
ENDBRANCH  19  20
ENDBRANCH  18  19
ENDBRANCH  17  18
ENDBRANCH   1  17
TORSDOF 26
ENDMDL
MODEL 6
REMARK VINA RESULT:    -2.015      3.190      7.045
REMARK INTER + INTRA:          -8.616
REMARK INTER:                  -4.526
REMARK INTRA:                  -4.090
REMARK UNBOUND:                -3.538
REMARK SMILES CCCCCCCCCCCCCCCCCCCCCCCCCCCC(=O)[O-]
REMARK SMILES IDX 15 1 16 2 17 3 18 4 19 5 20 6 21 7 22 8 23 9 24 10 25 11
REMARK SMILES IDX 26 12 27 13 28 14 29 15 30 16 14 17 13 18 12 19 11 20 10 21
REMARK SMILES IDX 9 22 8 23 7 24 6 25 5 26 4 27 3 28 2 29 1 30
REMARK H PARENT
REMARK Flexibility Score: inf
ROOT
ATOM      1  C   UNL     1     -20.195  45.598  -9.355  1.00  0.00     0.000 C 
ENDROOT
BRANCH   1   2
ATOM      2  C   UNL     1     -20.911  45.554 -10.709  1.00  0.00     0.000 C 
BRANCH   2   3
ATOM      3  C   UNL     1     -21.230  44.110 -11.119  1.00  0.00     0.000 C 
BRANCH   3   4
ATOM      4  C   UNL     1     -19.994  43.194 -11.104  1.00  0.00     0.000 C 
BRANCH   4   5
ATOM      5  C   UNL     1     -19.902  42.290  -9.856  1.00  0.00     0.000 C 
BRANCH   5   6
ATOM      6  C   UNL     1     -18.444  42.031  -9.433  1.00  0.00     0.000 C 
BRANCH   6   7
ATOM      7  C   UNL     1     -17.461  43.060 -10.016  1.00  0.00     0.000 C 
BRANCH   7   8
ATOM      8  C   UNL     1     -16.494  43.616  -8.956  1.00  0.00     0.000 C 
BRANCH   8   9
ATOM      9  C   UNL     1     -16.401  42.722  -7.708  1.00  0.00     0.000 C 
BRANCH   9  10
ATOM     10  C   UNL     1     -16.787  43.460  -6.413  1.00  0.00     0.000 C 
BRANCH  10  11
ATOM     11  C   UNL     1     -17.880  44.516  -6.640  1.00  0.00     0.000 C 
BRANCH  11  12
ATOM     12  C   UNL     1     -19.285  44.001  -6.281  1.00  0.00     0.006 C 
BRANCH  12  13
ATOM     13  C   UNL     1     -19.365  43.500  -4.833  1.00  0.00     0.053 C 
BRANCH  13  14
ATOM     14  C   UNL     1     -20.773  43.192  -4.428  1.00  0.00     0.041 C 
ATOM     15  O   UNL     1     -21.012  42.241  -3.637  1.00  0.00    -0.550 OA
ATOM     16  O   UNL     1     -21.821  43.980  -4.893  1.00  0.00    -0.550 OA
ENDBRANCH  13  14
ENDBRANCH  12  13
ENDBRANCH  11  12
ENDBRANCH  10  11
ENDBRANCH   9  10
ENDBRANCH   8   9
ENDBRANCH   7   8
ENDBRANCH   6   7
ENDBRANCH   5   6
ENDBRANCH   4   5
ENDBRANCH   3   4
ENDBRANCH   2   3
ENDBRANCH   1   2
BRANCH   1  17
ATOM     17  C   UNL     1     -18.772  46.159  -9.500  1.00  0.00     0.000 C 
BRANCH  17  18
ATOM     18  C   UNL     1     -18.431  46.522 -10.961  1.00  0.00     0.000 C 
BRANCH  18  19
ATOM     19  C   UNL     1     -17.169  47.391 -11.107  1.00  0.00     0.000 C 
BRANCH  19  20
ATOM     20  C   UNL     1     -16.355  47.479  -9.807  1.00  0.00     0.000 C 
BRANCH  20  21
ATOM     21  C   UNL     1     -14.845  47.266 -10.021  1.00  0.00     0.000 C 
BRANCH  21  22
ATOM     22  C   UNL     1     -14.029  47.023  -8.739  1.00  0.00    -0.000 C 
BRANCH  22  23
ATOM     23  C   UNL     1     -14.908  46.831  -7.492  1.00  0.00    -0.000 C 
BRANCH  23  24
ATOM     24  C   UNL     1     -14.092  46.521  -6.226  1.00  0.00    -0.000 C 
BRANCH  24  25
ATOM     25  C   UNL     1     -14.854  46.864  -4.934  1.00  0.00    -0.000 C 
BRANCH  25  26
ATOM     26  C   UNL     1     -16.350  46.508  -5.007  1.00  0.00    -0.000 C 
BRANCH  26  27
ATOM     27  C   UNL     1     -17.318  47.658  -4.669  1.00  0.00    -0.000 C 
BRANCH  27  28
ATOM     28  C   UNL     1     -18.795  47.278  -4.877  1.00  0.00    -0.000 C 
BRANCH  28  29
ATOM     29  C   UNL     1     -19.274  47.535  -6.315  1.00  0.00    -0.003 C 
ATOM     30  C   UNL     1     -18.354  48.480  -7.088  1.00  0.00     0.004 C 
ENDBRANCH  28  29
ENDBRANCH  27  28
ENDBRANCH  26  27
ENDBRANCH  25  26
ENDBRANCH  24  25
ENDBRANCH  23  24
ENDBRANCH  22  23
ENDBRANCH  21  22
ENDBRANCH  20  21
ENDBRANCH  19  20
ENDBRANCH  18  19
ENDBRANCH  17  18
ENDBRANCH   1  17
TORSDOF 26
ENDMDL
MODEL 7
REMARK VINA RESULT:    -1.927      1.261      2.384
REMARK INTER + INTRA:          -8.394
REMARK INTER:                  -5.848
REMARK INTRA:                  -2.546
REMARK UNBOUND:                -3.538
REMARK SMILES CCCCCCCCCCCCCCCCCCCCCCCCCCCC(=O)[O-]
REMARK SMILES IDX 15 1 16 2 17 3 18 4 19 5 20 6 21 7 22 8 23 9 24 10 25 11
REMARK SMILES IDX 26 12 27 13 28 14 29 15 30 16 14 17 13 18 12 19 11 20 10 21
REMARK SMILES IDX 9 22 8 23 7 24 6 25 5 26 4 27 3 28 2 29 1 30
REMARK H PARENT
REMARK Flexibility Score: inf
ROOT
ATOM      1  C   UNL     1     -16.488  44.214  -6.960  1.00  0.00     0.000 C 
ENDROOT
BRANCH   1   2
ATOM      2  C   UNL     1     -15.711  45.373  -7.594  1.00  0.00     0.000 C 
BRANCH   2   3
ATOM      3  C   UNL     1     -14.398  45.634  -6.843  1.00  0.00     0.000 C 
BRANCH   3   4
ATOM      4  C   UNL     1     -14.026  47.127  -6.786  1.00  0.00     0.000 C 
BRANCH   4   5
ATOM      5  C   UNL     1     -13.875  47.678  -5.351  1.00  0.00     0.000 C 
BRANCH   5   6
ATOM      6  C   UNL     1     -14.763  46.924  -4.343  1.00  0.00     0.000 C 
BRANCH   6   7
ATOM      7  C   UNL     1     -16.163  47.543  -4.202  1.00  0.00     0.000 C 
BRANCH   7   8
ATOM      8  C   UNL     1     -17.194  46.884  -5.135  1.00  0.00     0.000 C 
BRANCH   8   9
ATOM      9  C   UNL     1     -18.387  47.803  -5.448  1.00  0.00     0.000 C 
BRANCH   9  10
ATOM     10  C   UNL     1     -18.862  47.689  -6.908  1.00  0.00     0.000 C 
BRANCH  10  11
ATOM     11  C   UNL     1     -17.698  47.718  -7.911  1.00  0.00     0.000 C 
BRANCH  11  12
ATOM     12  C   UNL     1     -18.023  46.975  -9.218  1.00  0.00     0.006 C 
BRANCH  12  13
ATOM     13  C   UNL     1     -17.303  47.587 -10.427  1.00  0.00     0.053 C 
BRANCH  13  14
ATOM     14  C   UNL     1     -15.920  48.044 -10.077  1.00  0.00     0.041 C 
ATOM     15  O   UNL     1     -14.916  47.446 -10.549  1.00  0.00    -0.550 OA
ATOM     16  O   UNL     1     -15.738  49.155  -9.260  1.00  0.00    -0.550 OA
ENDBRANCH  13  14
ENDBRANCH  12  13
ENDBRANCH  11  12
ENDBRANCH  10  11
ENDBRANCH   9  10
ENDBRANCH   8   9
ENDBRANCH   7   8
ENDBRANCH   6   7
ENDBRANCH   5   6
ENDBRANCH   4   5
ENDBRANCH   3   4
ENDBRANCH   2   3
ENDBRANCH   1   2
BRANCH   1  17
ATOM     17  C   UNL     1     -16.561  43.011  -7.912  1.00  0.00     0.000 C 
BRANCH  17  18
ATOM     18  C   UNL     1     -16.143  43.377  -9.353  1.00  0.00     0.000 C 
BRANCH  18  19
ATOM     19  C   UNL     1     -17.328  43.538 -10.322  1.00  0.00     0.000 C 
BRANCH  19  20
ATOM     20  C   UNL     1     -18.610  42.867  -9.807  1.00  0.00     0.000 C 
BRANCH  20  21
ATOM     21  C   UNL     1     -19.671  42.665 -10.906  1.00  0.00     0.000 C 
BRANCH  21  22
ATOM     22  C   UNL     1     -20.673  43.821 -11.071  1.00  0.00    -0.000 C 
BRANCH  22  23
ATOM     23  C   UNL     1     -20.372  45.016 -10.151  1.00  0.00    -0.000 C 
BRANCH  23  24
ATOM     24  C   UNL     1     -21.368  45.140  -8.986  1.00  0.00    -0.000 C 
BRANCH  24  25
ATOM     25  C   UNL     1     -20.985  44.256  -7.787  1.00  0.00    -0.000 C 
BRANCH  25  26
ATOM     26  C   UNL     1     -20.062  44.972  -6.784  1.00  0.00    -0.000 C 
BRANCH  26  27
ATOM     27  C   UNL     1     -19.676  44.149  -5.541  1.00  0.00    -0.000 C 
BRANCH  27  28
ATOM     28  C   UNL     1     -20.835  43.995  -4.539  1.00  0.00    -0.000 C 
BRANCH  28  29
ATOM     29  C   UNL     1     -20.648  42.794  -3.599  1.00  0.00    -0.003 C 
ATOM     30  C   UNL     1     -21.682  41.691  -3.830  1.00  0.00     0.004 C 
ENDBRANCH  28  29
ENDBRANCH  27  28
ENDBRANCH  26  27
ENDBRANCH  25  26
ENDBRANCH  24  25
ENDBRANCH  23  24
ENDBRANCH  22  23
ENDBRANCH  21  22
ENDBRANCH  20  21
ENDBRANCH  19  20
ENDBRANCH  18  19
ENDBRANCH  17  18
ENDBRANCH   1  17
TORSDOF 26
ENDMDL
MODEL 8
REMARK VINA RESULT:    -1.908      1.722      5.256
REMARK INTER + INTRA:          -8.347
REMARK INTER:                  -5.899
REMARK INTRA:                  -2.448
REMARK UNBOUND:                -3.538
REMARK SMILES CCCCCCCCCCCCCCCCCCCCCCCCCCCC(=O)[O-]
REMARK SMILES IDX 15 1 16 2 17 3 18 4 19 5 20 6 21 7 22 8 23 9 24 10 25 11
REMARK SMILES IDX 26 12 27 13 28 14 29 15 30 16 14 17 13 18 12 19 11 20 10 21
REMARK SMILES IDX 9 22 8 23 7 24 6 25 5 26 4 27 3 28 2 29 1 30
REMARK H PARENT
REMARK Flexibility Score: inf
ROOT
ATOM      1  C   UNL     1     -19.890  43.987  -5.188  1.00  0.00     0.000 C 
ENDROOT
BRANCH   1   2
ATOM      2  C   UNL     1     -20.845  44.681  -6.164  1.00  0.00     0.000 C 
BRANCH   2   3
ATOM      3  C   UNL     1     -20.505  44.325  -7.618  1.00  0.00     0.000 C 
BRANCH   3   4
ATOM      4  C   UNL     1     -20.590  45.532  -8.568  1.00  0.00     0.000 C 
BRANCH   4   5
ATOM      5  C   UNL     1     -19.225  45.978  -9.136  1.00  0.00     0.000 C 
BRANCH   5   6
ATOM      6  C   UNL     1     -19.272  46.190 -10.661  1.00  0.00     0.000 C 
BRANCH   6   7
ATOM      7  C   UNL     1     -18.415  47.381 -11.124  1.00  0.00     0.000 C 
BRANCH   7   8
ATOM      8  C   UNL     1     -17.065  47.454 -10.390  1.00  0.00     0.000 C 
BRANCH   8   9
ATOM      9  C   UNL     1     -16.547  48.894 -10.240  1.00  0.00     0.000 C 
BRANCH   9  10
ATOM     10  C   UNL     1     -15.087  49.055 -10.701  1.00  0.00     0.000 C 
BRANCH  10  11
ATOM     11  C   UNL     1     -14.255  49.914  -9.736  1.00  0.00     0.000 C 
BRANCH  11  12
ATOM     12  C   UNL     1     -14.699  51.387  -9.720  1.00  0.00     0.006 C 
BRANCH  12  13
ATOM     13  C   UNL     1     -14.254  52.111  -8.442  1.00  0.00     0.053 C 
BRANCH  13  14
ATOM     14  C   UNL     1     -14.133  53.589  -8.654  1.00  0.00     0.041 C 
ATOM     15  O   UNL     1     -14.220  54.073  -9.814  1.00  0.00    -0.550 OA
ATOM     16  O   UNL     1     -13.962  54.438  -7.565  1.00  0.00    -0.550 OA
ENDBRANCH  13  14
ENDBRANCH  12  13
ENDBRANCH  11  12
ENDBRANCH  10  11
ENDBRANCH   9  10
ENDBRANCH   8   9
ENDBRANCH   7   8
ENDBRANCH   6   7
ENDBRANCH   5   6
ENDBRANCH   4   5
ENDBRANCH   3   4
ENDBRANCH   2   3
ENDBRANCH   1   2
BRANCH   1  17
ATOM     17  C   UNL     1     -18.466  44.552  -5.311  1.00  0.00     0.000 C 
BRANCH  17  18
ATOM     18  C   UNL     1     -18.460  46.067  -5.611  1.00  0.00     0.000 C 
BRANCH  18  19
ATOM     19  C   UNL     1     -17.155  46.568  -6.255  1.00  0.00     0.000 C 
BRANCH  19  20
ATOM     20  C   UNL     1     -15.906  45.895  -5.665  1.00  0.00     0.000 C 
BRANCH  20  21
ATOM     21  C   UNL     1     -14.601  46.643  -5.997  1.00  0.00     0.000 C 
BRANCH  21  22
ATOM     22  C   UNL     1     -14.528  47.236  -7.416  1.00  0.00    -0.000 C 
BRANCH  22  23
ATOM     23  C   UNL     1     -13.875  46.286  -8.434  1.00  0.00    -0.000 C 
BRANCH  23  24
ATOM     24  C   UNL     1     -14.694  46.141  -9.727  1.00  0.00    -0.000 C 
BRANCH  24  25
ATOM     25  C   UNL     1     -14.072  45.132 -10.709  1.00  0.00    -0.000 C 
BRANCH  25  26
ATOM     26  C   UNL     1     -14.742  43.747 -10.651  1.00  0.00    -0.000 C 
BRANCH  26  27
ATOM     27  C   UNL     1     -15.839  43.590  -9.581  1.00  0.00    -0.000 C 
BRANCH  27  28
ATOM     28  C   UNL     1     -17.193  43.153 -10.170  1.00  0.00    -0.000 C 
BRANCH  28  29
ATOM     29  C   UNL     1     -18.194  42.716  -9.088  1.00  0.00    -0.003 C 
ATOM     30  C   UNL     1     -17.518  42.334  -7.771  1.00  0.00     0.004 C 
ENDBRANCH  28  29
ENDBRANCH  27  28
ENDBRANCH  26  27
ENDBRANCH  25  26
ENDBRANCH  24  25
ENDBRANCH  23  24
ENDBRANCH  22  23
ENDBRANCH  21  22
ENDBRANCH  20  21
ENDBRANCH  19  20
ENDBRANCH  18  19
ENDBRANCH  17  18
ENDBRANCH   1  17
TORSDOF 26
ENDMDL
