MODEL 1
REMARK VINA RESULT:    -4.037      0.000      0.000
REMARK INTER + INTRA:          -6.847
REMARK INTER:                  -6.161
REMARK INTRA:                  -0.685
REMARK UNBOUND:                -0.685
REMARK SMILES CCCCCCCCCCC(=O)[O-]
REMARK SMILES IDX 7 1 8 2 9 3 10 4 11 5 12 6 13 7 6 8 5 9 4 10 3 11 2 12 1 13
REMARK H PARENT
REMARK Flexibility Score: inf
ROOT
ATOM      1  C   UNL     1     -16.311   5.089  30.004  1.00  0.00     0.000 C 
ENDROOT
BRANCH   1   2
ATOM      2  C   UNL     1     -16.067   6.491  30.600  1.00  0.00     0.000 C 
BRANCH   2   3
ATOM      3  C   UNL     1     -15.190   7.418  29.739  1.00  0.00     0.006 C 
BRANCH   3   4
ATOM      4  C   UNL     1     -14.280   6.650  28.773  1.00  0.00     0.053 C 
BRANCH   4   5
ATOM      5  C   UNL     1     -12.891   6.564  29.322  1.00  0.00     0.041 C 
ATOM      6  O   UNL     1     -12.056   7.473  29.078  1.00  0.00    -0.550 OA
ATOM      7  O   UNL     1     -12.533   5.503  30.145  1.00  0.00    -0.550 OA
ENDBRANCH   4   5
ENDBRANCH   3   4
ENDBRANCH   2   3
ENDBRANCH   1   2
BRANCH   1   8
ATOM      8  C   UNL     1     -16.297   3.935  31.027  1.00  0.00     0.000 C 
BRANCH   8   9
ATOM      9  C   UNL     1     -15.165   4.002  32.070  1.00  0.00    -0.000 C 
BRANCH   9  10
ATOM     10  C   UNL     1     -15.484   3.334  33.420  1.00  0.00    -0.000 C 
BRANCH  10  11
ATOM     11  C   UNL     1     -16.966   2.962  33.566  1.00  0.00    -0.000 C 
BRANCH  11  12
ATOM     12  C   UNL     1     -17.124   1.555  34.153  1.00  0.00    -0.003 C 
ATOM     13  C   UNL     1     -16.002   1.239  35.138  1.00  0.00     0.004 C 
ENDBRANCH  11  12
ENDBRANCH  10  11
ENDBRANCH   9  10
ENDBRANCH   8   9
ENDBRANCH   1   8
TORSDOF 9
ENDMDL
MODEL 2
REMARK VINA RESULT:    -4.013      1.781      2.055
REMARK INTER + INTRA:          -6.810
REMARK INTER:                  -6.430
REMARK INTRA:                  -0.380
REMARK UNBOUND:                -0.685
REMARK SMILES CCCCCCCCCCC(=O)[O-]
REMARK SMILES IDX 7 1 8 2 9 3 10 4 11 5 12 6 13 7 6 8 5 9 4 10 3 11 2 12 1 13
REMARK H PARENT
REMARK Flexibility Score: inf
ROOT
ATOM      1  C   UNL     1     -16.462   6.488  30.845  1.00  0.00     0.000 C 
ENDROOT
BRANCH   1   2
ATOM      2  C   UNL     1     -15.488   6.376  29.654  1.00  0.00     0.000 C 
BRANCH   2   3
ATOM      3  C   UNL     1     -14.618   7.622  29.409  1.00  0.00     0.006 C 
BRANCH   3   4
ATOM      4  C   UNL     1     -13.464   7.360  28.433  1.00  0.00     0.053 C 
BRANCH   4   5
ATOM      5  C   UNL     1     -13.782   7.925  27.085  1.00  0.00     0.041 C 
ATOM      6  O   UNL     1     -13.463   7.297  26.042  1.00  0.00    -0.550 OA
ATOM      7  O   UNL     1     -14.476   9.125  26.980  1.00  0.00    -0.550 OA
ENDBRANCH   4   5
ENDBRANCH   3   4
ENDBRANCH   2   3
ENDBRANCH   1   2
BRANCH   1   8
ATOM      8  C   UNL     1     -16.533   5.240  31.747  1.00  0.00     0.000 C 
BRANCH   8   9
ATOM      9  C   UNL     1     -15.270   4.357  31.741  1.00  0.00    -0.000 C 
BRANCH   9  10
ATOM     10  C   UNL     1     -15.168   3.358  32.908  1.00  0.00    -0.000 C 
BRANCH  10  11
ATOM     11  C   UNL     1     -16.497   3.178  33.657  1.00  0.00    -0.000 C 
BRANCH  11  12
ATOM     12  C   UNL     1     -16.808   1.692  33.871  1.00  0.00    -0.003 C 
ATOM     13  C   UNL     1     -16.233   1.194  35.194  1.00  0.00     0.004 C 
ENDBRANCH  11  12
ENDBRANCH  10  11
ENDBRANCH   9  10
ENDBRANCH   8   9
ENDBRANCH   1   8
TORSDOF 9
ENDMDL
MODEL 3
REMARK VINA RESULT:    -3.930      3.389      6.922
REMARK INTER + INTRA:          -6.683
REMARK INTER:                  -6.331
REMARK INTRA:                  -0.352
REMARK UNBOUND:                -0.685
REMARK SMILES CCCCCCCCCCC(=O)[O-]
REMARK SMILES IDX 7 1 8 2 9 3 10 4 11 5 12 6 13 7 6 8 5 9 4 10 3 11 2 12 1 13
REMARK H PARENT
REMARK Flexibility Score: inf
ROOT
ATOM      1  C   UNL     1     -15.111   4.644  30.935  1.00  0.00     0.000 C 
ENDROOT
BRANCH   1   2
ATOM      2  C   UNL     1     -14.945   3.969  32.312  1.00  0.00     0.000 C 
BRANCH   2   3
ATOM      3  C   UNL     1     -16.186   3.214  32.819  1.00  0.00     0.006 C 
BRANCH   3   4
ATOM      4  C   UNL     1     -16.122   2.902  34.319  1.00  0.00     0.053 C 
BRANCH   4   5
ATOM      5  C   UNL     1     -16.137   1.423  34.546  1.00  0.00     0.041 C 
ATOM      6  O   UNL     1     -16.386   0.639  33.593  1.00  0.00    -0.550 OA
ATOM      7  O   UNL     1     -15.828   0.908  35.798  1.00  0.00    -0.550 OA
ENDBRANCH   4   5
ENDBRANCH   3   4
ENDBRANCH   2   3
ENDBRANCH   1   2
BRANCH   1   8
ATOM      8  C   UNL     1     -16.373   5.516  30.785  1.00  0.00     0.000 C 
BRANCH   8   9
ATOM      9  C   UNL     1     -16.107   6.994  30.437  1.00  0.00    -0.000 C 
BRANCH   9  10
ATOM     10  C   UNL     1     -14.997   7.228  29.396  1.00  0.00    -0.000 C 
BRANCH  10  11
ATOM     11  C   UNL     1     -14.793   8.713  29.064  1.00  0.00    -0.000 C 
BRANCH  11  12
ATOM     12  C   UNL     1     -13.648   8.899  28.062  1.00  0.00    -0.003 C 
ATOM     13  C   UNL     1     -13.514   7.685  27.147  1.00  0.00     0.004 C 
ENDBRANCH  11  12
ENDBRANCH  10  11
ENDBRANCH   9  10
ENDBRANCH   8   9
ENDBRANCH   1   8
TORSDOF 9
ENDMDL
MODEL 4
REMARK VINA RESULT:    -3.763      3.452      6.131
REMARK INTER + INTRA:          -6.429
REMARK INTER:                  -5.419
REMARK INTRA:                  -1.010
REMARK UNBOUND:                -0.685
REMARK SMILES CCCCCCCCCCC(=O)[O-]
REMARK SMILES IDX 7 1 8 2 9 3 10 4 11 5 12 6 13 7 6 8 5 9 4 10 3 11 2 12 1 13
REMARK H PARENT
REMARK Flexibility Score: inf
ROOT
ATOM      1  C   UNL     1     -14.209   2.956  31.722  1.00  0.00     0.000 C 
ENDROOT
BRANCH   1   2
ATOM      2  C   UNL     1     -15.169   3.566  32.764  1.00  0.00     0.000 C 
BRANCH   2   3
ATOM      3  C   UNL     1     -16.622   3.066  32.680  1.00  0.00     0.006 C 
BRANCH   3   4
ATOM      4  C   UNL     1     -17.123   2.469  34.001  1.00  0.00     0.053 C 
BRANCH   4   5
ATOM      5  C   UNL     1     -16.390   1.203  34.313  1.00  0.00     0.041 C 
ATOM      6  O   UNL     1     -16.243   0.321  33.428  1.00  0.00    -0.550 OA
ATOM      7  O   UNL     1     -15.825   1.018  35.569  1.00  0.00    -0.550 OA
ENDBRANCH   4   5
ENDBRANCH   3   4
ENDBRANCH   2   3
ENDBRANCH   1   2
BRANCH   1   8
ATOM      8  C   UNL     1     -12.911   3.754  31.486  1.00  0.00     0.000 C 
BRANCH   8   9
ATOM      9  C   UNL     1     -13.014   4.870  30.429  1.00  0.00    -0.000 C 
BRANCH   9  10
ATOM     10  C   UNL     1     -13.904   4.539  29.217  1.00  0.00    -0.000 C 
BRANCH  10  11
ATOM     11  C   UNL     1     -14.944   5.629  28.924  1.00  0.00    -0.000 C 
BRANCH  11  12
ATOM     12  C   UNL     1     -15.070   6.599  30.106  1.00  0.00    -0.003 C 
ATOM     13  C   UNL     1     -16.420   6.449  30.800  1.00  0.00     0.004 C 
ENDBRANCH  11  12
ENDBRANCH  10  11
ENDBRANCH   9  10
ENDBRANCH   8   9
ENDBRANCH   1   8
TORSDOF 9
ENDMDL
MODEL 5
REMARK VINA RESULT:    -3.763      1.412      2.451
REMARK INTER + INTRA:          -6.428
REMARK INTER:                  -6.025
REMARK INTRA:                  -0.403
REMARK UNBOUND:                -0.685
REMARK SMILES CCCCCCCCCCC(=O)[O-]
REMARK SMILES IDX 7 1 8 2 9 3 10 4 11 5 12 6 13 7 6 8 5 9 4 10 3 11 2 12 1 13
REMARK H PARENT
REMARK Flexibility Score: inf
ROOT
ATOM      1  C   UNL     1     -15.001   7.057  29.766  1.00  0.00     0.000 C 
ENDROOT
BRANCH   1   2
ATOM      2  C   UNL     1     -14.871   8.407  29.030  1.00  0.00     0.000 C 
BRANCH   2   3
ATOM      3  C   UNL     1     -13.426   8.850  28.736  1.00  0.00     0.006 C 
BRANCH   3   4
ATOM      4  C   UNL     1     -12.515   7.682  28.340  1.00  0.00     0.053 C 
BRANCH   4   5
ATOM      5  C   UNL     1     -11.277   7.677  29.182  1.00  0.00     0.041 C 
ATOM      6  O   UNL     1     -10.739   6.588  29.511  1.00  0.00    -0.550 OA
ATOM      7  O   UNL     1     -10.691   8.878  29.562  1.00  0.00    -0.550 OA
ENDBRANCH   4   5
ENDBRANCH   3   4
ENDBRANCH   2   3
ENDBRANCH   1   2
BRANCH   1   8
ATOM      8  C   UNL     1     -16.325   6.856  30.529  1.00  0.00     0.000 C 
BRANCH   8   9
ATOM      9  C   UNL     1     -16.369   5.618  31.445  1.00  0.00    -0.000 C 
BRANCH   9  10
ATOM     10  C   UNL     1     -15.218   4.615  31.239  1.00  0.00    -0.000 C 
BRANCH  10  11
ATOM     11  C   UNL     1     -14.917   3.786  32.496  1.00  0.00    -0.000 C 
BRANCH  11  12
ATOM     12  C   UNL     1     -16.213   3.372  33.202  1.00  0.00    -0.003 C 
ATOM     13  C   UNL     1     -15.953   2.279  34.235  1.00  0.00     0.004 C 
ENDBRANCH  11  12
ENDBRANCH  10  11
ENDBRANCH   9  10
ENDBRANCH   8   9
ENDBRANCH   1   8
TORSDOF 9
ENDMDL
MODEL 6
REMARK VINA RESULT:    -3.730      2.723      6.166
REMARK INTER + INTRA:          -6.377
REMARK INTER:                  -5.693
REMARK INTRA:                  -0.685
REMARK UNBOUND:                -0.685
REMARK SMILES CCCCCCCCCCC(=O)[O-]
REMARK SMILES IDX 7 1 8 2 9 3 10 4 11 5 12 6 13 7 6 8 5 9 4 10 3 11 2 12 1 13
REMARK H PARENT
REMARK Flexibility Score: inf
ROOT
ATOM      1  C   UNL     1     -14.968   7.123  29.670  1.00  0.00     0.000 C 
ENDROOT
BRANCH   1   2
ATOM      2  C   UNL     1     -16.237   6.872  30.511  1.00  0.00     0.000 C 
BRANCH   2   3
ATOM      3  C   UNL     1     -16.337   5.467  31.131  1.00  0.00     0.006 C 
BRANCH   3   4
ATOM      4  C   UNL     1     -14.990   4.734  31.166  1.00  0.00     0.053 C 
BRANCH   4   5
ATOM      5  C   UNL     1     -15.043   3.591  32.131  1.00  0.00     0.041 C 
ATOM      6  O   UNL     1     -15.948   3.541  33.004  1.00  0.00    -0.550 OA
ATOM      7  O   UNL     1     -14.120   2.557  32.034  1.00  0.00    -0.550 OA
ENDBRANCH   4   5
ENDBRANCH   3   4
ENDBRANCH   2   3
ENDBRANCH   1   2
BRANCH   1   8
ATOM      8  C   UNL     1     -14.887   8.516  29.014  1.00  0.00     0.000 C 
BRANCH   8   9
ATOM      9  C   UNL     1     -13.750   8.689  27.988  1.00  0.00    -0.000 C 
BRANCH   9  10
ATOM     10  C   UNL     1     -12.398   9.124  28.582  1.00  0.00    -0.000 C 
BRANCH  10  11
ATOM     11  C   UNL     1     -11.264   8.137  28.272  1.00  0.00    -0.000 C 
BRANCH  11  12
ATOM     12  C   UNL     1     -11.161   7.061  29.360  1.00  0.00    -0.003 C 
ATOM     13  C   UNL     1     -11.640   5.707  28.843  1.00  0.00     0.004 C 
ENDBRANCH  11  12
ENDBRANCH  10  11
ENDBRANCH   9  10
ENDBRANCH   8   9
ENDBRANCH   1   8
TORSDOF 9
ENDMDL
MODEL 7
REMARK VINA RESULT:    -3.716      3.889      5.845
REMARK INTER + INTRA:          -6.356
REMARK INTER:                  -5.409
REMARK INTRA:                  -0.948
REMARK UNBOUND:                -0.685
REMARK SMILES CCCCCCCCCCC(=O)[O-]
REMARK SMILES IDX 7 1 8 2 9 3 10 4 11 5 12 6 13 7 6 8 5 9 4 10 3 11 2 12 1 13
REMARK H PARENT
REMARK Flexibility Score: inf
ROOT
ATOM      1  C   UNL     1     -10.757   8.299  28.460  1.00  0.00     0.000 C 
ENDROOT
BRANCH   1   2
ATOM      2  C   UNL     1     -10.744   7.508  29.784  1.00  0.00     0.000 C 
BRANCH   2   3
ATOM      3  C   UNL     1     -10.787   5.977  29.627  1.00  0.00     0.006 C 
BRANCH   3   4
ATOM      4  C   UNL     1     -11.354   5.267  30.863  1.00  0.00     0.053 C 
BRANCH   4   5
ATOM      5  C   UNL     1     -10.354   4.302  31.415  1.00  0.00     0.041 C 
ATOM      6  O   UNL     1     -10.678   3.103  31.623  1.00  0.00    -0.550 OA
ATOM      7  O   UNL     1      -9.049   4.713  31.654  1.00  0.00    -0.550 OA
ENDBRANCH   4   5
ENDBRANCH   3   4
ENDBRANCH   2   3
ENDBRANCH   1   2
BRANCH   1   8
ATOM      8  C   UNL     1     -12.152   8.498  27.835  1.00  0.00     0.000 C 
BRANCH   8   9
ATOM      9  C   UNL     1     -13.214   9.088  28.783  1.00  0.00    -0.000 C 
BRANCH   9  10
ATOM     10  C   UNL     1     -14.538   8.304  28.845  1.00  0.00    -0.000 C 
BRANCH  10  11
ATOM     11  C   UNL     1     -14.332   6.782  28.833  1.00  0.00    -0.000 C 
BRANCH  11  12
ATOM     12  C   UNL     1     -15.041   6.124  30.023  1.00  0.00    -0.003 C 
ATOM     13  C   UNL     1     -16.228   6.962  30.490  1.00  0.00     0.004 C 
ENDBRANCH  11  12
ENDBRANCH  10  11
ENDBRANCH   9  10
ENDBRANCH   8   9
ENDBRANCH   1   8
TORSDOF 9
ENDMDL
MODEL 8
REMARK VINA RESULT:    -3.680      2.794      5.594
REMARK INTER + INTRA:          -6.302
REMARK INTER:                  -5.511
REMARK INTRA:                  -0.791
REMARK UNBOUND:                -0.685
REMARK SMILES CCCCCCCCCCC(=O)[O-]
REMARK SMILES IDX 7 1 8 2 9 3 10 4 11 5 12 6 13 7 6 8 5 9 4 10 3 11 2 12 1 13
REMARK H PARENT
REMARK Flexibility Score: inf
ROOT
ATOM      1  C   UNL     1     -14.627   7.237  29.026  1.00  0.00     0.000 C 
ENDROOT
BRANCH   1   2
ATOM      2  C   UNL     1     -15.687   7.619  30.080  1.00  0.00     0.000 C 
BRANCH   2   3
ATOM      3  C   UNL     1     -16.360   6.428  30.785  1.00  0.00     0.006 C 
BRANCH   3   4
ATOM      4  C   UNL     1     -16.059   5.086  30.106  1.00  0.00     0.053 C 
BRANCH   4   5
ATOM      5  C   UNL     1     -15.811   4.026  31.132  1.00  0.00     0.041 C 
ATOM      6  O   UNL     1     -16.205   2.847  30.933  1.00  0.00    -0.550 OA
ATOM      7  O   UNL     1     -15.102   4.329  32.288  1.00  0.00    -0.550 OA
ENDBRANCH   4   5
ENDBRANCH   3   4
ENDBRANCH   2   3
ENDBRANCH   1   2
BRANCH   1   8
ATOM      8  C   UNL     1     -13.887   8.428  28.385  1.00  0.00     0.000 C 
BRANCH   8   9
ATOM      9  C   UNL     1     -12.353   8.394  28.525  1.00  0.00    -0.000 C 
BRANCH   9  10
ATOM     10  C   UNL     1     -11.757   7.005  28.825  1.00  0.00    -0.000 C 
BRANCH  10  11
ATOM     11  C   UNL     1     -10.632   7.051  29.869  1.00  0.00    -0.000 C 
BRANCH  11  12
ATOM     12  C   UNL     1     -10.677   5.818  30.778  1.00  0.00    -0.003 C 
ATOM     13  C   UNL     1     -12.063   5.178  30.771  1.00  0.00     0.004 C 
ENDBRANCH  11  12
ENDBRANCH  10  11
ENDBRANCH   9  10
ENDBRANCH   8   9
ENDBRANCH   1   8
TORSDOF 9
ENDMDL
MODEL 9
REMARK VINA RESULT:    -3.675      2.755      6.705
REMARK INTER + INTRA:          -6.295
REMARK INTER:                  -5.993
REMARK INTRA:                  -0.302
REMARK UNBOUND:                -0.685
REMARK SMILES CCCCCCCCCCC(=O)[O-]
REMARK SMILES IDX 7 1 8 2 9 3 10 4 11 5 12 6 13 7 6 8 5 9 4 10 3 11 2 12 1 13
REMARK H PARENT
REMARK Flexibility Score: inf
ROOT
ATOM      1  C   UNL     1     -16.204   5.602  30.337  1.00  0.00     0.000 C 
ENDROOT
BRANCH   1   2
ATOM      2  C   UNL     1     -16.749   5.276  31.743  1.00  0.00     0.000 C 
BRANCH   2   3
ATOM      3  C   UNL     1     -17.125   3.800  31.967  1.00  0.00     0.006 C 
BRANCH   3   4
ATOM      4  C   UNL     1     -16.710   3.284  33.351  1.00  0.00     0.053 C 
BRANCH   4   5
ATOM      5  C   UNL     1     -15.882   2.045  33.218  1.00  0.00     0.041 C 
ATOM      6  O   UNL     1     -16.180   1.011  33.872  1.00  0.00    -0.550 OA
ATOM      7  O   UNL     1     -14.809   2.017  32.336  1.00  0.00    -0.550 OA
ENDBRANCH   4   5
ENDBRANCH   3   4
ENDBRANCH   2   3
ENDBRANCH   1   2
BRANCH   1   8
ATOM      8  C   UNL     1     -15.776   7.068  30.128  1.00  0.00     0.000 C 
BRANCH   8   9
ATOM      9  C   UNL     1     -14.532   7.265  29.240  1.00  0.00    -0.000 C 
BRANCH   9  10
ATOM     10  C   UNL     1     -14.408   8.657  28.593  1.00  0.00    -0.000 C 
BRANCH  10  11
ATOM     11  C   UNL     1     -12.963   9.012  28.213  1.00  0.00    -0.000 C 
BRANCH  11  12
ATOM     12  C   UNL     1     -12.007   7.867  28.565  1.00  0.00    -0.003 C 
ATOM     13  C   UNL     1     -10.814   8.372  29.370  1.00  0.00     0.004 C 
ENDBRANCH  11  12
ENDBRANCH  10  11
ENDBRANCH   9  10
ENDBRANCH   8   9
ENDBRANCH   1   8
TORSDOF 9
ENDMDL
