MODEL 1
REMARK VINA RESULT:    -4.832      0.000      0.000
REMARK INTER + INTRA:          -6.144
REMARK INTER:                  -5.820
REMARK INTRA:                  -0.323
REMARK UNBOUND:                -0.323
REMARK SMILES O=c1c(O)c(-c2ccc(O)c(O)c2)oc2cc(O)cc(O)c12
REMARK SMILES IDX 5 1 3 2 2 3 1 4 22 5 20 6 19 7 17 8 16 9 15 10 14 11 6 12
REMARK SMILES IDX 7 13 8 14 9 15 13 16 11 17 10 18 12 20 4 22 21 24 18 26
REMARK H PARENT 10 19 12 21 4 23 21 25 18 27
REMARK Flexibility Score: inf
ROOT
ATOM      1  C   UNL     1      98.043 109.501 108.634  1.00  0.00     0.180 A 
ATOM      2  C   UNL     1      96.823 110.132 108.339  1.00  0.00     0.208 A 
ATOM      3  C   UNL     1      96.834 111.319 107.590  1.00  0.00     0.238 A 
ATOM      4  O   UNL     1      95.734 111.837 107.267  1.00  0.00    -0.285 OA
ATOM      5  C   UNL     1      98.066 111.890 107.192  1.00  0.00     0.111 A 
ATOM      6  C   UNL     1      98.199 113.114 106.468  1.00  0.00     0.134 A 
ATOM      7  C   UNL     1      99.466 113.528 106.036  1.00  0.00     0.093 A 
ATOM      8  C   UNL     1     100.609 112.799 106.356  1.00  0.00     0.123 A 
ATOM      9  C   UNL     1     100.499 111.630 107.111  1.00  0.00     0.094 A 
ATOM     10  C   UNL     1      99.245 111.170 107.523  1.00  0.00     0.146 A 
ATOM     11  O   UNL     1      99.182 110.043 108.220  1.00  0.00    -0.452 OA
ENDROOT
BRANCH   1  12
ATOM     12  C   UNL     1      98.112 108.240 109.408  1.00  0.00     0.025 A 
ATOM     13  C   UNL     1      98.194 108.245 110.810  1.00  0.00     0.016 A 
ATOM     14  C   UNL     1      98.234 107.043 111.518  1.00  0.00     0.051 A 
ATOM     15  C   UNL     1      98.179 105.816 110.848  1.00  0.00     0.157 A 
ATOM     16  C   UNL     1      98.034 107.011 108.735  1.00  0.00     0.062 A 
ATOM     17  C   UNL     1      98.073 105.800 109.438  1.00  0.00     0.158 A 
BRANCH  15  18
ATOM     18  O   UNL     1      98.226 104.650 111.616  1.00  0.00    -0.504 OA
ATOM     19  H   UNL     1      98.883 104.496 112.366  1.00  0.00     0.293 HD
ENDBRANCH  15  18
BRANCH  17  20
ATOM     20  O   UNL     1      98.003 104.616 108.700  1.00  0.00    -0.504 OA
ATOM     21  H   UNL     1      98.409 103.741 108.997  1.00  0.00     0.293 HD
ENDBRANCH  17  20
ENDBRANCH   1  12
BRANCH   2  22
ATOM     22  O   UNL     1      95.621 109.593 108.807  1.00  0.00    -0.502 OA
ATOM     23  H   UNL     1      95.589 108.864 109.509  1.00  0.00     0.293 HD
ENDBRANCH   2  22
BRANCH   6  24
ATOM     24  O   UNL     1      97.132 113.968 106.171  1.00  0.00    -0.507 OA
ATOM     25  H   UNL     1      96.168 113.793 106.410  1.00  0.00     0.293 HD
ENDBRANCH   6  24
BRANCH   8  26
ATOM     26  O   UNL     1     101.856 113.249 105.924  1.00  0.00    -0.508 OA
ATOM     27  H   UNL     1     102.169 113.106 104.971  1.00  0.00     0.293 HD
ENDBRANCH   8  26
TORSDOF 6
ENDMDL
MODEL 2
REMARK VINA RESULT:    -4.755      1.339      2.907
REMARK INTER + INTRA:          -6.051
REMARK INTER:                  -5.845
REMARK INTRA:                  -0.206
REMARK UNBOUND:                -0.323
REMARK SMILES O=c1c(O)c(-c2ccc(O)c(O)c2)oc2cc(O)cc(O)c12
REMARK SMILES IDX 5 1 3 2 2 3 1 4 22 5 20 6 19 7 17 8 16 9 15 10 14 11 6 12
REMARK SMILES IDX 7 13 8 14 9 15 13 16 11 17 10 18 12 20 4 22 21 24 18 26
REMARK H PARENT 10 19 12 21 4 23 21 25 18 27
REMARK Flexibility Score: inf
ROOT
ATOM      1  C   UNL     1      98.838 109.264 108.758  1.00  0.00     0.180 A 
ATOM      2  C   UNL     1     100.239 109.368 108.772  1.00  0.00     0.208 A 
ATOM      3  C   UNL     1     100.845 110.480 108.167  1.00  0.00     0.238 A 
ATOM      4  O   UNL     1     102.095 110.604 108.249  1.00  0.00    -0.285 OA
ATOM      5  C   UNL     1     100.048 111.447 107.508  1.00  0.00     0.111 A 
ATOM      6  C   UNL     1     100.558 112.592 106.824  1.00  0.00     0.134 A 
ATOM      7  C   UNL     1      99.667 113.537 106.299  1.00  0.00     0.093 A 
ATOM      8  C   UNL     1      98.289 113.348 106.376  1.00  0.00     0.123 A 
ATOM      9  C   UNL     1      97.778 112.206 106.995  1.00  0.00     0.094 A 
ATOM     10  C   UNL     1      98.641 111.264 107.562  1.00  0.00     0.146 A 
ATOM     11  O   UNL     1      98.114 110.203 108.160  1.00  0.00    -0.452 OA
ENDROOT
BRANCH   1  12
ATOM     12  C   UNL     1      98.125 108.128 109.386  1.00  0.00     0.025 A 
ATOM     13  C   UNL     1      97.321 108.307 110.523  1.00  0.00     0.016 A 
ATOM     14  C   UNL     1      96.639 107.225 111.082  1.00  0.00     0.051 A 
ATOM     15  C   UNL     1      96.733 105.950 110.514  1.00  0.00     0.157 A 
ATOM     16  C   UNL     1      98.203 106.855 108.800  1.00  0.00     0.062 A 
ATOM     17  C   UNL     1      97.522 105.763 109.355  1.00  0.00     0.158 A 
BRANCH  15  18
ATOM     18  O   UNL     1      96.030 104.910 111.125  1.00  0.00    -0.504 OA
ATOM     19  H   UNL     1      96.145 103.935 110.888  1.00  0.00     0.293 HD
ENDBRANCH  15  18
BRANCH  17  20
ATOM     20  O   UNL     1      97.656 104.524 108.725  1.00  0.00    -0.504 OA
ATOM     21  H   UNL     1      96.877 103.937 108.464  1.00  0.00     0.293 HD
ENDBRANCH  17  20
ENDBRANCH   1  12
BRANCH   2  22
ATOM     22  O   UNL     1     101.013 108.364 109.361  1.00  0.00    -0.502 OA
ATOM     23  H   UNL     1     101.106 108.269 110.365  1.00  0.00     0.293 HD
ENDBRANCH   2  22
BRANCH   6  24
ATOM     24  O   UNL     1     101.919 112.834 106.609  1.00  0.00    -0.507 OA
ATOM     25  H   UNL     1     102.495 112.342 105.944  1.00  0.00     0.293 HD
ENDBRANCH   6  24
BRANCH   8  26
ATOM     26  O   UNL     1      97.432 114.301 105.828  1.00  0.00    -0.508 OA
ATOM     27  H   UNL     1      96.744 114.054 105.127  1.00  0.00     0.293 HD
ENDBRANCH   8  26
TORSDOF 6
ENDMDL
MODEL 3
REMARK VINA RESULT:    -4.639      1.776      7.107
REMARK INTER + INTRA:          -5.912
REMARK INTER:                  -5.636
REMARK INTRA:                  -0.276
REMARK UNBOUND:                -0.323
REMARK SMILES O=c1c(O)c(-c2ccc(O)c(O)c2)oc2cc(O)cc(O)c12
REMARK SMILES IDX 5 1 3 2 2 3 1 4 22 5 20 6 19 7 17 8 16 9 15 10 14 11 6 12
REMARK SMILES IDX 7 13 8 14 9 15 13 16 11 17 10 18 12 20 4 22 21 24 18 26
REMARK H PARENT 10 19 12 21 4 23 21 25 18 27
REMARK Flexibility Score: inf
ROOT
ATOM      1  C   UNL     1      98.958 110.146 108.675  1.00  0.00     0.180 A 
ATOM      2  C   UNL     1     100.049 110.175 109.560  1.00  0.00     0.208 A 
ATOM      3  C   UNL     1     100.445 108.987 110.192  1.00  0.00     0.238 A 
ATOM      4  O   UNL     1     101.468 109.005 110.925  1.00  0.00    -0.285 OA
ATOM      5  C   UNL     1      99.713 107.794 109.974  1.00  0.00     0.111 A 
ATOM      6  C   UNL     1      99.999 106.540 110.595  1.00  0.00     0.134 A 
ATOM      7  C   UNL     1      99.271 105.403 110.223  1.00  0.00     0.093 A 
ATOM      8  C   UNL     1      98.229 105.484 109.301  1.00  0.00     0.123 A 
ATOM      9  C   UNL     1      97.905 106.715 108.727  1.00  0.00     0.094 A 
ATOM     10  C   UNL     1      98.637 107.860 109.050  1.00  0.00     0.146 A 
ATOM     11  O   UNL     1      98.311 109.006 108.465  1.00  0.00    -0.452 OA
ENDROOT
BRANCH   1  12
ATOM     12  C   UNL     1      98.488 111.356 107.961  1.00  0.00     0.025 A 
ATOM     13  C   UNL     1      97.370 112.080 108.406  1.00  0.00     0.016 A 
ATOM     14  C   UNL     1      96.962 113.231 107.730  1.00  0.00     0.051 A 
ATOM     15  C   UNL     1      97.663 113.689 106.611  1.00  0.00     0.157 A 
ATOM     16  C   UNL     1      99.207 111.826 106.852  1.00  0.00     0.062 A 
ATOM     17  C   UNL     1      98.804 112.980 106.167  1.00  0.00     0.158 A 
BRANCH  15  18
ATOM     18  O   UNL     1      97.200 114.845 105.978  1.00  0.00    -0.504 OA
ATOM     19  H   UNL     1      96.586 114.842 105.176  1.00  0.00     0.293 HD
ENDBRANCH  15  18
BRANCH  17  20
ATOM     20  O   UNL     1      99.562 113.382 105.065  1.00  0.00    -0.504 OA
ATOM     21  H   UNL     1     100.567 113.308 105.014  1.00  0.00     0.293 HD
ENDBRANCH  17  20
ENDBRANCH   1  12
BRANCH   2  22
ATOM     22  O   UNL     1     100.711 111.378 109.821  1.00  0.00    -0.502 OA
ATOM     23  H   UNL     1     101.663 111.550 109.524  1.00  0.00     0.293 HD
ENDBRANCH   2  22
BRANCH   6  24
ATOM     24  O   UNL     1     100.959 106.363 111.597  1.00  0.00    -0.507 OA
ATOM     25  H   UNL     1     100.850 105.768 112.404  1.00  0.00     0.293 HD
ENDBRANCH   6  24
BRANCH   8  26
ATOM     26  O   UNL     1      97.516 104.335 108.966  1.00  0.00    -0.508 OA
ATOM     27  H   UNL     1      97.722 103.440 109.394  1.00  0.00     0.293 HD
ENDBRANCH   8  26
TORSDOF 6
ENDMDL
MODEL 4
REMARK VINA RESULT:    -4.550      3.964      7.182
REMARK INTER + INTRA:          -5.804
REMARK INTER:                  -5.517
REMARK INTRA:                  -0.287
REMARK UNBOUND:                -0.323
REMARK SMILES O=c1c(O)c(-c2ccc(O)c(O)c2)oc2cc(O)cc(O)c12
REMARK SMILES IDX 5 1 3 2 2 3 1 4 22 5 20 6 19 7 17 8 16 9 15 10 14 11 6 12
REMARK SMILES IDX 7 13 8 14 9 15 13 16 11 17 10 18 12 20 4 22 21 24 18 26
REMARK H PARENT 10 19 12 21 4 23 21 25 18 27
REMARK Flexibility Score: inf
ROOT
ATOM      1  C   UNL     1     101.713 111.000 108.260  1.00  0.00     0.180 A 
ATOM      2  C   UNL     1     101.594 109.637 108.583  1.00  0.00     0.208 A 
ATOM      3  C   UNL     1     102.697 108.972 109.141  1.00  0.00     0.238 A 
ATOM      4  O   UNL     1     102.560 107.772 109.496  1.00  0.00    -0.285 OA
ATOM      5  C   UNL     1     103.921 109.661 109.319  1.00  0.00     0.111 A 
ATOM      6  C   UNL     1     105.116 109.075 109.835  1.00  0.00     0.134 A 
ATOM      7  C   UNL     1     106.238 109.881 110.066  1.00  0.00     0.093 A 
ATOM      8  C   UNL     1     106.230 111.237 109.742  1.00  0.00     0.123 A 
ATOM      9  C   UNL     1     105.085 111.810 109.186  1.00  0.00     0.094 A 
ATOM     10  C   UNL     1     103.938 111.040 108.979  1.00  0.00     0.146 A 
ATOM     11  O   UNL     1     102.863 111.629 108.469  1.00  0.00    -0.452 OA
ENDROOT
BRANCH   1  12
ATOM     12  C   UNL     1     100.590 111.774 107.681  1.00  0.00     0.025 A 
ATOM     13  C   UNL     1      99.515 112.208 108.473  1.00  0.00     0.016 A 
ATOM     14  C   UNL     1      98.481 112.956 107.908  1.00  0.00     0.051 A 
ATOM     15  C   UNL     1      98.504 113.298 106.552  1.00  0.00     0.157 A 
ATOM     16  C   UNL     1     100.627 112.134 106.325  1.00  0.00     0.062 A 
ATOM     17  C   UNL     1      99.594 112.885 105.750  1.00  0.00     0.158 A 
BRANCH  15  18
ATOM     18  O   UNL     1      97.437 114.045 106.049  1.00  0.00    -0.504 OA
ATOM     19  H   UNL     1      96.466 113.812 106.197  1.00  0.00     0.293 HD
ENDBRANCH  15  18
BRANCH  17  20
ATOM     20  O   UNL     1      99.692 113.197 104.393  1.00  0.00    -0.504 OA
ATOM     21  H   UNL     1     100.530 113.551 103.954  1.00  0.00     0.293 HD
ENDBRANCH  17  20
ENDBRANCH   1  12
BRANCH   2  22
ATOM     22  O   UNL     1     100.401 108.955 108.329  1.00  0.00    -0.502 OA
ATOM     23  H   UNL     1     100.320 108.255 107.603  1.00  0.00     0.293 HD
ENDBRANCH   2  22
BRANCH   6  24
ATOM     24  O   UNL     1     105.265 107.711 110.111  1.00  0.00    -0.507 OA
ATOM     25  H   UNL     1     104.668 106.982 109.752  1.00  0.00     0.293 HD
ENDBRANCH   6  24
BRANCH   8  26
ATOM     26  O   UNL     1     107.369 112.006 109.969  1.00  0.00    -0.508 OA
ATOM     27  H   UNL     1     108.114 112.065 109.284  1.00  0.00     0.293 HD
ENDBRANCH   8  26
TORSDOF 6
ENDMDL
MODEL 5
REMARK VINA RESULT:    -4.505      7.891      9.734
REMARK INTER + INTRA:          -5.750
REMARK INTER:                  -5.435
REMARK INTRA:                  -0.314
REMARK UNBOUND:                -0.323
REMARK SMILES O=c1c(O)c(-c2ccc(O)c(O)c2)oc2cc(O)cc(O)c12
REMARK SMILES IDX 5 1 3 2 2 3 1 4 22 5 20 6 19 7 17 8 16 9 15 10 14 11 6 12
REMARK SMILES IDX 7 13 8 14 9 15 13 16 11 17 10 18 12 20 4 22 21 24 18 26
REMARK H PARENT 10 19 12 21 4 23 21 25 18 27
REMARK Flexibility Score: inf
ROOT
ATOM      1  C   UNL     1     106.077 108.898 110.100  1.00  0.00     0.180 A 
ATOM      2  C   UNL     1     106.597 107.691 110.596  1.00  0.00     0.208 A 
ATOM      3  C   UNL     1     107.987 107.496 110.590  1.00  0.00     0.238 A 
ATOM      4  O   UNL     1     108.450 106.444 111.104  1.00  0.00    -0.285 OA
ATOM      5  C   UNL     1     108.837 108.486 110.040  1.00  0.00     0.111 A 
ATOM      6  C   UNL     1     110.257 108.376 109.942  1.00  0.00     0.134 A 
ATOM      7  C   UNL     1     111.004 109.464 109.474  1.00  0.00     0.093 A 
ATOM      8  C   UNL     1     110.381 110.633 109.042  1.00  0.00     0.123 A 
ATOM      9  C   UNL     1     108.989 110.733 109.081  1.00  0.00     0.094 A 
ATOM     10  C   UNL     1     108.219 109.678 109.579  1.00  0.00     0.146 A 
ATOM     11  O   UNL     1     106.900 109.822 109.619  1.00  0.00    -0.452 OA
ENDROOT
BRANCH   1  12
ATOM     12  C   UNL     1     104.623 109.183 110.084  1.00  0.00     0.025 A 
ATOM     13  C   UNL     1     103.955 109.644 111.230  1.00  0.00     0.016 A 
ATOM     14  C   UNL     1     102.590 109.929 111.184  1.00  0.00     0.051 A 
ATOM     15  C   UNL     1     101.868 109.774 109.996  1.00  0.00     0.157 A 
ATOM     16  C   UNL     1     103.906 109.049 108.885  1.00  0.00     0.062 A 
ATOM     17  C   UNL     1     102.535 109.332 108.829  1.00  0.00     0.158 A 
BRANCH  15  18
ATOM     18  O   UNL     1     100.503 110.072 110.018  1.00  0.00    -0.504 OA
ATOM     19  H   UNL     1      99.774 109.375 110.051  1.00  0.00     0.293 HD
ENDBRANCH  15  18
BRANCH  17  20
ATOM     20  O   UNL     1     101.884 109.164 107.605  1.00  0.00    -0.504 OA
ATOM     21  H   UNL     1     102.282 109.423 106.715  1.00  0.00     0.293 HD
ENDBRANCH  17  20
ENDBRANCH   1  12
BRANCH   2  22
ATOM     22  O   UNL     1     105.737 106.694 111.065  1.00  0.00    -0.502 OA
ATOM     23  H   UNL     1     104.931 106.899 111.642  1.00  0.00     0.293 HD
ENDBRANCH   2  22
BRANCH   6  24
ATOM     24  O   UNL     1     110.977 107.220 110.262  1.00  0.00    -0.507 OA
ATOM     25  H   UNL     1     110.716 106.284 109.992  1.00  0.00     0.293 HD
ENDBRANCH   6  24
BRANCH   8  26
ATOM     26  O   UNL     1     111.154 111.690 108.567  1.00  0.00    -0.508 OA
ATOM     27  H   UNL     1     111.427 111.752 107.593  1.00  0.00     0.293 HD
ENDBRANCH   8  26
TORSDOF 6
ENDMDL
MODEL 6
REMARK VINA RESULT:    -4.485      4.080      7.644
REMARK INTER + INTRA:          -5.726
REMARK INTER:                  -5.423
REMARK INTRA:                  -0.303
REMARK UNBOUND:                -0.323
REMARK SMILES O=c1c(O)c(-c2ccc(O)c(O)c2)oc2cc(O)cc(O)c12
REMARK SMILES IDX 5 1 3 2 2 3 1 4 22 5 20 6 19 7 17 8 16 9 15 10 14 11 6 12
REMARK SMILES IDX 7 13 8 14 9 15 13 16 11 17 10 18 12 20 4 22 21 24 18 26
REMARK H PARENT 10 19 12 21 4 23 21 25 18 27
REMARK Flexibility Score: inf
ROOT
ATOM      1  C   UNL     1     102.113 111.429 108.262  1.00  0.00     0.180 A 
ATOM      2  C   UNL     1     103.188 112.238 108.668  1.00  0.00     0.208 A 
ATOM      3  C   UNL     1     104.337 111.629 109.195  1.00  0.00     0.238 A 
ATOM      4  O   UNL     1     105.324 112.354 109.487  1.00  0.00    -0.285 OA
ATOM      5  C   UNL     1     104.378 110.223 109.362  1.00  0.00     0.111 A 
ATOM      6  C   UNL     1     105.474 109.502 109.926  1.00  0.00     0.134 A 
ATOM      7  C   UNL     1     105.445 108.102 109.944  1.00  0.00     0.093 A 
ATOM      8  C   UNL     1     104.336 107.399 109.477  1.00  0.00     0.123 A 
ATOM      9  C   UNL     1     103.235 108.094 108.973  1.00  0.00     0.094 A 
ATOM     10  C   UNL     1     103.251 109.489 108.907  1.00  0.00     0.146 A 
ATOM     11  O   UNL     1     102.193 110.111 108.400  1.00  0.00    -0.452 OA
ENDROOT
BRANCH   1  12
ATOM     12  C   UNL     1     100.873 111.996 107.685  1.00  0.00     0.025 A 
ATOM     13  C   UNL     1      99.742 112.243 108.479  1.00  0.00     0.016 A 
ATOM     14  C   UNL     1      98.593 112.801 107.917  1.00  0.00     0.051 A 
ATOM     15  C   UNL     1      98.552 113.136 106.560  1.00  0.00     0.157 A 
ATOM     16  C   UNL     1     100.843 112.352 106.328  1.00  0.00     0.062 A 
ATOM     17  C   UNL     1      99.694 112.912 105.754  1.00  0.00     0.158 A 
BRANCH  15  18
ATOM     18  O   UNL     1      97.371 113.687 106.058  1.00  0.00    -0.504 OA
ATOM     19  H   UNL     1      97.263 114.659 105.810  1.00  0.00     0.293 HD
ENDBRANCH  15  18
BRANCH  17  20
ATOM     20  O   UNL     1      99.732 113.230 104.395  1.00  0.00    -0.504 OA
ATOM     21  H   UNL     1      99.272 112.691 103.676  1.00  0.00     0.293 HD
ENDBRANCH  17  20
ENDBRANCH   1  12
BRANCH   2  22
ATOM     22  O   UNL     1     103.099 113.629 108.566  1.00  0.00    -0.502 OA
ATOM     23  H   UNL     1     103.414 114.135 107.748  1.00  0.00     0.293 HD
ENDBRANCH   2  22
BRANCH   6  24
ATOM     24  O   UNL     1     106.595 110.108 110.504  1.00  0.00    -0.507 OA
ATOM     25  H   UNL     1     107.300 110.621 109.998  1.00  0.00     0.293 HD
ENDBRANCH   6  24
BRANCH   8  26
ATOM     26  O   UNL     1     104.334 106.006 109.525  1.00  0.00    -0.508 OA
ATOM     27  H   UNL     1     103.764 105.455 108.894  1.00  0.00     0.293 HD
ENDBRANCH   8  26
TORSDOF 6
ENDMDL
MODEL 7
REMARK VINA RESULT:    -4.462     13.658     15.598
REMARK INTER + INTRA:          -5.698
REMARK INTER:                  -5.541
REMARK INTRA:                  -0.157
REMARK UNBOUND:                -0.323
REMARK SMILES O=c1c(O)c(-c2ccc(O)c(O)c2)oc2cc(O)cc(O)c12
REMARK SMILES IDX 5 1 3 2 2 3 1 4 22 5 20 6 19 7 17 8 16 9 15 10 14 11 6 12
REMARK SMILES IDX 7 13 8 14 9 15 13 16 11 17 10 18 12 20 4 22 21 24 18 26
REMARK H PARENT 10 19 12 21 4 23 21 25 18 27
REMARK Flexibility Score: inf
ROOT
ATOM      1  C   UNL     1     108.363 101.522 102.817  1.00  0.00     0.180 A 
ATOM      2  C   UNL     1     109.264 102.528 103.206  1.00  0.00     0.208 A 
ATOM      3  C   UNL     1     110.640 102.255 103.184  1.00  0.00     0.238 A 
ATOM      4  O   UNL     1     111.444 103.183 103.462  1.00  0.00    -0.285 OA
ATOM      5  C   UNL     1     111.098 100.963 102.827  1.00  0.00     0.111 A 
ATOM      6  C   UNL     1     112.468 100.561 102.813  1.00  0.00     0.134 A 
ATOM      7  C   UNL     1     112.810  99.287 102.340  1.00  0.00     0.093 A 
ATOM      8  C   UNL     1     111.830  98.380 101.942  1.00  0.00     0.123 A 
ATOM      9  C   UNL     1     110.483  98.742 102.003  1.00  0.00     0.094 A 
ATOM     10  C   UNL     1     110.113 100.019 102.433  1.00  0.00     0.146 A 
ATOM     11  O   UNL     1     108.823 100.331 102.455  1.00  0.00    -0.452 OA
ENDROOT
BRANCH   1  12
ATOM     12  C   UNL     1     106.898 101.739 102.800  1.00  0.00     0.025 A 
ATOM     13  C   UNL     1     106.311 102.710 101.973  1.00  0.00     0.016 A 
ATOM     14  C   UNL     1     104.926 102.878 101.957  1.00  0.00     0.051 A 
ATOM     15  C   UNL     1     104.099 102.077 102.752  1.00  0.00     0.157 A 
ATOM     16  C   UNL     1     106.070 100.918 103.582  1.00  0.00     0.062 A 
ATOM     17  C   UNL     1     104.678 101.081 103.572  1.00  0.00     0.158 A 
BRANCH  15  18
ATOM     18  O   UNL     1     102.721 102.300 102.693  1.00  0.00    -0.504 OA
ATOM     19  H   UNL     1     102.105 101.851 102.031  1.00  0.00     0.293 HD
ENDBRANCH  15  18
BRANCH  17  20
ATOM     20  O   UNL     1     103.918 100.236 104.384  1.00  0.00    -0.504 OA
ATOM     21  H   UNL     1     102.999  99.897 104.141  1.00  0.00     0.293 HD
ENDBRANCH  17  20
ENDBRANCH   1  12
BRANCH   2  22
ATOM     22  O   UNL     1     108.789 103.773 103.628  1.00  0.00    -0.502 OA
ATOM     23  H   UNL     1     109.393 104.473 104.041  1.00  0.00     0.293 HD
ENDBRANCH   2  22
BRANCH   6  24
ATOM     24  O   UNL     1     113.522 101.356 103.274  1.00  0.00    -0.507 OA
ATOM     25  H   UNL     1     113.928 101.300 104.195  1.00  0.00     0.293 HD
ENDBRANCH   6  24
BRANCH   8  26
ATOM     26  O   UNL     1     112.204  97.115 101.492  1.00  0.00    -0.508 OA
ATOM     27  H   UNL     1     112.281  96.329 102.127  1.00  0.00     0.293 HD
ENDBRANCH   8  26
TORSDOF 6
ENDMDL
MODEL 8
REMARK VINA RESULT:    -4.436     13.059     14.635
REMARK INTER + INTRA:          -5.667
REMARK INTER:                  -5.615
REMARK INTRA:                  -0.053
REMARK UNBOUND:                -0.323
REMARK SMILES O=c1c(O)c(-c2ccc(O)c(O)c2)oc2cc(O)cc(O)c12
REMARK SMILES IDX 5 1 3 2 2 3 1 4 22 5 20 6 19 7 17 8 16 9 15 10 14 11 6 12
REMARK SMILES IDX 7 13 8 14 9 15 13 16 11 17 10 18 12 20 4 22 21 24 18 26
REMARK H PARENT 10 19 12 21 4 23 21 25 18 27
REMARK Flexibility Score: inf
ROOT
ATOM      1  C   UNL     1     108.487 101.843 102.898  1.00  0.00     0.180 A 
ATOM      2  C   UNL     1     108.181 103.212 102.816  1.00  0.00     0.208 A 
ATOM      3  C   UNL     1     109.211 104.150 102.981  1.00  0.00     0.238 A 
ATOM      4  O   UNL     1     108.944 105.371 102.833  1.00  0.00    -0.285 OA
ATOM      5  C   UNL     1     110.524 103.712 103.282  1.00  0.00     0.111 A 
ATOM      6  C   UNL     1     111.636 104.577 103.514  1.00  0.00     0.134 A 
ATOM      7  C   UNL     1     112.911 104.028 103.699  1.00  0.00     0.093 A 
ATOM      8  C   UNL     1     113.105 102.648 103.724  1.00  0.00     0.123 A 
ATOM      9  C   UNL     1     112.015 101.791 103.553  1.00  0.00     0.094 A 
ATOM     10  C   UNL     1     110.738 102.309 103.328  1.00  0.00     0.146 A 
ATOM     11  O   UNL     1     109.733 101.461 103.149  1.00  0.00    -0.452 OA
ENDROOT
BRANCH   1  12
ATOM     12  C   UNL     1     107.457 100.792 102.721  1.00  0.00     0.025 A 
ATOM     13  C   UNL     1     107.612  99.769 101.773  1.00  0.00     0.016 A 
ATOM     14  C   UNL     1     106.640  98.776 101.642  1.00  0.00     0.051 A 
ATOM     15  C   UNL     1     105.505  98.776 102.459  1.00  0.00     0.157 A 
ATOM     16  C   UNL     1     106.331 100.782 103.558  1.00  0.00     0.062 A 
ATOM     17  C   UNL     1     105.349  99.790 103.433  1.00  0.00     0.158 A 
BRANCH  15  18
ATOM     18  O   UNL     1     104.567  97.757 102.274  1.00  0.00    -0.504 OA
ATOM     19  H   UNL     1     103.582  97.917 102.125  1.00  0.00     0.293 HD
ENDBRANCH  15  18
BRANCH  17  20
ATOM     20  O   UNL     1     104.250  99.849 104.292  1.00  0.00    -0.504 OA
ATOM     21  H   UNL     1     103.748  99.039 104.623  1.00  0.00     0.293 HD
ENDBRANCH  17  20
ENDBRANCH   1  12
BRANCH   2  22
ATOM     22  O   UNL     1     106.865 103.627 102.594  1.00  0.00    -0.502 OA
ATOM     23  H   UNL     1     106.097 103.337 103.186  1.00  0.00     0.293 HD
ENDBRANCH   2  22
BRANCH   6  24
ATOM     24  O   UNL     1     111.542 105.970 103.599  1.00  0.00    -0.507 OA
ATOM     25  H   UNL     1     111.801 106.518 104.404  1.00  0.00     0.293 HD
ENDBRANCH   6  24
BRANCH   8  26
ATOM     26  O   UNL     1     114.385 102.136 103.927  1.00  0.00    -0.508 OA
ATOM     27  H   UNL     1     114.944 101.788 103.157  1.00  0.00     0.293 HD
ENDBRANCH   8  26
TORSDOF 6
ENDMDL
MODEL 9
REMARK VINA RESULT:    -4.429     10.825     13.347
REMARK INTER + INTRA:          -5.659
REMARK INTER:                  -5.351
REMARK INTRA:                  -0.307
REMARK UNBOUND:                -0.323
REMARK SMILES O=c1c(O)c(-c2ccc(O)c(O)c2)oc2cc(O)cc(O)c12
REMARK SMILES IDX 5 1 3 2 2 3 1 4 22 5 20 6 19 7 17 8 16 9 15 10 14 11 6 12
REMARK SMILES IDX 7 13 8 14 9 15 13 16 11 17 10 18 12 20 4 22 21 24 18 26
REMARK H PARENT 10 19 12 21 4 23 21 25 18 27
REMARK Flexibility Score: inf
ROOT
ATOM      1  C   UNL     1     101.331  99.922 102.446  1.00  0.00     0.180 A 
ATOM      2  C   UNL     1     101.403  98.524 102.317  1.00  0.00     0.208 A 
ATOM      3  C   UNL     1     100.260  97.756 102.588  1.00  0.00     0.238 A 
ATOM      4  O   UNL     1     100.311  96.513 102.399  1.00  0.00    -0.285 OA
ATOM      5  C   UNL     1      99.075  98.387 103.038  1.00  0.00     0.111 A 
ATOM      6  C   UNL     1      97.871  97.704 103.385  1.00  0.00     0.134 A 
ATOM      7  C   UNL     1      96.728  98.442 103.717  1.00  0.00     0.093 A 
ATOM      8  C   UNL     1      96.762  99.834 103.777  1.00  0.00     0.123 A 
ATOM      9  C   UNL     1      97.949 100.512 103.493  1.00  0.00     0.094 A 
ATOM     10  C   UNL     1      99.095  99.805 103.121  1.00  0.00     0.146 A 
ATOM     11  O   UNL     1     100.197 100.489 102.838  1.00  0.00    -0.452 OA
ENDROOT
BRANCH   1  12
ATOM     12  C   UNL     1     102.489 100.801 102.164  1.00  0.00     0.025 A 
ATOM     13  C   UNL     1     102.609 101.485 100.945  1.00  0.00     0.016 A 
ATOM     14  C   UNL     1     103.698 102.327 100.712  1.00  0.00     0.051 A 
ATOM     15  C   UNL     1     104.678 102.514 101.692  1.00  0.00     0.157 A 
ATOM     16  C   UNL     1     103.460 101.003 103.157  1.00  0.00     0.062 A 
ATOM     17  C   UNL     1     104.556 101.846 102.933  1.00  0.00     0.158 A 
BRANCH  15  18
ATOM     18  O   UNL     1     105.744 103.366 101.395  1.00  0.00    -0.504 OA
ATOM     19  H   UNL     1     106.710 103.156 101.603  1.00  0.00     0.293 HD
ENDBRANCH  15  18
BRANCH  17  20
ATOM     20  O   UNL     1     105.489 101.990 103.963  1.00  0.00    -0.504 OA
ATOM     21  H   UNL     1     106.066 101.239 104.310  1.00  0.00     0.293 HD
ENDBRANCH  17  20
ENDBRANCH   1  12
BRANCH   2  22
ATOM     22  O   UNL     1     102.603  97.913 101.945  1.00  0.00    -0.502 OA
ATOM     23  H   UNL     1     102.638  97.123 101.312  1.00  0.00     0.293 HD
ENDBRANCH   2  22
BRANCH   6  24
ATOM     24  O   UNL     1      97.750  96.311 103.446  1.00  0.00    -0.507 OA
ATOM     25  H   UNL     1      97.202  95.751 102.812  1.00  0.00     0.293 HD
ENDBRANCH   6  24
BRANCH   8  26
ATOM     26  O   UNL     1      95.610 100.536 104.127  1.00  0.00    -0.508 OA
ATOM     27  H   UNL     1      94.686 100.168 103.935  1.00  0.00     0.293 HD
ENDBRANCH   8  26
TORSDOF 6
ENDMDL
