MODEL 1
REMARK VINA RESULT:    -6.241      0.000      0.000
REMARK INTER + INTRA:          -8.466
REMARK INTER:                  -8.431
REMARK INTRA:                  -0.035
REMARK UNBOUND:                -0.035
REMARK SMILES CC[C@@H](CC[C@@H](C)[C@@H]1CC[C@@H]2[C@@H]3CC(=O)C4=CC(=O)CC[C@]4(C)[C@H]3CC[C@]21C)C(C)C
REMARK SMILES IDX 4 1 3 2 2 3 1 4 29 5 30 6 31 7 5 8 6 9 7 10 8 11 9 12 27 13
REMARK SMILES IDX 10 14 11 15 26 16 28 17 12 18 25 19 24 20 13 21 22 22 14 23
REMARK SMILES IDX 16 24 21 25 23 26 15 27 17 28 20 29 18 30 19 31
REMARK H PARENT
REMARK Flexibility Score: inf
ROOT
ATOM      1  C   UNL     1      -5.182 -40.349 217.256  1.00  0.00     0.004 C 
ENDROOT
BRANCH   1   2
ATOM      2  C   UNL     1      -4.882 -39.790 215.838  1.00  0.00    -0.009 C 
BRANCH   2   3
ATOM      3  C   UNL     1      -4.259 -38.369 215.913  1.00  0.00     0.000 C 
ATOM      4  C   UNL     1      -2.880 -38.291 215.250  1.00  0.00     0.004 C 
ENDBRANCH   2   3
BRANCH   2   5
ATOM      5  C   UNL     1      -6.145 -39.818 214.910  1.00  0.00    -0.014 C 
ATOM      6  C   UNL     1      -6.654 -38.421 214.508  1.00  0.00     0.007 C 
ATOM      7  C   UNL     1      -7.287 -40.638 215.535  1.00  0.00     0.007 C 
ENDBRANCH   2   5
ENDBRANCH   1   2
BRANCH   1   8
ATOM      8  C   UNL     1      -4.274 -39.832 218.403  1.00  0.00     0.004 C 
BRANCH   8   9
ATOM      9  C   UNL     1      -3.433 -40.885 219.185  1.00  0.00    -0.011 C 
ATOM     10  C   UNL     1      -1.942 -40.824 218.810  1.00  0.00     0.008 C 
BRANCH   9  11
ATOM     11  C   UNL     1      -3.743 -40.890 220.735  1.00  0.00    -0.002 C 
ATOM     12  C   UNL     1      -5.053 -41.586 221.217  1.00  0.00     0.005 C 
ATOM     13  C   UNL     1      -3.793 -39.492 221.425  1.00  0.00    -0.026 C 
ATOM     14  C   UNL     1      -5.493 -40.860 222.502  1.00  0.00     0.005 C 
ATOM     15  C   UNL     1      -4.349 -39.896 222.798  1.00  0.00    -0.001 C 
ATOM     16  C   UNL     1      -2.388 -38.834 221.627  1.00  0.00     0.007 C 
ATOM     17  C   UNL     1      -4.767 -38.547 220.641  1.00  0.00     0.012 C 
ATOM     18  C   UNL     1      -4.532 -38.741 223.828  1.00  0.00     0.004 C 
ATOM     19  C   UNL     1      -2.225 -38.049 222.965  1.00  0.00     0.005 C 
ATOM     20  C   UNL     1      -3.575 -37.531 223.524  1.00  0.00     0.003 C 
ATOM     21  C   UNL     1      -5.981 -38.279 224.089  1.00  0.00     0.085 C 
ATOM     22  C   UNL     1      -3.521 -36.540 224.749  1.00  0.00    -0.000 C 
ATOM     23  C   UNL     1      -6.022 -37.112 225.043  1.00  0.00     0.159 C 
ATOM     24  C   UNL     1      -4.971 -36.072 224.955  1.00  0.00     0.005 C 
ATOM     25  C   UNL     1      -2.564 -35.319 224.522  1.00  0.00     0.020 C 
ATOM     26  C   UNL     1      -3.037 -37.242 226.050  1.00  0.00     0.017 C 
ATOM     27  O   UNL     1      -7.020 -36.949 225.795  1.00  0.00    -0.295 OA
ATOM     28  C   UNL     1      -5.366 -34.808 224.714  1.00  0.00     0.055 C 
ATOM     29  C   UNL     1      -3.138 -34.273 223.571  1.00  0.00     0.081 C 
ATOM     30  C   UNL     1      -4.466 -33.828 224.094  1.00  0.00     0.156 C 
ATOM     31  O   UNL     1      -4.853 -32.645 223.909  1.00  0.00    -0.295 OA
ENDBRANCH   9  11
ENDBRANCH   8   9
ENDBRANCH   1   8
TORSDOF 6
ENDMDL
MODEL 2
REMARK VINA RESULT:    -6.035      2.549      4.846
REMARK INTER + INTRA:          -8.188
REMARK INTER:                  -6.327
REMARK INTRA:                  -1.861
REMARK UNBOUND:                -0.035
REMARK SMILES CC[C@@H](CC[C@@H](C)[C@@H]1CC[C@@H]2[C@@H]3CC(=O)C4=CC(=O)CC[C@]4(C)[C@H]3CC[C@]21C)C(C)C
REMARK SMILES IDX 4 1 3 2 2 3 1 4 29 5 30 6 31 7 5 8 6 9 7 10 8 11 9 12 27 13
REMARK SMILES IDX 10 14 11 15 26 16 28 17 12 18 25 19 24 20 13 21 22 22 14 23
REMARK SMILES IDX 16 24 21 25 23 26 15 27 17 28 20 29 18 30 19 31
REMARK H PARENT
REMARK Flexibility Score: inf
ROOT
ATOM      1  C   UNL     1      -3.145 -41.803 213.660  1.00  0.00     0.004 C 
ENDROOT
BRANCH   1   2
ATOM      2  C   UNL     1      -2.378 -40.513 213.261  1.00  0.00    -0.009 C 
BRANCH   2   3
ATOM      3  C   UNL     1      -1.836 -40.606 211.808  1.00  0.00     0.000 C 
ATOM      4  C   UNL     1      -1.775 -42.046 211.289  1.00  0.00     0.004 C 
ENDBRANCH   2   3
BRANCH   2   5
ATOM      5  C   UNL     1      -1.239 -40.162 214.279  1.00  0.00    -0.014 C 
ATOM      6  C   UNL     1      -0.752 -41.364 215.109  1.00  0.00     0.007 C 
ATOM      7  C   UNL     1      -1.648 -39.006 215.209  1.00  0.00     0.007 C 
ENDBRANCH   2   5
ENDBRANCH   1   2
BRANCH   1   8
ATOM      8  C   UNL     1      -4.625 -41.616 214.089  1.00  0.00     0.004 C 
BRANCH   8   9
ATOM      9  C   UNL     1      -4.949 -40.440 215.058  1.00  0.00    -0.011 C 
ATOM     10  C   UNL     1      -5.843 -39.378 214.394  1.00  0.00     0.008 C 
BRANCH   9  11
ATOM     11  C   UNL     1      -5.424 -40.932 216.482  1.00  0.00    -0.002 C 
ATOM     12  C   UNL     1      -6.887 -40.614 216.916  1.00  0.00     0.005 C 
ATOM     13  C   UNL     1      -4.567 -40.449 217.692  1.00  0.00    -0.026 C 
ATOM     14  C   UNL     1      -6.877 -40.495 218.452  1.00  0.00     0.005 C 
ATOM     15  C   UNL     1      -5.464 -40.906 218.851  1.00  0.00    -0.001 C 
ATOM     16  C   UNL     1      -3.182 -41.168 217.817  1.00  0.00     0.007 C 
ATOM     17  C   UNL     1      -4.406 -38.891 217.641  1.00  0.00     0.012 C 
ATOM     18  C   UNL     1      -4.929 -40.617 220.286  1.00  0.00     0.004 C 
ATOM     19  C   UNL     1      -2.734 -41.465 219.281  1.00  0.00     0.005 C 
ATOM     20  C   UNL     1      -3.362 -40.488 220.309  1.00  0.00     0.003 C 
ATOM     21  C   UNL     1      -5.614 -39.466 221.053  1.00  0.00     0.085 C 
ATOM     22  C   UNL     1      -2.819 -40.545 221.789  1.00  0.00    -0.000 C 
ATOM     23  C   UNL     1      -4.961 -39.236 222.393  1.00  0.00     0.159 C 
ATOM     24  C   UNL     1      -3.490 -39.365 222.510  1.00  0.00     0.005 C 
ATOM     25  C   UNL     1      -1.257 -40.445 221.883  1.00  0.00     0.020 C 
ATOM     26  C   UNL     1      -3.220 -41.862 222.511  1.00  0.00     0.017 C 
ATOM     27  O   UNL     1      -5.641 -38.789 223.355  1.00  0.00    -0.295 OA
ATOM     28  C   UNL     1      -2.804 -38.287 222.932  1.00  0.00     0.055 C 
ATOM     29  C   UNL     1      -0.727 -39.037 221.634  1.00  0.00     0.081 C 
ATOM     30  C   UNL     1      -1.386 -38.100 222.594  1.00  0.00     0.156 C 
ATOM     31  O   UNL     1      -0.762 -37.097 223.028  1.00  0.00    -0.295 OA
ENDBRANCH   9  11
ENDBRANCH   8   9
ENDBRANCH   1   8
TORSDOF 6
ENDMDL
MODEL 3
REMARK VINA RESULT:    -5.623      2.255      4.132
REMARK INTER + INTRA:          -7.631
REMARK INTER:                  -6.844
REMARK INTRA:                  -0.786
REMARK UNBOUND:                -0.035
REMARK SMILES CC[C@@H](CC[C@@H](C)[C@@H]1CC[C@@H]2[C@@H]3CC(=O)C4=CC(=O)CC[C@]4(C)[C@H]3CC[C@]21C)C(C)C
REMARK SMILES IDX 4 1 3 2 2 3 1 4 29 5 30 6 31 7 5 8 6 9 7 10 8 11 9 12 27 13
REMARK SMILES IDX 10 14 11 15 26 16 28 17 12 18 25 19 24 20 13 21 22 22 14 23
REMARK SMILES IDX 16 24 21 25 23 26 15 27 17 28 20 29 18 30 19 31
REMARK H PARENT
REMARK Flexibility Score: inf
ROOT
ATOM      1  C   UNL     1      -4.124 -39.418 214.693  1.00  0.00     0.004 C 
ENDROOT
BRANCH   1   2
ATOM      2  C   UNL     1      -5.182 -40.462 214.243  1.00  0.00    -0.009 C 
BRANCH   2   3
ATOM      3  C   UNL     1      -4.841 -41.045 212.844  1.00  0.00     0.000 C 
ATOM      4  C   UNL     1      -3.333 -41.126 212.589  1.00  0.00     0.004 C 
ENDBRANCH   2   3
BRANCH   2   5
ATOM      5  C   UNL     1      -6.640 -39.886 214.287  1.00  0.00    -0.014 C 
ATOM      6  C   UNL     1      -6.701 -38.363 214.506  1.00  0.00     0.007 C 
ATOM      7  C   UNL     1      -7.502 -40.607 215.338  1.00  0.00     0.007 C 
ENDBRANCH   2   5
ENDBRANCH   1   2
BRANCH   1   8
ATOM      8  C   UNL     1      -3.475 -39.653 216.083  1.00  0.00     0.004 C 
BRANCH   8   9
ATOM      9  C   UNL     1      -4.133 -40.717 217.012  1.00  0.00    -0.011 C 
ATOM     10  C   UNL     1      -3.129 -41.797 217.451  1.00  0.00     0.008 C 
BRANCH   9  11
ATOM     11  C   UNL     1      -4.986 -40.071 218.175  1.00  0.00    -0.002 C 
ATOM     12  C   UNL     1      -5.267 -38.539 218.112  1.00  0.00     0.005 C 
ATOM     13  C   UNL     1      -4.444 -40.288 219.621  1.00  0.00    -0.026 C 
ATOM     14  C   UNL     1      -5.406 -38.054 219.568  1.00  0.00     0.005 C 
ATOM     15  C   UNL     1      -5.366 -39.335 220.395  1.00  0.00    -0.001 C 
ATOM     16  C   UNL     1      -4.652 -41.740 220.166  1.00  0.00     0.007 C 
ATOM     17  C   UNL     1      -2.940 -39.853 219.694  1.00  0.00     0.012 C 
ATOM     18  C   UNL     1      -5.151 -39.277 221.937  1.00  0.00     0.004 C 
ATOM     19  C   UNL     1      -5.013 -41.819 221.682  1.00  0.00     0.005 C 
ATOM     20  C   UNL     1      -4.496 -40.597 222.485  1.00  0.00     0.003 C 
ATOM     21  C   UNL     1      -4.449 -38.015 222.483  1.00  0.00     0.085 C 
ATOM     22  C   UNL     1      -4.605 -40.664 224.057  1.00  0.00    -0.000 C 
ATOM     23  C   UNL     1      -4.232 -38.110 223.973  1.00  0.00     0.159 C 
ATOM     24  C   UNL     1      -3.864 -39.416 224.565  1.00  0.00     0.005 C 
ATOM     25  C   UNL     1      -3.991 -41.970 224.669  1.00  0.00     0.020 C 
ATOM     26  C   UNL     1      -6.080 -40.600 224.546  1.00  0.00     0.017 C 
ATOM     27  O   UNL     1      -4.212 -37.063 224.673  1.00  0.00    -0.295 OA
ATOM     28  C   UNL     1      -2.701 -39.488 225.239  1.00  0.00     0.055 C 
ATOM     29  C   UNL     1      -2.466 -41.974 224.672  1.00  0.00     0.081 C 
ATOM     30  C   UNL     1      -1.985 -40.760 225.400  1.00  0.00     0.156 C 
ATOM     31  O   UNL     1      -0.914 -40.802 226.060  1.00  0.00    -0.295 OA
ENDBRANCH   9  11
ENDBRANCH   8   9
ENDBRANCH   1   8
TORSDOF 6
ENDMDL
MODEL 4
REMARK VINA RESULT:    -5.456      2.208      4.085
REMARK INTER + INTRA:          -7.405
REMARK INTER:                  -6.493
REMARK INTRA:                  -0.911
REMARK UNBOUND:                -0.035
REMARK SMILES CC[C@@H](CC[C@@H](C)[C@@H]1CC[C@@H]2[C@@H]3CC(=O)C4=CC(=O)CC[C@]4(C)[C@H]3CC[C@]21C)C(C)C
REMARK SMILES IDX 4 1 3 2 2 3 1 4 29 5 30 6 31 7 5 8 6 9 7 10 8 11 9 12 27 13
REMARK SMILES IDX 10 14 11 15 26 16 28 17 12 18 25 19 24 20 13 21 22 22 14 23
REMARK SMILES IDX 16 24 21 25 23 26 15 27 17 28 20 29 18 30 19 31
REMARK H PARENT
REMARK Flexibility Score: inf
ROOT
ATOM      1  C   UNL     1      -4.983 -39.181 214.549  1.00  0.00     0.004 C 
ENDROOT
BRANCH   1   2
ATOM      2  C   UNL     1      -3.772 -40.144 214.410  1.00  0.00    -0.009 C 
BRANCH   2   3
ATOM      3  C   UNL     1      -2.427 -39.367 214.450  1.00  0.00     0.000 C 
ATOM      4  C   UNL     1      -2.525 -38.054 215.231  1.00  0.00     0.004 C 
ENDBRANCH   2   3
BRANCH   2   5
ATOM      5  C   UNL     1      -3.878 -41.048 213.134  1.00  0.00    -0.014 C 
ATOM      6  C   UNL     1      -2.759 -40.806 212.103  1.00  0.00     0.007 C 
ATOM      7  C   UNL     1      -5.256 -40.919 212.461  1.00  0.00     0.007 C 
ENDBRANCH   2   5
ENDBRANCH   1   2
BRANCH   1   8
ATOM      8  C   UNL     1      -6.120 -39.642 215.499  1.00  0.00     0.004 C 
BRANCH   8   9
ATOM      9  C   UNL     1      -5.760 -40.687 216.598  1.00  0.00    -0.011 C 
ATOM     10  C   UNL     1      -5.775 -42.125 216.051  1.00  0.00     0.008 C 
BRANCH   9  11
ATOM     11  C   UNL     1      -4.474 -40.288 217.425  1.00  0.00    -0.002 C 
ATOM     12  C   UNL     1      -3.272 -41.282 217.432  1.00  0.00     0.005 C 
ATOM     13  C   UNL     1      -4.703 -39.975 218.935  1.00  0.00    -0.026 C 
ATOM     14  C   UNL     1      -2.545 -41.086 218.776  1.00  0.00     0.005 C 
ATOM     15  C   UNL     1      -3.245 -39.890 219.411  1.00  0.00    -0.001 C 
ATOM     16  C   UNL     1      -5.397 -38.597 219.200  1.00  0.00     0.007 C 
ATOM     17  C   UNL     1      -5.484 -41.155 219.610  1.00  0.00     0.012 C 
ATOM     18  C   UNL     1      -3.037 -39.557 220.920  1.00  0.00     0.004 C 
ATOM     19  C   UNL     1      -4.870 -37.834 220.454  1.00  0.00     0.005 C 
ATOM     20  C   UNL     1      -4.266 -38.783 221.521  1.00  0.00     0.003 C 
ATOM     21  C   UNL     1      -2.594 -40.727 221.824  1.00  0.00     0.085 C 
ATOM     22  C   UNL     1      -3.900 -38.158 222.923  1.00  0.00    -0.000 C 
ATOM     23  C   UNL     1      -2.499 -40.300 223.267  1.00  0.00     0.159 C 
ATOM     24  C   UNL     1      -3.502 -39.353 223.805  1.00  0.00     0.005 C 
ATOM     25  C   UNL     1      -5.077 -37.349 223.570  1.00  0.00     0.020 C 
ATOM     26  C   UNL     1      -2.692 -37.183 222.833  1.00  0.00     0.017 C 
ATOM     27  O   UNL     1      -1.674 -40.861 224.036  1.00  0.00    -0.295 OA
ATOM     28  C   UNL     1      -4.245 -39.762 224.849  1.00  0.00     0.055 C 
ATOM     29  C   UNL     1      -6.177 -38.238 224.139  1.00  0.00     0.081 C 
ATOM     30  C   UNL     1      -5.568 -39.185 225.123  1.00  0.00     0.156 C 
ATOM     31  O   UNL     1      -6.228 -39.566 226.124  1.00  0.00    -0.295 OA
ENDBRANCH   9  11
ENDBRANCH   8   9
ENDBRANCH   1   8
TORSDOF 6
ENDMDL
MODEL 5
REMARK VINA RESULT:    -5.178      2.887      4.518
REMARK INTER + INTRA:          -7.030
REMARK INTER:                  -5.501
REMARK INTRA:                  -1.529
REMARK UNBOUND:                -0.035
REMARK SMILES CC[C@@H](CC[C@@H](C)[C@@H]1CC[C@@H]2[C@@H]3CC(=O)C4=CC(=O)CC[C@]4(C)[C@H]3CC[C@]21C)C(C)C
REMARK SMILES IDX 4 1 3 2 2 3 1 4 29 5 30 6 31 7 5 8 6 9 7 10 8 11 9 12 27 13
REMARK SMILES IDX 10 14 11 15 26 16 28 17 12 18 25 19 24 20 13 21 22 22 14 23
REMARK SMILES IDX 16 24 21 25 23 26 15 27 17 28 20 29 18 30 19 31
REMARK H PARENT
REMARK Flexibility Score: inf
ROOT
ATOM      1  C   UNL     1      -4.694 -38.640 216.469  1.00  0.00     0.004 C 
ENDROOT
BRANCH   1   2
ATOM      2  C   UNL     1      -6.063 -39.229 216.030  1.00  0.00    -0.009 C 
BRANCH   2   3
ATOM      3  C   UNL     1      -6.360 -40.568 216.759  1.00  0.00     0.000 C 
ATOM      4  C   UNL     1      -6.733 -40.371 218.231  1.00  0.00     0.004 C 
ENDBRANCH   2   3
BRANCH   2   5
ATOM      5  C   UNL     1      -6.169 -39.385 214.474  1.00  0.00    -0.014 C 
ATOM      6  C   UNL     1      -7.374 -38.653 213.855  1.00  0.00     0.007 C 
ATOM      7  C   UNL     1      -6.173 -40.865 214.052  1.00  0.00     0.007 C 
ENDBRANCH   2   5
ENDBRANCH   1   2
BRANCH   1   8
ATOM      8  C   UNL     1      -3.444 -39.507 216.162  1.00  0.00     0.004 C 
BRANCH   8   9
ATOM      9  C   UNL     1      -3.153 -40.710 217.110  1.00  0.00    -0.011 C 
ATOM     10  C   UNL     1      -2.711 -41.961 216.331  1.00  0.00     0.008 C 
BRANCH   9  11
ATOM     11  C   UNL     1      -2.239 -40.316 218.337  1.00  0.00    -0.002 C 
ATOM     12  C   UNL     1      -0.876 -41.057 218.501  1.00  0.00     0.005 C 
ATOM     13  C   UNL     1      -2.897 -40.438 219.745  1.00  0.00    -0.026 C 
ATOM     14  C   UNL     1      -0.566 -41.083 220.010  1.00  0.00     0.005 C 
ATOM     15  C   UNL     1      -1.662 -40.226 220.634  1.00  0.00    -0.001 C 
ATOM     16  C   UNL     1      -3.939 -39.313 220.059  1.00  0.00     0.007 C 
ATOM     17  C   UNL     1      -3.518 -41.867 219.919  1.00  0.00     0.012 C 
ATOM     18  C   UNL     1      -1.913 -40.253 222.171  1.00  0.00     0.004 C 
ATOM     19  C   UNL     1      -3.929 -38.812 221.535  1.00  0.00     0.005 C 
ATOM     20  C   UNL     1      -3.399 -39.880 222.527  1.00  0.00     0.003 C 
ATOM     21  C   UNL     1      -1.442 -41.518 222.919  1.00  0.00     0.085 C 
ATOM     22  C   UNL     1      -3.544 -39.575 224.067  1.00  0.00    -0.000 C 
ATOM     23  C   UNL     1      -1.806 -41.458 224.382  1.00  0.00     0.159 C 
ATOM     24  C   UNL     1      -3.104 -40.866 224.777  1.00  0.00     0.005 C 
ATOM     25  C   UNL     1      -5.000 -39.171 224.488  1.00  0.00     0.020 C 
ATOM     26  C   UNL     1      -2.615 -38.415 224.526  1.00  0.00     0.017 C 
ATOM     27  O   UNL     1      -1.086 -42.044 225.234  1.00  0.00    -0.295 OA
ATOM     28  C   UNL     1      -3.962 -41.647 225.458  1.00  0.00     0.055 C 
ATOM     29  C   UNL     1      -5.965 -40.351 224.526  1.00  0.00     0.081 C 
ATOM     30  C   UNL     1      -5.409 -41.395 225.441  1.00  0.00     0.156 C 
ATOM     31  O   UNL     1      -6.184 -42.125 226.112  1.00  0.00    -0.295 OA
ENDBRANCH   9  11
ENDBRANCH   8   9
ENDBRANCH   1   8
TORSDOF 6
ENDMDL
MODEL 6
REMARK VINA RESULT:    -5.072      1.547      2.051
REMARK INTER + INTRA:          -6.886
REMARK INTER:                  -5.727
REMARK INTRA:                  -1.159
REMARK UNBOUND:                -0.035
REMARK SMILES CC[C@@H](CC[C@@H](C)[C@@H]1CC[C@@H]2[C@@H]3CC(=O)C4=CC(=O)CC[C@]4(C)[C@H]3CC[C@]21C)C(C)C
REMARK SMILES IDX 4 1 3 2 2 3 1 4 29 5 30 6 31 7 5 8 6 9 7 10 8 11 9 12 27 13
REMARK SMILES IDX 10 14 11 15 26 16 28 17 12 18 25 19 24 20 13 21 22 22 14 23
REMARK SMILES IDX 16 24 21 25 23 26 15 27 17 28 20 29 18 30 19 31
REMARK H PARENT
REMARK Flexibility Score: inf
ROOT
ATOM      1  C   UNL     1      -3.103 -41.585 216.038  1.00  0.00     0.004 C 
ENDROOT
BRANCH   1   2
ATOM      2  C   UNL     1      -2.267 -40.846 214.957  1.00  0.00    -0.009 C 
BRANCH   2   3
ATOM      3  C   UNL     1      -1.677 -39.520 215.511  1.00  0.00     0.000 C 
ATOM      4  C   UNL     1      -2.568 -38.309 215.223  1.00  0.00     0.004 C 
ENDBRANCH   2   3
BRANCH   2   5
ATOM      5  C   UNL     1      -3.082 -40.608 213.639  1.00  0.00    -0.014 C 
ATOM      6  C   UNL     1      -4.531 -41.125 213.699  1.00  0.00     0.007 C 
ATOM      7  C   UNL     1      -2.359 -41.195 212.414  1.00  0.00     0.007 C 
ENDBRANCH   2   5
ENDBRANCH   1   2
BRANCH   1   8
ATOM      8  C   UNL     1      -2.765 -41.249 217.515  1.00  0.00     0.004 C 
BRANCH   8   9
ATOM      9  C   UNL     1      -3.775 -40.360 218.299  1.00  0.00    -0.011 C 
ATOM     10  C   UNL     1      -5.106 -40.197 217.543  1.00  0.00     0.008 C 
BRANCH   9  11
ATOM     11  C   UNL     1      -3.905 -40.773 219.819  1.00  0.00    -0.002 C 
ATOM     12  C   UNL     1      -5.198 -41.522 220.266  1.00  0.00     0.005 C 
ATOM     13  C   UNL     1      -3.772 -39.615 220.855  1.00  0.00    -0.026 C 
ATOM     14  C   UNL     1      -5.433 -41.155 221.744  1.00  0.00     0.005 C 
ATOM     15  C   UNL     1      -4.195 -40.355 222.133  1.00  0.00    -0.001 C 
ATOM     16  C   UNL     1      -2.308 -39.093 221.039  1.00  0.00     0.007 C 
ATOM     17  C   UNL     1      -4.757 -38.455 220.483  1.00  0.00     0.012 C 
ATOM     18  C   UNL     1      -4.172 -39.516 223.447  1.00  0.00     0.004 C 
ATOM     19  C   UNL     1      -1.935 -38.709 222.504  1.00  0.00     0.005 C 
ATOM     20  C   UNL     1      -3.171 -38.308 223.351  1.00  0.00     0.003 C 
ATOM     21  C   UNL     1      -5.544 -39.085 224.007  1.00  0.00     0.085 C 
ATOM     22  C   UNL     1      -2.903 -37.691 224.777  1.00  0.00    -0.000 C 
ATOM     23  C   UNL     1      -5.388 -38.221 225.233  1.00  0.00     0.159 C 
ATOM     24  C   UNL     1      -4.281 -37.239 225.286  1.00  0.00     0.005 C 
ATOM     25  C   UNL     1      -1.891 -36.493 224.758  1.00  0.00     0.020 C 
ATOM     26  C   UNL     1      -2.325 -38.739 225.771  1.00  0.00     0.017 C 
ATOM     27  O   UNL     1      -6.279 -38.228 226.125  1.00  0.00    -0.295 OA
ATOM     28  C   UNL     1      -4.608 -35.943 225.443  1.00  0.00     0.055 C 
ATOM     29  C   UNL     1      -2.492 -35.206 224.201  1.00  0.00     0.081 C 
ATOM     30  C   UNL     1      -3.714 -34.867 224.992  1.00  0.00     0.156 C 
ATOM     31  O   UNL     1      -4.032 -33.664 225.179  1.00  0.00    -0.295 OA
ENDBRANCH   9  11
ENDBRANCH   8   9
ENDBRANCH   1   8
TORSDOF 6
ENDMDL
MODEL 7
REMARK VINA RESULT:    -5.052      3.213      7.771
REMARK INTER + INTRA:          -6.859
REMARK INTER:                  -4.951
REMARK INTRA:                  -1.908
REMARK UNBOUND:                -0.035
REMARK SMILES CC[C@@H](CC[C@@H](C)[C@@H]1CC[C@@H]2[C@@H]3CC(=O)C4=CC(=O)CC[C@]4(C)[C@H]3CC[C@]21C)C(C)C
REMARK SMILES IDX 4 1 3 2 2 3 1 4 29 5 30 6 31 7 5 8 6 9 7 10 8 11 9 12 27 13
REMARK SMILES IDX 10 14 11 15 26 16 28 17 12 18 25 19 24 20 13 21 22 22 14 23
REMARK SMILES IDX 16 24 21 25 23 26 15 27 17 28 20 29 18 30 19 31
REMARK H PARENT
REMARK Flexibility Score: inf
ROOT
ATOM      1  C   UNL     1      -3.253 -37.181 225.751  1.00  0.00     0.004 C 
ENDROOT
BRANCH   1   2
ATOM      2  C   UNL     1      -3.065 -36.298 224.486  1.00  0.00    -0.009 C 
BRANCH   2   3
ATOM      3  C   UNL     1      -1.987 -35.204 224.718  1.00  0.00     0.000 C 
ATOM      4  C   UNL     1      -0.845 -35.273 223.700  1.00  0.00     0.004 C 
ENDBRANCH   2   3
BRANCH   2   5
ATOM      5  C   UNL     1      -4.417 -35.679 223.990  1.00  0.00    -0.014 C 
ATOM      6  C   UNL     1      -4.785 -34.351 224.678  1.00  0.00     0.007 C 
ATOM      7  C   UNL     1      -5.578 -36.681 224.117  1.00  0.00     0.007 C 
ENDBRANCH   2   5
ENDBRANCH   1   2
BRANCH   1   8
ATOM      8  C   UNL     1      -2.702 -38.629 225.664  1.00  0.00     0.004 C 
BRANCH   8   9
ATOM      9  C   UNL     1      -1.511 -38.888 224.693  1.00  0.00    -0.011 C 
ATOM     10  C   UNL     1      -0.156 -38.847 225.420  1.00  0.00     0.008 C 
BRANCH   9  11
ATOM     11  C   UNL     1      -1.743 -40.143 223.761  1.00  0.00    -0.002 C 
ATOM     12  C   UNL     1      -0.542 -41.108 223.520  1.00  0.00     0.005 C 
ATOM     13  C   UNL     1      -2.265 -39.838 222.323  1.00  0.00    -0.026 C 
ATOM     14  C   UNL     1      -0.743 -41.726 222.124  1.00  0.00     0.005 C 
ATOM     15  C   UNL     1      -2.117 -41.229 221.688  1.00  0.00    -0.001 C 
ATOM     16  C   UNL     1      -3.772 -39.420 222.269  1.00  0.00     0.007 C 
ATOM     17  C   UNL     1      -1.344 -38.770 221.639  1.00  0.00     0.012 C 
ATOM     18  C   UNL     1      -2.572 -41.354 220.203  1.00  0.00     0.004 C 
ATOM     19  C   UNL     1      -4.555 -39.969 221.037  1.00  0.00     0.005 C 
ATOM     20  C   UNL     1      -3.634 -40.258 219.823  1.00  0.00     0.003 C 
ATOM     21  C   UNL     1      -1.449 -41.457 219.149  1.00  0.00     0.085 C 
ATOM     22  C   UNL     1      -4.331 -40.608 218.452  1.00  0.00    -0.000 C 
ATOM     23  C   UNL     1      -2.011 -41.497 217.750  1.00  0.00     0.159 C 
ATOM     24  C   UNL     1      -3.190 -40.664 217.423  1.00  0.00     0.005 C 
ATOM     25  C   UNL     1      -5.422 -39.566 218.025  1.00  0.00     0.020 C 
ATOM     26  C   UNL     1      -5.036 -41.993 218.488  1.00  0.00     0.017 C 
ATOM     27  O   UNL     1      -1.391 -42.111 216.841  1.00  0.00    -0.295 OA
ATOM     28  C   UNL     1      -3.054 -39.754 216.440  1.00  0.00     0.055 C 
ATOM     29  C   UNL     1      -4.835 -38.256 217.510  1.00  0.00     0.081 C 
ATOM     30  C   UNL     1      -3.906 -38.559 216.378  1.00  0.00     0.156 C 
ATOM     31  O   UNL     1      -3.776 -37.741 215.431  1.00  0.00    -0.295 OA
ENDBRANCH   9  11
ENDBRANCH   8   9
ENDBRANCH   1   8
TORSDOF 6
ENDMDL
MODEL 8
REMARK VINA RESULT:    -5.028      3.066      7.966
REMARK INTER + INTRA:          -6.827
REMARK INTER:                  -5.642
REMARK INTRA:                  -1.185
REMARK UNBOUND:                -0.035
REMARK SMILES CC[C@@H](CC[C@@H](C)[C@@H]1CC[C@@H]2[C@@H]3CC(=O)C4=CC(=O)CC[C@]4(C)[C@H]3CC[C@]21C)C(C)C
REMARK SMILES IDX 4 1 3 2 2 3 1 4 29 5 30 6 31 7 5 8 6 9 7 10 8 11 9 12 27 13
REMARK SMILES IDX 10 14 11 15 26 16 28 17 12 18 25 19 24 20 13 21 22 22 14 23
REMARK SMILES IDX 16 24 21 25 23 26 15 27 17 28 20 29 18 30 19 31
REMARK H PARENT
REMARK Flexibility Score: inf
ROOT
ATOM      1  C   UNL     1      -5.615 -36.606 223.885  1.00  0.00     0.004 C 
ENDROOT
BRANCH   1   2
ATOM      2  C   UNL     1      -4.775 -35.768 224.887  1.00  0.00    -0.009 C 
BRANCH   2   3
ATOM      3  C   UNL     1      -5.636 -34.666 225.562  1.00  0.00     0.000 C 
ATOM      4  C   UNL     1      -5.090 -33.256 225.321  1.00  0.00     0.004 C 
ENDBRANCH   2   3
BRANCH   2   5
ATOM      5  C   UNL     1      -3.488 -35.167 224.222  1.00  0.00    -0.014 C 
ATOM      6  C   UNL     1      -3.666 -34.800 222.737  1.00  0.00     0.007 C 
ATOM      7  C   UNL     1      -2.274 -36.096 224.397  1.00  0.00     0.007 C 
ENDBRANCH   2   5
ENDBRANCH   1   2
BRANCH   1   8
ATOM      8  C   UNL     1      -5.733 -38.123 224.190  1.00  0.00     0.004 C 
BRANCH   8   9
ATOM      9  C   UNL     1      -4.412 -38.943 224.281  1.00  0.00    -0.011 C 
ATOM     10  C   UNL     1      -4.039 -39.273 225.737  1.00  0.00     0.008 C 
BRANCH   9  11
ATOM     11  C   UNL     1      -4.377 -40.164 223.278  1.00  0.00    -0.002 C 
ATOM     12  C   UNL     1      -3.270 -41.243 223.477  1.00  0.00     0.005 C 
ATOM     13  C   UNL     1      -4.272 -39.801 221.765  1.00  0.00    -0.026 C 
ATOM     14  C   UNL     1      -2.970 -41.832 222.085  1.00  0.00     0.005 C 
ATOM     15  C   UNL     1      -4.017 -41.197 221.176  1.00  0.00    -0.001 C 
ATOM     16  C   UNL     1      -5.596 -39.234 221.154  1.00  0.00     0.007 C 
ATOM     17  C   UNL     1      -3.065 -38.828 221.535  1.00  0.00     0.012 C 
ATOM     18  C   UNL     1      -3.871 -41.268 219.627  1.00  0.00     0.004 C 
ATOM     19  C   UNL     1      -5.888 -39.696 219.693  1.00  0.00     0.005 C 
ATOM     20  C   UNL     1      -4.599 -40.070 218.916  1.00  0.00     0.003 C 
ATOM     21  C   UNL     1      -2.441 -41.479 219.083  1.00  0.00     0.085 C 
ATOM     22  C   UNL     1      -4.739 -40.342 217.368  1.00  0.00    -0.000 C 
ATOM     23  C   UNL     1      -2.420 -41.456 217.575  1.00  0.00     0.159 C 
ATOM     24  C   UNL     1      -3.299 -40.507 216.856  1.00  0.00     0.005 C 
ATOM     25  C   UNL     1      -5.480 -39.193 216.599  1.00  0.00     0.020 C 
ATOM     26  C   UNL     1      -5.526 -41.650 217.071  1.00  0.00     0.017 C 
ATOM     27  O   UNL     1      -1.554 -42.125 216.949  1.00  0.00    -0.295 OA
ATOM     28  C   UNL     1      -2.712 -39.611 216.041  1.00  0.00     0.055 C 
ATOM     29  C   UNL     1      -4.623 -37.947 216.407  1.00  0.00     0.081 C 
ATOM     30  C   UNL     1      -3.361 -38.336 215.708  1.00  0.00     0.156 C 
ATOM     31  O   UNL     1      -2.801 -37.531 214.920  1.00  0.00    -0.295 OA
ENDBRANCH   9  11
ENDBRANCH   8   9
ENDBRANCH   1   8
TORSDOF 6
ENDMDL
MODEL 9
REMARK VINA RESULT:    -4.945      3.019      8.100
REMARK INTER + INTRA:          -6.714
REMARK INTER:                  -6.648
REMARK INTRA:                  -0.067
REMARK UNBOUND:                -0.035
REMARK SMILES CC[C@@H](CC[C@@H](C)[C@@H]1CC[C@@H]2[C@@H]3CC(=O)C4=CC(=O)CC[C@]4(C)[C@H]3CC[C@]21C)C(C)C
REMARK SMILES IDX 4 1 3 2 2 3 1 4 29 5 30 6 31 7 5 8 6 9 7 10 8 11 9 12 27 13
REMARK SMILES IDX 10 14 11 15 26 16 28 17 12 18 25 19 24 20 13 21 22 22 14 23
REMARK SMILES IDX 16 24 21 25 23 26 15 27 17 28 20 29 18 30 19 31
REMARK H PARENT
REMARK Flexibility Score: inf
ROOT
ATOM      1  C   UNL     1      -4.160 -34.959 223.512  1.00  0.00     0.004 C 
ENDROOT
BRANCH   1   2
ATOM      2  C   UNL     1      -3.428 -33.759 224.174  1.00  0.00    -0.009 C 
BRANCH   2   3
ATOM      3  C   UNL     1      -2.337 -34.243 225.168  1.00  0.00     0.000 C 
ATOM      4  C   UNL     1      -1.014 -33.487 225.010  1.00  0.00     0.004 C 
ENDBRANCH   2   3
BRANCH   2   5
ATOM      5  C   UNL     1      -4.425 -32.759 224.855  1.00  0.00    -0.014 C 
ATOM      6  C   UNL     1      -5.876 -32.890 224.357  1.00  0.00     0.007 C 
ATOM      7  C   UNL     1      -3.947 -31.303 224.719  1.00  0.00     0.007 C 
ENDBRANCH   2   5
ENDBRANCH   1   2
BRANCH   1   8
ATOM      8  C   UNL     1      -3.830 -36.363 224.084  1.00  0.00     0.004 C 
BRANCH   8   9
ATOM      9  C   UNL     1      -5.029 -37.297 224.431  1.00  0.00    -0.011 C 
ATOM     10  C   UNL     1      -6.383 -36.598 224.219  1.00  0.00     0.008 C 
BRANCH   9  11
ATOM     11  C   UNL     1      -4.896 -38.731 223.782  1.00  0.00    -0.002 C 
ATOM     12  C   UNL     1      -3.772 -39.674 224.311  1.00  0.00     0.005 C 
ATOM     13  C   UNL     1      -4.708 -38.765 222.234  1.00  0.00    -0.026 C 
ATOM     14  C   UNL     1      -3.370 -40.586 223.137  1.00  0.00     0.005 C 
ATOM     15  C   UNL     1      -4.376 -40.252 222.041  1.00  0.00    -0.001 C 
ATOM     16  C   UNL     1      -6.007 -38.433 221.429  1.00  0.00     0.007 C 
ATOM     17  C   UNL     1      -3.518 -37.831 221.824  1.00  0.00     0.012 C 
ATOM     18  C   UNL     1      -4.132 -40.713 220.572  1.00  0.00     0.004 C 
ATOM     19  C   UNL     1      -6.194 -39.267 220.124  1.00  0.00     0.005 C 
ATOM     20  C   UNL     1      -4.850 -39.771 219.538  1.00  0.00     0.003 C 
ATOM     21  C   UNL     1      -2.666 -40.993 220.178  1.00  0.00     0.085 C 
ATOM     22  C   UNL     1      -4.885 -40.437 218.109  1.00  0.00    -0.000 C 
ATOM     23  C   UNL     1      -2.552 -41.357 218.718  1.00  0.00     0.159 C 
ATOM     24  C   UNL     1      -3.412 -40.664 217.733  1.00  0.00     0.005 C 
ATOM     25  C   UNL     1      -5.611 -39.558 217.031  1.00  0.00     0.020 C 
ATOM     26  C   UNL     1      -5.613 -41.811 218.119  1.00  0.00     0.017 C 
ATOM     27  O   UNL     1      -1.630 -42.125 218.333  1.00  0.00    -0.295 OA
ATOM     28  C   UNL     1      -2.802 -39.983 216.746  1.00  0.00     0.055 C 
ATOM     29  C   UNL     1      -4.780 -38.366 216.568  1.00  0.00     0.081 C 
ATOM     30  C   UNL     1      -3.466 -38.866 216.061  1.00  0.00     0.156 C 
ATOM     31  O   UNL     1      -2.882 -38.266 215.121  1.00  0.00    -0.295 OA
ENDBRANCH   9  11
ENDBRANCH   8   9
ENDBRANCH   1   8
TORSDOF 6
ENDMDL
