MODEL 1
REMARK VINA RESULT:    -6.087      0.000      0.000
REMARK INTER + INTRA:          -7.842
REMARK INTER:                  -7.332
REMARK INTRA:                  -0.510
REMARK UNBOUND:                -0.510
REMARK SMILES CCCCc1oc(O)c2ccccc12
REMARK SMILES IDX 4 1 5 2 7 3 6 4 9 5 14 6 10 7 13 8 11 9 12 10 8 11 3 13 2 14
REMARK SMILES IDX 1 15
REMARK H PARENT 8 12
REMARK Flexibility Score: inf
ROOT
ATOM      1  C   UNL     1      18.776   4.092  34.567  1.00  0.00     0.076 C 
ENDROOT
BRANCH   1   2
ATOM      2  C   UNL     1      19.348   4.866  35.716  1.00  0.00     0.116 A 
ATOM      3  C   UNL     1      20.171   6.508  36.824  1.00  0.00     0.290 A 
ATOM      4  O   UNL     1      19.676   6.144  35.656  1.00  0.00    -0.430 OA
ATOM      5  C   UNL     1      20.174   5.429  37.683  1.00  0.00     0.066 A 
ATOM      6  C   UNL     1      19.649   4.380  36.976  1.00  0.00     0.027 A 
ATOM      7  C   UNL     1      20.595   5.290  39.005  1.00  0.00     0.016 A 
ATOM      8  C   UNL     1      19.512   3.110  37.538  1.00  0.00     0.012 A 
ATOM      9  C   UNL     1      20.465   4.021  39.602  1.00  0.00     0.001 A 
ATOM     10  C   UNL     1      19.928   2.937  38.871  1.00  0.00     0.001 A 
BRANCH   3  11
ATOM     11  O   UNL     1      20.618   7.794  37.109  1.00  0.00    -0.480 OA
ATOM     12  H   UNL     1      20.774   8.096  38.063  1.00  0.00     0.297 HD
ENDBRANCH   3  11
ENDBRANCH   1   2
BRANCH   1  13
ATOM     13  C   UNL     1      19.878   3.298  33.855  1.00  0.00     0.008 C 
BRANCH  13  14
ATOM     14  C   UNL     1      19.710   1.780  34.019  1.00  0.00    -0.003 C 
ATOM     15  C   UNL     1      18.322   1.391  34.525  1.00  0.00     0.004 C 
ENDBRANCH  13  14
ENDBRANCH   1  13
TORSDOF 4
ENDMDL
MODEL 2
REMARK VINA RESULT:    -6.066      2.301      3.271
REMARK INTER + INTRA:          -7.817
REMARK INTER:                  -7.641
REMARK INTRA:                  -0.176
REMARK UNBOUND:                -0.510
REMARK SMILES CCCCc1oc(O)c2ccccc12
REMARK SMILES IDX 4 1 5 2 7 3 6 4 9 5 14 6 10 7 13 8 11 9 12 10 8 11 3 13 2 14
REMARK SMILES IDX 1 15
REMARK H PARENT 8 12
REMARK Flexibility Score: inf
ROOT
ATOM      1  C   UNL     1      18.477   2.645  35.874  1.00  0.00     0.076 C 
ENDROOT
BRANCH   1   2
ATOM      2  C   UNL     1      19.126   3.355  37.022  1.00  0.00     0.116 A 
ATOM      3  C   UNL     1      19.797   3.756  39.020  1.00  0.00     0.290 A 
ATOM      4  O   UNL     1      19.184   2.875  38.251  1.00  0.00    -0.430 OA
ATOM      5  C   UNL     1      20.151   4.858  38.271  1.00  0.00     0.066 A 
ATOM      6  C   UNL     1      19.722   4.604  36.995  1.00  0.00     0.027 A 
ATOM      7  C   UNL     1      20.799   6.046  38.607  1.00  0.00     0.016 A 
ATOM      8  C   UNL     1      19.905   5.523  35.962  1.00  0.00     0.012 A 
ATOM      9  C   UNL     1      21.002   6.992  37.584  1.00  0.00     0.001 A 
ATOM     10  C   UNL     1      20.557   6.731  36.269  1.00  0.00     0.001 A 
BRANCH   3  11
ATOM     11  O   UNL     1      20.030   3.569  40.378  1.00  0.00    -0.480 OA
ATOM     12  H   UNL     1      20.474   2.728  40.724  1.00  0.00     0.297 HD
ENDBRANCH   3  11
ENDBRANCH   1   2
BRANCH   1  13
ATOM     13  C   UNL     1      17.704   1.416  36.372  1.00  0.00     0.008 C 
BRANCH  13  14
ATOM     14  C   UNL     1      16.502   1.075  35.480  1.00  0.00    -0.003 C 
ATOM     15  C   UNL     1      15.854  -0.259  35.846  1.00  0.00     0.004 C 
ENDBRANCH  13  14
ENDBRANCH   1  13
TORSDOF 4
ENDMDL
MODEL 3
REMARK VINA RESULT:    -6.015      2.074      3.059
REMARK INTER + INTRA:          -7.756
REMARK INTER:                  -7.239
REMARK INTRA:                  -0.517
REMARK UNBOUND:                -0.510
REMARK SMILES CCCCc1oc(O)c2ccccc12
REMARK SMILES IDX 4 1 5 2 7 3 6 4 9 5 14 6 10 7 13 8 11 9 12 10 8 11 3 13 2 14
REMARK SMILES IDX 1 15
REMARK H PARENT 8 12
REMARK Flexibility Score: inf
ROOT
ATOM      1  C   UNL     1      18.022   2.483  36.340  1.00  0.00     0.076 C 
ENDROOT
BRANCH   1   2
ATOM      2  C   UNL     1      18.813   3.262  37.346  1.00  0.00     0.116 A 
ATOM      3  C   UNL     1      19.751   3.776  39.205  1.00  0.00     0.290 A 
ATOM      4  O   UNL     1      19.054   2.848  38.577  1.00  0.00    -0.430 OA
ATOM      5  C   UNL     1      19.973   4.842  38.358  1.00  0.00     0.066 A 
ATOM      6  C   UNL     1      19.373   4.515  37.171  1.00  0.00     0.027 A 
ATOM      7  C   UNL     1      20.638   6.054  38.539  1.00  0.00     0.016 A 
ATOM      8  C   UNL     1      19.389   5.380  36.077  1.00  0.00     0.012 A 
ATOM      9  C   UNL     1      20.675   6.947  37.450  1.00  0.00     0.001 A 
ATOM     10  C   UNL     1      20.053   6.612  36.227  1.00  0.00     0.001 A 
BRANCH   3  11
ATOM     11  O   UNL     1      20.178   3.665  40.524  1.00  0.00    -0.480 OA
ATOM     12  H   UNL     1      20.730   2.874  40.832  1.00  0.00     0.297 HD
ENDBRANCH   3  11
ENDBRANCH   1   2
BRANCH   1  13
ATOM     13  C   UNL     1      18.947   1.576  35.517  1.00  0.00     0.008 C 
BRANCH  13  14
ATOM     14  C   UNL     1      19.220   2.134  34.112  1.00  0.00    -0.003 C 
ATOM     15  C   UNL     1      20.608   2.759  33.984  1.00  0.00     0.004 C 
ENDBRANCH  13  14
ENDBRANCH   1  13
TORSDOF 4
ENDMDL
MODEL 4
REMARK VINA RESULT:    -5.939      2.516      3.624
REMARK INTER + INTRA:          -7.664
REMARK INTER:                  -7.113
REMARK INTRA:                  -0.551
REMARK UNBOUND:                -0.510
REMARK SMILES CCCCc1oc(O)c2ccccc12
REMARK SMILES IDX 4 1 5 2 7 3 6 4 9 5 14 6 10 7 13 8 11 9 12 10 8 11 3 13 2 14
REMARK SMILES IDX 1 15
REMARK H PARENT 8 12
REMARK Flexibility Score: inf
ROOT
ATOM      1  C   UNL     1      18.443   3.119  34.926  1.00  0.00     0.076 C 
ENDROOT
BRANCH   1   2
ATOM      2  C   UNL     1      19.267   2.594  36.061  1.00  0.00     0.116 A 
ATOM      3  C   UNL     1      20.722   1.423  37.118  1.00  0.00     0.290 A 
ATOM      4  O   UNL     1      20.210   1.678  35.929  1.00  0.00    -0.430 OA
ATOM      5  C   UNL     1      20.089   2.196  38.070  1.00  0.00     0.066 A 
ATOM      6  C   UNL     1      19.160   2.942  37.396  1.00  0.00     0.027 A 
ATOM      7  C   UNL     1      20.252   2.293  39.451  1.00  0.00     0.016 A 
ATOM      8  C   UNL     1      18.319   3.839  38.056  1.00  0.00     0.012 A 
ATOM      9  C   UNL     1      19.421   3.192  40.145  1.00  0.00     0.001 A 
ATOM     10  C   UNL     1      18.459   3.961  39.451  1.00  0.00     0.001 A 
BRANCH   3  11
ATOM     11  O   UNL     1      21.741   0.504  37.342  1.00  0.00    -0.480 OA
ATOM     12  H   UNL     1      21.635  -0.245  38.015  1.00  0.00     0.297 HD
ENDBRANCH   3  11
ENDBRANCH   1   2
BRANCH   1  13
ATOM     13  C   UNL     1      19.146   4.308  34.259  1.00  0.00     0.008 C 
BRANCH  13  14
ATOM     14  C   UNL     1      18.746   5.654  34.882  1.00  0.00    -0.003 C 
ATOM     15  C   UNL     1      19.874   6.287  35.694  1.00  0.00     0.004 C 
ENDBRANCH  13  14
ENDBRANCH   1  13
TORSDOF 4
ENDMDL
MODEL 5
REMARK VINA RESULT:    -5.910      1.405      2.122
REMARK INTER + INTRA:          -7.629
REMARK INTER:                  -7.162
REMARK INTRA:                  -0.467
REMARK UNBOUND:                -0.510
REMARK SMILES CCCCc1oc(O)c2ccccc12
REMARK SMILES IDX 4 1 5 2 7 3 6 4 9 5 14 6 10 7 13 8 11 9 12 10 8 11 3 13 2 14
REMARK SMILES IDX 1 15
REMARK H PARENT 8 12
REMARK Flexibility Score: inf
ROOT
ATOM      1  C   UNL     1      18.549   2.529  34.858  1.00  0.00     0.076 C 
ENDROOT
BRANCH   1   2
ATOM      2  C   UNL     1      18.827   3.940  35.277  1.00  0.00     0.116 A 
ATOM      3  C   UNL     1      18.923   6.081  35.194  1.00  0.00     0.290 A 
ATOM      4  O   UNL     1      18.522   5.001  34.552  1.00  0.00    -0.430 OA
ATOM      5  C   UNL     1      19.519   5.719  36.384  1.00  0.00     0.066 A 
ATOM      6  C   UNL     1      19.460   4.352  36.437  1.00  0.00     0.027 A 
ATOM      7  C   UNL     1      20.103   6.472  37.401  1.00  0.00     0.016 A 
ATOM      8  C   UNL     1      19.986   3.635  37.512  1.00  0.00     0.012 A 
ATOM      9  C   UNL     1      20.641   5.777  38.502  1.00  0.00     0.001 A 
ATOM     10  C   UNL     1      20.583   4.366  38.556  1.00  0.00     0.001 A 
BRANCH   3  11
ATOM     11  O   UNL     1      18.757   7.376  34.712  1.00  0.00    -0.480 OA
ATOM     12  H   UNL     1      19.295   7.715  33.924  1.00  0.00     0.297 HD
ENDBRANCH   3  11
ENDBRANCH   1   2
BRANCH   1  13
ATOM     13  C   UNL     1      17.274   2.011  35.536  1.00  0.00     0.008 C 
BRANCH  13  14
ATOM     14  C   UNL     1      17.427   0.575  36.059  1.00  0.00    -0.003 C 
ATOM     15  C   UNL     1      18.869   0.230  36.425  1.00  0.00     0.004 C 
ENDBRANCH  13  14
ENDBRANCH   1  13
TORSDOF 4
ENDMDL
MODEL 6
REMARK VINA RESULT:    -5.878      2.511      5.003
REMARK INTER + INTRA:          -7.590
REMARK INTER:                  -7.206
REMARK INTRA:                  -0.385
REMARK UNBOUND:                -0.510
REMARK SMILES CCCCc1oc(O)c2ccccc12
REMARK SMILES IDX 4 1 5 2 7 3 6 4 9 5 14 6 10 7 13 8 11 9 12 10 8 11 3 13 2 14
REMARK SMILES IDX 1 15
REMARK H PARENT 8 12
REMARK Flexibility Score: inf
ROOT
ATOM      1  C   UNL     1      18.605   4.188  38.142  1.00  0.00     0.076 C 
ENDROOT
BRANCH   1   2
ATOM      2  C   UNL     1      19.225   2.929  37.618  1.00  0.00     0.116 A 
ATOM      3  C   UNL     1      20.669   1.370  37.323  1.00  0.00     0.290 A 
ATOM      4  O   UNL     1      20.412   2.480  37.987  1.00  0.00    -0.430 OA
ATOM      5  C   UNL     1      19.615   1.078  36.482  1.00  0.00     0.066 A 
ATOM      6  C   UNL     1      18.694   2.075  36.669  1.00  0.00     0.027 A 
ATOM      7  C   UNL     1      19.402   0.038  35.578  1.00  0.00     0.016 A 
ATOM      8  C   UNL     1      17.492   2.106  35.961  1.00  0.00     0.012 A 
ATOM      9  C   UNL     1      18.196   0.040  34.852  1.00  0.00     0.001 A 
ATOM     10  C   UNL     1      17.247   1.069  35.042  1.00  0.00     0.001 A 
BRANCH   3  11
ATOM     11  O   UNL     1      21.838   0.631  37.470  1.00  0.00    -0.480 OA
ATOM     12  H   UNL     1      22.015   0.089  38.306  1.00  0.00     0.297 HD
ENDBRANCH   3  11
ENDBRANCH   1   2
BRANCH   1  13
ATOM     13  C   UNL     1      18.752   5.323  37.120  1.00  0.00     0.008 C 
BRANCH  13  14
ATOM     14  C   UNL     1      20.185   5.871  37.051  1.00  0.00    -0.003 C 
ATOM     15  C   UNL     1      20.743   6.238  38.425  1.00  0.00     0.004 C 
ENDBRANCH  13  14
ENDBRANCH   1  13
TORSDOF 4
ENDMDL
MODEL 7
REMARK VINA RESULT:    -5.761      2.232      4.458
REMARK INTER + INTRA:          -7.450
REMARK INTER:                  -7.134
REMARK INTRA:                  -0.316
REMARK UNBOUND:                -0.510
REMARK SMILES CCCCc1oc(O)c2ccccc12
REMARK SMILES IDX 4 1 5 2 7 3 6 4 9 5 14 6 10 7 13 8 11 9 12 10 8 11 3 13 2 14
REMARK SMILES IDX 1 15
REMARK H PARENT 8 12
REMARK Flexibility Score: inf
ROOT
ATOM      1  C   UNL     1      18.695   5.708  37.013  1.00  0.00     0.076 C 
ENDROOT
BRANCH   1   2
ATOM      2  C   UNL     1      19.071   4.330  37.464  1.00  0.00     0.116 A 
ATOM      3  C   UNL     1      19.851   2.762  38.702  1.00  0.00     0.290 A 
ATOM      4  O   UNL     1      19.628   4.060  38.631  1.00  0.00    -0.430 OA
ATOM      5  C   UNL     1      19.431   2.154  37.538  1.00  0.00     0.066 A 
ATOM      6  C   UNL     1      18.933   3.155  36.746  1.00  0.00     0.027 A 
ATOM      7  C   UNL     1      19.453   0.824  37.119  1.00  0.00     0.016 A 
ATOM      8  C   UNL     1      18.425   2.900  35.472  1.00  0.00     0.012 A 
ATOM      9  C   UNL     1      18.942   0.535  35.839  1.00  0.00     0.001 A 
ATOM     10  C   UNL     1      18.432   1.568  35.020  1.00  0.00     0.001 A 
BRANCH   3  11
ATOM     11  O   UNL     1      20.430   2.134  39.801  1.00  0.00    -0.480 OA
ATOM     12  H   UNL     1      20.274   2.472  40.742  1.00  0.00     0.297 HD
ENDBRANCH   3  11
ENDBRANCH   1   2
BRANCH   1  13
ATOM     13  C   UNL     1      19.759   6.267  36.059  1.00  0.00     0.008 C 
BRANCH  13  14
ATOM     14  C   UNL     1      20.973   6.841  36.804  1.00  0.00    -0.003 C 
ATOM     15  C   UNL     1      21.711   7.909  35.998  1.00  0.00     0.004 C 
ENDBRANCH  13  14
ENDBRANCH   1  13
TORSDOF 4
ENDMDL
MODEL 8
REMARK VINA RESULT:    -5.619      1.832      4.825
REMARK INTER + INTRA:          -7.279
REMARK INTER:                  -6.931
REMARK INTRA:                  -0.348
REMARK UNBOUND:                -0.510
REMARK SMILES CCCCc1oc(O)c2ccccc12
REMARK SMILES IDX 4 1 5 2 7 3 6 4 9 5 14 6 10 7 13 8 11 9 12 10 8 11 3 13 2 14
REMARK SMILES IDX 1 15
REMARK H PARENT 8 12
REMARK Flexibility Score: inf
ROOT
ATOM      1  C   UNL     1      18.738   4.337  37.577  1.00  0.00     0.076 C 
ENDROOT
BRANCH   1   2
ATOM      2  C   UNL     1      19.130   3.459  36.428  1.00  0.00     0.116 A 
ATOM      3  C   UNL     1      20.240   2.723  34.746  1.00  0.00     0.290 A 
ATOM      4  O   UNL     1      20.202   3.654  35.680  1.00  0.00    -0.430 OA
ATOM      5  C   UNL     1      19.151   1.887  34.880  1.00  0.00     0.066 A 
ATOM      6  C   UNL     1      18.441   2.357  35.952  1.00  0.00     0.027 A 
ATOM      7  C   UNL     1      18.735   0.774  34.150  1.00  0.00     0.016 A 
ATOM      8  C   UNL     1      17.257   1.751  36.372  1.00  0.00     0.012 A 
ATOM      9  C   UNL     1      17.545   0.137  34.553  1.00  0.00     0.001 A 
ATOM     10  C   UNL     1      16.810   0.624  35.658  1.00  0.00     0.001 A 
BRANCH   3  11
ATOM     11  O   UNL     1      21.240   2.631  33.784  1.00  0.00    -0.480 OA
ATOM     12  H   UNL     1      21.922   1.884  33.806  1.00  0.00     0.297 HD
ENDBRANCH   3  11
ENDBRANCH   1   2
BRANCH   1  13
ATOM     13  C   UNL     1      19.985   4.921  38.254  1.00  0.00     0.008 C 
BRANCH  13  14
ATOM     14  C   UNL     1      20.510   4.029  39.389  1.00  0.00    -0.003 C 
ATOM     15  C   UNL     1      19.392   3.302  40.135  1.00  0.00     0.004 C 
ENDBRANCH  13  14
ENDBRANCH   1  13
TORSDOF 4
ENDMDL
MODEL 9
REMARK VINA RESULT:    -5.582      2.360      5.132
REMARK INTER + INTRA:          -7.234
REMARK INTER:                  -6.729
REMARK INTRA:                  -0.505
REMARK UNBOUND:                -0.510
REMARK SMILES CCCCc1oc(O)c2ccccc12
REMARK SMILES IDX 4 1 5 2 7 3 6 4 9 5 14 6 10 7 13 8 11 9 12 10 8 11 3 13 2 14
REMARK SMILES IDX 1 15
REMARK H PARENT 8 12
REMARK Flexibility Score: inf
ROOT
ATOM      1  C   UNL     1      18.872   3.587  38.842  1.00  0.00     0.076 C 
ENDROOT
BRANCH   1   2
ATOM      2  C   UNL     1      19.415   2.822  37.673  1.00  0.00     0.116 A 
ATOM      3  C   UNL     1      20.411   1.277  36.568  1.00  0.00     0.290 A 
ATOM      4  O   UNL     1      20.042   1.664  37.774  1.00  0.00    -0.430 OA
ATOM      5  C   UNL     1      20.016   2.216  35.639  1.00  0.00     0.066 A 
ATOM      6  C   UNL     1      19.382   3.204  36.344  1.00  0.00     0.027 A 
ATOM      7  C   UNL     1      20.169   2.280  34.254  1.00  0.00     0.016 A 
ATOM      8  C   UNL     1      18.857   4.334  35.715  1.00  0.00     0.012 A 
ATOM      9  C   UNL     1      19.646   3.407  33.591  1.00  0.00     0.001 A 
ATOM     10  C   UNL     1      18.995   4.429  34.318  1.00  0.00     0.001 A 
BRANCH   3  11
ATOM     11  O   UNL     1      21.097   0.094  36.309  1.00  0.00    -0.480 OA
ATOM     12  H   UNL     1      20.907  -0.452  35.478  1.00  0.00     0.297 HD
ENDBRANCH   3  11
ENDBRANCH   1   2
BRANCH   1  13
ATOM     13  C   UNL     1      20.011   4.011  39.779  1.00  0.00     0.008 C 
BRANCH  13  14
ATOM     14  C   UNL     1      21.126   4.770  39.045  1.00  0.00    -0.003 C 
ATOM     15  C   UNL     1      20.659   6.115  38.490  1.00  0.00     0.004 C 
ENDBRANCH  13  14
ENDBRANCH   1  13
TORSDOF 4
ENDMDL
