MODEL 1
REMARK VINA RESULT:    30.096      0.000      0.000
REMARK INTER + INTRA:          36.762
REMARK INTER:                  37.134
REMARK INTRA:                  -0.371
REMARK UNBOUND:                -0.371
REMARK SMILES Oc1cc(O)c2cc(O)c(-c3cc(O)c(O)c(O)c3)[o+]c2c1
REMARK SMILES IDX 10 1 20 2 21 3 22 4 2 5 3 6 4 7 6 8 7 9 8 10 11 11 12 12
REMARK SMILES IDX 13 13 19 14 15 15 17 16 14 17 16 19 18 21 9 23 1 25 5 27
REMARK H PARENT 14 18 16 20 18 22 9 24 1 26 5 28
REMARK Flexibility Score: inf
ROOT
ATOM      1  C   UNL     1       9.501   2.228   8.427  1.00  0.00     0.402 A 
ATOM      2  O   UNL     1      10.292   1.324   7.857  1.00  0.00    -0.202 OA
ATOM      3  C   UNL     1      11.325   1.642   7.082  1.00  0.00     0.368 A 
ATOM      4  C   UNL     1      12.101   0.620   6.530  1.00  0.00     0.162 A 
ATOM      5  C   UNL     1      13.194   0.926   5.715  1.00  0.00     0.128 A 
ATOM      6  C   UNL     1      13.512   2.260   5.452  1.00  0.00     0.093 A 
ATOM      7  C   UNL     1      12.750   3.303   5.994  1.00  0.00     0.136 A 
ATOM      8  C   UNL     1      11.638   2.998   6.819  1.00  0.00     0.125 A 
ATOM      9  C   UNL     1      10.810   3.976   7.394  1.00  0.00     0.078 A 
ATOM     10  C   UNL     1       9.728   3.598   8.194  1.00  0.00     0.223 A 
ENDROOT
BRANCH   1  11
ATOM     11  C   UNL     1       8.388   1.749   9.277  1.00  0.00     0.091 A 
ATOM     12  C   UNL     1       8.614   1.510  10.642  1.00  0.00     0.068 A 
ATOM     13  C   UNL     1       7.576   1.077  11.473  1.00  0.00     0.162 A 
ATOM     14  C   UNL     1       7.091   1.582   8.760  1.00  0.00     0.068 A 
ATOM     15  C   UNL     1       6.286   0.891  10.947  1.00  0.00     0.200 A 
ATOM     16  C   UNL     1       6.045   1.150   9.587  1.00  0.00     0.162 A 
BRANCH  13  17
ATOM     17  O   UNL     1       7.847   0.837  12.820  1.00  0.00    -0.504 OA
ATOM     18  H   UNL     1       8.001  -0.098  13.180  1.00  0.00     0.293 HD
ENDBRANCH  13  17
BRANCH  15  19
ATOM     19  O   UNL     1       5.258   0.455  11.783  1.00  0.00    -0.502 OA
ATOM     20  H   UNL     1       4.324   0.267  11.437  1.00  0.00     0.293 HD
ENDBRANCH  15  19
BRANCH  16  21
ATOM     21  O   UNL     1       4.764   0.981   9.062  1.00  0.00    -0.504 OA
ATOM     22  H   UNL     1       3.943   1.328   9.543  1.00  0.00     0.293 HD
ENDBRANCH  16  21
ENDBRANCH   1  11
BRANCH  10  23
ATOM     23  O   UNL     1       8.877   4.567   8.724  1.00  0.00    -0.500 OA
ATOM     24  H   UNL     1       8.225   5.079   8.141  1.00  0.00     0.294 HD
ENDBRANCH  10  23
BRANCH   5  25
ATOM     25  O   UNL     1      13.973  -0.088   5.161  1.00  0.00    -0.507 OA
ATOM     26  H   UNL     1      13.557  -0.946   4.817  1.00  0.00     0.293 HD
ENDBRANCH   5  25
BRANCH   7  27
ATOM     27  O   UNL     1      13.137   4.611   5.684  1.00  0.00    -0.507 OA
ATOM     28  H   UNL     1      13.158   4.993   4.750  1.00  0.00     0.293 HD
ENDBRANCH   7  27
TORSDOF 7
ENDMDL
MODEL 2
REMARK VINA RESULT:    30.621      4.699      8.147
REMARK INTER + INTRA:          37.411
REMARK INTER:                  37.741
REMARK INTRA:                  -0.330
REMARK UNBOUND:                -0.371
REMARK SMILES Oc1cc(O)c2cc(O)c(-c3cc(O)c(O)c(O)c3)[o+]c2c1
REMARK SMILES IDX 10 1 20 2 21 3 22 4 2 5 3 6 4 7 6 8 7 9 8 10 11 11 12 12
REMARK SMILES IDX 13 13 19 14 15 15 17 16 14 17 16 19 18 21 9 23 1 25 5 27
REMARK H PARENT 14 18 16 20 18 22 9 24 1 26 5 28
REMARK Flexibility Score: inf
ROOT
ATOM      1  C   UNL     1      15.009   2.906   8.315  1.00  0.00     0.402 A 
ATOM      2  O   UNL     1      14.118   3.794   7.884  1.00  0.00    -0.202 OA
ATOM      3  C   UNL     1      13.068   3.471   7.136  1.00  0.00     0.368 A 
ATOM      4  C   UNL     1      12.184   4.475   6.735  1.00  0.00     0.162 A 
ATOM      5  C   UNL     1      11.071   4.163   5.950  1.00  0.00     0.128 A 
ATOM      6  C   UNL     1      10.840   2.839   5.567  1.00  0.00     0.093 A 
ATOM      7  C   UNL     1      11.711   1.814   5.957  1.00  0.00     0.136 A 
ATOM      8  C   UNL     1      12.845   2.127   6.750  1.00  0.00     0.125 A 
ATOM      9  C   UNL     1      13.777   1.167   7.176  1.00  0.00     0.078 A 
ATOM     10  C   UNL     1      14.874   1.552   7.954  1.00  0.00     0.223 A 
ENDROOT
BRANCH   1  11
ATOM     11  C   UNL     1      16.132   3.388   9.151  1.00  0.00     0.091 A 
ATOM     12  C   UNL     1      15.922   3.631  10.518  1.00  0.00     0.068 A 
ATOM     13  C   UNL     1      16.968   4.067  11.335  1.00  0.00     0.162 A 
ATOM     14  C   UNL     1      17.422   3.555   8.619  1.00  0.00     0.068 A 
ATOM     15  C   UNL     1      18.252   4.253  10.794  1.00  0.00     0.200 A 
ATOM     16  C   UNL     1      18.478   3.990   9.432  1.00  0.00     0.162 A 
BRANCH  13  17
ATOM     17  O   UNL     1      16.713   4.310  12.685  1.00  0.00    -0.504 OA
ATOM     18  H   UNL     1      17.449   4.304  13.382  1.00  0.00     0.293 HD
ENDBRANCH  13  17
BRANCH  15  19
ATOM     19  O   UNL     1      19.290   4.691  11.617  1.00  0.00    -0.502 OA
ATOM     20  H   UNL     1      19.148   4.903  12.598  1.00  0.00     0.293 HD
ENDBRANCH  15  19
BRANCH  16  21
ATOM     21  O   UNL     1      19.752   4.158   8.892  1.00  0.00    -0.504 OA
ATOM     22  H   UNL     1      19.910   4.148   7.892  1.00  0.00     0.293 HD
ENDBRANCH  16  21
ENDBRANCH   1  11
BRANCH  10  23
ATOM     23  O   UNL     1      15.827   0.609   8.335  1.00  0.00    -0.500 OA
ATOM     24  H   UNL     1      15.772   0.126   9.224  1.00  0.00     0.294 HD
ENDBRANCH  10  23
BRANCH   5  25
ATOM     25  O   UNL     1      10.185   5.159   5.545  1.00  0.00    -0.507 OA
ATOM     26  H   UNL     1      10.374   5.738   4.735  1.00  0.00     0.293 HD
ENDBRANCH   5  25
BRANCH   7  27
ATOM     27  O   UNL     1      11.407   0.517   5.533  1.00  0.00    -0.507 OA
ATOM     28  H   UNL     1      10.472   0.144   5.462  1.00  0.00     0.293 HD
ENDBRANCH   7  27
TORSDOF 7
ENDMDL
MODEL 3
REMARK VINA RESULT:    31.288      1.081      2.559
REMARK INTER + INTRA:          38.233
REMARK INTER:                  38.588
REMARK INTRA:                  -0.355
REMARK UNBOUND:                -0.371
REMARK SMILES Oc1cc(O)c2cc(O)c(-c3cc(O)c(O)c(O)c3)[o+]c2c1
REMARK SMILES IDX 10 1 20 2 21 3 22 4 2 5 3 6 4 7 6 8 7 9 8 10 11 11 12 12
REMARK SMILES IDX 13 13 19 14 15 15 17 16 14 17 16 19 18 21 9 23 1 25 5 27
REMARK H PARENT 14 18 16 20 18 22 9 24 1 26 5 28
REMARK Flexibility Score: inf
ROOT
ATOM      1  C   UNL     1       9.336   1.427   8.624  1.00  0.00     0.402 A 
ATOM      2  O   UNL     1       9.652   2.633   8.163  1.00  0.00    -0.202 OA
ATOM      3  C   UNL     1      10.678   2.858   7.348  1.00  0.00     0.368 A 
ATOM      4  C   UNL     1      10.929   4.161   6.913  1.00  0.00     0.162 A 
ATOM      5  C   UNL     1      11.999   4.425   6.053  1.00  0.00     0.128 A 
ATOM      6  C   UNL     1      12.820   3.379   5.626  1.00  0.00     0.093 A 
ATOM      7  C   UNL     1      12.590   2.064   6.047  1.00  0.00     0.136 A 
ATOM      8  C   UNL     1      11.507   1.791   6.922  1.00  0.00     0.125 A 
ATOM      9  C   UNL     1      11.209   0.507   7.406  1.00  0.00     0.078 A 
ATOM     10  C   UNL     1      10.126   0.317   8.270  1.00  0.00     0.223 A 
ENDROOT
BRANCH   1  11
ATOM     11  C   UNL     1       8.163   1.304   9.520  1.00  0.00     0.091 A 
ATOM     12  C   UNL     1       8.355   1.284  10.910  1.00  0.00     0.068 A 
ATOM     13  C   UNL     1       7.264   1.190  11.780  1.00  0.00     0.162 A 
ATOM     14  C   UNL     1       6.854   1.264   9.009  1.00  0.00     0.068 A 
ATOM     15  C   UNL     1       5.958   1.129  11.265  1.00  0.00     0.200 A 
ATOM     16  C   UNL     1       5.755   1.171   9.875  1.00  0.00     0.162 A 
BRANCH  13  17
ATOM     17  O   UNL     1       7.499   1.159  13.154  1.00  0.00    -0.504 OA
ATOM     18  H   UNL     1       7.999   1.900  13.633  1.00  0.00     0.293 HD
ENDBRANCH  13  17
BRANCH  15  19
ATOM     19  O   UNL     1       4.876   1.032  12.140  1.00  0.00    -0.502 OA
ATOM     20  H   UNL     1       4.792   1.621  12.961  1.00  0.00     0.293 HD
ENDBRANCH  15  19
BRANCH  16  21
ATOM     21  O   UNL     1       4.461   1.125   9.358  1.00  0.00    -0.504 OA
ATOM     22  H   UNL     1       3.647   1.228   9.953  1.00  0.00     0.293 HD
ENDBRANCH  16  21
ENDBRANCH   1  11
BRANCH  10  23
ATOM     23  O   UNL     1       9.860  -0.949   8.790  1.00  0.00    -0.500 OA
ATOM     24  H   UNL     1       9.021  -1.461   8.542  1.00  0.00     0.294 HD
ENDBRANCH  10  23
BRANCH   5  25
ATOM     25  O   UNL     1      12.255   5.722   5.616  1.00  0.00    -0.507 OA
ATOM     26  H   UNL     1      11.866   6.075   4.749  1.00  0.00     0.293 HD
ENDBRANCH   5  25
BRANCH   7  27
ATOM     27  O   UNL     1      13.457   1.075   5.571  1.00  0.00    -0.507 OA
ATOM     28  H   UNL     1      13.245   0.449   4.808  1.00  0.00     0.293 HD
ENDBRANCH   7  27
TORSDOF 7
ENDMDL
MODEL 4
REMARK VINA RESULT:    31.817      4.953      8.082
REMARK INTER + INTRA:          38.886
REMARK INTER:                  39.202
REMARK INTRA:                  -0.317
REMARK UNBOUND:                -0.371
REMARK SMILES Oc1cc(O)c2cc(O)c(-c3cc(O)c(O)c(O)c3)[o+]c2c1
REMARK SMILES IDX 10 1 20 2 21 3 22 4 2 5 3 6 4 7 6 8 7 9 8 10 11 11 12 12
REMARK SMILES IDX 13 13 19 14 15 15 17 16 14 17 16 19 18 21 9 23 1 25 5 27
REMARK H PARENT 14 18 16 20 18 22 9 24 1 26 5 28
REMARK Flexibility Score: inf
ROOT
ATOM      1  C   UNL     1      15.181   3.720   8.564  1.00  0.00     0.402 A 
ATOM      2  O   UNL     1      14.845   2.544   8.042  1.00  0.00    -0.202 OA
ATOM      3  C   UNL     1      13.772   2.363   7.278  1.00  0.00     0.368 A 
ATOM      4  C   UNL     1      13.504   1.089   6.773  1.00  0.00     0.162 A 
ATOM      5  C   UNL     1      12.385   0.871   5.964  1.00  0.00     0.128 A 
ATOM      6  C   UNL     1      11.531   1.934   5.659  1.00  0.00     0.093 A 
ATOM      7  C   UNL     1      11.778   3.221   6.153  1.00  0.00     0.136 A 
ATOM      8  C   UNL     1      12.911   3.446   6.977  1.00  0.00     0.125 A 
ATOM      9  C   UNL     1      13.230   4.699   7.527  1.00  0.00     0.078 A 
ATOM     10  C   UNL     1      14.362   4.842   8.334  1.00  0.00     0.223 A 
ENDROOT
BRANCH   1  11
ATOM     11  C   UNL     1      16.406   3.796   9.392  1.00  0.00     0.091 A 
ATOM     12  C   UNL     1      17.661   3.832   8.766  1.00  0.00     0.068 A 
ATOM     13  C   UNL     1      18.834   3.924   9.521  1.00  0.00     0.162 A 
ATOM     14  C   UNL     1      16.338   3.891  10.793  1.00  0.00     0.068 A 
ATOM     15  C   UNL     1      18.762   3.997  10.923  1.00  0.00     0.200 A 
ATOM     16  C   UNL     1      17.509   3.986  11.558  1.00  0.00     0.162 A 
BRANCH  13  17
ATOM     17  O   UNL     1      20.062   3.942   8.860  1.00  0.00    -0.504 OA
ATOM     18  H   UNL     1      20.205   3.470   7.975  1.00  0.00     0.293 HD
ENDBRANCH  13  17
BRANCH  15  19
ATOM     19  O   UNL     1      19.938   4.086  11.669  1.00  0.00    -0.502 OA
ATOM     20  H   UNL     1      19.948   3.976  12.677  1.00  0.00     0.293 HD
ENDBRANCH  15  19
BRANCH  16  21
ATOM     21  O   UNL     1      17.430   4.073  12.947  1.00  0.00    -0.504 OA
ATOM     22  H   UNL     1      18.195   4.440  13.500  1.00  0.00     0.293 HD
ENDBRANCH  16  21
ENDBRANCH   1  11
BRANCH  10  23
ATOM     23  O   UNL     1      14.652   6.074   8.921  1.00  0.00    -0.500 OA
ATOM     24  H   UNL     1      15.324   6.713   8.513  1.00  0.00     0.294 HD
ENDBRANCH  10  23
BRANCH   5  25
ATOM     25  O   UNL     1      12.110  -0.397   5.457  1.00  0.00    -0.507 OA
ATOM     26  H   UNL     1      11.349  -0.553   4.807  1.00  0.00     0.293 HD
ENDBRANCH   5  25
BRANCH   7  27
ATOM     27  O   UNL     1      10.877   4.230   5.799  1.00  0.00    -0.507 OA
ATOM     28  H   UNL     1      10.459   4.327   4.886  1.00  0.00     0.293 HD
ENDBRANCH   7  27
TORSDOF 7
ENDMDL
MODEL 5
REMARK VINA RESULT:    32.610      1.475      7.246
REMARK INTER + INTRA:          39.864
REMARK INTER:                  40.231
REMARK INTRA:                  -0.367
REMARK UNBOUND:                -0.371
REMARK SMILES Oc1cc(O)c2cc(O)c(-c3cc(O)c(O)c(O)c3)[o+]c2c1
REMARK SMILES IDX 10 1 20 2 21 3 22 4 2 5 3 6 4 7 6 8 7 9 8 10 11 11 12 12
REMARK SMILES IDX 13 13 19 14 15 15 17 16 14 17 16 19 18 21 9 23 1 25 5 27
REMARK H PARENT 14 18 16 20 18 22 9 24 1 26 5 28
REMARK Flexibility Score: inf
ROOT
ATOM      1  C   UNL     1       8.876   1.760   8.651  1.00  0.00     0.402 A 
ATOM      2  O   UNL     1       7.695   1.810   8.042  1.00  0.00    -0.202 OA
ATOM      3  C   UNL     1       6.542   1.589   8.664  1.00  0.00     0.368 A 
ATOM      4  C   UNL     1       5.350   1.667   7.939  1.00  0.00     0.162 A 
ATOM      5  C   UNL     1       4.124   1.443   8.570  1.00  0.00     0.128 A 
ATOM      6  C   UNL     1       4.089   1.141   9.933  1.00  0.00     0.093 A 
ATOM      7  C   UNL     1       5.269   1.057  10.683  1.00  0.00     0.136 A 
ATOM      8  C   UNL     1       6.517   1.280  10.046  1.00  0.00     0.125 A 
ATOM      9  C   UNL     1       7.749   1.205  10.715  1.00  0.00     0.078 A 
ATOM     10  C   UNL     1       8.940   1.434  10.019  1.00  0.00     0.223 A 
ENDROOT
BRANCH   1  11
ATOM     11  C   UNL     1      10.090   2.035   7.850  1.00  0.00     0.091 A 
ATOM     12  C   UNL     1      10.798   0.965   7.280  1.00  0.00     0.068 A 
ATOM     13  C   UNL     1      11.936   1.195   6.501  1.00  0.00     0.162 A 
ATOM     14  C   UNL     1      10.519   3.349   7.597  1.00  0.00     0.068 A 
ATOM     15  C   UNL     1      12.374   2.510   6.269  1.00  0.00     0.200 A 
ATOM     16  C   UNL     1      11.659   3.589   6.816  1.00  0.00     0.162 A 
BRANCH  13  17
ATOM     17  O   UNL     1      12.619   0.103   5.966  1.00  0.00    -0.504 OA
ATOM     18  H   UNL     1      12.136  -0.671   5.524  1.00  0.00     0.293 HD
ENDBRANCH  13  17
BRANCH  15  19
ATOM     19  O   UNL     1      13.513   2.730   5.493  1.00  0.00    -0.502 OA
ATOM     20  H   UNL     1      14.403   2.295   5.706  1.00  0.00     0.293 HD
ENDBRANCH  15  19
BRANCH  16  21
ATOM     21  O   UNL     1      12.079   4.896   6.578  1.00  0.00    -0.504 OA
ATOM     22  H   UNL     1      12.331   5.520   7.335  1.00  0.00     0.293 HD
ENDBRANCH  16  21
ENDBRANCH   1  11
BRANCH  10  23
ATOM     23  O   UNL     1      10.167   1.309  10.670  1.00  0.00    -0.500 OA
ATOM     24  H   UNL     1      10.558   2.068  11.216  1.00  0.00     0.294 HD
ENDBRANCH  10  23
BRANCH   5  25
ATOM     25  O   UNL     1       2.932   1.519   7.853  1.00  0.00    -0.507 OA
ATOM     26  H   UNL     1       2.039   1.316   8.287  1.00  0.00     0.293 HD
ENDBRANCH   5  25
BRANCH   7  27
ATOM     27  O   UNL     1       5.147   0.752  12.042  1.00  0.00    -0.507 OA
ATOM     28  H   UNL     1       5.339   1.400  12.791  1.00  0.00     0.293 HD
ENDBRANCH   7  27
TORSDOF 7
ENDMDL
