MODEL 1
REMARK VINA RESULT:    -2.316      0.000      0.000
REMARK INTER + INTRA:          -3.784
REMARK INTER:                  -3.129
REMARK INTRA:                  -0.656
REMARK UNBOUND:                -0.656
REMARK SMILES O=C[C@@H](O)[C@H](O)[C@@H](O)CO
REMARK SMILES IDX 7 1 9 2 10 3 5 5 3 6 2 7 1 8 4 9 6 11 8 13
REMARK H PARENT 10 4 4 10 6 12 8 14
REMARK Flexibility Score: inf
ROOT
ATOM      1  C   UNL     1       8.781   1.246   7.620  1.00  0.00     0.171 C 
ENDROOT
BRANCH   1   2
ATOM      2  C   UNL     1       9.974   0.799   6.744  1.00  0.00     0.190 C 
BRANCH   2   3
ATOM      3  O   UNL     1       9.889  -0.574   6.473  1.00  0.00    -0.394 OA
ATOM      4  H   UNL     1       9.957  -1.041   7.347  1.00  0.00     0.210 HD
ENDBRANCH   2   3
ENDBRANCH   1   2
BRANCH   1   5
ATOM      5  C   UNL     1       8.070   0.091   8.386  1.00  0.00     0.181 C 
BRANCH   5   6
ATOM      6  C   UNL     1       6.631   0.397   8.894  1.00  0.00     0.209 C 
BRANCH   6   7
ATOM      7  C   UNL     1       6.265  -0.396  10.123  1.00  0.00     0.258 C 
ATOM      8  O   UNL     1       6.213  -1.615  10.086  1.00  0.00    -0.300 OA
ENDBRANCH   6   7
BRANCH   6   9
ATOM      9  O   UNL     1       6.479   1.770   9.157  1.00  0.00    -0.383 OA
ATOM     10  H   UNL     1       5.538   2.016   8.953  1.00  0.00     0.211 HD
ENDBRANCH   6   9
ENDBRANCH   5   6
BRANCH   5  11
ATOM     11  O   UNL     1       8.879  -0.346   9.452  1.00  0.00    -0.387 OA
ATOM     12  H   UNL     1       8.377  -0.203  10.294  1.00  0.00     0.211 HD
ENDBRANCH   5  11
ENDBRANCH   1   5
BRANCH   1  13
ATOM     13  O   UNL     1       9.145   2.283   8.500  1.00  0.00    -0.388 OA
ATOM     14  H   UNL     1       8.322   2.740   8.806  1.00  0.00     0.211 HD
ENDBRANCH   1  13
TORSDOF 8
ENDMDL
MODEL 2
REMARK VINA RESULT:    -1.735      0.897      1.609
REMARK INTER + INTRA:          -2.999
REMARK INTER:                  -2.988
REMARK INTRA:                  -0.011
REMARK UNBOUND:                -0.656
REMARK SMILES O=C[C@@H](O)[C@H](O)[C@@H](O)CO
REMARK SMILES IDX 7 1 9 2 10 3 5 5 3 6 2 7 1 8 4 9 6 11 8 13
REMARK H PARENT 10 4 4 10 6 12 8 14
REMARK Flexibility Score: inf
ROOT
ATOM      1  C   UNL     1       9.466   0.180   8.002  1.00  0.00     0.171 C 
ENDROOT
BRANCH   1   2
ATOM      2  C   UNL     1       9.136   0.046   6.497  1.00  0.00     0.190 C 
BRANCH   2   3
ATOM      3  O   UNL     1      10.099  -0.748   5.858  1.00  0.00    -0.394 OA
ATOM      4  H   UNL     1       9.611  -1.502   5.434  1.00  0.00     0.210 HD
ENDBRANCH   2   3
ENDBRANCH   1   2
BRANCH   1   5
ATOM      5  C   UNL     1       8.442   1.021   8.820  1.00  0.00     0.181 C 
BRANCH   5   6
ATOM      6  C   UNL     1       6.979   0.489   8.831  1.00  0.00     0.209 C 
BRANCH   6   7
ATOM      7  C   UNL     1       6.727  -0.499   9.940  1.00  0.00     0.258 C 
ATOM      8  O   UNL     1       5.835  -1.327   9.849  1.00  0.00    -0.300 OA
ENDBRANCH   6   7
BRANCH   6   9
ATOM      9  O   UNL     1       6.065   1.553   8.930  1.00  0.00    -0.383 OA
ATOM     10  H   UNL     1       6.250   2.034   9.780  1.00  0.00     0.211 HD
ENDBRANCH   6   9
ENDBRANCH   5   6
BRANCH   5  11
ATOM     11  O   UNL     1       8.469   2.361   8.387  1.00  0.00    -0.387 OA
ATOM     12  H   UNL     1       7.534   2.682   8.334  1.00  0.00     0.211 HD
ENDBRANCH   5  11
ENDBRANCH   1   5
BRANCH   1  13
ATOM     13  O   UNL     1       9.674  -1.078   8.600  1.00  0.00    -0.388 OA
ATOM     14  H   UNL     1       9.881  -0.940   9.559  1.00  0.00     0.211 HD
ENDBRANCH   1  13
TORSDOF 8
ENDMDL
MODEL 3
REMARK VINA RESULT:    -1.431      1.300      3.829
REMARK INTER + INTRA:          -2.588
REMARK INTER:                  -2.351
REMARK INTRA:                  -0.238
REMARK UNBOUND:                -0.656
REMARK SMILES O=C[C@@H](O)[C@H](O)[C@@H](O)CO
REMARK SMILES IDX 7 1 9 2 10 3 5 5 3 6 2 7 1 8 4 9 6 11 8 13
REMARK H PARENT 10 4 4 10 6 12 8 14
REMARK Flexibility Score: inf
ROOT
ATOM      1  C   UNL     1       6.781   0.036   9.748  1.00  0.00     0.171 C 
ENDROOT
BRANCH   1   2
ATOM      2  C   UNL     1       6.196  -1.378   9.524  1.00  0.00     0.190 C 
BRANCH   2   3
ATOM      3  O   UNL     1       4.943  -1.290   8.900  1.00  0.00    -0.394 OA
ATOM      4  H   UNL     1       4.972  -0.488   8.314  1.00  0.00     0.210 HD
ENDBRANCH   2   3
ENDBRANCH   1   2
BRANCH   1   5
ATOM      5  C   UNL     1       8.241   0.223   9.237  1.00  0.00     0.181 C 
BRANCH   5   6
ATOM      6  C   UNL     1       8.420   1.183   8.025  1.00  0.00     0.209 C 
BRANCH   6   7
ATOM      7  C   UNL     1       8.698   2.604   8.444  1.00  0.00     0.258 C 
ATOM      8  O   UNL     1       7.784   3.357   8.740  1.00  0.00    -0.300 OA
ENDBRANCH   6   7
BRANCH   6   9
ATOM      9  O   UNL     1       9.450   0.729   7.182  1.00  0.00    -0.383 OA
ATOM     10  H   UNL     1       9.095  -0.031   6.650  1.00  0.00     0.211 HD
ENDBRANCH   6   9
ENDBRANCH   5   6
BRANCH   5  11
ATOM     11  O   UNL     1       8.812  -1.032   8.954  1.00  0.00    -0.387 OA
ATOM     12  H   UNL     1       8.415  -1.363   8.108  1.00  0.00     0.211 HD
ENDBRANCH   5  11
ENDBRANCH   1   5
BRANCH   1  13
ATOM     13  O   UNL     1       5.935   1.034   9.227  1.00  0.00    -0.388 OA
ATOM     14  H   UNL     1       6.451   1.577   8.578  1.00  0.00     0.211 HD
ENDBRANCH   1  13
TORSDOF 8
ENDMDL
MODEL 4
REMARK VINA RESULT:    -1.007     22.613     23.325
REMARK INTER + INTRA:          -2.015
REMARK INTER:                  -1.374
REMARK INTRA:                  -0.641
REMARK UNBOUND:                -0.656
REMARK SMILES O=C[C@@H](O)[C@H](O)[C@@H](O)CO
REMARK SMILES IDX 7 1 9 2 10 3 5 5 3 6 2 7 1 8 4 9 6 11 8 13
REMARK H PARENT 10 4 4 10 6 12 8 14
REMARK Flexibility Score: inf
ROOT
ATOM      1  C   UNL     1      -3.356   9.772  -7.951  1.00  0.00     0.171 C 
ENDROOT
BRANCH   1   2
ATOM      2  C   UNL     1      -1.871  10.125  -8.192  1.00  0.00     0.190 C 
BRANCH   2   3
ATOM      3  O   UNL     1      -1.519   9.860  -9.524  1.00  0.00    -0.394 OA
ATOM      4  H   UNL     1      -0.978  10.632  -9.835  1.00  0.00     0.210 HD
ENDBRANCH   2   3
ENDBRANCH   1   2
BRANCH   1   5
ATOM      5  C   UNL     1      -4.197   9.580  -9.249  1.00  0.00     0.181 C 
BRANCH   5   6
ATOM      6  C   UNL     1      -5.655  10.125  -9.201  1.00  0.00     0.209 C 
BRANCH   6   7
ATOM      7  C   UNL     1      -6.591   9.364 -10.105  1.00  0.00     0.258 C 
ATOM      8  O   UNL     1      -6.996   8.256  -9.794  1.00  0.00    -0.300 OA
ENDBRANCH   6   7
BRANCH   6   9
ATOM      9  O   UNL     1      -6.149  10.104  -7.885  1.00  0.00    -0.383 OA
ATOM     10  H   UNL     1      -7.082  10.447  -7.905  1.00  0.00     0.211 HD
ENDBRANCH   6   9
ENDBRANCH   5   6
BRANCH   5  11
ATOM     11  O   UNL     1      -4.196   8.224  -9.624  1.00  0.00    -0.387 OA
ATOM     12  H   UNL     1      -3.667   8.139 -10.457  1.00  0.00     0.211 HD
ENDBRANCH   5  11
ENDBRANCH   1   5
BRANCH   1  13
ATOM     13  O   UNL     1      -3.492   8.661  -7.097  1.00  0.00    -0.388 OA
ATOM     14  H   UNL     1      -3.596   7.847  -7.652  1.00  0.00     0.211 HD
ENDBRANCH   1  13
TORSDOF 8
ENDMDL
MODEL 5
REMARK VINA RESULT:    -0.827     20.231     21.080
REMARK INTER + INTRA:          -1.773
REMARK INTER:                  -1.324
REMARK INTRA:                  -0.450
REMARK UNBOUND:                -0.656
REMARK SMILES O=C[C@@H](O)[C@H](O)[C@@H](O)CO
REMARK SMILES IDX 7 1 9 2 10 3 5 5 3 6 2 7 1 8 4 9 6 11 8 13
REMARK H PARENT 10 4 4 10 6 12 8 14
REMARK Flexibility Score: inf
ROOT
ATOM      1  C   UNL     1       0.250   9.241  -8.621  1.00  0.00     0.171 C 
ENDROOT
BRANCH   1   2
ATOM      2  C   UNL     1      -1.000  10.125  -8.403  1.00  0.00     0.190 C 
BRANCH   2   3
ATOM      3  O   UNL     1      -1.834  10.071  -9.529  1.00  0.00    -0.394 OA
ATOM      4  H   UNL     1      -1.745   9.157  -9.906  1.00  0.00     0.210 HD
ENDBRANCH   2   3
ENDBRANCH   1   2
BRANCH   1   5
ATOM      5  C   UNL     1       1.585  10.028  -8.768  1.00  0.00     0.181 C 
BRANCH   5   6
ATOM      6  C   UNL     1       2.579   9.489  -9.838  1.00  0.00     0.209 C 
BRANCH   6   7
ATOM      7  C   UNL     1       3.993   9.956  -9.608  1.00  0.00     0.258 C 
ATOM      8  O   UNL     1       4.717   9.385  -8.808  1.00  0.00    -0.300 OA
ENDBRANCH   6   7
BRANCH   6   9
ATOM      9  O   UNL     1       2.547   8.084  -9.882  1.00  0.00    -0.383 OA
ATOM     10  H   UNL     1       3.267   7.783 -10.497  1.00  0.00     0.211 HD
ENDBRANCH   6   9
ENDBRANCH   5   6
BRANCH   5  11
ATOM     11  O   UNL     1       2.224  10.125  -7.517  1.00  0.00    -0.387 OA
ATOM     12  H   UNL     1       3.075  10.614  -7.647  1.00  0.00     0.211 HD
ENDBRANCH   5  11
ENDBRANCH   1   5
BRANCH   1  13
ATOM     13  O   UNL     1       0.359   8.246  -7.630  1.00  0.00    -0.388 OA
ATOM     14  H   UNL     1       0.488   8.689  -6.753  1.00  0.00     0.211 HD
ENDBRANCH   1  13
TORSDOF 8
ENDMDL
MODEL 6
REMARK VINA RESULT:    -0.779      1.910      3.094
REMARK INTER + INTRA:          -1.708
REMARK INTER:                  -1.579
REMARK INTRA:                  -0.129
REMARK UNBOUND:                -0.656
REMARK SMILES O=C[C@@H](O)[C@H](O)[C@@H](O)CO
REMARK SMILES IDX 7 1 9 2 10 3 5 5 3 6 2 7 1 8 4 9 6 11 8 13
REMARK H PARENT 10 4 4 10 6 12 8 14
REMARK Flexibility Score: inf
ROOT
ATOM      1  C   UNL     1       9.871  -0.225   7.510  1.00  0.00     0.171 C 
ENDROOT
BRANCH   1   2
ATOM      2  C   UNL     1       9.848  -0.711   6.042  1.00  0.00     0.190 C 
BRANCH   2   3
ATOM      3  O   UNL     1       8.601  -0.439   5.462  1.00  0.00    -0.394 OA
ATOM      4  H   UNL     1       8.527   0.549   5.393  1.00  0.00     0.210 HD
ENDBRANCH   2   3
ENDBRANCH   1   2
BRANCH   1   5
ATOM      5  C   UNL     1       8.627   0.609   7.938  1.00  0.00     0.181 C 
BRANCH   5   6
ATOM      6  C   UNL     1       8.850   2.144   8.072  1.00  0.00     0.209 C 
BRANCH   6   7
ATOM      7  C   UNL     1       7.650   2.860   8.637  1.00  0.00     0.258 C 
ATOM      8  O   UNL     1       7.724   4.030   8.978  1.00  0.00    -0.300 OA
ENDBRANCH   6   7
BRANCH   6   9
ATOM      9  O   UNL     1       9.978   2.413   8.867  1.00  0.00    -0.383 OA
ATOM     10  H   UNL     1       9.820   3.274   9.338  1.00  0.00     0.211 HD
ENDBRANCH   6   9
ENDBRANCH   5   6
BRANCH   5  11
ATOM     11  O   UNL     1       8.089   0.089   9.130  1.00  0.00    -0.387 OA
ATOM     12  H   UNL     1       8.828   0.005   9.785  1.00  0.00     0.211 HD
ENDBRANCH   5  11
ENDBRANCH   1   5
BRANCH   1  13
ATOM     13  O   UNL     1      10.093  -1.290   8.404  1.00  0.00    -0.388 OA
ATOM     14  H   UNL     1       9.482  -1.185   9.176  1.00  0.00     0.211 HD
ENDBRANCH   1  13
TORSDOF 8
ENDMDL
MODEL 7
REMARK VINA RESULT:     0.076      1.267      3.539
REMARK INTER + INTRA:          -0.553
REMARK INTER:                  -0.548
REMARK INTRA:                  -0.005
REMARK UNBOUND:                -0.656
REMARK SMILES O=C[C@@H](O)[C@H](O)[C@@H](O)CO
REMARK SMILES IDX 7 1 9 2 10 3 5 5 3 6 2 7 1 8 4 9 6 11 8 13
REMARK H PARENT 10 4 4 10 6 12 8 14
REMARK Flexibility Score: inf
ROOT
ATOM      1  C   UNL     1       7.966   1.138   9.007  1.00  0.00     0.171 C 
ENDROOT
BRANCH   1   2
ATOM      2  C   UNL     1       6.632   0.378   8.821  1.00  0.00     0.190 C 
BRANCH   2   3
ATOM      3  O   UNL     1       6.404  -0.473   9.912  1.00  0.00    -0.394 OA
ATOM      4  H   UNL     1       7.202  -1.059   9.988  1.00  0.00     0.210 HD
ENDBRANCH   2   3
ENDBRANCH   1   2
BRANCH   1   5
ATOM      5  C   UNL     1       9.241   0.296   8.704  1.00  0.00     0.181 C 
BRANCH   5   6
ATOM      6  C   UNL     1       9.923   0.564   7.331  1.00  0.00     0.209 C 
BRANCH   6   7
ATOM      7  C   UNL     1       9.491  -0.410   6.265  1.00  0.00     0.258 C 
ATOM      8  O   UNL     1       8.392  -0.318   5.743  1.00  0.00    -0.300 OA
ENDBRANCH   6   7
BRANCH   6   9
ATOM      9  O   UNL     1       9.669   1.879   6.899  1.00  0.00    -0.383 OA
ATOM     10  H   UNL     1      10.487   2.417   7.069  1.00  0.00     0.211 HD
ENDBRANCH   6   9
ENDBRANCH   5   6
BRANCH   5  11
ATOM     11  O   UNL     1       8.953  -1.075   8.845  1.00  0.00    -0.387 OA
ATOM     12  H   UNL     1       8.644  -1.412   7.966  1.00  0.00     0.211 HD
ENDBRANCH   5  11
ENDBRANCH   1   5
BRANCH   1  13
ATOM     13  O   UNL     1       7.978   2.346   8.283  1.00  0.00    -0.388 OA
ATOM     14  H   UNL     1       8.557   2.230   7.487  1.00  0.00     0.211 HD
ENDBRANCH   1  13
TORSDOF 8
ENDMDL
MODEL 8
REMARK VINA RESULT:     0.421     10.590     12.115
REMARK INTER + INTRA:          -0.087
REMARK INTER:                   0.080
REMARK INTRA:                  -0.166
REMARK UNBOUND:                -0.656
REMARK SMILES O=C[C@@H](O)[C@H](O)[C@@H](O)CO
REMARK SMILES IDX 7 1 9 2 10 3 5 5 3 6 2 7 1 8 4 9 6 11 8 13
REMARK H PARENT 10 4 4 10 6 12 8 14
REMARK Flexibility Score: inf
ROOT
ATOM      1  C   UNL     1       2.198  -9.401   8.169  1.00  0.00     0.171 C 
ENDROOT
BRANCH   1   2
ATOM      2  C   UNL     1       1.064 -10.125   8.930  1.00  0.00     0.190 C 
BRANCH   2   3
ATOM      3  O   UNL     1      -0.124 -10.082   8.186  1.00  0.00    -0.394 OA
ATOM      4  H   UNL     1      -0.854 -10.360   8.798  1.00  0.00     0.210 HD
ENDBRANCH   2   3
ENDBRANCH   1   2
BRANCH   1   5
ATOM      5  C   UNL     1       2.476  -9.952   6.739  1.00  0.00     0.181 C 
BRANCH   5   6
ATOM      6  C   UNL     1       3.476  -9.130   5.875  1.00  0.00     0.209 C 
BRANCH   6   7
ATOM      7  C   UNL     1       3.551  -9.615   4.450  1.00  0.00     0.258 C 
ATOM      8  O   UNL     1       2.882  -9.090   3.575  1.00  0.00    -0.300 OA
ENDBRANCH   6   7
BRANCH   6   9
ATOM      9  O   UNL     1       3.139  -7.765   5.891  1.00  0.00    -0.383 OA
ATOM     10  H   UNL     1       3.822  -7.290   6.435  1.00  0.00     0.211 HD
ENDBRANCH   6   9
ENDBRANCH   5   6
BRANCH   5  11
ATOM     11  O   UNL     1       1.262 -10.123   6.048  1.00  0.00    -0.387 OA
ATOM     12  H   UNL     1       1.462 -10.125   5.077  1.00  0.00     0.211 HD
ENDBRANCH   5  11
ENDBRANCH   1   5
BRANCH   1  13
ATOM     13  O   UNL     1       1.993  -8.008   8.138  1.00  0.00    -0.388 OA
ATOM     14  H   UNL     1       1.413  -7.792   7.365  1.00  0.00     0.211 HD
ENDBRANCH   1  13
TORSDOF 8
ENDMDL
