MODEL 1
REMARK VINA RESULT:    -5.074      0.000      0.000
REMARK INTER + INTRA:          -7.887
REMARK INTER:                  -6.854
REMARK INTRA:                  -1.032
REMARK UNBOUND:                -1.032
REMARK SMILES O=c1c(-c2ccc(O)cc2)coc2c([C@H]3O[C@@H](CO)[C@@H](O)[C@@H](O)[C@H]3O)c(O)ccc12
REMARK SMILES IDX 3 1 11 2 12 3 13 4 30 5 2 6 1 7 29 8 28 9 26 10 14 11 4 12
REMARK SMILES IDX 5 13 6 14 7 15 10 16 9 17 8 18 15 20 24 21 16 22 22 23 17 24
REMARK SMILES IDX 20 25 25 26 23 28 18 30 19 31 21 33 27 35
REMARK H PARENT 8 19 25 27 23 29 19 32 21 34 27 36
REMARK Flexibility Score: inf
ROOT
ATOM      1  C   UNL     1      90.492  86.770  93.698  1.00  0.00     0.065 A 
ATOM      2  C   UNL     1      91.876  86.810  93.476  1.00  0.00     0.208 A 
ATOM      3  O   UNL     1      92.718  87.086  94.464  1.00  0.00    -0.463 OA
ATOM      4  C   UNL     1      92.321  87.338  95.710  1.00  0.00     0.147 A 
ATOM      5  C   UNL     1      90.943  87.307  96.026  1.00  0.00     0.066 A 
ATOM      6  C   UNL     1      90.024  87.015  95.003  1.00  0.00     0.200 A 
ATOM      7  O   UNL     1      88.789  86.953  95.256  1.00  0.00    -0.288 OA
ATOM      8  C   UNL     1      90.530  87.553  97.343  1.00  0.00     0.020 A 
ATOM      9  C   UNL     1      91.470  87.814  98.337  1.00  0.00     0.047 A 
ATOM     10  C   UNL     1      92.837  87.843  98.038  1.00  0.00     0.125 A 
ATOM     11  C   UNL     1      93.279  87.630  96.709  1.00  0.00     0.069 A 
ENDROOT
BRANCH   1  12
ATOM     12  C   UNL     1      89.569  86.468  92.575  1.00  0.00    -0.011 A 
ATOM     13  C   UNL     1      88.791  87.489  92.003  1.00  0.00     0.013 A 
ATOM     14  C   UNL     1      87.915  87.205  90.951  1.00  0.00     0.047 A 
ATOM     15  C   UNL     1      87.802  85.900  90.461  1.00  0.00     0.115 A 
ATOM     16  C   UNL     1      89.446  85.156  92.083  1.00  0.00     0.013 A 
ATOM     17  C   UNL     1      88.569  84.875  91.031  1.00  0.00     0.047 A 
BRANCH  15  18
ATOM     18  O   UNL     1      86.925  85.632  89.412  1.00  0.00    -0.508 OA
ATOM     19  H   UNL     1      85.951  85.409  89.580  1.00  0.00     0.293 HD
ENDBRANCH  15  18
ENDBRANCH   1  12
BRANCH  11  20
ATOM     20  C   UNL     1      94.762  87.634  96.358  1.00  0.00     0.188 C 
ATOM     21  C   UNL     1      95.412  86.282  96.734  1.00  0.00     0.179 C 
ATOM     22  O   UNL     1      95.421  88.713  97.005  1.00  0.00    -0.362 OA
ATOM     23  C   UNL     1      96.914  86.320  96.381  1.00  0.00     0.177 C 
ATOM     24  C   UNL     1      96.763  88.825  96.556  1.00  0.00     0.176 C 
ATOM     25  C   UNL     1      97.579  87.579  96.969  1.00  0.00     0.177 C 
BRANCH  21  26
ATOM     26  O   UNL     1      95.237  86.027  98.106  1.00  0.00    -0.387 OA
ATOM     27  H   UNL     1      95.498  85.082  98.261  1.00  0.00     0.211 HD
ENDBRANCH  21  26
BRANCH  23  28
ATOM     28  O   UNL     1      97.567  85.168  96.851  1.00  0.00    -0.387 OA
ATOM     29  H   UNL     1      98.166  84.862  96.120  1.00  0.00     0.211 HD
ENDBRANCH  23  28
BRANCH  24  30
ATOM     30  C   UNL     1      97.381  90.106  97.135  1.00  0.00     0.191 C 
BRANCH  30  31
ATOM     31  O   UNL     1      96.886  90.346  98.425  1.00  0.00    -0.394 OA
ATOM     32  H   UNL     1      95.987  90.753  98.315  1.00  0.00     0.210 HD
ENDBRANCH  30  31
ENDBRANCH  24  30
BRANCH  25  33
ATOM     33  O   UNL     1      97.642  87.493  98.372  1.00  0.00    -0.388 OA
ATOM     34  H   UNL     1      97.298  88.352  98.730  1.00  0.00     0.211 HD
ENDBRANCH  25  33
ENDBRANCH  11  20
BRANCH  10  35
ATOM     35  O   UNL     1      93.754  88.079  99.063  1.00  0.00    -0.507 OA
ATOM     36  H   UNL     1      94.583  87.507  99.180  1.00  0.00     0.293 HD
ENDBRANCH  10  35
TORSDOF 9
ENDMDL
MODEL 2
REMARK VINA RESULT:    -4.892      9.911     13.258
REMARK INTER + INTRA:          -7.640
REMARK INTER:                  -6.539
REMARK INTRA:                  -1.101
REMARK UNBOUND:                -1.032
REMARK SMILES O=c1c(-c2ccc(O)cc2)coc2c([C@H]3O[C@@H](CO)[C@@H](O)[C@@H](O)[C@H]3O)c(O)ccc12
REMARK SMILES IDX 3 1 11 2 12 3 13 4 30 5 2 6 1 7 29 8 28 9 26 10 14 11 4 12
REMARK SMILES IDX 5 13 6 14 7 15 10 16 9 17 8 18 15 20 24 21 16 22 22 23 17 24
REMARK SMILES IDX 20 25 25 26 23 28 18 30 19 31 21 33 27 35
REMARK H PARENT 8 19 25 27 23 29 19 32 21 34 27 36
REMARK Flexibility Score: inf
ROOT
ATOM      1  C   UNL     1     102.971  90.544  93.356  1.00  0.00     0.065 A 
ATOM      2  C   UNL     1     102.508  90.982  92.108  1.00  0.00     0.208 A 
ATOM      3  O   UNL     1     102.107  90.116  91.186  1.00  0.00    -0.463 OA
ATOM      4  C   UNL     1     102.112  88.798  91.374  1.00  0.00     0.147 A 
ATOM      5  C   UNL     1     102.552  88.269  92.610  1.00  0.00     0.066 A 
ATOM      6  C   UNL     1     102.981  89.159  93.610  1.00  0.00     0.200 A 
ATOM      7  O   UNL     1     103.354  88.723  94.733  1.00  0.00    -0.288 OA
ATOM      8  C   UNL     1     102.536  86.881  92.813  1.00  0.00     0.020 A 
ATOM      9  C   UNL     1     102.080  86.029  91.810  1.00  0.00     0.047 A 
ATOM     10  C   UNL     1     101.639  86.541  90.584  1.00  0.00     0.125 A 
ATOM     11  C   UNL     1     101.674  87.936  90.341  1.00  0.00     0.069 A 
ENDROOT
BRANCH   1  12
ATOM     12  C   UNL     1     103.422  91.532  94.368  1.00  0.00    -0.011 A 
ATOM     13  C   UNL     1     102.560  91.930  95.405  1.00  0.00     0.013 A 
ATOM     14  C   UNL     1     102.980  92.867  96.353  1.00  0.00     0.047 A 
ATOM     15  C   UNL     1     104.261  93.421  96.277  1.00  0.00     0.115 A 
ATOM     16  C   UNL     1     104.707  92.097  94.293  1.00  0.00     0.013 A 
ATOM     17  C   UNL     1     105.125  93.035  95.243  1.00  0.00     0.047 A 
BRANCH  15  18
ATOM     18  O   UNL     1     104.667  94.353  97.230  1.00  0.00    -0.508 OA
ATOM     19  H   UNL     1     104.024  94.711  97.927  1.00  0.00     0.293 HD
ENDBRANCH  15  18
ENDBRANCH   1  12
BRANCH  11  20
ATOM     20  C   UNL     1     101.179  88.524  89.025  1.00  0.00     0.188 C 
ATOM     21  C   UNL     1      99.679  88.887  89.124  1.00  0.00     0.179 C 
ATOM     22  O   UNL     1     101.414  87.616  87.958  1.00  0.00    -0.362 OA
ATOM     23  C   UNL     1      99.203  89.464  87.774  1.00  0.00     0.177 C 
ATOM     24  C   UNL     1     101.110  88.217  86.709  1.00  0.00     0.176 C 
ATOM     25  C   UNL     1      99.600  88.533  86.612  1.00  0.00     0.177 C 
BRANCH  21  26
ATOM     26  O   UNL     1      98.927  87.747  89.462  1.00  0.00    -0.387 OA
ATOM     27  H   UNL     1      98.488  87.432  88.630  1.00  0.00     0.211 HD
ENDBRANCH  21  26
BRANCH  23  28
ATOM     28  O   UNL     1      97.811  89.660  87.777  1.00  0.00    -0.387 OA
ATOM     29  H   UNL     1      97.560  89.909  88.705  1.00  0.00     0.211 HD
ENDBRANCH  23  28
BRANCH  24  30
ATOM     30  C   UNL     1     101.550  87.276  85.578  1.00  0.00     0.191 C 
BRANCH  30  31
ATOM     31  O   UNL     1     101.511  85.942  86.011  1.00  0.00    -0.394 OA
ATOM     32  H   UNL     1     102.400  85.550  85.809  1.00  0.00     0.210 HD
ENDBRANCH  30  31
ENDBRANCH  24  30
BRANCH  25  33
ATOM     33  O   UNL     1      98.858  87.339  86.663  1.00  0.00    -0.388 OA
ATOM     34  H   UNL     1      98.582  87.209  87.607  1.00  0.00     0.211 HD
ENDBRANCH  25  33
ENDBRANCH  11  20
BRANCH  10  35
ATOM     35  O   UNL     1     101.162  85.662  89.611  1.00  0.00    -0.507 OA
ATOM     36  H   UNL     1     100.960  84.691  89.822  1.00  0.00     0.293 HD
ENDBRANCH  10  35
TORSDOF 9
ENDMDL
MODEL 3
REMARK VINA RESULT:    -4.881      9.837     13.682
REMARK INTER + INTRA:          -7.625
REMARK INTER:                  -6.586
REMARK INTRA:                  -1.039
REMARK UNBOUND:                -1.032
REMARK SMILES O=c1c(-c2ccc(O)cc2)coc2c([C@H]3O[C@@H](CO)[C@@H](O)[C@@H](O)[C@H]3O)c(O)ccc12
REMARK SMILES IDX 3 1 11 2 12 3 13 4 30 5 2 6 1 7 29 8 28 9 26 10 14 11 4 12
REMARK SMILES IDX 5 13 6 14 7 15 10 16 9 17 8 18 15 20 24 21 16 22 22 23 17 24
REMARK SMILES IDX 20 25 25 26 23 28 18 30 19 31 21 33 27 35
REMARK H PARENT 8 19 25 27 23 29 19 32 21 34 27 36
REMARK Flexibility Score: inf
ROOT
ATOM      1  C   UNL     1     103.597  93.347  96.054  1.00  0.00     0.065 A 
ATOM      2  C   UNL     1     104.441  92.787  95.084  1.00  0.00     0.208 A 
ATOM      3  O   UNL     1     104.216  91.572  94.602  1.00  0.00    -0.463 OA
ATOM      4  C   UNL     1     103.194  90.812  94.993  1.00  0.00     0.147 A 
ATOM      5  C   UNL     1     102.286  91.302  95.959  1.00  0.00     0.066 A 
ATOM      6  C   UNL     1     102.495  92.588  96.489  1.00  0.00     0.200 A 
ATOM      7  O   UNL     1     101.688  93.067  97.333  1.00  0.00    -0.288 OA
ATOM      8  C   UNL     1     101.200  90.508  96.354  1.00  0.00     0.020 A 
ATOM      9  C   UNL     1     101.009  89.249  95.790  1.00  0.00     0.047 A 
ATOM     10  C   UNL     1     101.899  88.754  94.829  1.00  0.00     0.125 A 
ATOM     11  C   UNL     1     103.022  89.522  94.436  1.00  0.00     0.069 A 
ENDROOT
BRANCH   1  12
ATOM     12  C   UNL     1     103.876  94.705  96.584  1.00  0.00    -0.011 A 
ATOM     13  C   UNL     1     104.656  94.867  97.742  1.00  0.00     0.013 A 
ATOM     14  C   UNL     1     104.913  96.145  98.249  1.00  0.00     0.047 A 
ATOM     15  C   UNL     1     104.391  97.274  97.610  1.00  0.00     0.115 A 
ATOM     16  C   UNL     1     103.349  95.844  95.950  1.00  0.00     0.013 A 
ATOM     17  C   UNL     1     103.607  97.121  96.459  1.00  0.00     0.047 A 
BRANCH  15  18
ATOM     18  O   UNL     1     104.656  98.541  98.125  1.00  0.00    -0.508 OA
ATOM     19  H   UNL     1     105.429  98.704  98.759  1.00  0.00     0.293 HD
ENDBRANCH  15  18
ENDBRANCH   1  12
BRANCH  11  20
ATOM     20  C   UNL     1     103.994  89.019  93.377  1.00  0.00     0.188 C 
ATOM     21  C   UNL     1     103.632  89.597  91.989  1.00  0.00     0.179 C 
ATOM     22  O   UNL     1     104.005  87.599  93.349  1.00  0.00    -0.362 OA
ATOM     23  C   UNL     1     104.622  89.059  90.936  1.00  0.00     0.177 C 
ATOM     24  C   UNL     1     105.024  87.120  92.486  1.00  0.00     0.176 C 
ATOM     25  C   UNL     1     104.731  87.525  91.024  1.00  0.00     0.177 C 
BRANCH  21  26
ATOM     26  O   UNL     1     102.313  89.243  91.648  1.00  0.00    -0.387 OA
ATOM     27  H   UNL     1     102.313  88.269  91.465  1.00  0.00     0.211 HD
ENDBRANCH  21  26
BRANCH  23  28
ATOM     28  O   UNL     1     104.231  89.439  89.641  1.00  0.00    -0.387 OA
ATOM     29  H   UNL     1     104.865  90.145  89.346  1.00  0.00     0.211 HD
ENDBRANCH  23  28
BRANCH  24  30
ATOM     30  C   UNL     1     105.125  85.594  92.626  1.00  0.00     0.191 C 
BRANCH  30  31
ATOM     31  O   UNL     1     103.847  85.032  92.763  1.00  0.00    -0.394 OA
ATOM     32  H   UNL     1     103.321  85.653  93.330  1.00  0.00     0.210 HD
ENDBRANCH  30  31
ENDBRANCH  24  30
BRANCH  25  33
ATOM     33  O   UNL     1     103.537  86.922  90.591  1.00  0.00    -0.388 OA
ATOM     34  H   UNL     1     103.689  86.612  89.661  1.00  0.00     0.211 HD
ENDBRANCH  25  33
ENDBRANCH  11  20
BRANCH  10  35
ATOM     35  O   UNL     1     101.662  87.500  94.263  1.00  0.00    -0.507 OA
ATOM     36  H   UNL     1     102.290  86.719  94.414  1.00  0.00     0.293 HD
ENDBRANCH  10  35
TORSDOF 9
ENDMDL
MODEL 4
REMARK VINA RESULT:    -4.826     12.994     15.918
REMARK INTER + INTRA:          -7.551
REMARK INTER:                  -6.622
REMARK INTRA:                  -0.928
REMARK UNBOUND:                -1.032
REMARK SMILES O=c1c(-c2ccc(O)cc2)coc2c([C@H]3O[C@@H](CO)[C@@H](O)[C@@H](O)[C@H]3O)c(O)ccc12
REMARK SMILES IDX 3 1 11 2 12 3 13 4 30 5 2 6 1 7 29 8 28 9 26 10 14 11 4 12
REMARK SMILES IDX 5 13 6 14 7 15 10 16 9 17 8 18 15 20 24 21 16 22 22 23 17 24
REMARK SMILES IDX 20 25 25 26 23 28 18 30 19 31 21 33 27 35
REMARK H PARENT 8 19 25 27 23 29 19 32 21 34 27 36
REMARK Flexibility Score: inf
ROOT
ATOM      1  C   UNL     1     104.157  94.590  94.299  1.00  0.00     0.065 A 
ATOM      2  C   UNL     1     103.615  95.783  93.800  1.00  0.00     0.208 A 
ATOM      3  O   UNL     1     103.507  96.858  94.571  1.00  0.00    -0.463 OA
ATOM      4  C   UNL     1     103.896  96.884  95.844  1.00  0.00     0.147 A 
ATOM      5  C   UNL     1     104.465  95.727  96.426  1.00  0.00     0.066 A 
ATOM      6  C   UNL     1     104.597  94.571  95.636  1.00  0.00     0.200 A 
ATOM      7  O   UNL     1     105.125  93.529  96.115  1.00  0.00    -0.288 OA
ATOM      8  C   UNL     1     104.893  95.763  97.760  1.00  0.00     0.020 A 
ATOM      9  C   UNL     1     104.771  96.933  98.506  1.00  0.00     0.047 A 
ATOM     10  C   UNL     1     104.213  98.086  97.940  1.00  0.00     0.125 A 
ATOM     11  C   UNL     1     103.744  98.067  96.604  1.00  0.00     0.069 A 
ENDROOT
BRANCH   1  12
ATOM     12  C   UNL     1     104.259  93.398  93.420  1.00  0.00    -0.011 A 
ATOM     13  C   UNL     1     105.026  93.449  92.243  1.00  0.00     0.013 A 
ATOM     14  C   UNL     1     105.116  92.331  91.409  1.00  0.00     0.047 A 
ATOM     15  C   UNL     1     104.441  91.151  91.736  1.00  0.00     0.115 A 
ATOM     16  C   UNL     1     103.577  92.211  93.741  1.00  0.00     0.013 A 
ATOM     17  C   UNL     1     103.670  91.094  92.905  1.00  0.00     0.047 A 
BRANCH  15  18
ATOM     18  O   UNL     1     104.541  90.044  90.896  1.00  0.00    -0.508 OA
ATOM     19  H   UNL     1     105.386  89.853  90.370  1.00  0.00     0.293 HD
ENDBRANCH  15  18
ENDBRANCH   1  12
BRANCH  11  20
ATOM     20  C   UNL     1     103.153  99.313  95.954  1.00  0.00     0.188 C 
ATOM     21  C   UNL     1     104.278 100.244  95.446  1.00  0.00     0.179 C 
ATOM     22  O   UNL     1     102.304  99.992  96.868  1.00  0.00    -0.362 OA
ATOM     23  C   UNL     1     103.651 101.502  94.808  1.00  0.00     0.177 C 
ATOM     24  C   UNL     1     101.621 101.057  96.225  1.00  0.00     0.176 C 
ATOM     25  C   UNL     1     102.621 102.140  95.760  1.00  0.00     0.177 C 
BRANCH  21  26
ATOM     26  O   UNL     1     105.125 100.604  96.510  1.00  0.00    -0.387 OA
ATOM     27  H   UNL     1     104.542 100.827  97.282  1.00  0.00     0.211 HD
ENDBRANCH  21  26
BRANCH  23  28
ATOM     28  O   UNL     1     104.643 102.441  94.475  1.00  0.00    -0.387 OA
ATOM     29  H   UNL     1     104.322 102.920  93.667  1.00  0.00     0.211 HD
ENDBRANCH  23  28
BRANCH  24  30
ATOM     30  C   UNL     1     100.582 101.644  97.191  1.00  0.00     0.191 C 
BRANCH  30  31
ATOM     31  O   UNL     1     100.322 102.984  96.871  1.00  0.00    -0.394 OA
ATOM     32  H   UNL     1     100.358 103.055  95.882  1.00  0.00     0.210 HD
ENDBRANCH  30  31
ENDBRANCH  24  30
BRANCH  25  33
ATOM     33  O   UNL     1     103.265 102.705  96.875  1.00  0.00    -0.388 OA
ATOM     34  H   UNL     1     102.719 103.482  97.162  1.00  0.00     0.211 HD
ENDBRANCH  25  33
ENDBRANCH  11  20
BRANCH  10  35
ATOM     35  O   UNL     1     104.132  99.250  98.706  1.00  0.00    -0.507 OA
ATOM     36  H   UNL     1     104.045  99.219  99.715  1.00  0.00     0.293 HD
ENDBRANCH  10  35
TORSDOF 9
ENDMDL
MODEL 5
REMARK VINA RESULT:    -4.789     12.580     16.939
REMARK INTER + INTRA:          -7.501
REMARK INTER:                  -6.341
REMARK INTRA:                  -1.160
REMARK UNBOUND:                -1.032
REMARK SMILES O=c1c(-c2ccc(O)cc2)coc2c([C@H]3O[C@@H](CO)[C@@H](O)[C@@H](O)[C@H]3O)c(O)ccc12
REMARK SMILES IDX 3 1 11 2 12 3 13 4 30 5 2 6 1 7 29 8 28 9 26 10 14 11 4 12
REMARK SMILES IDX 5 13 6 14 7 15 10 16 9 17 8 18 15 20 24 21 16 22 22 23 17 24
REMARK SMILES IDX 20 25 25 26 23 28 18 30 19 31 21 33 27 35
REMARK H PARENT 8 19 25 27 23 29 19 32 21 34 27 36
REMARK Flexibility Score: inf
ROOT
ATOM      1  C   UNL     1     103.626  96.243  95.987  1.00  0.00     0.065 A 
ATOM      2  C   UNL     1     102.878  97.038  95.108  1.00  0.00     0.208 A 
ATOM      3  O   UNL     1     102.716  98.336  95.331  1.00  0.00    -0.463 OA
ATOM      4  C   UNL     1     103.239  98.965  96.382  1.00  0.00     0.147 A 
ATOM      5  C   UNL     1     104.018  98.242  97.314  1.00  0.00     0.066 A 
ATOM      6  C   UNL     1     104.212  96.864  97.106  1.00  0.00     0.200 A 
ATOM      7  O   UNL     1     104.924  96.194  97.904  1.00  0.00    -0.288 OA
ATOM      8  C   UNL     1     104.586  98.910  98.408  1.00  0.00     0.020 A 
ATOM      9  C   UNL     1     104.394 100.281  98.571  1.00  0.00     0.047 A 
ATOM     10  C   UNL     1     103.629 101.008  97.652  1.00  0.00     0.125 A 
ATOM     11  C   UNL     1     103.018 100.351  96.556  1.00  0.00     0.069 A 
ENDROOT
BRANCH   1  12
ATOM     12  C   UNL     1     103.785  94.791  95.720  1.00  0.00    -0.011 A 
ATOM     13  C   UNL     1     104.911  94.319  95.024  1.00  0.00     0.013 A 
ATOM     14  C   UNL     1     105.060  92.953  94.763  1.00  0.00     0.047 A 
ATOM     15  C   UNL     1     104.086  92.045  95.189  1.00  0.00     0.115 A 
ATOM     16  C   UNL     1     102.807  93.874  96.141  1.00  0.00     0.013 A 
ATOM     17  C   UNL     1     102.958  92.508  95.879  1.00  0.00     0.047 A 
BRANCH  15  18
ATOM     18  O   UNL     1     104.248  90.686  94.924  1.00  0.00    -0.508 OA
ATOM     19  H   UNL     1     104.264  89.999  95.668  1.00  0.00     0.293 HD
ENDBRANCH  15  18
ENDBRANCH   1  12
BRANCH  11  20
ATOM     20  C   UNL     1     102.198 101.122  95.528  1.00  0.00     0.188 C 
ATOM     21  C   UNL     1     103.110 101.663  94.402  1.00  0.00     0.179 C 
ATOM     22  O   UNL     1     101.483 102.177  96.155  1.00  0.00    -0.362 OA
ATOM     23  C   UNL     1     102.256 102.450  93.386  1.00  0.00     0.177 C 
ATOM     24  C   UNL     1     100.591 102.794  95.240  1.00  0.00     0.176 C 
ATOM     25  C   UNL     1     101.376 103.490  94.104  1.00  0.00     0.177 C 
BRANCH  21  26
ATOM     26  O   UNL     1     104.110 102.489  94.946  1.00  0.00    -0.387 OA
ATOM     27  H   UNL     1     103.666 103.324  95.245  1.00  0.00     0.211 HD
ENDBRANCH  21  26
BRANCH  23  28
ATOM     28  O   UNL     1     103.071 103.086  92.434  1.00  0.00    -0.387 OA
ATOM     29  H   UNL     1     103.428 102.373  91.841  1.00  0.00     0.211 HD
ENDBRANCH  23  28
BRANCH  24  30
ATOM     30  C   UNL     1      99.710 103.798  95.997  1.00  0.00     0.191 C 
BRANCH  30  31
ATOM     31  O   UNL     1     100.449 104.432  97.006  1.00  0.00    -0.394 OA
ATOM     32  H   UNL     1      99.971 105.274  97.225  1.00  0.00     0.210 HD
ENDBRANCH  30  31
ENDBRANCH  24  30
BRANCH  25  33
ATOM     33  O   UNL     1     102.168 104.523  94.635  1.00  0.00    -0.388 OA
ATOM     34  H   UNL     1     103.104 104.341  94.360  1.00  0.00     0.211 HD
ENDBRANCH  25  33
ENDBRANCH  11  20
BRANCH  10  35
ATOM     35  O   UNL     1     103.481 102.385  97.829  1.00  0.00    -0.507 OA
ATOM     36  H   UNL     1     102.591 102.797  98.083  1.00  0.00     0.293 HD
ENDBRANCH  10  35
TORSDOF 9
ENDMDL
MODEL 6
REMARK VINA RESULT:    -4.727      3.560      6.277
REMARK INTER + INTRA:          -7.417
REMARK INTER:                  -6.495
REMARK INTRA:                  -0.922
REMARK UNBOUND:                -1.032
REMARK SMILES O=c1c(-c2ccc(O)cc2)coc2c([C@H]3O[C@@H](CO)[C@@H](O)[C@@H](O)[C@H]3O)c(O)ccc12
REMARK SMILES IDX 3 1 11 2 12 3 13 4 30 5 2 6 1 7 29 8 28 9 26 10 14 11 4 12
REMARK SMILES IDX 5 13 6 14 7 15 10 16 9 17 8 18 15 20 24 21 16 22 22 23 17 24
REMARK SMILES IDX 20 25 25 26 23 28 18 30 19 31 21 33 27 35
REMARK H PARENT 8 19 25 27 23 29 19 32 21 34 27 36
REMARK Flexibility Score: inf
ROOT
ATOM      1  C   UNL     1      87.754  90.291  90.624  1.00  0.00     0.065 A 
ATOM      2  C   UNL     1      88.682  90.625  91.621  1.00  0.00     0.208 A 
ATOM      3  O   UNL     1      89.303  89.683  92.319  1.00  0.00    -0.463 OA
ATOM      4  C   UNL     1      89.097  88.381  92.128  1.00  0.00     0.147 A 
ATOM      5  C   UNL     1      88.186  87.954  91.134  1.00  0.00     0.066 A 
ATOM      6  C   UNL     1      87.513  88.927  90.374  1.00  0.00     0.200 A 
ATOM      7  O   UNL     1      86.713  88.581  89.461  1.00  0.00    -0.288 OA
ATOM      8  C   UNL     1      87.987  86.582  90.921  1.00  0.00     0.020 A 
ATOM      9  C   UNL     1      88.690  85.645  91.675  1.00  0.00     0.047 A 
ATOM     10  C   UNL     1      89.597  86.055  92.659  1.00  0.00     0.125 A 
ATOM     11  C   UNL     1      89.793  87.434  92.916  1.00  0.00     0.069 A 
ENDROOT
BRANCH   1  12
ATOM     12  C   UNL     1      87.066  91.364  89.863  1.00  0.00    -0.011 A 
ATOM     13  C   UNL     1      87.581  91.800  88.630  1.00  0.00     0.013 A 
ATOM     14  C   UNL     1      86.940  92.817  87.916  1.00  0.00     0.047 A 
ATOM     15  C   UNL     1      85.782  93.412  88.424  1.00  0.00     0.115 A 
ATOM     16  C   UNL     1      85.904  91.971  90.372  1.00  0.00     0.013 A 
ATOM     17  C   UNL     1      85.265  92.988  89.655  1.00  0.00     0.047 A 
BRANCH  15  18
ATOM     18  O   UNL     1      85.152  94.423  87.701  1.00  0.00    -0.508 OA
ATOM     19  H   UNL     1      85.597  95.322  87.549  1.00  0.00     0.293 HD
ENDBRANCH  15  18
ENDBRANCH   1  12
BRANCH  11  20
ATOM     20  C   UNL     1      90.791  87.910  93.965  1.00  0.00     0.188 C 
ATOM     21  C   UNL     1      92.224  87.916  93.386  1.00  0.00     0.179 C 
ATOM     22  O   UNL     1      90.714  87.096  95.126  1.00  0.00    -0.362 OA
ATOM     23  C   UNL     1      93.213  88.387  94.474  1.00  0.00     0.177 C 
ATOM     24  C   UNL     1      91.516  87.628  96.169  1.00  0.00     0.176 C 
ATOM     25  C   UNL     1      93.011  87.589  95.776  1.00  0.00     0.177 C 
BRANCH  21  26
ATOM     26  O   UNL     1      92.569  86.629  92.935  1.00  0.00    -0.387 OA
ATOM     27  H   UNL     1      92.503  86.641  91.945  1.00  0.00     0.211 HD
ENDBRANCH  21  26
BRANCH  23  28
ATOM     28  O   UNL     1      94.541  88.257  94.033  1.00  0.00    -0.387 OA
ATOM     29  H   UNL     1      94.599  87.389  93.554  1.00  0.00     0.211 HD
ENDBRANCH  23  28
BRANCH  24  30
ATOM     30  C   UNL     1      91.263  86.830  97.456  1.00  0.00     0.191 C 
BRANCH  30  31
ATOM     31  O   UNL     1      89.888  86.633  97.645  1.00  0.00    -0.394 OA
ATOM     32  H   UNL     1      89.494  86.486  96.746  1.00  0.00     0.210 HD
ENDBRANCH  30  31
ENDBRANCH  24  30
BRANCH  25  33
ATOM     33  O   UNL     1      93.425  86.256  95.606  1.00  0.00    -0.388 OA
ATOM     34  H   UNL     1      94.410  86.272  95.486  1.00  0.00     0.211 HD
ENDBRANCH  25  33
ENDBRANCH  11  20
BRANCH  10  35
ATOM     35  O   UNL     1      90.306  85.090  93.376  1.00  0.00    -0.507 OA
ATOM     36  H   UNL     1      91.152  85.318  93.884  1.00  0.00     0.293 HD
ENDBRANCH  10  35
TORSDOF 9
ENDMDL
MODEL 7
REMARK VINA RESULT:    -4.642      2.335      8.258
REMARK INTER + INTRA:          -7.302
REMARK INTER:                  -6.209
REMARK INTRA:                  -1.093
REMARK UNBOUND:                -1.032
REMARK SMILES O=c1c(-c2ccc(O)cc2)coc2c([C@H]3O[C@@H](CO)[C@@H](O)[C@@H](O)[C@H]3O)c(O)ccc12
REMARK SMILES IDX 3 1 11 2 12 3 13 4 30 5 2 6 1 7 29 8 28 9 26 10 14 11 4 12
REMARK SMILES IDX 5 13 6 14 7 15 10 16 9 17 8 18 15 20 24 21 16 22 22 23 17 24
REMARK SMILES IDX 20 25 25 26 23 28 18 30 19 31 21 33 27 35
REMARK H PARENT 8 19 25 27 23 29 19 32 21 34 27 36
REMARK Flexibility Score: inf
ROOT
ATOM      1  C   UNL     1      96.101  87.036  96.407  1.00  0.00     0.065 A 
ATOM      2  C   UNL     1      95.343  87.596  95.369  1.00  0.00     0.208 A 
ATOM      3  O   UNL     1      94.019  87.651  95.443  1.00  0.00    -0.463 OA
ATOM      4  C   UNL     1      93.329  87.191  96.485  1.00  0.00     0.147 A 
ATOM      5  C   UNL     1      94.014  86.620  97.582  1.00  0.00     0.066 A 
ATOM      6  C   UNL     1      95.418  86.548  97.537  1.00  0.00     0.200 A 
ATOM      7  O   UNL     1      96.063  86.069  98.510  1.00  0.00    -0.288 OA
ATOM      8  C   UNL     1      93.286  86.155  98.687  1.00  0.00     0.020 A 
ATOM      9  C   UNL     1      91.898  86.264  98.709  1.00  0.00     0.047 A 
ATOM     10  C   UNL     1      91.208  86.831  97.631  1.00  0.00     0.125 A 
ATOM     11  C   UNL     1      91.917  87.280  96.490  1.00  0.00     0.069 A 
ENDROOT
BRANCH   1  12
ATOM     12  C   UNL     1      97.580  86.978  96.296  1.00  0.00    -0.011 A 
ATOM     13  C   UNL     1      98.209  85.821  95.803  1.00  0.00     0.013 A 
ATOM     14  C   UNL     1      99.603  85.761  95.706  1.00  0.00     0.047 A 
ATOM     15  C   UNL     1     100.384  86.849  96.104  1.00  0.00     0.115 A 
ATOM     16  C   UNL     1      98.372  88.067  96.700  1.00  0.00     0.013 A 
ATOM     17  C   UNL     1      99.766  88.004  96.603  1.00  0.00     0.047 A 
BRANCH  15  18
ATOM     18  O   UNL     1     101.772  86.775  96.001  1.00  0.00    -0.508 OA
ATOM     19  H   UNL     1     102.263  87.132  95.189  1.00  0.00     0.293 HD
ENDBRANCH  15  18
ENDBRANCH   1  12
BRANCH  11  20
ATOM     20  C   UNL     1      91.195  87.922  95.311  1.00  0.00     0.188 C 
ATOM     21  C   UNL     1      91.146  89.458  95.477  1.00  0.00     0.179 C 
ATOM     22  O   UNL     1      89.888  87.382  95.178  1.00  0.00    -0.362 OA
ATOM     23  C   UNL     1      90.397  90.078  94.279  1.00  0.00     0.177 C 
ATOM     24  C   UNL     1      89.270  87.849  93.989  1.00  0.00     0.176 C 
ATOM     25  C   UNL     1      89.044  89.376  94.059  1.00  0.00     0.177 C 
BRANCH  21  26
ATOM     26  O   UNL     1      90.504  89.794  96.683  1.00  0.00    -0.387 OA
ATOM     27  H   UNL     1      91.081  89.465  97.420  1.00  0.00     0.211 HD
ENDBRANCH  21  26
BRANCH  23  28
ATOM     28  O   UNL     1      90.198  91.456  94.472  1.00  0.00    -0.387 OA
ATOM     29  H   UNL     1      91.098  91.876  94.483  1.00  0.00     0.211 HD
ENDBRANCH  23  28
BRANCH  24  30
ATOM     30  C   UNL     1      87.942  87.104  93.788  1.00  0.00     0.191 C 
BRANCH  30  31
ATOM     31  O   UNL     1      87.222  87.057  94.990  1.00  0.00    -0.394 OA
ATOM     32  H   UNL     1      87.029  87.997  95.245  1.00  0.00     0.210 HD
ENDBRANCH  30  31
ENDBRANCH  24  30
BRANCH  25  33
ATOM     33  O   UNL     1      88.156  89.680  95.108  1.00  0.00    -0.388 OA
ATOM     34  H   UNL     1      87.445  88.989  95.094  1.00  0.00     0.211 HD
ENDBRANCH  25  33
ENDBRANCH  11  20
BRANCH  10  35
ATOM     35  O   UNL     1      89.819  86.952  97.699  1.00  0.00    -0.507 OA
ATOM     36  H   UNL     1      89.207  86.408  97.103  1.00  0.00     0.293 HD
ENDBRANCH  10  35
TORSDOF 9
ENDMDL
MODEL 8
REMARK VINA RESULT:    -4.609     11.739     15.723
REMARK INTER + INTRA:          -7.257
REMARK INTER:                  -6.365
REMARK INTRA:                  -0.893
REMARK UNBOUND:                -1.032
REMARK SMILES O=c1c(-c2ccc(O)cc2)coc2c([C@H]3O[C@@H](CO)[C@@H](O)[C@@H](O)[C@H]3O)c(O)ccc12
REMARK SMILES IDX 3 1 11 2 12 3 13 4 30 5 2 6 1 7 29 8 28 9 26 10 14 11 4 12
REMARK SMILES IDX 5 13 6 14 7 15 10 16 9 17 8 18 15 20 24 21 16 22 22 23 17 24
REMARK SMILES IDX 20 25 25 26 23 28 18 30 19 31 21 33 27 35
REMARK H PARENT 8 19 25 27 23 29 19 32 21 34 27 36
REMARK Flexibility Score: inf
ROOT
ATOM      1  C   UNL     1     103.276  94.736  96.378  1.00  0.00     0.065 A 
ATOM      2  C   UNL     1     103.039  95.792  95.487  1.00  0.00     0.208 A 
ATOM      3  O   UNL     1     102.906  97.038  95.925  1.00  0.00    -0.463 OA
ATOM      4  C   UNL     1     102.987  97.370  97.212  1.00  0.00     0.147 A 
ATOM      5  C   UNL     1     103.237  96.368  98.179  1.00  0.00     0.066 A 
ATOM      6  C   UNL     1     103.386  95.038  97.749  1.00  0.00     0.200 A 
ATOM      7  O   UNL     1     103.636  94.123  98.582  1.00  0.00    -0.288 OA
ATOM      8  C   UNL     1     103.343  96.724  99.532  1.00  0.00     0.020 A 
ATOM      9  C   UNL     1     103.216  98.055  99.920  1.00  0.00     0.047 A 
ATOM     10  C   UNL     1     102.972  99.055  98.972  1.00  0.00     0.125 A 
ATOM     11  C   UNL     1     102.829  98.720  97.604  1.00  0.00     0.069 A 
ENDROOT
BRANCH   1  12
ATOM     12  C   UNL     1     103.413  93.350  95.865  1.00  0.00    -0.011 A 
ATOM     13  C   UNL     1     102.400  92.404  96.101  1.00  0.00     0.013 A 
ATOM     14  C   UNL     1     102.531  91.095  95.626  1.00  0.00     0.047 A 
ATOM     15  C   UNL     1     103.672  90.714  94.915  1.00  0.00     0.115 A 
ATOM     16  C   UNL     1     104.562  92.959  95.155  1.00  0.00     0.013 A 
ATOM     17  C   UNL     1     104.689  91.649  94.681  1.00  0.00     0.047 A 
BRANCH  15  18
ATOM     18  O   UNL     1     103.788  89.407  94.447  1.00  0.00    -0.508 OA
ATOM     19  H   UNL     1     103.006  88.926  94.018  1.00  0.00     0.293 HD
ENDBRANCH  15  18
ENDBRANCH   1  12
BRANCH  11  20
ATOM     20  C   UNL     1     102.587  99.791  96.546  1.00  0.00     0.188 C 
ATOM     21  C   UNL     1     103.928 100.391  96.065  1.00  0.00     0.179 C 
ATOM     22  O   UNL     1     101.729 100.802  97.055  1.00  0.00    -0.362 OA
ATOM     23  C   UNL     1     103.650 101.481  95.009  1.00  0.00     0.177 C 
ATOM     24  C   UNL     1     101.364 101.714  96.030  1.00  0.00     0.176 C 
ATOM     25  C   UNL     1     102.604 102.487  95.525  1.00  0.00     0.177 C 
BRANCH  21  26
ATOM     26  O   UNL     1     104.633 100.933  97.155  1.00  0.00    -0.387 OA
ATOM     27  H   UNL     1     104.089 101.683  97.508  1.00  0.00     0.211 HD
ENDBRANCH  21  26
BRANCH  23  28
ATOM     28  O   UNL     1     104.834 102.155  94.663  1.00  0.00    -0.387 OA
ATOM     29  H   UNL     1     105.574 101.500  94.759  1.00  0.00     0.211 HD
ENDBRANCH  23  28
BRANCH  24  30
ATOM     30  C   UNL     1     100.297 102.677  96.572  1.00  0.00     0.191 C 
BRANCH  30  31
ATOM     31  O   UNL     1      99.862 102.260  97.838  1.00  0.00    -0.394 OA
ATOM     32  H   UNL     1     100.670 101.981  98.341  1.00  0.00     0.210 HD
ENDBRANCH  30  31
ENDBRANCH  24  30
BRANCH  25  33
ATOM     33  O   UNL     1     103.140 103.263  96.567  1.00  0.00    -0.388 OA
ATOM     34  H   UNL     1     103.679 102.653  97.135  1.00  0.00     0.211 HD
ENDBRANCH  25  33
ENDBRANCH  11  20
BRANCH  10  35
ATOM     35  O   UNL     1     102.879 100.383  99.392  1.00  0.00    -0.507 OA
ATOM     36  H   UNL     1     102.021 100.762  99.776  1.00  0.00     0.293 HD
ENDBRANCH  10  35
TORSDOF 9
ENDMDL
