MODEL 1
REMARK VINA RESULT:    17.151      0.000      0.000
REMARK INTER + INTRA:          24.759
REMARK INTER:                  23.167
REMARK INTRA:                   1.592
REMARK UNBOUND:                 1.592
REMARK SMILES C=C1C(=O)O[C@@H]2[C@H]1CCC(C)=CCC[C@]1(C)O[C@@H]21
REMARK SMILES IDX 6 1 7 2 2 3 1 4 3 5 4 6 5 7 8 8 9 9 10 10 11 11 12 12 18 14
REMARK SMILES IDX 15 15 17 16 16 17 14 18 13 19
REMARK H PARENT
REMARK Flexibility Score: 70.00
ROOT
ATOM      1  C   UNL     1      10.425   9.792  17.089  1.00  0.00     0.216 C 
ATOM      2  C   UNL     1       9.772  11.145  17.553  1.00  0.00     0.070 C 
ATOM      3  C   UNL     1       8.332  10.791  17.776  1.00  0.00     0.037 C 
ATOM      4  C   UNL     1       7.346  11.626  18.106  1.00  0.00     0.021 C 
ATOM      5  C   UNL     1       8.249   9.351  17.761  1.00  0.00     0.334 C 
ATOM      6  O   UNL     1       7.219   8.673  18.017  1.00  0.00    -0.247 OA
ATOM      7  O   UNL     1       9.472   8.793  17.453  1.00  0.00    -0.455 OA
ENDROOT
BRANCH   2   8
ATOM      8  C   UNL     1      10.016  12.405  16.687  1.00  0.00     0.017 C 
BRANCH   8   9
ATOM      9  C   UNL     1      11.226  12.352  15.731  1.00  0.00     0.031 C 
BRANCH   9  10
ATOM     10  C   UNL     1      10.786  12.650  14.307  1.00  0.00    -0.077 C 
ATOM     11  C   UNL     1       9.638  13.608  14.110  1.00  0.00     0.039 C 
ATOM     12  C   UNL     1      11.404  12.170  13.200  1.00  0.00    -0.028 CG0
ATOM     13  G   UNL     1      12.536  11.170  13.167  1.00  0.00     0.000 G0
ENDBRANCH   9  10
ENDBRANCH   8   9
ENDBRANCH   2   8
BRANCH   1  14
ATOM     14  C   UNL     1      10.646   9.665  15.573  1.00  0.00     0.192 C 
ATOM     15  C   UNL     1      12.003   9.457  14.976  1.00  0.00     0.096 C 
ATOM     16  O   UNL     1      11.118   8.385  15.226  1.00  0.00    -0.362 OA
ATOM     17  C   UNL     1      13.286   9.261  15.794  1.00  0.00     0.045 C 
BRANCH  15  18
ATOM     18  C   UNL     1      12.155   9.713  13.464  1.00  0.00     0.042 C 
BRANCH  18  19
ATOM     19  C   UNL     1      12.550  11.160  13.121  1.00  0.00     0.030 CG0
ATOM     20  G   UNL     1      11.391  12.125  13.197  1.00  0.00     0.000 G0
ENDBRANCH  18  19
ENDBRANCH  15  18
ENDBRANCH   1  14
TORSDOF 0
ENDMDL
MODEL 2
REMARK VINA RESULT:    17.310      2.363      5.128
REMARK INTER + INTRA:          24.974
REMARK INTER:                  23.311
REMARK INTRA:                   1.664
REMARK UNBOUND:                 1.592
REMARK SMILES C=C1C(=O)O[C@@H]2[C@H]1CCC(C)=CCC[C@]1(C)O[C@@H]21
REMARK SMILES IDX 6 1 7 2 2 3 1 4 3 5 4 6 5 7 8 8 9 9 10 10 11 11 12 12 18 14
REMARK SMILES IDX 15 15 17 16 16 17 14 18 13 19
REMARK H PARENT
REMARK Flexibility Score: 70.00
ROOT
ATOM      1  C   UNL     1      11.746  10.570  13.236  1.00  0.00     0.216 C 
ATOM      2  C   UNL     1      11.748  12.105  12.897  1.00  0.00     0.070 C 
ATOM      3  C   UNL     1      13.187  12.406  12.602  1.00  0.00     0.037 C 
ATOM      4  C   UNL     1      13.714  13.601  12.333  1.00  0.00     0.021 C 
ATOM      5  C   UNL     1      13.860  11.137  12.468  1.00  0.00     0.334 C 
ATOM      6  O   UNL     1      15.059  10.977  12.118  1.00  0.00    -0.247 OA
ATOM      7  O   UNL     1      13.001  10.095  12.749  1.00  0.00    -0.455 OA
ENDROOT
BRANCH   2   8
ATOM      8  C   UNL     1      11.061  13.072  13.892  1.00  0.00     0.017 C 
BRANCH   8   9
ATOM      9  C   UNL     1      10.072  12.434  14.890  1.00  0.00     0.031 C 
BRANCH   9  10
ATOM     10  C   UNL     1      10.517  12.701  16.318  1.00  0.00    -0.077 C 
ATOM     11  C   UNL     1      11.248  13.990  16.599  1.00  0.00     0.039 C 
ATOM     12  C   UNL     1      10.237  11.893  17.369  1.00  0.00    -0.028 CG0
ATOM     13  G   UNL     1       9.560  10.544  17.309  1.00  0.00     0.000 G0
ENDBRANCH   9  10
ENDBRANCH   8   9
ENDBRANCH   2   8
BRANCH   1  14
ATOM     14  C   UNL     1      11.698  10.238  14.737  1.00  0.00     0.192 C 
ATOM     15  C   UNL     1      10.655   9.340  15.325  1.00  0.00     0.096 C 
ATOM     16  O   UNL     1      11.940   8.871  14.971  1.00  0.00    -0.362 OA
ATOM     17  C   UNL     1       9.595   8.592  14.505  1.00  0.00     0.045 C 
BRANCH  15  18
ATOM     18  C   UNL     1      10.477   9.373  16.856  1.00  0.00     0.042 C 
BRANCH  18  19
ATOM     19  C   UNL     1       9.555  10.504  17.344  1.00  0.00     0.030 CG0
ATOM     20  G   UNL     1      10.235  11.853  17.375  1.00  0.00     0.000 G0
ENDBRANCH  18  19
ENDBRANCH  15  18
ENDBRANCH   1  14
TORSDOF 0
ENDMDL
MODEL 3
REMARK VINA RESULT:    17.639      1.841      3.233
REMARK INTER + INTRA:          25.418
REMARK INTER:                  21.929
REMARK INTRA:                   3.489
REMARK UNBOUND:                 1.592
REMARK SMILES C=C1C(=O)O[C@@H]2[C@H]1CCC(C)=CCC[C@]1(C)O[C@@H]21
REMARK SMILES IDX 6 1 7 2 2 3 1 4 3 5 4 6 5 7 8 8 9 9 10 10 11 11 12 12 18 14
REMARK SMILES IDX 15 15 17 16 16 17 14 18 13 19
REMARK H PARENT
REMARK Flexibility Score: 70.00
ROOT
ATOM      1  C   UNL     1       9.425  11.333  15.482  1.00  0.00     0.216 C 
ATOM      2  C   UNL     1       9.681   9.822  15.832  1.00  0.00     0.070 C 
ATOM      3  C   UNL     1       9.373   9.735  17.297  1.00  0.00     0.037 C 
ATOM      4  C   UNL     1       9.515   8.666  18.082  1.00  0.00     0.021 C 
ATOM      5  C   UNL     1       8.710  10.965  17.657  1.00  0.00     0.334 C 
ATOM      6  O   UNL     1       8.204  11.222  18.781  1.00  0.00    -0.247 OA
ATOM      7  O   UNL     1       8.670  11.832  16.586  1.00  0.00    -0.455 OA
ENDROOT
BRANCH   2   8
ATOM      8  C   UNL     1      11.030   9.193  15.402  1.00  0.00     0.017 C 
BRANCH   8   9
ATOM      9  C   UNL     1      12.135  10.179  14.971  1.00  0.00     0.031 C 
BRANCH   9  10
ATOM     10  C   UNL     1      12.200  10.270  13.456  1.00  0.00    -0.077 C 
ATOM     11  C   UNL     1      11.594   9.145  12.656  1.00  0.00     0.039 C 
ATOM     12  C   UNL     1      12.700  11.330  12.775  1.00  0.00    -0.028 CG0
ATOM     13  G   UNL     1      13.389  12.536  13.371  1.00  0.00     0.000 G0
ENDBRANCH   9  10
ENDBRANCH   8   9
ENDBRANCH   2   8
BRANCH   1  14
ATOM     14  C   UNL     1      10.692  12.199  15.382  1.00  0.00     0.192 C 
ATOM     15  C   UNL     1      10.999  13.032  14.177  1.00  0.00     0.096 C 
ATOM     16  O   UNL     1      10.376  13.570  15.326  1.00  0.00    -0.362 OA
ATOM     17  C   UNL     1      10.063  13.186  12.971  1.00  0.00     0.045 C 
BRANCH  15  18
ATOM     18  C   UNL     1      12.441  13.555  14.029  1.00  0.00     0.042 C 
BRANCH  18  19
ATOM     19  C   UNL     1      13.397  12.546  13.369  1.00  0.00     0.030 CG0
ATOM     20  G   UNL     1      12.687  11.338  12.804  1.00  0.00     0.000 G0
ENDBRANCH  18  19
ENDBRANCH  15  18
ENDBRANCH   1  14
TORSDOF 0
ENDMDL
MODEL 4
REMARK VINA RESULT:    18.219      2.885      5.664
REMARK INTER + INTRA:          26.202
REMARK INTER:                  22.876
REMARK INTRA:                   3.326
REMARK UNBOUND:                 1.592
REMARK SMILES C=C1C(=O)O[C@@H]2[C@H]1CCC(C)=CCC[C@]1(C)O[C@@H]21
REMARK SMILES IDX 6 1 7 2 2 3 1 4 3 5 4 6 5 7 8 8 9 9 10 10 11 11 12 12 18 14
REMARK SMILES IDX 15 15 17 16 16 17 14 18 13 19
REMARK H PARENT
REMARK Flexibility Score: 70.00
ROOT
ATOM      1  C   UNL     1      12.364  11.800  14.658  1.00  0.00     0.216 C 
ATOM      2  C   UNL     1      12.809  10.425  14.039  1.00  0.00     0.070 C 
ATOM      3  C   UNL     1      12.936  10.716  12.573  1.00  0.00     0.037 C 
ATOM      4  C   UNL     1      13.218   9.841  11.607  1.00  0.00     0.021 C 
ATOM      5  C   UNL     1      12.890  12.150  12.426  1.00  0.00     0.334 C 
ATOM      6  O   UNL     1      13.069  12.784  11.353  1.00  0.00    -0.247 OA
ATOM      7  O   UNL     1      12.649  12.760  13.641  1.00  0.00    -0.455 OA
ENDROOT
BRANCH   2   8
ATOM      8  C   UNL     1      11.982   9.165  14.394  1.00  0.00     0.017 C 
BRANCH   8   9
ATOM      9  C   UNL     1      10.560   9.413  14.938  1.00  0.00     0.031 C 
BRANCH   9  10
ATOM     10  C   UNL     1      10.563   9.375  16.457  1.00  0.00    -0.077 C 
ATOM     11  C   UNL     1      11.625   8.551  17.140  1.00  0.00     0.039 C 
ATOM     12  C   UNL     1       9.720  10.091  17.241  1.00  0.00    -0.028 CG0
ATOM     13  G   UNL     1       8.562  10.941  16.772  1.00  0.00     0.000 G0
ENDBRANCH   9  10
ENDBRANCH   8   9
ENDBRANCH   2   8
BRANCH   1  14
ATOM     14  C   UNL     1      10.862  11.915  14.969  1.00  0.00     0.192 C 
ATOM     15  C   UNL     1      10.344  12.681  16.147  1.00  0.00     0.096 C 
ATOM     16  O   UNL     1      10.412  13.244  14.853  1.00  0.00    -0.362 OA
ATOM     17  C   UNL     1      11.225  13.494  17.104  1.00  0.00     0.045 C 
BRANCH  15  18
ATOM     18  C   UNL     1       8.884  12.425  16.568  1.00  0.00     0.042 C 
BRANCH  18  19
ATOM     19  C   UNL     1       8.554  10.937  16.774  1.00  0.00     0.030 CG0
ATOM     20  G   UNL     1       9.741  10.124  17.237  1.00  0.00     0.000 G0
ENDBRANCH  18  19
ENDBRANCH  15  18
ENDBRANCH   1  14
TORSDOF 0
ENDMDL
MODEL 5
REMARK VINA RESULT:    18.434      2.868      5.431
REMARK INTER + INTRA:          26.492
REMARK INTER:                  25.094
REMARK INTRA:                   1.398
REMARK UNBOUND:                 1.592
REMARK SMILES C=C1C(=O)O[C@@H]2[C@H]1CCC(C)=CCC[C@]1(C)O[C@@H]21
REMARK SMILES IDX 6 1 7 2 2 3 1 4 3 5 4 6 5 7 8 8 9 9 10 10 11 11 12 12 18 14
REMARK SMILES IDX 15 15 17 16 16 17 14 18 13 19
REMARK H PARENT
REMARK Flexibility Score: 70.00
ROOT
ATOM      1  C   UNL     1      11.034  13.075  14.926  1.00  0.00     0.216 C 
ATOM      2  C   UNL     1      12.074  12.268  14.066  1.00  0.00     0.070 C 
ATOM      3  C   UNL     1      11.578  12.426  12.660  1.00  0.00     0.037 C 
ATOM      4  C   UNL     1      12.083  11.855  11.566  1.00  0.00     0.021 C 
ATOM      5  C   UNL     1      10.575  13.463  12.685  1.00  0.00     0.334 C 
ATOM      6  O   UNL     1      10.000  13.951  11.677  1.00  0.00    -0.247 OA
ATOM      7  O   UNL     1      10.338  13.884  13.977  1.00  0.00    -0.455 OA
ENDROOT
BRANCH   2   8
ATOM      8  C   UNL     1      12.400  10.816  14.493  1.00  0.00     0.017 C 
BRANCH   8   9
ATOM      9  C   UNL     1      11.202   9.848  14.587  1.00  0.00     0.031 C 
BRANCH   9  10
ATOM     10  C   UNL     1      11.302   9.006  15.848  1.00  0.00    -0.077 C 
ATOM     11  C   UNL     1      12.545   8.174  16.043  1.00  0.00     0.039 C 
ATOM     12  C   UNL     1      10.383   9.009  16.844  1.00  0.00    -0.028 CG0
ATOM     13  G   UNL     1       9.054   9.728  16.837  1.00  0.00     0.000 G0
ENDBRANCH   9  10
ENDBRANCH   8   9
ENDBRANCH   2   8
BRANCH   1  14
ATOM     14  C   UNL     1       9.976  12.216  15.638  1.00  0.00     0.192 C 
ATOM     15  C   UNL     1       9.873  12.147  17.130  1.00  0.00     0.096 C 
ATOM     16  O   UNL     1       9.065  13.013  16.358  1.00  0.00    -0.362 OA
ATOM     17  C   UNL     1      10.731  12.976  18.095  1.00  0.00     0.045 C 
BRANCH  15  18
ATOM     18  C   UNL     1       9.042  10.995  17.727  1.00  0.00     0.042 C 
BRANCH  18  19
ATOM     19  C   UNL     1       9.045   9.722  16.863  1.00  0.00     0.030 CG0
ATOM     20  G   UNL     1      10.378   9.012  16.858  1.00  0.00     0.000 G0
ENDBRANCH  18  19
ENDBRANCH  15  18
ENDBRANCH   1  14
TORSDOF 0
ENDMDL
MODEL 6
REMARK VINA RESULT:    18.492      2.915      4.326
REMARK INTER + INTRA:          26.571
REMARK INTER:                  24.437
REMARK INTRA:                   2.134
REMARK UNBOUND:                 1.592
REMARK SMILES C=C1C(=O)O[C@@H]2[C@H]1CCC(C)=CCC[C@]1(C)O[C@@H]21
REMARK SMILES IDX 6 1 7 2 2 3 1 4 3 5 4 6 5 7 8 8 9 9 10 10 11 11 12 12 18 14
REMARK SMILES IDX 15 15 17 16 16 17 14 18 13 19
REMARK H PARENT
REMARK Flexibility Score: 70.00
ROOT
ATOM      1  C   UNL     1      10.863  12.768  14.570  1.00  0.00     0.216 C 
ATOM      2  C   UNL     1      10.009  12.848  15.888  1.00  0.00     0.070 C 
ATOM      3  C   UNL     1      10.786  13.786  16.763  1.00  0.00     0.037 C 
ATOM      4  C   UNL     1      10.508  14.118  18.024  1.00  0.00     0.021 C 
ATOM      5  C   UNL     1      11.778  14.414  15.924  1.00  0.00     0.334 C 
ATOM      6  O   UNL     1      12.555  15.340  16.275  1.00  0.00    -0.247 OA
ATOM      7  O   UNL     1      11.751  13.882  14.651  1.00  0.00    -0.455 OA
ENDROOT
BRANCH   2   8
ATOM      8  C   UNL     1       9.580  11.520  16.559  1.00  0.00     0.017 C 
BRANCH   8   9
ATOM      9  C   UNL     1       9.727  10.245  15.704  1.00  0.00     0.031 C 
BRANCH   9  10
ATOM     10  C   UNL     1      10.810   9.346  16.278  1.00  0.00    -0.077 C 
ATOM     11  C   UNL     1      11.024   9.367  17.771  1.00  0.00     0.039 C 
ATOM     12  C   UNL     1      11.546   8.474  15.547  1.00  0.00    -0.028 CG0
ATOM     13  G   UNL     1      11.526   8.322  14.044  1.00  0.00     0.000 G0
ENDBRANCH   9  10
ENDBRANCH   8   9
ENDBRANCH   2   8
BRANCH   1  14
ATOM     14  C   UNL     1      11.739  11.510  14.441  1.00  0.00     0.192 C 
ATOM     15  C   UNL     1      11.812  10.712  13.176  1.00  0.00     0.096 C 
ATOM     16  O   UNL     1      12.772  11.696  13.503  1.00  0.00    -0.362 OA
ATOM     17  C   UNL     1      11.110  11.099  11.868  1.00  0.00     0.045 C 
BRANCH  15  18
ATOM     18  C   UNL     1      12.412   9.296  13.269  1.00  0.00     0.042 C 
BRANCH  18  19
ATOM     19  C   UNL     1      11.527   8.302  14.042  1.00  0.00     0.030 CG0
ATOM     20  G   UNL     1      11.553   8.522  15.536  1.00  0.00     0.000 G0
ENDBRANCH  18  19
ENDBRANCH  15  18
ENDBRANCH   1  14
TORSDOF 0
ENDMDL
MODEL 7
REMARK VINA RESULT:    19.025      2.623      4.636
REMARK INTER + INTRA:          27.291
REMARK INTER:                  25.475
REMARK INTRA:                   1.816
REMARK UNBOUND:                 1.592
REMARK SMILES C=C1C(=O)O[C@@H]2[C@H]1CCC(C)=CCC[C@]1(C)O[C@@H]21
REMARK SMILES IDX 6 1 7 2 2 3 1 4 3 5 4 6 5 7 8 8 9 9 10 10 11 11 12 12 18 14
REMARK SMILES IDX 15 15 17 16 16 17 14 18 13 19
REMARK H PARENT
REMARK Flexibility Score: 70.00
ROOT
ATOM      1  C   UNL     1      10.575  12.823  15.304  1.00  0.00     0.216 C 
ATOM      2  C   UNL     1      11.352  13.009  13.950  1.00  0.00     0.070 C 
ATOM      3  C   UNL     1      10.304  13.505  12.999  1.00  0.00     0.037 C 
ATOM      4  C   UNL     1      10.454  13.740  11.695  1.00  0.00     0.021 C 
ATOM      5  C   UNL     1       9.157  13.869  13.795  1.00  0.00     0.334 C 
ATOM      6  O   UNL     1       8.112  14.425  13.365  1.00  0.00    -0.247 OA
ATOM      7  O   UNL     1       9.361  13.553  15.123  1.00  0.00    -0.455 OA
ENDROOT
BRANCH   2   8
ATOM      8  C   UNL     1      12.206  11.826  13.432  1.00  0.00     0.017 C 
BRANCH   8   9
ATOM      9  C   UNL     1      12.540  10.724  14.460  1.00  0.00     0.031 C 
BRANCH   9  10
ATOM     10  C   UNL     1      11.935   9.399  14.028  1.00  0.00    -0.077 C 
ATOM     11  C   UNL     1      11.800   9.134  12.550  1.00  0.00     0.039 C 
ATOM     12  C   UNL     1      11.576   8.409  14.882  1.00  0.00    -0.028 CG0
ATOM     13  G   UNL     1      11.586   8.477  16.391  1.00  0.00     0.000 G0
ENDBRANCH   9  10
ENDBRANCH   8   9
ENDBRANCH   2   8
BRANCH   1  14
ATOM     14  C   UNL     1      10.177  11.374  15.629  1.00  0.00     0.192 C 
ATOM     15  C   UNL     1      10.477  10.739  16.951  1.00  0.00     0.096 C 
ATOM     16  O   UNL     1       9.223  11.320  16.663  1.00  0.00    -0.362 OA
ATOM     17  C   UNL     1      11.119  11.471  18.137  1.00  0.00     0.045 C 
BRANCH  15  18
ATOM     18  C   UNL     1      10.373   9.203  17.036  1.00  0.00     0.042 C 
BRANCH  18  19
ATOM     19  C   UNL     1      11.581   8.469  16.428  1.00  0.00     0.030 CG0
ATOM     20  G   UNL     1      11.559   8.441  14.918  1.00  0.00     0.000 G0
ENDBRANCH  18  19
ENDBRANCH  15  18
ENDBRANCH   1  14
TORSDOF 0
ENDMDL
MODEL 8
REMARK VINA RESULT:    19.742      2.709      4.705
REMARK INTER + INTRA:          28.259
REMARK INTER:                  26.609
REMARK INTRA:                   1.650
REMARK UNBOUND:                 1.592
REMARK SMILES C=C1C(=O)O[C@@H]2[C@H]1CCC(C)=CCC[C@]1(C)O[C@@H]21
REMARK SMILES IDX 6 1 7 2 2 3 1 4 3 5 4 6 5 7 8 8 9 9 10 10 11 11 12 12 18 14
REMARK SMILES IDX 15 15 17 16 16 17 14 18 13 19
REMARK H PARENT
REMARK Flexibility Score: 70.00
ROOT
ATOM      1  C   UNL     1      11.259  11.071  13.972  1.00  0.00     0.216 C 
ATOM      2  C   UNL     1      10.330  12.247  14.444  1.00  0.00     0.070 C 
ATOM      3  C   UNL     1      11.259  13.420  14.548  1.00  0.00     0.037 C 
ATOM      4  C   UNL     1      10.957  14.642  14.988  1.00  0.00     0.021 C 
ATOM      5  C   UNL     1      12.489  13.036  13.899  1.00  0.00     0.334 C 
ATOM      6  O   UNL     1      13.475  13.792  13.691  1.00  0.00    -0.247 OA
ATOM      7  O   UNL     1      12.441  11.717  13.498  1.00  0.00    -0.455 OA
ENDROOT
BRANCH   2   8
ATOM      8  C   UNL     1       9.425  12.010  15.678  1.00  0.00     0.017 C 
BRANCH   8   9
ATOM      9  C   UNL     1      10.124  11.463  16.941  1.00  0.00     0.031 C 
BRANCH   9  10
ATOM     10  C   UNL     1       9.340  10.294  17.512  1.00  0.00    -0.077 C 
ATOM     11  C   UNL     1       7.871  10.497  17.788  1.00  0.00     0.039 C 
ATOM     12  C   UNL     1       9.856   9.058  17.723  1.00  0.00    -0.028 CG0
ATOM     13  G   UNL     1      11.301   8.649  17.558  1.00  0.00     0.000 G0
ENDBRANCH   9  10
ENDBRANCH   8   9
ENDBRANCH   2   8
BRANCH   1  14
ATOM     14  C   UNL     1      11.697  10.104  15.084  1.00  0.00     0.192 C 
ATOM     15  C   UNL     1      11.481   8.625  14.991  1.00  0.00     0.096 C 
ATOM     16  O   UNL     1      12.708   9.231  14.640  1.00  0.00    -0.362 OA
ATOM     17  C   UNL     1      10.894   7.913  13.765  1.00  0.00     0.045 C 
BRANCH  15  18
ATOM     18  C   UNL     1      11.613   7.810  16.292  1.00  0.00     0.042 C 
BRANCH  18  19
ATOM     19  C   UNL     1      11.320   8.625  17.563  1.00  0.00     0.030 CG0
ATOM     20  G   UNL     1       9.870   9.031  17.686  1.00  0.00     0.000 G0
ENDBRANCH  18  19
ENDBRANCH  15  18
ENDBRANCH   1  14
TORSDOF 0
ENDMDL
