MODEL 1
REMARK VINA RESULT:    -2.942      0.000      0.000
REMARK INTER + INTRA:          -3.291
REMARK INTER:                  -3.286
REMARK INTRA:                  -0.005
REMARK UNBOUND:                -0.005
REMARK SMILES CCCC(=O)[O-]
REMARK SMILES IDX 3 1 4 2 5 3 6 4 2 5 1 6
REMARK H PARENT
REMARK Flexibility Score: inf
ROOT
ATOM      1  C   UNL     1     -17.343 -16.571  -3.046  1.00  0.00     0.052 C 
ENDROOT
BRANCH   1   2
ATOM      2  C   UNL     1     -16.169 -15.687  -3.333  1.00  0.00     0.041 C 
ATOM      3  O   UNL     1     -16.349 -14.502  -3.720  1.00  0.00    -0.550 OA
ATOM      4  O   UNL     1     -14.877 -16.181  -3.207  1.00  0.00    -0.550 OA
ENDBRANCH   1   2
BRANCH   1   5
ATOM      5  C   UNL     1     -17.436 -17.736  -4.041  1.00  0.00     0.003 C 
ATOM      6  C   UNL     1     -18.623 -18.653  -3.753  1.00  0.00     0.004 C 
ENDBRANCH   1   5
TORSDOF 2
ENDMDL
MODEL 2
REMARK VINA RESULT:    -2.940      0.123      1.328
REMARK INTER + INTRA:          -3.290
REMARK INTER:                  -3.284
REMARK INTRA:                  -0.005
REMARK UNBOUND:                -0.005
REMARK SMILES CCCC(=O)[O-]
REMARK SMILES IDX 3 1 4 2 5 3 6 4 2 5 1 6
REMARK H PARENT
REMARK Flexibility Score: inf
ROOT
ATOM      1  C   UNL     1     -17.204 -16.696  -3.007  1.00  0.00     0.052 C 
ENDROOT
BRANCH   1   2
ATOM      2  C   UNL     1     -16.061 -15.796  -3.360  1.00  0.00     0.041 C 
ATOM      3  O   UNL     1     -14.876 -16.217  -3.282  1.00  0.00    -0.550 OA
ATOM      4  O   UNL     1     -16.300 -14.483  -3.744  1.00  0.00    -0.550 OA
ENDBRANCH   1   2
BRANCH   1   5
ATOM      5  C   UNL     1     -17.520 -17.686  -4.136  1.00  0.00     0.003 C 
ATOM      6  C   UNL     1     -18.655 -18.642  -3.771  1.00  0.00     0.004 C 
ENDBRANCH   1   5
TORSDOF 2
ENDMDL
MODEL 3
REMARK VINA RESULT:    -2.875      2.395      3.447
REMARK INTER + INTRA:          -3.217
REMARK INTER:                  -3.178
REMARK INTRA:                  -0.039
REMARK UNBOUND:                -0.005
REMARK SMILES CCCC(=O)[O-]
REMARK SMILES IDX 3 1 4 2 5 3 6 4 2 5 1 6
REMARK H PARENT
REMARK Flexibility Score: inf
ROOT
ATOM      1  C   UNL     1     -17.527 -16.710  -2.909  1.00  0.00     0.052 C 
ENDROOT
BRANCH   1   2
ATOM      2  C   UNL     1     -17.724 -17.961  -3.708  1.00  0.00     0.041 C 
ATOM      3  O   UNL     1     -17.015 -18.180  -4.727  1.00  0.00    -0.550 OA
ATOM      4  O   UNL     1     -18.711 -18.869  -3.349  1.00  0.00    -0.550 OA
ENDBRANCH   1   2
BRANCH   1   5
ATOM      5  C   UNL     1     -16.101 -16.161  -3.051  1.00  0.00     0.003 C 
ATOM      6  C   UNL     1     -16.065 -14.811  -3.765  1.00  0.00     0.004 C 
ENDBRANCH   1   5
TORSDOF 2
ENDMDL
MODEL 4
REMARK VINA RESULT:    -2.864      3.152      3.780
REMARK INTER + INTRA:          -3.205
REMARK INTER:                  -3.192
REMARK INTRA:                  -0.013
REMARK UNBOUND:                -0.005
REMARK SMILES CCCC(=O)[O-]
REMARK SMILES IDX 3 1 4 2 5 3 6 4 2 5 1 6
REMARK H PARENT
REMARK Flexibility Score: inf
ROOT
ATOM      1  C   UNL     1     -16.123 -14.817  -5.301  1.00  0.00     0.052 C 
ENDROOT
BRANCH   1   2
ATOM      2  C   UNL     1     -16.373 -13.464  -5.894  1.00  0.00     0.041 C 
ATOM      3  O   UNL     1     -15.747 -12.459  -5.464  1.00  0.00    -0.550 OA
ATOM      4  O   UNL     1     -17.320 -13.307  -6.896  1.00  0.00    -0.550 OA
ENDBRANCH   1   2
BRANCH   1   5
ATOM      5  C   UNL     1     -16.134 -14.777  -3.767  1.00  0.00     0.003 C 
ATOM      6  C   UNL     1     -15.336 -15.924  -3.150  1.00  0.00     0.004 C 
ENDBRANCH   1   5
TORSDOF 2
ENDMDL
MODEL 5
REMARK VINA RESULT:    -2.798      2.240      3.281
REMARK INTER + INTRA:          -3.131
REMARK INTER:                  -3.093
REMARK INTRA:                  -0.038
REMARK UNBOUND:                -0.005
REMARK SMILES CCCC(=O)[O-]
REMARK SMILES IDX 3 1 4 2 5 3 6 4 2 5 1 6
REMARK H PARENT
REMARK Flexibility Score: inf
ROOT
ATOM      1  C   UNL     1     -17.231 -16.578  -2.845  1.00  0.00     0.052 C 
ENDROOT
BRANCH   1   2
ATOM      2  C   UNL     1     -17.556 -17.712  -3.768  1.00  0.00     0.041 C 
ATOM      3  O   UNL     1     -18.612 -18.378  -3.606  1.00  0.00    -0.550 OA
ATOM      4  O   UNL     1     -16.677 -18.054  -4.787  1.00  0.00    -0.550 OA
ENDBRANCH   1   2
BRANCH   1   5
ATOM      5  C   UNL     1     -15.921 -15.881  -3.238  1.00  0.00     0.003 C 
ATOM      6  C   UNL     1     -16.160 -14.604  -4.041  1.00  0.00     0.004 C 
ENDBRANCH   1   5
TORSDOF 2
ENDMDL
MODEL 6
REMARK VINA RESULT:    -2.772     10.012     10.682
REMARK INTER + INTRA:          -3.102
REMARK INTER:                  -3.064
REMARK INTRA:                  -0.038
REMARK UNBOUND:                -0.005
REMARK SMILES CCCC(=O)[O-]
REMARK SMILES IDX 3 1 4 2 5 3 6 4 2 5 1 6
REMARK H PARENT
REMARK Flexibility Score: inf
ROOT
ATOM      1  C   UNL     1     -20.839 -10.067   4.147  1.00  0.00     0.052 C 
ENDROOT
BRANCH   1   2
ATOM      2  C   UNL     1     -20.190 -11.362   3.765  1.00  0.00     0.041 C 
ATOM      3  O   UNL     1     -18.996 -11.378   3.366  1.00  0.00    -0.550 OA
ATOM      4  O   UNL     1     -20.914 -12.546   3.818  1.00  0.00    -0.550 OA
ENDBRANCH   1   2
BRANCH   1   5
ATOM      5  C   UNL     1     -22.027 -10.283   5.095  1.00  0.00     0.003 C 
ATOM      6  C   UNL     1     -23.356  -9.875   4.463  1.00  0.00     0.004 C 
ENDBRANCH   1   5
TORSDOF 2
ENDMDL
MODEL 7
REMARK VINA RESULT:    -2.668     10.414     11.131
REMARK INTER + INTRA:          -2.985
REMARK INTER:                  -2.924
REMARK INTRA:                  -0.061
REMARK UNBOUND:                -0.005
REMARK SMILES CCCC(=O)[O-]
REMARK SMILES IDX 3 1 4 2 5 3 6 4 2 5 1 6
REMARK H PARENT
REMARK Flexibility Score: inf
ROOT
ATOM      1  C   UNL     1     -21.707 -10.338   4.202  1.00  0.00     0.052 C 
ENDROOT
BRANCH   1   2
ATOM      2  C   UNL     1     -22.020 -11.536   5.045  1.00  0.00     0.041 C 
ATOM      3  O   UNL     1     -22.637 -12.516   4.549  1.00  0.00    -0.550 OA
ATOM      4  O   UNL     1     -21.660 -11.557   6.386  1.00  0.00    -0.550 OA
ENDBRANCH   1   2
BRANCH   1   5
ATOM      5  C   UNL     1     -20.195 -10.108   4.079  1.00  0.00     0.003 C 
ATOM      6  C   UNL     1     -19.451 -11.362   3.624  1.00  0.00     0.004 C 
ENDBRANCH   1   5
TORSDOF 2
ENDMDL
MODEL 8
REMARK VINA RESULT:    -2.644      2.492      3.521
REMARK INTER + INTRA:          -2.959
REMARK INTER:                  -2.936
REMARK INTRA:                  -0.023
REMARK UNBOUND:                -0.005
REMARK SMILES CCCC(=O)[O-]
REMARK SMILES IDX 3 1 4 2 5 3 6 4 2 5 1 6
REMARK H PARENT
REMARK Flexibility Score: inf
ROOT
ATOM      1  C   UNL     1     -16.260 -14.144  -4.518  1.00  0.00     0.052 C 
ENDROOT
BRANCH   1   2
ATOM      2  C   UNL     1     -16.123 -15.540  -3.992  1.00  0.00     0.041 C 
ATOM      3  O   UNL     1     -16.937 -16.432  -4.348  1.00  0.00    -0.550 OA
ATOM      4  O   UNL     1     -15.118 -15.847  -3.085  1.00  0.00    -0.550 OA
ENDBRANCH   1   2
BRANCH   1   5
ATOM      5  C   UNL     1     -15.995 -14.075  -6.028  1.00  0.00     0.003 C 
ATOM      6  C   UNL     1     -17.054 -13.261  -6.768  1.00  0.00     0.004 C 
ENDBRANCH   1   5
TORSDOF 2
ENDMDL
MODEL 9
REMARK VINA RESULT:    -2.644      9.568     10.170
REMARK INTER + INTRA:          -2.958
REMARK INTER:                  -2.949
REMARK INTRA:                  -0.010
REMARK UNBOUND:                -0.005
REMARK SMILES CCCC(=O)[O-]
REMARK SMILES IDX 3 1 4 2 5 3 6 4 2 5 1 6
REMARK H PARENT
REMARK Flexibility Score: inf
ROOT
ATOM      1  C   UNL     1     -21.035 -12.330   3.962  1.00  0.00     0.052 C 
ENDROOT
BRANCH   1   2
ATOM      2  C   UNL     1     -20.141 -11.129   3.921  1.00  0.00     0.041 C 
ATOM      3  O   UNL     1     -18.932 -11.250   3.589  1.00  0.00    -0.550 OA
ATOM      4  O   UNL     1     -20.634  -9.881   4.280  1.00  0.00    -0.550 OA
ENDBRANCH   1   2
BRANCH   1   5
ATOM      5  C   UNL     1     -22.406 -11.999   4.567  1.00  0.00     0.003 C 
ATOM      6  C   UNL     1     -23.417 -13.127   4.367  1.00  0.00     0.004 C 
ENDBRANCH   1   5
TORSDOF 2
ENDMDL
