MODEL 1
REMARK VINA RESULT:    -5.399      0.000      0.000
REMARK INTER + INTRA:         -13.930
REMARK INTER:                 -11.711
REMARK INTRA:                  -2.219
REMARK UNBOUND:                -2.219
REMARK SMILES CCCCCCCCCCCCCCCCCCCCCC(=O)[O-]
REMARK SMILES IDX 12 1 11 2 10 3 9 4 8 5 7 6 6 7 5 8 4 9 3 10 2 11 1 12 13 13
REMARK SMILES IDX 14 14 15 15 16 16 17 17 18 18 19 19 20 20 21 21 22 22 23 23
REMARK SMILES IDX 24 24
REMARK H PARENT
REMARK Flexibility Score: inf
ROOT
ATOM      1  C   UNL     1      28.525 -10.690  17.086  1.00  0.00     0.000 C 
ENDROOT
BRANCH   1   2
ATOM      2  C   UNL     1      29.658 -11.424  16.355  1.00  0.00     0.000 C 
BRANCH   2   3
ATOM      3  C   UNL     1      30.783 -10.449  15.976  1.00  0.00     0.000 C 
BRANCH   3   4
ATOM      4  C   UNL     1      31.336  -9.663  17.179  1.00  0.00    -0.000 C 
BRANCH   4   5
ATOM      5  C   UNL     1      31.431  -8.138  16.984  1.00  0.00    -0.000 C 
BRANCH   5   6
ATOM      6  C   UNL     1      30.103  -7.411  17.252  1.00  0.00    -0.000 C 
BRANCH   6   7
ATOM      7  C   UNL     1      29.556  -6.698  16.003  1.00  0.00    -0.000 C 
BRANCH   7   8
ATOM      8  C   UNL     1      30.346  -7.015  14.714  1.00  0.00    -0.000 C 
BRANCH   8   9
ATOM      9  C   UNL     1      30.880  -5.745  14.028  1.00  0.00    -0.000 C 
BRANCH   9  10
ATOM     10  C   UNL     1      32.043  -5.103  14.803  1.00  0.00    -0.000 C 
BRANCH  10  11
ATOM     11  C   UNL     1      33.324  -5.950  14.753  1.00  0.00    -0.003 C 
ATOM     12  C   UNL     1      33.862  -6.049  13.327  1.00  0.00     0.004 C 
ENDBRANCH  10  11
ENDBRANCH   9  10
ENDBRANCH   8   9
ENDBRANCH   7   8
ENDBRANCH   6   7
ENDBRANCH   5   6
ENDBRANCH   4   5
ENDBRANCH   3   4
ENDBRANCH   2   3
ENDBRANCH   1   2
BRANCH   1  13
ATOM     13  C   UNL     1      27.540 -10.009  16.122  1.00  0.00     0.000 C 
BRANCH  13  14
ATOM     14  C   UNL     1      27.086 -10.941  14.983  1.00  0.00     0.000 C 
BRANCH  14  15
ATOM     15  C   UNL     1      25.558 -11.162  14.965  1.00  0.00     0.000 C 
BRANCH  15  16
ATOM     16  C   UNL     1      24.891 -11.049  16.348  1.00  0.00     0.000 C 
BRANCH  16  17
ATOM     17  C   UNL     1      23.919 -12.189  16.706  1.00  0.00     0.000 C 
BRANCH  17  18
ATOM     18  C   UNL     1      24.414 -13.151  17.801  1.00  0.00     0.000 C 
BRANCH  18  19
ATOM     19  C   UNL     1      23.362 -13.411  18.893  1.00  0.00     0.000 C 
BRANCH  19  20
ATOM     20  C   UNL     1      22.665 -12.124  19.363  1.00  0.00     0.006 C 
BRANCH  20  21
ATOM     21  C   UNL     1      22.620 -12.003  20.893  1.00  0.00     0.053 C 
BRANCH  21  22
ATOM     22  C   UNL     1      23.300 -10.748  21.344  1.00  0.00     0.041 C 
ATOM     23  O   UNL     1      23.199 -10.368  22.542  1.00  0.00    -0.550 OA
ATOM     24  O   UNL     1      24.046  -9.996  20.442  1.00  0.00    -0.550 OA
ENDBRANCH  21  22
ENDBRANCH  20  21
ENDBRANCH  19  20
ENDBRANCH  18  19
ENDBRANCH  17  18
ENDBRANCH  16  17
ENDBRANCH  15  16
ENDBRANCH  14  15
ENDBRANCH  13  14
ENDBRANCH   1  13
TORSDOF 20
ENDMDL
MODEL 2
REMARK VINA RESULT:    -5.370      2.048      8.773
REMARK INTER + INTRA:         -13.868
REMARK INTER:                 -11.720
REMARK INTRA:                  -2.149
REMARK UNBOUND:                -2.219
REMARK SMILES CCCCCCCCCCCCCCCCCCCCCC(=O)[O-]
REMARK SMILES IDX 12 1 11 2 10 3 9 4 8 5 7 6 6 7 5 8 4 9 3 10 2 11 1 12 13 13
REMARK SMILES IDX 14 14 15 15 16 16 17 17 18 18 19 19 20 20 21 21 22 22 23 23
REMARK SMILES IDX 24 24
REMARK H PARENT
REMARK Flexibility Score: inf
ROOT
ATOM      1  C   UNL     1      29.287 -10.036  15.481  1.00  0.00     0.000 C 
ENDROOT
BRANCH   1   2
ATOM      2  C   UNL     1      28.477 -11.257  15.940  1.00  0.00     0.000 C 
BRANCH   2   3
ATOM      3  C   UNL     1      27.827 -10.995  17.307  1.00  0.00     0.000 C 
BRANCH   3   4
ATOM      4  C   UNL     1      26.288 -11.051  17.268  1.00  0.00    -0.000 C 
BRANCH   4   5
ATOM      5  C   UNL     1      25.665 -11.098  15.861  1.00  0.00    -0.000 C 
BRANCH   5   6
ATOM      6  C   UNL     1      24.347 -11.887  15.810  1.00  0.00    -0.000 C 
BRANCH   6   7
ATOM      7  C   UNL     1      24.216 -12.897  16.962  1.00  0.00    -0.000 C 
BRANCH   7   8
ATOM      8  C   UNL     1      23.230 -12.453  18.066  1.00  0.00    -0.000 C 
BRANCH   8   9
ATOM      9  C   UNL     1      23.331 -13.330  19.326  1.00  0.00    -0.000 C 
BRANCH   9  10
ATOM     10  C   UNL     1      22.655 -12.686  20.547  1.00  0.00    -0.000 C 
BRANCH  10  11
ATOM     11  C   UNL     1      23.021 -11.203  20.711  1.00  0.00    -0.003 C 
ATOM     12  C   UNL     1      23.059 -10.805  22.184  1.00  0.00     0.004 C 
ENDBRANCH  10  11
ENDBRANCH   9  10
ENDBRANCH   8   9
ENDBRANCH   7   8
ENDBRANCH   6   7
ENDBRANCH   5   6
ENDBRANCH   4   5
ENDBRANCH   3   4
ENDBRANCH   2   3
ENDBRANCH   1   2
BRANCH   1  13
ATOM     13  C   UNL     1      30.804 -10.242  15.624  1.00  0.00     0.000 C 
BRANCH  13  14
ATOM     14  C   UNL     1      31.298 -10.020  17.066  1.00  0.00     0.000 C 
BRANCH  14  15
ATOM     15  C   UNL     1      32.528  -9.090  17.139  1.00  0.00     0.000 C 
BRANCH  15  16
ATOM     16  C   UNL     1      32.809  -8.317  15.838  1.00  0.00     0.000 C 
BRANCH  16  17
ATOM     17  C   UNL     1      33.035  -6.802  16.007  1.00  0.00     0.000 C 
BRANCH  17  18
ATOM     18  C   UNL     1      32.016  -5.905  15.282  1.00  0.00     0.000 C 
BRANCH  18  19
ATOM     19  C   UNL     1      30.782  -6.678  14.784  1.00  0.00     0.000 C 
BRANCH  19  20
ATOM     20  C   UNL     1      29.508  -6.331  15.571  1.00  0.00     0.006 C 
BRANCH  20  21
ATOM     21  C   UNL     1      29.631  -6.658  17.066  1.00  0.00     0.053 C 
BRANCH  21  22
ATOM     22  C   UNL     1      28.291  -6.610  17.730  1.00  0.00     0.041 C 
ATOM     23  O   UNL     1      27.854  -7.616  18.351  1.00  0.00    -0.550 OA
ATOM     24  O   UNL     1      27.520  -5.453  17.662  1.00  0.00    -0.550 OA
ENDBRANCH  21  22
ENDBRANCH  20  21
ENDBRANCH  19  20
ENDBRANCH  18  19
ENDBRANCH  17  18
ENDBRANCH  16  17
ENDBRANCH  15  16
ENDBRANCH  14  15
ENDBRANCH  13  14
ENDBRANCH   1  13
TORSDOF 20
ENDMDL
MODEL 3
REMARK VINA RESULT:    -5.339      1.436      2.600
REMARK INTER + INTRA:         -13.801
REMARK INTER:                 -11.961
REMARK INTRA:                  -1.839
REMARK UNBOUND:                -2.219
REMARK SMILES CCCCCCCCCCCCCCCCCCCCCC(=O)[O-]
REMARK SMILES IDX 12 1 11 2 10 3 9 4 8 5 7 6 6 7 5 8 4 9 3 10 2 11 1 12 13 13
REMARK SMILES IDX 14 14 15 15 16 16 17 17 18 18 19 19 20 20 21 21 22 22 23 23
REMARK SMILES IDX 24 24
REMARK H PARENT
REMARK Flexibility Score: inf
ROOT
ATOM      1  C   UNL     1      27.041 -10.494  17.101  1.00  0.00     0.000 C 
ENDROOT
BRANCH   1   2
ATOM      2  C   UNL     1      28.096  -9.613  17.785  1.00  0.00     0.000 C 
BRANCH   2   3
ATOM      3  C   UNL     1      28.176  -8.236  17.109  1.00  0.00     0.000 C 
BRANCH   3   4
ATOM      4  C   UNL     1      28.299  -7.074  18.111  1.00  0.00    -0.000 C 
BRANCH   4   5
ATOM      5  C   UNL     1      27.791  -5.711  17.607  1.00  0.00    -0.000 C 
BRANCH   5   6
ATOM      6  C   UNL     1      28.924  -4.715  17.310  1.00  0.00    -0.000 C 
BRANCH   6   7
ATOM      7  C   UNL     1      29.793  -5.146  16.116  1.00  0.00    -0.000 C 
BRANCH   7   8
ATOM      8  C   UNL     1      31.130  -5.801  16.528  1.00  0.00    -0.000 C 
BRANCH   8   9
ATOM      9  C   UNL     1      31.414  -7.092  15.740  1.00  0.00    -0.000 C 
BRANCH   9  10
ATOM     10  C   UNL     1      31.835  -8.257  16.652  1.00  0.00    -0.000 C 
BRANCH  10  11
ATOM     11  C   UNL     1      32.000  -9.577  15.885  1.00  0.00    -0.003 C 
ATOM     12  C   UNL     1      30.943 -10.594  16.308  1.00  0.00     0.004 C 
ENDBRANCH  10  11
ENDBRANCH   9  10
ENDBRANCH   8   9
ENDBRANCH   7   8
ENDBRANCH   6   7
ENDBRANCH   5   6
ENDBRANCH   4   5
ENDBRANCH   3   4
ENDBRANCH   2   3
ENDBRANCH   1   2
BRANCH   1  13
ATOM     13  C   UNL     1      27.237 -10.582  15.579  1.00  0.00     0.000 C 
BRANCH  13  14
ATOM     14  C   UNL     1      25.984 -11.099  14.849  1.00  0.00     0.000 C 
BRANCH  14  15
ATOM     15  C   UNL     1      24.713 -11.036  15.724  1.00  0.00     0.000 C 
BRANCH  15  16
ATOM     16  C   UNL     1      23.964 -12.376  15.841  1.00  0.00     0.000 C 
BRANCH  16  17
ATOM     17  C   UNL     1      24.081 -13.080  17.207  1.00  0.00     0.000 C 
BRANCH  17  18
ATOM     18  C   UNL     1      23.152 -12.533  18.305  1.00  0.00     0.000 C 
BRANCH  18  19
ATOM     19  C   UNL     1      23.065 -13.456  19.533  1.00  0.00     0.000 C 
BRANCH  19  20
ATOM     20  C   UNL     1      22.657 -12.705  20.811  1.00  0.00     0.006 C 
BRANCH  20  21
ATOM     21  C   UNL     1      22.470 -11.199  20.575  1.00  0.00     0.053 C 
BRANCH  21  22
ATOM     22  C   UNL     1      23.507 -10.416  21.318  1.00  0.00     0.041 C 
ATOM     23  O   UNL     1      23.447 -10.315  22.573  1.00  0.00    -0.550 OA
ATOM     24  O   UNL     1      24.540  -9.794  20.625  1.00  0.00    -0.550 OA
ENDBRANCH  21  22
ENDBRANCH  20  21
ENDBRANCH  19  20
ENDBRANCH  18  19
ENDBRANCH  17  18
ENDBRANCH  16  17
ENDBRANCH  15  16
ENDBRANCH  14  15
ENDBRANCH  13  14
ENDBRANCH   1  13
TORSDOF 20
ENDMDL
MODEL 4
REMARK VINA RESULT:    -5.295      1.331      3.034
REMARK INTER + INTRA:         -13.704
REMARK INTER:                 -11.498
REMARK INTRA:                  -2.206
REMARK UNBOUND:                -2.219
REMARK SMILES CCCCCCCCCCCCCCCCCCCCCC(=O)[O-]
REMARK SMILES IDX 12 1 11 2 10 3 9 4 8 5 7 6 6 7 5 8 4 9 3 10 2 11 1 12 13 13
REMARK SMILES IDX 14 14 15 15 16 16 17 17 18 18 19 19 20 20 21 21 22 22 23 23
REMARK SMILES IDX 24 24
REMARK H PARENT
REMARK Flexibility Score: inf
ROOT
ATOM      1  C   UNL     1      29.724 -11.526  16.446  1.00  0.00     0.000 C 
ENDROOT
BRANCH   1   2
ATOM      2  C   UNL     1      30.585 -10.488  15.712  1.00  0.00     0.000 C 
BRANCH   2   3
ATOM      3  C   UNL     1      31.592  -9.839  16.673  1.00  0.00     0.000 C 
BRANCH   3   4
ATOM      4  C   UNL     1      32.746  -9.121  15.948  1.00  0.00    -0.000 C 
BRANCH   4   5
ATOM      5  C   UNL     1      32.865  -7.612  16.230  1.00  0.00    -0.000 C 
BRANCH   5   6
ATOM      6  C   UNL     1      31.504  -6.914  16.374  1.00  0.00    -0.000 C 
BRANCH   6   7
ATOM      7  C   UNL     1      30.765  -6.773  15.032  1.00  0.00    -0.000 C 
BRANCH   7   8
ATOM      8  C   UNL     1      29.231  -6.908  15.152  1.00  0.00    -0.000 C 
BRANCH   8   9
ATOM      9  C   UNL     1      28.750  -6.822  16.612  1.00  0.00    -0.000 C 
BRANCH   9  10
ATOM     10  C   UNL     1      28.225  -8.169  17.138  1.00  0.00    -0.000 C 
BRANCH  10  11
ATOM     11  C   UNL     1      27.540  -8.040  18.507  1.00  0.00    -0.003 C 
ATOM     12  C   UNL     1      27.073  -9.402  19.017  1.00  0.00     0.004 C 
ENDBRANCH  10  11
ENDBRANCH   9  10
ENDBRANCH   8   9
ENDBRANCH   7   8
ENDBRANCH   6   7
ENDBRANCH   5   6
ENDBRANCH   4   5
ENDBRANCH   3   4
ENDBRANCH   2   3
ENDBRANCH   1   2
BRANCH   1  13
ATOM     13  C   UNL     1      28.218 -11.258  16.301  1.00  0.00     0.000 C 
BRANCH  13  14
ATOM     14  C   UNL     1      27.787 -11.073  14.833  1.00  0.00     0.000 C 
BRANCH  14  15
ATOM     15  C   UNL     1      26.278 -10.787  14.685  1.00  0.00     0.000 C 
BRANCH  15  16
ATOM     16  C   UNL     1      25.445 -11.144  15.930  1.00  0.00     0.000 C 
BRANCH  16  17
ATOM     17  C   UNL     1      24.400 -12.258  15.726  1.00  0.00     0.000 C 
BRANCH  17  18
ATOM     18  C   UNL     1      23.416 -12.451  16.894  1.00  0.00     0.000 C 
BRANCH  18  19
ATOM     19  C   UNL     1      24.087 -13.014  18.159  1.00  0.00     0.000 C 
BRANCH  19  20
ATOM     20  C   UNL     1      23.261 -12.760  19.431  1.00  0.00     0.006 C 
BRANCH  20  21
ATOM     21  C   UNL     1      23.141 -11.267  19.767  1.00  0.00     0.053 C 
BRANCH  21  22
ATOM     22  C   UNL     1      22.927 -11.072  21.236  1.00  0.00     0.041 C 
ATOM     23  O   UNL     1      21.950 -11.620  21.812  1.00  0.00    -0.550 OA
ATOM     24  O   UNL     1      23.807 -10.282  21.969  1.00  0.00    -0.550 OA
ENDBRANCH  21  22
ENDBRANCH  20  21
ENDBRANCH  19  20
ENDBRANCH  18  19
ENDBRANCH  17  18
ENDBRANCH  16  17
ENDBRANCH  15  16
ENDBRANCH  14  15
ENDBRANCH  13  14
ENDBRANCH   1  13
TORSDOF 20
ENDMDL
MODEL 5
REMARK VINA RESULT:    -5.233      4.260     10.110
REMARK INTER + INTRA:         -13.570
REMARK INTER:                 -11.787
REMARK INTRA:                  -1.782
REMARK UNBOUND:                -2.219
REMARK SMILES CCCCCCCCCCCCCCCCCCCCCC(=O)[O-]
REMARK SMILES IDX 12 1 11 2 10 3 9 4 8 5 7 6 6 7 5 8 4 9 3 10 2 11 1 12 13 13
REMARK SMILES IDX 14 14 15 15 16 16 17 17 18 18 19 19 20 20 21 21 22 22 23 23
REMARK SMILES IDX 24 24
REMARK H PARENT
REMARK Flexibility Score: inf
ROOT
ATOM      1  C   UNL     1      27.298  -9.507  18.242  1.00  0.00     0.000 C 
ENDROOT
BRANCH   1   2
ATOM      2  C   UNL     1      27.282 -10.923  17.651  1.00  0.00     0.000 C 
BRANCH   2   3
ATOM      3  C   UNL     1      27.775 -10.911  16.196  1.00  0.00     0.000 C 
BRANCH   3   4
ATOM      4  C   UNL     1      26.629 -10.898  15.167  1.00  0.00    -0.000 C 
BRANCH   4   5
ATOM      5  C   UNL     1      25.209 -10.916  15.760  1.00  0.00    -0.000 C 
BRANCH   5   6
ATOM      6  C   UNL     1      24.477 -12.249  15.537  1.00  0.00    -0.000 C 
BRANCH   6   7
ATOM      7  C   UNL     1      23.344 -12.479  16.551  1.00  0.00    -0.000 C 
BRANCH   7   8
ATOM      8  C   UNL     1      23.844 -12.787  17.980  1.00  0.00    -0.000 C 
BRANCH   8   9
ATOM      9  C   UNL     1      22.757 -12.550  19.043  1.00  0.00    -0.000 C 
BRANCH   9  10
ATOM     10  C   UNL     1      23.126 -11.422  20.020  1.00  0.00    -0.000 C 
BRANCH  10  11
ATOM     11  C   UNL     1      22.682 -11.719  21.461  1.00  0.00    -0.003 C 
ATOM     12  C   UNL     1      23.047 -10.569  22.396  1.00  0.00     0.004 C 
ENDBRANCH  10  11
ENDBRANCH   9  10
ENDBRANCH   8   9
ENDBRANCH   7   8
ENDBRANCH   6   7
ENDBRANCH   5   6
ENDBRANCH   4   5
ENDBRANCH   3   4
ENDBRANCH   2   3
ENDBRANCH   1   2
BRANCH   1  13
ATOM     13  C   UNL     1      28.526  -8.693  17.802  1.00  0.00     0.000 C 
BRANCH  13  14
ATOM     14  C   UNL     1      28.158  -7.271  17.336  1.00  0.00     0.000 C 
BRANCH  14  15
ATOM     15  C   UNL     1      28.549  -7.004  15.867  1.00  0.00     0.000 C 
BRANCH  15  16
ATOM     16  C   UNL     1      29.744  -7.839  15.373  1.00  0.00     0.000 C 
BRANCH  16  17
ATOM     17  C   UNL     1      31.011  -7.035  15.023  1.00  0.00     0.000 C 
BRANCH  17  18
ATOM     18  C   UNL     1      32.331  -7.639  15.535  1.00  0.00     0.000 C 
BRANCH  18  19
ATOM     19  C   UNL     1      33.395  -6.574  15.852  1.00  0.00     0.000 C 
BRANCH  19  20
ATOM     20  C   UNL     1      34.459  -6.453  14.748  1.00  0.00     0.006 C 
BRANCH  20  21
ATOM     21  C   UNL     1      34.433  -5.084  14.053  1.00  0.00     0.053 C 
BRANCH  21  22
ATOM     22  C   UNL     1      33.370  -5.046  13.000  1.00  0.00     0.041 C 
ATOM     23  O   UNL     1      33.214  -6.025  12.221  1.00  0.00    -0.550 OA
ATOM     24  O   UNL     1      32.552  -3.928  12.875  1.00  0.00    -0.550 OA
ENDBRANCH  21  22
ENDBRANCH  20  21
ENDBRANCH  19  20
ENDBRANCH  18  19
ENDBRANCH  17  18
ENDBRANCH  16  17
ENDBRANCH  15  16
ENDBRANCH  14  15
ENDBRANCH  13  14
ENDBRANCH   1  13
TORSDOF 20
ENDMDL
MODEL 6
REMARK VINA RESULT:    -5.140      1.191      2.774
REMARK INTER + INTRA:         -13.368
REMARK INTER:                 -10.626
REMARK INTRA:                  -2.742
REMARK UNBOUND:                -2.219
REMARK SMILES CCCCCCCCCCCCCCCCCCCCCC(=O)[O-]
REMARK SMILES IDX 12 1 11 2 10 3 9 4 8 5 7 6 6 7 5 8 4 9 3 10 2 11 1 12 13 13
REMARK SMILES IDX 14 14 15 15 16 16 17 17 18 18 19 19 20 20 21 21 22 22 23 23
REMARK SMILES IDX 24 24
REMARK H PARENT
REMARK Flexibility Score: inf
ROOT
ATOM      1  C   UNL     1      30.730 -10.363  15.791  1.00  0.00     0.000 C 
ENDROOT
BRANCH   1   2
ATOM      2  C   UNL     1      31.074  -9.988  17.239  1.00  0.00     0.000 C 
BRANCH   2   3
ATOM      3  C   UNL     1      32.299  -9.062  17.285  1.00  0.00     0.000 C 
BRANCH   3   4
ATOM      4  C   UNL     1      33.134  -9.095  15.992  1.00  0.00    -0.000 C 
BRANCH   4   5
ATOM      5  C   UNL     1      33.384  -7.727  15.332  1.00  0.00    -0.000 C 
BRANCH   5   6
ATOM      6  C   UNL     1      32.699  -6.566  16.070  1.00  0.00    -0.000 C 
BRANCH   6   7
ATOM      7  C   UNL     1      31.546  -5.948  15.260  1.00  0.00    -0.000 C 
BRANCH   7   8
ATOM      8  C   UNL     1      30.517  -6.984  14.758  1.00  0.00    -0.000 C 
BRANCH   8   9
ATOM      9  C   UNL     1      29.142  -6.814  15.428  1.00  0.00    -0.000 C 
BRANCH   9  10
ATOM     10  C   UNL     1      29.214  -5.974  16.715  1.00  0.00    -0.000 C 
BRANCH  10  11
ATOM     11  C   UNL     1      29.275  -6.840  17.982  1.00  0.00    -0.003 C 
ATOM     12  C   UNL     1      27.994  -7.653  18.154  1.00  0.00     0.004 C 
ENDBRANCH  10  11
ENDBRANCH   9  10
ENDBRANCH   8   9
ENDBRANCH   7   8
ENDBRANCH   6   7
ENDBRANCH   5   6
ENDBRANCH   4   5
ENDBRANCH   3   4
ENDBRANCH   2   3
ENDBRANCH   1   2
BRANCH   1  13
ATOM     13  C   UNL     1      29.459 -11.222  15.686  1.00  0.00     0.000 C 
BRANCH  13  14
ATOM     14  C   UNL     1      28.172 -10.405  15.906  1.00  0.00     0.000 C 
BRANCH  14  15
ATOM     15  C   UNL     1      27.187 -11.091  16.877  1.00  0.00     0.000 C 
BRANCH  15  16
ATOM     16  C   UNL     1      25.709 -10.744  16.622  1.00  0.00     0.000 C 
BRANCH  16  17
ATOM     17  C   UNL     1      24.914 -11.795  15.824  1.00  0.00     0.000 C 
BRANCH  17  18
ATOM     18  C   UNL     1      23.692 -12.382  16.554  1.00  0.00     0.000 C 
BRANCH  18  19
ATOM     19  C   UNL     1      24.071 -13.170  17.820  1.00  0.00     0.000 C 
BRANCH  19  20
ATOM     20  C   UNL     1      23.174 -12.828  19.022  1.00  0.00     0.006 C 
BRANCH  20  21
ATOM     21  C   UNL     1      23.231 -11.340  19.394  1.00  0.00     0.053 C 
BRANCH  21  22
ATOM     22  C   UNL     1      23.178 -11.165  20.880  1.00  0.00     0.041 C 
ATOM     23  O   UNL     1      23.653 -10.127  21.413  1.00  0.00    -0.550 OA
ATOM     24  O   UNL     1      22.603 -12.149  21.678  1.00  0.00    -0.550 OA
ENDBRANCH  21  22
ENDBRANCH  20  21
ENDBRANCH  19  20
ENDBRANCH  18  19
ENDBRANCH  17  18
ENDBRANCH  16  17
ENDBRANCH  15  16
ENDBRANCH  14  15
ENDBRANCH  13  14
ENDBRANCH   1  13
TORSDOF 20
ENDMDL
MODEL 7
REMARK VINA RESULT:    -5.116      2.867      9.043
REMARK INTER + INTRA:         -13.316
REMARK INTER:                 -10.868
REMARK INTRA:                  -2.447
REMARK UNBOUND:                -2.219
REMARK SMILES CCCCCCCCCCCCCCCCCCCCCC(=O)[O-]
REMARK SMILES IDX 12 1 11 2 10 3 9 4 8 5 7 6 6 7 5 8 4 9 3 10 2 11 1 12 13 13
REMARK SMILES IDX 14 14 15 15 16 16 17 17 18 18 19 19 20 20 21 21 22 22 23 23
REMARK SMILES IDX 24 24
REMARK H PARENT
REMARK Flexibility Score: inf
ROOT
ATOM      1  C   UNL     1      29.543 -10.086  16.854  1.00  0.00     0.000 C 
ENDROOT
BRANCH   1   2
ATOM      2  C   UNL     1      29.322  -8.925  17.833  1.00  0.00     0.000 C 
BRANCH   2   3
ATOM      3  C   UNL     1      27.832  -8.563  17.920  1.00  0.00     0.000 C 
BRANCH   3   4
ATOM      4  C   UNL     1      27.012  -9.565  18.754  1.00  0.00    -0.000 C 
BRANCH   4   5
ATOM      5  C   UNL     1      25.730 -10.091  18.081  1.00  0.00    -0.000 C 
BRANCH   5   6
ATOM      6  C   UNL     1      25.997 -11.209  17.062  1.00  0.00    -0.000 C 
BRANCH   6   7
ATOM      7  C   UNL     1      24.984 -11.210  15.905  1.00  0.00    -0.000 C 
BRANCH   7   8
ATOM      8  C   UNL     1      24.022 -12.419  15.926  1.00  0.00    -0.000 C 
BRANCH   8   9
ATOM      9  C   UNL     1      23.820 -12.980  17.344  1.00  0.00    -0.000 C 
BRANCH   9  10
ATOM     10  C   UNL     1      22.663 -12.294  18.089  1.00  0.00    -0.000 C 
BRANCH  10  11
ATOM     11  C   UNL     1      22.798 -12.399  19.616  1.00  0.00    -0.003 C 
ATOM     12  C   UNL     1      22.635 -13.843  20.084  1.00  0.00     0.004 C 
ENDBRANCH  10  11
ENDBRANCH   9  10
ENDBRANCH   8   9
ENDBRANCH   7   8
ENDBRANCH   6   7
ENDBRANCH   5   6
ENDBRANCH   4   5
ENDBRANCH   3   4
ENDBRANCH   2   3
ENDBRANCH   1   2
BRANCH   1  13
ATOM     13  C   UNL     1      31.032 -10.354  16.578  1.00  0.00     0.000 C 
BRANCH  13  14
ATOM     14  C   UNL     1      31.950  -9.277  17.185  1.00  0.00     0.000 C 
BRANCH  14  15
ATOM     15  C   UNL     1      33.354  -9.257  16.541  1.00  0.00     0.000 C 
BRANCH  15  16
ATOM     16  C   UNL     1      33.609  -8.042  15.630  1.00  0.00     0.000 C 
BRANCH  16  17
ATOM     17  C   UNL     1      32.730  -6.809  15.913  1.00  0.00     0.000 C 
BRANCH  17  18
ATOM     18  C   UNL     1      32.519  -5.868  14.714  1.00  0.00     0.000 C 
BRANCH  18  19
ATOM     19  C   UNL     1      31.178  -6.100  13.997  1.00  0.00     0.000 C 
BRANCH  19  20
ATOM     20  C   UNL     1      30.194  -6.933  14.835  1.00  0.00     0.006 C 
BRANCH  20  21
ATOM     21  C   UNL     1      28.927  -6.149  15.206  1.00  0.00     0.053 C 
BRANCH  21  22
ATOM     22  C   UNL     1      29.253  -5.032  16.147  1.00  0.00     0.041 C 
ATOM     23  O   UNL     1      29.071  -3.835  15.796  1.00  0.00    -0.550 OA
ATOM     24  O   UNL     1      29.760  -5.311  17.412  1.00  0.00    -0.550 OA
ENDBRANCH  21  22
ENDBRANCH  20  21
ENDBRANCH  19  20
ENDBRANCH  18  19
ENDBRANCH  17  18
ENDBRANCH  16  17
ENDBRANCH  15  16
ENDBRANCH  14  15
ENDBRANCH  13  14
ENDBRANCH   1  13
TORSDOF 20
ENDMDL
MODEL 8
REMARK VINA RESULT:    -5.109      2.886      3.838
REMARK INTER + INTRA:         -13.301
REMARK INTER:                 -12.034
REMARK INTRA:                  -1.267
REMARK UNBOUND:                -2.219
REMARK SMILES CCCCCCCCCCCCCCCCCCCCCC(=O)[O-]
REMARK SMILES IDX 12 1 11 2 10 3 9 4 8 5 7 6 6 7 5 8 4 9 3 10 2 11 1 12 13 13
REMARK SMILES IDX 14 14 15 15 16 16 17 17 18 18 19 19 20 20 21 21 22 22 23 23
REMARK SMILES IDX 24 24
REMARK H PARENT
REMARK Flexibility Score: inf
ROOT
ATOM      1  C   UNL     1      27.755 -10.016  17.771  1.00  0.00     0.000 C 
ENDROOT
BRANCH   1   2
ATOM      2  C   UNL     1      28.658  -9.186  16.847  1.00  0.00     0.000 C 
BRANCH   2   3
ATOM      3  C   UNL     1      29.703  -8.410  17.662  1.00  0.00     0.000 C 
BRANCH   3   4
ATOM      4  C   UNL     1      29.336  -6.929  17.867  1.00  0.00    -0.000 C 
BRANCH   4   5
ATOM      5  C   UNL     1      28.338  -6.349  16.848  1.00  0.00    -0.000 C 
BRANCH   5   6
ATOM      6  C   UNL     1      27.992  -4.875  17.112  1.00  0.00    -0.000 C 
BRANCH   6   7
ATOM      7  C   UNL     1      26.930  -4.333  16.140  1.00  0.00    -0.000 C 
BRANCH   7   8
ATOM      8  C   UNL     1      27.205  -4.688  14.662  1.00  0.00    -0.000 C 
BRANCH   8   9
ATOM      9  C   UNL     1      27.022  -3.480  13.727  1.00  0.00    -0.000 C 
BRANCH   9  10
ATOM     10  C   UNL     1      25.781  -3.614  12.829  1.00  0.00    -0.000 C 
BRANCH  10  11
ATOM     11  C   UNL     1      24.783  -2.462  13.025  1.00  0.00    -0.003 C 
ATOM     12  C   UNL     1      23.663  -2.863  13.982  1.00  0.00     0.004 C 
ENDBRANCH  10  11
ENDBRANCH   9  10
ENDBRANCH   8   9
ENDBRANCH   7   8
ENDBRANCH   6   7
ENDBRANCH   5   6
ENDBRANCH   4   5
ENDBRANCH   3   4
ENDBRANCH   2   3
ENDBRANCH   1   2
BRANCH   1  13
ATOM     13  C   UNL     1      27.112 -11.214  17.053  1.00  0.00     0.000 C 
BRANCH  13  14
ATOM     14  C   UNL     1      27.130 -11.065  15.520  1.00  0.00     0.000 C 
BRANCH  14  15
ATOM     15  C   UNL     1      25.715 -11.071  14.902  1.00  0.00     0.000 C 
BRANCH  15  16
ATOM     16  C   UNL     1      24.578 -11.142  15.937  1.00  0.00     0.000 C 
BRANCH  16  17
ATOM     17  C   UNL     1      23.990 -12.546  16.174  1.00  0.00     0.000 C 
BRANCH  17  18
ATOM     18  C   UNL     1      24.042 -13.039  17.631  1.00  0.00     0.000 C 
BRANCH  18  19
ATOM     19  C   UNL     1      22.838 -12.571  18.467  1.00  0.00     0.000 C 
BRANCH  19  20
ATOM     20  C   UNL     1      23.028 -12.823  19.972  1.00  0.00     0.006 C 
BRANCH  20  21
ATOM     21  C   UNL     1      22.324 -11.770  20.839  1.00  0.00     0.053 C 
BRANCH  21  22
ATOM     22  C   UNL     1      23.292 -10.717  21.282  1.00  0.00     0.041 C 
ATOM     23  O   UNL     1      23.415 -10.445  22.506  1.00  0.00    -0.550 OA
ATOM     24  O   UNL     1      24.056 -10.033  20.342  1.00  0.00    -0.550 OA
ENDBRANCH  21  22
ENDBRANCH  20  21
ENDBRANCH  19  20
ENDBRANCH  18  19
ENDBRANCH  17  18
ENDBRANCH  16  17
ENDBRANCH  15  16
ENDBRANCH  14  15
ENDBRANCH  13  14
ENDBRANCH   1  13
TORSDOF 20
ENDMDL
MODEL 9
REMARK VINA RESULT:    -5.085      3.531      9.931
REMARK INTER + INTRA:         -13.250
REMARK INTER:                 -11.473
REMARK INTRA:                  -1.777
REMARK UNBOUND:                -2.219
REMARK SMILES CCCCCCCCCCCCCCCCCCCCCC(=O)[O-]
REMARK SMILES IDX 12 1 11 2 10 3 9 4 8 5 7 6 6 7 5 8 4 9 3 10 2 11 1 12 13 13
REMARK SMILES IDX 14 14 15 15 16 16 17 17 18 18 19 19 20 20 21 21 22 22 23 23
REMARK SMILES IDX 24 24
REMARK H PARENT
REMARK Flexibility Score: inf
ROOT
ATOM      1  C   UNL     1      27.784  -8.439  18.336  1.00  0.00     0.000 C 
ENDROOT
BRANCH   1   2
ATOM      2  C   UNL     1      27.245  -9.841  18.655  1.00  0.00     0.000 C 
BRANCH   2   3
ATOM      3  C   UNL     1      25.929 -10.102  17.909  1.00  0.00     0.000 C 
BRANCH   3   4
ATOM      4  C   UNL     1      26.112 -10.933  16.626  1.00  0.00    -0.000 C 
BRANCH   4   5
ATOM      5  C   UNL     1      24.826 -11.203  15.824  1.00  0.00    -0.000 C 
BRANCH   5   6
ATOM      6  C   UNL     1      24.187 -12.563  16.145  1.00  0.00    -0.000 C 
BRANCH   6   7
ATOM      7  C   UNL     1      22.986 -12.442  17.098  1.00  0.00    -0.000 C 
BRANCH   7   8
ATOM      8  C   UNL     1      23.349 -12.667  18.583  1.00  0.00    -0.000 C 
BRANCH   8   9
ATOM      9  C   UNL     1      22.395 -11.926  19.536  1.00  0.00    -0.000 C 
BRANCH   9  10
ATOM     10  C   UNL     1      22.636 -12.290  21.011  1.00  0.00    -0.000 C 
BRANCH  10  11
ATOM     11  C   UNL     1      23.047 -11.077  21.859  1.00  0.00    -0.003 C 
ATOM     12  C   UNL     1      23.829 -10.065  21.025  1.00  0.00     0.004 C 
ENDBRANCH  10  11
ENDBRANCH   9  10
ENDBRANCH   8   9
ENDBRANCH   7   8
ENDBRANCH   6   7
ENDBRANCH   5   6
ENDBRANCH   4   5
ENDBRANCH   3   4
ENDBRANCH   2   3
ENDBRANCH   1   2
BRANCH   1  13
ATOM     13  C   UNL     1      29.141  -8.474  17.615  1.00  0.00     0.000 C 
BRANCH  13  14
ATOM     14  C   UNL     1      29.012  -8.848  16.127  1.00  0.00     0.000 C 
BRANCH  14  15
ATOM     15  C   UNL     1      29.826  -7.917  15.204  1.00  0.00     0.000 C 
BRANCH  15  16
ATOM     16  C   UNL     1      29.714  -6.423  15.562  1.00  0.00     0.000 C 
BRANCH  16  17
ATOM     17  C   UNL     1      30.799  -5.516  14.951  1.00  0.00     0.000 C 
BRANCH  17  18
ATOM     18  C   UNL     1      31.297  -5.941  13.558  1.00  0.00     0.000 C 
BRANCH  18  19
ATOM     19  C   UNL     1      32.723  -5.450  13.254  1.00  0.00     0.000 C 
BRANCH  19  20
ATOM     20  C   UNL     1      33.698  -5.705  14.415  1.00  0.00     0.006 C 
BRANCH  20  21
ATOM     21  C   UNL     1      34.295  -7.118  14.384  1.00  0.00     0.053 C 
BRANCH  21  22
ATOM     22  C   UNL     1      34.160  -7.779  15.720  1.00  0.00     0.041 C 
ATOM     23  O   UNL     1      33.174  -7.519  16.459  1.00  0.00    -0.550 OA
ATOM     24  O   UNL     1      35.126  -8.683  16.152  1.00  0.00    -0.550 OA
ENDBRANCH  21  22
ENDBRANCH  20  21
ENDBRANCH  19  20
ENDBRANCH  18  19
ENDBRANCH  17  18
ENDBRANCH  16  17
ENDBRANCH  15  16
ENDBRANCH  14  15
ENDBRANCH  13  14
ENDBRANCH   1  13
TORSDOF 20
ENDMDL
