MODEL 1
REMARK VINA RESULT:    -2.438      0.000      0.000
REMARK INTER + INTRA:          -2.438
REMARK INTER:                  -2.438
REMARK INTRA:                   0.000
REMARK UNBOUND:                 0.000
REMARK SMILES CC(=O)[O-]
REMARK SMILES IDX 1 1 2 2 3 3 4 4
REMARK H PARENT
REMARK Flexibility Score: inf
ROOT
ATOM      1  C   UNL     1      -3.148  37.181  17.634  1.00  0.00     0.063 C 
ATOM      2  C   UNL     1      -2.823  37.142  16.179  1.00  0.00     0.038 C 
ATOM      3  O   UNL     1      -1.899  36.398  15.758  1.00  0.00    -0.550 OA
ATOM      4  O   UNL     1      -3.575  37.885  15.278  1.00  0.00    -0.550 OA
ENDROOT
TORSDOF 0
ENDMDL
MODEL 2
REMARK VINA RESULT:    -2.436      1.366      1.774
REMARK INTER + INTRA:          -2.436
REMARK INTER:                  -2.436
REMARK INTRA:                   0.000
REMARK UNBOUND:                 0.000
REMARK SMILES CC(=O)[O-]
REMARK SMILES IDX 1 1 2 2 3 3 4 4
REMARK H PARENT
REMARK Flexibility Score: inf
ROOT
ATOM      1  C   UNL     1      -3.605  37.462  14.938  1.00  0.00     0.063 C 
ATOM      2  C   UNL     1      -2.856  36.952  16.123  1.00  0.00     0.038 C 
ATOM      3  O   UNL     1      -1.860  36.198  15.964  1.00  0.00    -0.550 OA
ATOM      4  O   UNL     1      -3.221  37.353  17.401  1.00  0.00    -0.550 OA
ENDROOT
TORSDOF 0
ENDMDL
MODEL 3
REMARK VINA RESULT:    -2.396      2.641      3.069
REMARK INTER + INTRA:          -2.396
REMARK INTER:                  -2.396
REMARK INTRA:                   0.000
REMARK UNBOUND:                 0.000
REMARK SMILES CC(=O)[O-]
REMARK SMILES IDX 1 1 2 2 3 3 4 4
REMARK H PARENT
REMARK Flexibility Score: inf
ROOT
ATOM      1  C   UNL     1      -2.846  37.086  16.882  1.00  0.00     0.063 C 
ATOM      2  C   UNL     1      -2.887  37.478  18.321  1.00  0.00     0.038 C 
ATOM      3  O   UNL     1      -3.947  37.332  18.985  1.00  0.00    -0.550 OA
ATOM      4  O   UNL     1      -1.741  37.952  18.945  1.00  0.00    -0.550 OA
ENDROOT
TORSDOF 0
ENDMDL
MODEL 4
REMARK VINA RESULT:    -2.380      2.673      2.864
REMARK INTER + INTRA:          -2.380
REMARK INTER:                  -2.380
REMARK INTRA:                   0.000
REMARK UNBOUND:                 0.000
REMARK SMILES CC(=O)[O-]
REMARK SMILES IDX 1 1 2 2 3 3 4 4
REMARK H PARENT
REMARK Flexibility Score: inf
ROOT
ATOM      1  C   UNL     1      -2.858  37.117  16.923  1.00  0.00     0.063 C 
ATOM      2  C   UNL     1      -2.845  37.480  18.369  1.00  0.00     0.038 C 
ATOM      3  O   UNL     1      -1.785  37.896  18.907  1.00  0.00    -0.550 OA
ATOM      4  O   UNL     1      -4.016  37.412  19.114  1.00  0.00    -0.550 OA
ENDROOT
TORSDOF 0
ENDMDL
MODEL 5
REMARK VINA RESULT:    -2.380     17.777     18.062
REMARK INTER + INTRA:          -2.380
REMARK INTER:                  -2.380
REMARK INTRA:                   0.000
REMARK UNBOUND:                 0.000
REMARK SMILES CC(=O)[O-]
REMARK SMILES IDX 1 1 2 2 3 3 4 4
REMARK H PARENT
REMARK Flexibility Score: inf
ROOT
ATOM      1  C   UNL     1      -5.125  26.865  29.417  1.00  0.00     0.063 C 
ATOM      2  C   UNL     1      -4.565  25.567  29.892  1.00  0.00     0.038 C 
ATOM      3  O   UNL     1      -3.623  25.552  30.726  1.00  0.00    -0.550 OA
ATOM      4  O   UNL     1      -5.119  24.370  29.455  1.00  0.00    -0.550 OA
ENDROOT
TORSDOF 0
ENDMDL
MODEL 6
REMARK VINA RESULT:    -2.372     17.069     17.627
REMARK INTER + INTRA:          -2.372
REMARK INTER:                  -2.372
REMARK INTRA:                   0.000
REMARK UNBOUND:                 0.000
REMARK SMILES CC(=O)[O-]
REMARK SMILES IDX 1 1 2 2 3 3 4 4
REMARK H PARENT
REMARK Flexibility Score: inf
ROOT
ATOM      1  C   UNL     1      -5.007  24.926  29.941  1.00  0.00     0.063 C 
ATOM      2  C   UNL     1      -4.687  26.381  29.866  1.00  0.00     0.038 C 
ATOM      3  O   UNL     1      -4.792  26.995  28.772  1.00  0.00    -0.550 OA
ATOM      4  O   UNL     1      -4.325  27.074  31.014  1.00  0.00    -0.550 OA
ENDROOT
TORSDOF 0
ENDMDL
MODEL 7
REMARK VINA RESULT:    -2.307      2.280      2.515
REMARK INTER + INTRA:          -2.307
REMARK INTER:                  -2.307
REMARK INTRA:                   0.000
REMARK UNBOUND:                 0.000
REMARK SMILES CC(=O)[O-]
REMARK SMILES IDX 1 1 2 2 3 3 4 4
REMARK H PARENT
REMARK Flexibility Score: inf
ROOT
ATOM      1  C   UNL     1      -3.964  37.124  19.421  1.00  0.00     0.063 C 
ATOM      2  C   UNL     1      -2.879  37.509  18.473  1.00  0.00     0.038 C 
ATOM      3  O   UNL     1      -1.764  37.896  18.913  1.00  0.00    -0.550 OA
ATOM      4  O   UNL     1      -3.077  37.389  17.104  1.00  0.00    -0.550 OA
ENDROOT
TORSDOF 0
ENDMDL
MODEL 8
REMARK VINA RESULT:    -2.231      3.069      3.491
REMARK INTER + INTRA:          -2.231
REMARK INTER:                  -2.231
REMARK INTRA:                   0.000
REMARK UNBOUND:                 0.000
REMARK SMILES CC(=O)[O-]
REMARK SMILES IDX 1 1 2 2 3 3 4 4
REMARK H PARENT
REMARK Flexibility Score: inf
ROOT
ATOM      1  C   UNL     1      -4.793  37.642  20.011  1.00  0.00     0.063 C 
ATOM      2  C   UNL     1      -3.559  37.326  19.236  1.00  0.00     0.038 C 
ATOM      3  O   UNL     1      -3.646  36.795  18.097  1.00  0.00    -0.550 OA
ATOM      4  O   UNL     1      -2.312  37.667  19.744  1.00  0.00    -0.550 OA
ENDROOT
TORSDOF 0
ENDMDL
MODEL 9
REMARK VINA RESULT:    -1.783      4.615      5.027
REMARK INTER + INTRA:          -1.783
REMARK INTER:                  -1.783
REMARK INTRA:                   0.000
REMARK UNBOUND:                 0.000
REMARK SMILES CC(=O)[O-]
REMARK SMILES IDX 1 1 2 2 3 3 4 4
REMARK H PARENT
REMARK Flexibility Score: inf
ROOT
ATOM      1  C   UNL     1      -5.125  34.936  19.021  1.00  0.00     0.063 C 
ATOM      2  C   UNL     1      -4.918  35.975  20.070  1.00  0.00     0.038 C 
ATOM      3  O   UNL     1      -4.750  37.179  19.743  1.00  0.00    -0.550 OA
ATOM      4  O   UNL     1      -4.966  35.625  21.414  1.00  0.00    -0.550 OA
ENDROOT
TORSDOF 0
ENDMDL
