MODEL 1
REMARK VINA RESULT:    -6.663      0.000      0.000
REMARK INTER + INTRA:          -8.130
REMARK INTER:                  -7.831
REMARK INTRA:                  -0.299
REMARK UNBOUND:                -0.299
REMARK SMILES O=c1cc(-c2ccc(O)c(O)c2)oc2cc(O)cc(O)c12
REMARK SMILES IDX 4 1 3 2 2 3 1 4 21 5 19 6 18 7 16 8 15 9 14 10 13 11 5 12
REMARK SMILES IDX 6 13 7 14 8 15 12 16 10 17 9 18 11 20 20 22 17 24
REMARK H PARENT 9 19 11 21 20 23 17 25
REMARK Flexibility Score: inf
ROOT
ATOM      1  C   UNL     1     -27.008 -22.540 -13.114  1.00  0.00     0.138 A 
ATOM      2  C   UNL     1     -26.883 -22.147 -11.774  1.00  0.00     0.100 A 
ATOM      3  C   UNL     1     -26.975 -23.104 -10.763  1.00  0.00     0.197 A 
ATOM      4  O   UNL     1     -26.797 -22.732  -9.575  1.00  0.00    -0.289 OA
ATOM      5  C   UNL     1     -27.225 -24.458 -11.096  1.00  0.00     0.107 A 
ATOM      6  C   UNL     1     -27.380 -25.512 -10.147  1.00  0.00     0.134 A 
ATOM      7  C   UNL     1     -27.509 -26.832 -10.597  1.00  0.00     0.093 A 
ATOM      8  C   UNL     1     -27.549 -27.127 -11.962  1.00  0.00     0.123 A 
ATOM      9  C   UNL     1     -27.453 -26.098 -12.896  1.00  0.00     0.094 A 
ATOM     10  C   UNL     1     -27.289 -24.775 -12.479  1.00  0.00     0.146 A 
ATOM     11  O   UNL     1     -27.187 -23.825 -13.401  1.00  0.00    -0.456 OA
ENDROOT
BRANCH   1  12
ATOM     12  C   UNL     1     -26.918 -21.564 -14.229  1.00  0.00     0.021 A 
ATOM     13  C   UNL     1     -25.990 -20.511 -14.154  1.00  0.00     0.016 A 
ATOM     14  C   UNL     1     -25.881 -19.584 -15.193  1.00  0.00     0.051 A 
ATOM     15  C   UNL     1     -26.686 -19.697 -16.329  1.00  0.00     0.157 A 
ATOM     16  C   UNL     1     -27.718 -21.682 -15.382  1.00  0.00     0.062 A 
ATOM     17  C   UNL     1     -27.607 -20.753 -16.428  1.00  0.00     0.158 A 
BRANCH  15  18
ATOM     18  O   UNL     1     -26.555 -18.757 -17.350  1.00  0.00    -0.504 OA
ATOM     19  H   UNL     1     -27.047 -17.871 -17.333  1.00  0.00     0.293 HD
ENDBRANCH  15  18
BRANCH  17  20
ATOM     20  O   UNL     1     -28.406 -20.878 -17.564  1.00  0.00    -0.504 OA
ATOM     21  H   UNL     1     -29.358 -20.532 -17.583  1.00  0.00     0.293 HD
ENDBRANCH  17  20
ENDBRANCH   1  12
BRANCH   6  22
ATOM     22  O   UNL     1     -27.438 -25.316  -8.763  1.00  0.00    -0.507 OA
ATOM     23  H   UNL     1     -28.215 -25.579  -8.176  1.00  0.00     0.293 HD
ENDBRANCH   6  22
BRANCH   8  24
ATOM     24  O   UNL     1     -27.693 -28.441 -12.400  1.00  0.00    -0.508 OA
ATOM     25  H   UNL     1     -26.893 -28.996 -12.686  1.00  0.00     0.293 HD
ENDBRANCH   8  24
TORSDOF 5
ENDMDL
MODEL 2
REMARK VINA RESULT:    -6.475      1.659      6.775
REMARK INTER + INTRA:          -7.910
REMARK INTER:                  -7.592
REMARK INTRA:                  -0.318
REMARK UNBOUND:                -0.299
REMARK SMILES O=c1cc(-c2ccc(O)c(O)c2)oc2cc(O)cc(O)c12
REMARK SMILES IDX 4 1 3 2 2 3 1 4 21 5 19 6 18 7 16 8 15 9 14 10 13 11 5 12
REMARK SMILES IDX 6 13 7 14 8 15 12 16 10 17 9 18 11 20 20 22 17 24
REMARK H PARENT 9 19 11 21 20 23 17 25
REMARK Flexibility Score: inf
ROOT
ATOM      1  C   UNL     1     -27.415 -22.620 -13.051  1.00  0.00     0.138 A 
ATOM      2  C   UNL     1     -26.527 -21.585 -13.376  1.00  0.00     0.100 A 
ATOM      3  C   UNL     1     -26.658 -20.920 -14.596  1.00  0.00     0.197 A 
ATOM      4  O   UNL     1     -25.888 -19.955 -14.833  1.00  0.00    -0.289 OA
ATOM      5  C   UNL     1     -27.667 -21.317 -15.508  1.00  0.00     0.107 A 
ATOM      6  C   UNL     1     -27.868 -20.740 -16.797  1.00  0.00     0.134 A 
ATOM      7  C   UNL     1     -28.970 -21.134 -17.566  1.00  0.00     0.093 A 
ATOM      8  C   UNL     1     -29.843 -22.129 -17.117  1.00  0.00     0.123 A 
ATOM      9  C   UNL     1     -29.622 -22.737 -15.883  1.00  0.00     0.094 A 
ATOM     10  C   UNL     1     -28.552 -22.341 -15.078  1.00  0.00     0.146 A 
ATOM     11  O   UNL     1     -28.386 -22.936 -13.902  1.00  0.00    -0.456 OA
ENDROOT
BRANCH   1  12
ATOM     12  C   UNL     1     -27.320 -23.360 -11.768  1.00  0.00     0.021 A 
ATOM     13  C   UNL     1     -26.391 -22.948 -10.798  1.00  0.00     0.016 A 
ATOM     14  C   UNL     1     -26.287 -23.622  -9.579  1.00  0.00     0.051 A 
ATOM     15  C   UNL     1     -27.116 -24.713  -9.303  1.00  0.00     0.157 A 
ATOM     16  C   UNL     1     -28.163 -24.452 -11.480  1.00  0.00     0.062 A 
ATOM     17  C   UNL     1     -28.061 -25.129 -10.255  1.00  0.00     0.158 A 
BRANCH  15  18
ATOM     18  O   UNL     1     -26.990 -25.367  -8.078  1.00  0.00    -0.504 OA
ATOM     19  H   UNL     1     -26.947 -24.864  -7.200  1.00  0.00     0.293 HD
ENDBRANCH  15  18
BRANCH  17  20
ATOM     20  O   UNL     1     -28.898 -26.210  -9.980  1.00  0.00    -0.504 OA
ATOM     21  H   UNL     1     -29.695 -26.426 -10.568  1.00  0.00     0.293 HD
ENDBRANCH  17  20
ENDBRANCH   1  12
BRANCH   6  22
ATOM     22  O   UNL     1     -27.009 -19.800 -17.376  1.00  0.00    -0.507 OA
ATOM     23  H   UNL     1     -26.224 -20.024 -17.969  1.00  0.00     0.293 HD
ENDBRANCH   6  22
BRANCH   8  24
ATOM     24  O   UNL     1     -30.927 -22.527 -17.894  1.00  0.00    -0.508 OA
ATOM     25  H   UNL     1     -30.812 -23.145 -18.690  1.00  0.00     0.293 HD
ENDBRANCH   8  24
TORSDOF 5
ENDMDL
MODEL 3
REMARK VINA RESULT:    -6.471     12.535     15.151
REMARK INTER + INTRA:          -7.904
REMARK INTER:                  -7.639
REMARK INTRA:                  -0.265
REMARK UNBOUND:                -0.299
REMARK SMILES O=c1cc(-c2ccc(O)c(O)c2)oc2cc(O)cc(O)c12
REMARK SMILES IDX 4 1 3 2 2 3 1 4 21 5 19 6 18 7 16 8 15 9 14 10 13 11 5 12
REMARK SMILES IDX 6 13 7 14 8 15 12 16 10 17 9 18 11 20 20 22 17 24
REMARK H PARENT 9 19 11 21 20 23 17 25
REMARK Flexibility Score: inf
ROOT
ATOM      1  C   UNL     1     -37.598 -33.588 -15.687  1.00  0.00     0.138 A 
ATOM      2  C   UNL     1     -37.873 -34.932 -15.398  1.00  0.00     0.100 A 
ATOM      3  C   UNL     1     -36.874 -35.740 -14.854  1.00  0.00     0.197 A 
ATOM      4  O   UNL     1     -37.169 -36.924 -14.548  1.00  0.00    -0.289 OA
ATOM      5  C   UNL     1     -35.582 -35.205 -14.628  1.00  0.00     0.107 A 
ATOM      6  C   UNL     1     -34.475 -35.946 -14.117  1.00  0.00     0.134 A 
ATOM      7  C   UNL     1     -33.277 -35.283 -13.825  1.00  0.00     0.093 A 
ATOM      8  C   UNL     1     -33.127 -33.918 -14.083  1.00  0.00     0.123 A 
ATOM      9  C   UNL     1     -34.185 -33.198 -14.633  1.00  0.00     0.094 A 
ATOM     10  C   UNL     1     -35.405 -33.823 -14.903  1.00  0.00     0.146 A 
ATOM     11  O   UNL     1     -36.393 -33.098 -15.414  1.00  0.00    -0.456 OA
ENDROOT
BRANCH   1  12
ATOM     12  C   UNL     1     -38.623 -32.685 -16.266  1.00  0.00     0.021 A 
ATOM     13  C   UNL     1     -38.417 -32.130 -17.541  1.00  0.00     0.016 A 
ATOM     14  C   UNL     1     -39.370 -31.283 -18.111  1.00  0.00     0.051 A 
ATOM     15  C   UNL     1     -40.550 -30.984 -17.425  1.00  0.00     0.157 A 
ATOM     16  C   UNL     1     -39.820 -32.391 -15.583  1.00  0.00     0.062 A 
ATOM     17  C   UNL     1     -40.780 -31.542 -16.157  1.00  0.00     0.158 A 
BRANCH  15  18
ATOM     18  O   UNL     1     -41.483 -30.135 -18.019  1.00  0.00    -0.504 OA
ATOM     19  H   UNL     1     -41.460 -29.131 -17.884  1.00  0.00     0.293 HD
ENDBRANCH  15  18
BRANCH  17  20
ATOM     20  O   UNL     1     -41.960 -31.255 -15.472  1.00  0.00    -0.504 OA
ATOM     21  H   UNL     1     -42.502 -31.983 -15.021  1.00  0.00     0.293 HD
ENDBRANCH  17  20
ENDBRANCH   1  12
BRANCH   6  22
ATOM     22  O   UNL     1     -34.491 -37.328 -13.902  1.00  0.00    -0.507 OA
ATOM     23  H   UNL     1     -34.789 -38.013 -14.579  1.00  0.00     0.293 HD
ENDBRANCH   6  22
BRANCH   8  24
ATOM     24  O   UNL     1     -31.927 -33.269 -13.805  1.00  0.00    -0.508 OA
ATOM     25  H   UNL     1     -31.129 -33.768 -13.426  1.00  0.00     0.293 HD
ENDBRANCH   8  24
TORSDOF 5
ENDMDL
MODEL 4
REMARK VINA RESULT:    -6.342     13.342     15.156
REMARK INTER + INTRA:          -7.753
REMARK INTER:                  -7.459
REMARK INTRA:                  -0.293
REMARK UNBOUND:                -0.299
REMARK SMILES O=c1cc(-c2ccc(O)c(O)c2)oc2cc(O)cc(O)c12
REMARK SMILES IDX 4 1 3 2 2 3 1 4 21 5 19 6 18 7 16 8 15 9 14 10 13 11 5 12
REMARK SMILES IDX 6 13 7 14 8 15 12 16 10 17 9 18 11 20 20 22 17 24
REMARK H PARENT 9 19 11 21 20 23 17 25
REMARK Flexibility Score: inf
ROOT
ATOM      1  C   UNL     1     -37.349 -33.078 -15.866  1.00  0.00     0.138 A 
ATOM      2  C   UNL     1     -36.053 -32.612 -16.127  1.00  0.00     0.100 A 
ATOM      3  C   UNL     1     -34.953 -33.333 -15.661  1.00  0.00     0.197 A 
ATOM      4  O   UNL     1     -33.803 -32.924 -15.964  1.00  0.00    -0.289 OA
ATOM      5  C   UNL     1     -35.154 -34.512 -14.903  1.00  0.00     0.107 A 
ATOM      6  C   UNL     1     -34.110 -35.305 -14.342  1.00  0.00     0.134 A 
ATOM      7  C   UNL     1     -34.424 -36.514 -13.709  1.00  0.00     0.093 A 
ATOM      8  C   UNL     1     -35.751 -36.927 -13.564  1.00  0.00     0.123 A 
ATOM      9  C   UNL     1     -36.782 -36.132 -14.060  1.00  0.00     0.094 A 
ATOM     10  C   UNL     1     -36.498 -34.938 -14.727  1.00  0.00     0.146 A 
ATOM     11  O   UNL     1     -37.509 -34.216 -15.199  1.00  0.00    -0.456 OA
ENDROOT
BRANCH   1  12
ATOM     12  C   UNL     1     -38.553 -32.351 -16.338  1.00  0.00     0.021 A 
ATOM     13  C   UNL     1     -38.589 -31.846 -17.649  1.00  0.00     0.016 A 
ATOM     14  C   UNL     1     -39.713 -31.165 -18.120  1.00  0.00     0.051 A 
ATOM     15  C   UNL     1     -40.827 -30.984 -17.295  1.00  0.00     0.157 A 
ATOM     16  C   UNL     1     -39.683 -32.178 -15.514  1.00  0.00     0.062 A 
ATOM     17  C   UNL     1     -40.815 -31.495 -15.986  1.00  0.00     0.158 A 
BRANCH  15  18
ATOM     18  O   UNL     1     -41.935 -30.299 -17.791  1.00  0.00    -0.504 OA
ATOM     19  H   UNL     1     -41.854 -29.389 -18.228  1.00  0.00     0.293 HD
ENDBRANCH  15  18
BRANCH  17  20
ATOM     20  O   UNL     1     -41.927 -31.327 -15.162  1.00  0.00    -0.504 OA
ATOM     21  H   UNL     1     -41.912 -30.688 -14.376  1.00  0.00     0.293 HD
ENDBRANCH  17  20
ENDBRANCH   1  12
BRANCH   6  22
ATOM     22  O   UNL     1     -32.759 -34.942 -14.357  1.00  0.00    -0.507 OA
ATOM     23  H   UNL     1     -32.109 -35.110 -13.604  1.00  0.00     0.293 HD
ENDBRANCH   6  22
BRANCH   8  24
ATOM     24  O   UNL     1     -36.057 -38.123 -12.919  1.00  0.00    -0.508 OA
ATOM     25  H   UNL     1     -36.894 -38.224 -12.356  1.00  0.00     0.293 HD
ENDBRANCH   8  24
TORSDOF 5
ENDMDL
MODEL 5
REMARK VINA RESULT:    -6.181      1.695      7.145
REMARK INTER + INTRA:          -7.564
REMARK INTER:                  -7.275
REMARK INTRA:                  -0.289
REMARK UNBOUND:                -0.299
REMARK SMILES O=c1cc(-c2ccc(O)c(O)c2)oc2cc(O)cc(O)c12
REMARK SMILES IDX 4 1 3 2 2 3 1 4 21 5 19 6 18 7 16 8 15 9 14 10 13 11 5 12
REMARK SMILES IDX 6 13 7 14 8 15 12 16 10 17 9 18 11 20 20 22 17 24
REMARK H PARENT 9 19 11 21 20 23 17 25
REMARK Flexibility Score: inf
ROOT
ATOM      1  C   UNL     1     -28.208 -23.358 -12.942  1.00  0.00     0.138 A 
ATOM      2  C   UNL     1     -29.470 -23.598 -13.503  1.00  0.00     0.100 A 
ATOM      3  C   UNL     1     -29.816 -22.990 -14.710  1.00  0.00     0.197 A 
ATOM      4  O   UNL     1     -30.930 -23.273 -15.220  1.00  0.00    -0.289 OA
ATOM      5  C   UNL     1     -28.902 -22.112 -15.343  1.00  0.00     0.107 A 
ATOM      6  C   UNL     1     -29.161 -21.405 -16.554  1.00  0.00     0.134 A 
ATOM      7  C   UNL     1     -28.138 -20.655 -17.149  1.00  0.00     0.093 A 
ATOM      8  C   UNL     1     -26.885 -20.538 -16.542  1.00  0.00     0.123 A 
ATOM      9  C   UNL     1     -26.640 -21.181 -15.331  1.00  0.00     0.094 A 
ATOM     10  C   UNL     1     -27.628 -21.965 -14.732  1.00  0.00     0.146 A 
ATOM     11  O   UNL     1     -27.349 -22.574 -13.584  1.00  0.00    -0.456 OA
ENDROOT
BRANCH   1  12
ATOM     12  C   UNL     1     -27.790 -23.979 -11.660  1.00  0.00     0.021 A 
ATOM     13  C   UNL     1     -27.976 -25.358 -11.464  1.00  0.00     0.016 A 
ATOM     14  C   UNL     1     -27.584 -25.967 -10.271  1.00  0.00     0.051 A 
ATOM     15  C   UNL     1     -26.989 -25.214  -9.255  1.00  0.00     0.157 A 
ATOM     16  C   UNL     1     -27.177 -23.226 -10.639  1.00  0.00     0.062 A 
ATOM     17  C   UNL     1     -26.780 -23.837  -9.440  1.00  0.00     0.158 A 
BRANCH  15  18
ATOM     18  O   UNL     1     -26.608 -25.849  -8.074  1.00  0.00    -0.504 OA
ATOM     19  H   UNL     1     -26.225 -25.339  -7.287  1.00  0.00     0.293 HD
ENDBRANCH  15  18
BRANCH  17  20
ATOM     20  O   UNL     1     -26.176 -23.082  -8.434  1.00  0.00    -0.504 OA
ATOM     21  H   UNL     1     -26.292 -22.077  -8.385  1.00  0.00     0.293 HD
ENDBRANCH  17  20
ENDBRANCH   1  12
BRANCH   6  22
ATOM     22  O   UNL     1     -30.403 -21.386 -17.198  1.00  0.00    -0.507 OA
ATOM     23  H   UNL     1     -31.284 -21.605 -16.758  1.00  0.00     0.293 HD
ENDBRANCH   6  22
BRANCH   8  24
ATOM     24  O   UNL     1     -25.879 -19.778 -17.131  1.00  0.00    -0.508 OA
ATOM     25  H   UNL     1     -25.228 -20.182 -17.797  1.00  0.00     0.293 HD
ENDBRANCH   8  24
TORSDOF 5
ENDMDL
MODEL 6
REMARK VINA RESULT:    -6.169      3.198      4.042
REMARK INTER + INTRA:          -7.549
REMARK INTER:                  -7.233
REMARK INTRA:                  -0.317
REMARK UNBOUND:                -0.299
REMARK SMILES O=c1cc(-c2ccc(O)c(O)c2)oc2cc(O)cc(O)c12
REMARK SMILES IDX 4 1 3 2 2 3 1 4 21 5 19 6 18 7 16 8 15 9 14 10 13 11 5 12
REMARK SMILES IDX 6 13 7 14 8 15 12 16 10 17 9 18 11 20 20 22 17 24
REMARK H PARENT 9 19 11 21 20 23 17 25
REMARK Flexibility Score: inf
ROOT
ATOM      1  C   UNL     1     -29.551 -23.768 -13.540  1.00  0.00     0.138 A 
ATOM      2  C   UNL     1     -28.961 -22.616 -13.003  1.00  0.00     0.100 A 
ATOM      3  C   UNL     1     -28.134 -22.721 -11.884  1.00  0.00     0.197 A 
ATOM      4  O   UNL     1     -27.570 -21.679 -11.462  1.00  0.00    -0.289 OA
ATOM      5  C   UNL     1     -27.922 -23.985 -11.282  1.00  0.00     0.107 A 
ATOM      6  C   UNL     1     -27.133 -24.206 -10.115  1.00  0.00     0.134 A 
ATOM      7  C   UNL     1     -26.899 -25.516  -9.677  1.00  0.00     0.093 A 
ATOM      8  C   UNL     1     -27.477 -26.608 -10.330  1.00  0.00     0.123 A 
ATOM      9  C   UNL     1     -28.295 -26.398 -11.439  1.00  0.00     0.094 A 
ATOM     10  C   UNL     1     -28.518 -25.106 -11.920  1.00  0.00     0.146 A 
ATOM     11  O   UNL     1     -29.292 -24.949 -12.989  1.00  0.00    -0.456 OA
ENDROOT
BRANCH   1  12
ATOM     12  C   UNL     1     -30.439 -23.714 -14.728  1.00  0.00     0.021 A 
ATOM     13  C   UNL     1     -30.868 -22.467 -15.216  1.00  0.00     0.016 A 
ATOM     14  C   UNL     1     -31.697 -22.388 -16.336  1.00  0.00     0.051 A 
ATOM     15  C   UNL     1     -32.105 -23.550 -16.997  1.00  0.00     0.157 A 
ATOM     16  C   UNL     1     -30.842 -24.882 -15.405  1.00  0.00     0.062 A 
ATOM     17  C   UNL     1     -31.673 -24.803 -16.533  1.00  0.00     0.158 A 
BRANCH  15  18
ATOM     18  O   UNL     1     -32.933 -23.440 -18.113  1.00  0.00    -0.504 OA
ATOM     19  H   UNL     1     -33.839 -22.988 -18.069  1.00  0.00     0.293 HD
ENDBRANCH  15  18
BRANCH  17  20
ATOM     20  O   UNL     1     -32.068 -25.966 -17.195  1.00  0.00    -0.504 OA
ATOM     21  H   UNL     1     -31.393 -26.652 -17.509  1.00  0.00     0.293 HD
ENDBRANCH  17  20
ENDBRANCH   1  12
BRANCH   6  22
ATOM     22  O   UNL     1     -26.578 -23.182  -9.340  1.00  0.00    -0.507 OA
ATOM     23  H   UNL     1     -26.135 -23.313  -8.443  1.00  0.00     0.293 HD
ENDBRANCH   6  22
BRANCH   8  24
ATOM     24  O   UNL     1     -27.253 -27.906  -9.879  1.00  0.00    -0.508 OA
ATOM     25  H   UNL     1     -27.545 -28.205  -8.955  1.00  0.00     0.293 HD
ENDBRANCH   8  24
TORSDOF 5
ENDMDL
MODEL 7
REMARK VINA RESULT:    -5.932     15.115     15.597
REMARK INTER + INTRA:          -7.271
REMARK INTER:                  -6.960
REMARK INTRA:                  -0.311
REMARK UNBOUND:                -0.299
REMARK SMILES O=c1cc(-c2ccc(O)c(O)c2)oc2cc(O)cc(O)c12
REMARK SMILES IDX 4 1 3 2 2 3 1 4 21 5 19 6 18 7 16 8 15 9 14 10 13 11 5 12
REMARK SMILES IDX 6 13 7 14 8 15 12 16 10 17 9 18 11 20 20 22 17 24
REMARK H PARENT 9 19 11 21 20 23 17 25
REMARK Flexibility Score: inf
ROOT
ATOM      1  C   UNL     1     -36.739 -34.221 -16.476  1.00  0.00     0.138 A 
ATOM      2  C   UNL     1     -35.802 -34.568 -17.460  1.00  0.00     0.100 A 
ATOM      3  C   UNL     1     -34.803 -35.497 -17.165  1.00  0.00     0.197 A 
ATOM      4  O   UNL     1     -34.015 -35.834 -18.085  1.00  0.00    -0.289 OA
ATOM      5  C   UNL     1     -34.727 -36.059 -15.867  1.00  0.00     0.107 A 
ATOM      6  C   UNL     1     -33.728 -36.985 -15.441  1.00  0.00     0.134 A 
ATOM      7  C   UNL     1     -33.820 -37.563 -14.169  1.00  0.00     0.093 A 
ATOM      8  C   UNL     1     -34.842 -37.203 -13.286  1.00  0.00     0.123 A 
ATOM      9  C   UNL     1     -35.790 -36.259 -13.674  1.00  0.00     0.094 A 
ATOM     10  C   UNL     1     -35.745 -35.690 -14.949  1.00  0.00     0.146 A 
ATOM     11  O   UNL     1     -36.677 -34.805 -15.284  1.00  0.00    -0.456 OA
ENDROOT
BRANCH   1  12
ATOM     12  C   UNL     1     -37.821 -33.239 -16.736  1.00  0.00     0.021 A 
ATOM     13  C   UNL     1     -37.674 -32.307 -17.778  1.00  0.00     0.016 A 
ATOM     14  C   UNL     1     -38.681 -31.377 -18.048  1.00  0.00     0.051 A 
ATOM     15  C   UNL     1     -39.855 -31.367 -17.291  1.00  0.00     0.157 A 
ATOM     16  C   UNL     1     -39.012 -33.234 -15.984  1.00  0.00     0.062 A 
ATOM     17  C   UNL     1     -40.025 -32.301 -16.256  1.00  0.00     0.158 A 
BRANCH  15  18
ATOM     18  O   UNL     1     -40.842 -30.426 -17.582  1.00  0.00    -0.504 OA
ATOM     19  H   UNL     1     -41.565 -30.600 -18.271  1.00  0.00     0.293 HD
ENDBRANCH  15  18
BRANCH  17  20
ATOM     20  O   UNL     1     -41.199 -32.303 -15.503  1.00  0.00    -0.504 OA
ATOM     21  H   UNL     1     -41.402 -33.040 -14.838  1.00  0.00     0.293 HD
ENDBRANCH  17  20
ENDBRANCH   1  12
BRANCH   6  22
ATOM     22  O   UNL     1     -32.620 -37.349 -16.213  1.00  0.00    -0.507 OA
ATOM     23  H   UNL     1     -32.667 -37.828 -17.100  1.00  0.00     0.293 HD
ENDBRANCH   6  22
BRANCH   8  24
ATOM     24  O   UNL     1     -34.917 -37.771 -12.017  1.00  0.00    -0.508 OA
ATOM     25  H   UNL     1     -34.808 -37.212 -11.178  1.00  0.00     0.293 HD
ENDBRANCH   8  24
TORSDOF 5
ENDMDL
MODEL 8
REMARK VINA RESULT:    -5.789      3.507      6.954
REMARK INTER + INTRA:          -7.103
REMARK INTER:                  -6.819
REMARK INTRA:                  -0.284
REMARK UNBOUND:                -0.299
REMARK SMILES O=c1cc(-c2ccc(O)c(O)c2)oc2cc(O)cc(O)c12
REMARK SMILES IDX 4 1 3 2 2 3 1 4 21 5 19 6 18 7 16 8 15 9 14 10 13 11 5 12
REMARK SMILES IDX 6 13 7 14 8 15 12 16 10 17 9 18 11 20 20 22 17 24
REMARK H PARENT 9 19 11 21 20 23 17 25
REMARK Flexibility Score: inf
ROOT
ATOM      1  C   UNL     1     -29.190 -24.590 -13.642  1.00  0.00     0.138 A 
ATOM      2  C   UNL     1     -29.085 -25.857 -14.232  1.00  0.00     0.100 A 
ATOM      3  C   UNL     1     -29.822 -26.147 -15.381  1.00  0.00     0.197 A 
ATOM      4  O   UNL     1     -29.660 -27.271 -15.923  1.00  0.00    -0.289 OA
ATOM      5  C   UNL     1     -30.691 -25.170 -15.924  1.00  0.00     0.107 A 
ATOM      6  C   UNL     1     -31.521 -25.367 -17.068  1.00  0.00     0.134 A 
ATOM      7  C   UNL     1     -32.254 -24.291 -17.584  1.00  0.00     0.093 A 
ATOM      8  C   UNL     1     -32.232 -23.040 -16.960  1.00  0.00     0.123 A 
ATOM      9  C   UNL     1     -31.467 -22.853 -15.811  1.00  0.00     0.094 A 
ATOM     10  C   UNL     1     -30.698 -23.898 -15.293  1.00  0.00     0.146 A 
ATOM     11  O   UNL     1     -29.971 -23.674 -14.204  1.00  0.00    -0.456 OA
ENDROOT
BRANCH   1  12
ATOM     12  C   UNL     1     -28.429 -24.229 -12.420  1.00  0.00     0.021 A 
ATOM     13  C   UNL     1     -27.937 -22.922 -12.271  1.00  0.00     0.016 A 
ATOM     14  C   UNL     1     -27.225 -22.555 -11.127  1.00  0.00     0.051 A 
ATOM     15  C   UNL     1     -27.002 -23.482 -10.106  1.00  0.00     0.157 A 
ATOM     16  C   UNL     1     -28.213 -25.158 -11.382  1.00  0.00     0.062 A 
ATOM     17  C   UNL     1     -27.500 -24.789 -10.231  1.00  0.00     0.158 A 
BRANCH  15  18
ATOM     18  O   UNL     1     -26.287 -23.088  -8.976  1.00  0.00    -0.504 OA
ATOM     19  H   UNL     1     -26.020 -22.124  -8.817  1.00  0.00     0.293 HD
ENDBRANCH  15  18
BRANCH  17  20
ATOM     20  O   UNL     1     -27.290 -25.717  -9.211  1.00  0.00    -0.504 OA
ATOM     21  H   UNL     1     -26.368 -25.876  -8.821  1.00  0.00     0.293 HD
ENDBRANCH  17  20
ENDBRANCH   1  12
BRANCH   6  22
ATOM     22  O   UNL     1     -31.680 -26.597 -17.716  1.00  0.00    -0.507 OA
ATOM     23  H   UNL     1     -31.515 -26.756 -18.698  1.00  0.00     0.293 HD
ENDBRANCH   6  22
BRANCH   8  24
ATOM     24  O   UNL     1     -32.975 -21.979 -17.470  1.00  0.00    -0.508 OA
ATOM     25  H   UNL     1     -33.989 -21.986 -17.457  1.00  0.00     0.293 HD
ENDBRANCH   8  24
TORSDOF 5
ENDMDL
MODEL 9
REMARK VINA RESULT:    -5.659      2.045      3.597
REMARK INTER + INTRA:          -6.950
REMARK INTER:                  -6.675
REMARK INTRA:                  -0.275
REMARK UNBOUND:                -0.299
REMARK SMILES O=c1cc(-c2ccc(O)c(O)c2)oc2cc(O)cc(O)c12
REMARK SMILES IDX 4 1 3 2 2 3 1 4 21 5 19 6 18 7 16 8 15 9 14 10 13 11 5 12
REMARK SMILES IDX 6 13 7 14 8 15 12 16 10 17 9 18 11 20 20 22 17 24
REMARK H PARENT 9 19 11 21 20 23 17 25
REMARK Flexibility Score: inf
ROOT
ATOM      1  C   UNL     1     -28.784 -23.854 -13.503  1.00  0.00     0.138 A 
ATOM      2  C   UNL     1     -29.071 -25.222 -13.390  1.00  0.00     0.100 A 
ATOM      3  C   UNL     1     -28.630 -25.930 -12.272  1.00  0.00     0.197 A 
ATOM      4  O   UNL     1     -28.956 -27.140 -12.168  1.00  0.00    -0.289 OA
ATOM      5  C   UNL     1     -27.871 -25.269 -11.275  1.00  0.00     0.107 A 
ATOM      6  C   UNL     1     -27.334 -25.899 -10.113  1.00  0.00     0.134 A 
ATOM      7  C   UNL     1     -26.698 -25.121  -9.138  1.00  0.00     0.093 A 
ATOM      8  C   UNL     1     -26.526 -23.745  -9.313  1.00  0.00     0.123 A 
ATOM      9  C   UNL     1     -26.998 -23.131 -10.471  1.00  0.00     0.094 A 
ATOM     10  C   UNL     1     -27.668 -23.874 -11.445  1.00  0.00     0.146 A 
ATOM     11  O   UNL     1     -28.116 -23.247 -12.527  1.00  0.00    -0.456 OA
ENDROOT
BRANCH   1  12
ATOM     12  C   UNL     1     -29.228 -23.054 -14.671  1.00  0.00     0.021 A 
ATOM     13  C   UNL     1     -28.307 -22.222 -15.331  1.00  0.00     0.016 A 
ATOM     14  C   UNL     1     -28.698 -21.465 -16.438  1.00  0.00     0.051 A 
ATOM     15  C   UNL     1     -30.011 -21.531 -16.912  1.00  0.00     0.157 A 
ATOM     16  C   UNL     1     -30.547 -23.128 -15.160  1.00  0.00     0.062 A 
ATOM     17  C   UNL     1     -30.940 -22.369 -16.274  1.00  0.00     0.158 A 
BRANCH  15  18
ATOM     18  O   UNL     1     -30.373 -20.763 -18.017  1.00  0.00    -0.504 OA
ATOM     19  H   UNL     1     -29.742 -20.607 -18.795  1.00  0.00     0.293 HD
ENDBRANCH  15  18
BRANCH  17  20
ATOM     20  O   UNL     1     -32.249 -22.448 -16.748  1.00  0.00    -0.504 OA
ATOM     21  H   UNL     1     -33.041 -22.212 -16.162  1.00  0.00     0.293 HD
ENDBRANCH  17  20
ENDBRANCH   1  12
BRANCH   6  22
ATOM     22  O   UNL     1     -27.377 -27.278  -9.880  1.00  0.00    -0.507 OA
ATOM     23  H   UNL     1     -27.988 -27.924 -10.356  1.00  0.00     0.293 HD
ENDBRANCH   6  22
BRANCH   8  24
ATOM     24  O   UNL     1     -25.878 -22.981  -8.346  1.00  0.00    -0.508 OA
ATOM     25  H   UNL     1     -26.164 -23.003  -7.373  1.00  0.00     0.293 HD
ENDBRANCH   8  24
TORSDOF 5
ENDMDL
