MODEL 1
REMARK VINA RESULT:    -4.813      0.000      0.000
REMARK INTER + INTRA:          -5.479
REMARK INTER:                  -5.375
REMARK INTRA:                  -0.103
REMARK UNBOUND:                -0.103
REMARK SMILES CCc1ccc(O)cc1O
REMARK SMILES IDX 3 1 9 2 8 3 6 4 5 5 4 6 2 7 1 8 10 9 7 11
REMARK H PARENT 10 10 7 12
REMARK Flexibility Score: inf
ROOT
ATOM      1  C   UNL     1      24.216  22.919 -25.194  1.00  0.00    -0.006 A 
ATOM      2  C   UNL     1      24.392  23.052 -23.802  1.00  0.00     0.122 A 
ATOM      3  C   UNL     1      23.271  23.107 -22.959  1.00  0.00     0.092 A 
ATOM      4  C   UNL     1      21.981  23.018 -23.490  1.00  0.00     0.119 A 
ATOM      5  C   UNL     1      21.806  22.871 -24.871  1.00  0.00     0.047 A 
ATOM      6  C   UNL     1      22.916  22.817 -25.718  1.00  0.00     0.011 A 
ENDROOT
BRANCH   1   7
ATOM      7  C   UNL     1      25.403  22.827 -26.121  1.00  0.00     0.036 C 
ATOM      8  C   UNL     1      25.532  21.421 -26.697  1.00  0.00     0.009 C 
ENDBRANCH   1   7
BRANCH   2   9
ATOM      9  O   UNL     1      25.675  23.128 -23.260  1.00  0.00    -0.508 OA
ATOM     10  H   UNL     1      26.040  22.400 -22.658  1.00  0.00     0.293 HD
ENDBRANCH   2   9
BRANCH   4  11
ATOM     11  O   UNL     1      20.882  23.074 -22.637  1.00  0.00    -0.508 OA
ATOM     12  H   UNL     1      20.231  22.301 -22.560  1.00  0.00     0.293 HD
ENDBRANCH   4  11
TORSDOF 3
ENDMDL
MODEL 2
REMARK VINA RESULT:    -4.776     13.299     14.619
REMARK INTER + INTRA:          -5.437
REMARK INTER:                  -5.344
REMARK INTRA:                  -0.094
REMARK UNBOUND:                -0.103
REMARK SMILES CCc1ccc(O)cc1O
REMARK SMILES IDX 3 1 9 2 8 3 6 4 5 5 4 6 2 7 1 8 10 9 7 11
REMARK H PARENT 10 10 7 12
REMARK Flexibility Score: inf
ROOT
ATOM      1  C   UNL     1      31.844  32.345 -19.626  1.00  0.00    -0.006 A 
ATOM      2  C   UNL     1      30.992  33.267 -20.267  1.00  0.00     0.122 A 
ATOM      3  C   UNL     1      31.516  34.467 -20.771  1.00  0.00     0.092 A 
ATOM      4  C   UNL     1      32.879  34.750 -20.652  1.00  0.00     0.119 A 
ATOM      5  C   UNL     1      33.729  33.829 -20.028  1.00  0.00     0.047 A 
ATOM      6  C   UNL     1      33.217  32.631 -19.522  1.00  0.00     0.011 A 
ENDROOT
BRANCH   1   7
ATOM      7  C   UNL     1      31.315  31.033 -19.101  1.00  0.00     0.036 C 
ATOM      8  C   UNL     1      31.537  30.923 -17.597  1.00  0.00     0.009 C 
ENDBRANCH   1   7
BRANCH   2   9
ATOM      9  O   UNL     1      29.633  32.988 -20.403  1.00  0.00    -0.508 OA
ATOM     10  H   UNL     1      28.923  33.615 -20.044  1.00  0.00     0.293 HD
ENDBRANCH   2   9
BRANCH   4  11
ATOM     11  O   UNL     1      33.379  35.947 -21.159  1.00  0.00    -0.508 OA
ATOM     12  H   UNL     1      33.835  36.626 -20.560  1.00  0.00     0.293 HD
ENDBRANCH   4  11
TORSDOF 3
ENDMDL
MODEL 3
REMARK VINA RESULT:    -4.709      1.654      2.423
REMARK INTER + INTRA:          -5.363
REMARK INTER:                  -5.276
REMARK INTRA:                  -0.087
REMARK UNBOUND:                -0.103
REMARK SMILES CCc1ccc(O)cc1O
REMARK SMILES IDX 3 1 9 2 8 3 6 4 5 5 4 6 2 7 1 8 10 9 7 11
REMARK H PARENT 10 10 7 12
REMARK Flexibility Score: inf
ROOT
ATOM      1  C   UNL     1      24.115  22.791 -25.855  1.00  0.00    -0.006 A 
ATOM      2  C   UNL     1      22.764  23.171 -25.724  1.00  0.00     0.122 A 
ATOM      3  C   UNL     1      22.262  23.542 -24.467  1.00  0.00     0.092 A 
ATOM      4  C   UNL     1      23.095  23.549 -23.346  1.00  0.00     0.119 A 
ATOM      5  C   UNL     1      24.441  23.186 -23.477  1.00  0.00     0.047 A 
ATOM      6  C   UNL     1      24.950  22.814 -24.724  1.00  0.00     0.011 A 
ENDROOT
BRANCH   1   7
ATOM      7  C   UNL     1      24.690  22.417 -27.199  1.00  0.00     0.036 C 
ATOM      8  C   UNL     1      25.624  21.218 -27.072  1.00  0.00     0.009 C 
ENDBRANCH   1   7
BRANCH   2   9
ATOM      9  O   UNL     1      21.927  23.181 -26.840  1.00  0.00    -0.508 OA
ATOM     10  H   UNL     1      21.032  22.706 -26.836  1.00  0.00     0.293 HD
ENDBRANCH   2   9
BRANCH   4  11
ATOM     11  O   UNL     1      22.578  23.920 -22.107  1.00  0.00    -0.508 OA
ATOM     12  H   UNL     1      22.866  24.777 -21.648  1.00  0.00     0.293 HD
ENDBRANCH   4  11
TORSDOF 3
ENDMDL
MODEL 4
REMARK VINA RESULT:    -4.664     13.075     13.875
REMARK INTER + INTRA:          -5.313
REMARK INTER:                  -5.205
REMARK INTRA:                  -0.108
REMARK UNBOUND:                -0.103
REMARK SMILES CCc1ccc(O)cc1O
REMARK SMILES IDX 3 1 9 2 8 3 6 4 5 5 4 6 2 7 1 8 10 9 7 11
REMARK H PARENT 10 10 7 12
REMARK Flexibility Score: inf
ROOT
ATOM      1  C   UNL     1      31.065  31.415 -17.065  1.00  0.00    -0.006 A 
ATOM      2  C   UNL     1      31.963  31.559 -18.142  1.00  0.00     0.122 A 
ATOM      3  C   UNL     1      31.550  32.210 -19.314  1.00  0.00     0.092 A 
ATOM      4  C   UNL     1      30.256  32.729 -19.417  1.00  0.00     0.119 A 
ATOM      5  C   UNL     1      29.367  32.599 -18.343  1.00  0.00     0.047 A 
ATOM      6  C   UNL     1      29.769  31.951 -17.173  1.00  0.00     0.011 A 
ENDROOT
BRANCH   1   7
ATOM      7  C   UNL     1      31.491  30.747 -15.782  1.00  0.00     0.036 C 
ATOM      8  C   UNL     1      31.975  31.779 -14.769  1.00  0.00     0.009 C 
ENDBRANCH   1   7
BRANCH   2   9
ATOM      9  O   UNL     1      33.261  31.058 -18.044  1.00  0.00    -0.508 OA
ATOM     10  H   UNL     1      33.912  31.115 -18.818  1.00  0.00     0.293 HD
ENDBRANCH   2   9
BRANCH   4  11
ATOM     11  O   UNL     1      29.865  33.372 -20.589  1.00  0.00    -0.508 OA
ATOM     12  H   UNL     1      28.942  33.234 -20.986  1.00  0.00     0.293 HD
ENDBRANCH   4  11
TORSDOF 3
ENDMDL
MODEL 5
REMARK VINA RESULT:    -4.662     16.552     17.358
REMARK INTER + INTRA:          -5.310
REMARK INTER:                  -5.202
REMARK INTRA:                  -0.108
REMARK UNBOUND:                -0.103
REMARK SMILES CCc1ccc(O)cc1O
REMARK SMILES IDX 3 1 9 2 8 3 6 4 5 5 4 6 2 7 1 8 10 9 7 11
REMARK H PARENT 10 10 7 12
REMARK Flexibility Score: inf
ROOT
ATOM      1  C   UNL     1      29.156  38.996 -23.806  1.00  0.00    -0.006 A 
ATOM      2  C   UNL     1      30.498  38.959 -24.239  1.00  0.00     0.122 A 
ATOM      3  C   UNL     1      31.506  38.554 -23.352  1.00  0.00     0.092 A 
ATOM      4  C   UNL     1      31.190  38.175 -22.044  1.00  0.00     0.119 A 
ATOM      5  C   UNL     1      29.856  38.198 -21.618  1.00  0.00     0.047 A 
ATOM      6  C   UNL     1      28.845  38.600 -22.494  1.00  0.00     0.011 A 
ENDROOT
BRANCH   1   7
ATOM      7  C   UNL     1      28.048  39.398 -24.747  1.00  0.00     0.036 C 
ATOM      8  C   UNL     1      27.397  38.169 -25.372  1.00  0.00     0.009 C 
ENDBRANCH   1   7
BRANCH   2   9
ATOM      9  O   UNL     1      30.823  39.321 -25.546  1.00  0.00    -0.508 OA
ATOM     10  H   UNL     1      31.045  40.279 -25.792  1.00  0.00     0.293 HD
ENDBRANCH   2   9
BRANCH   4  11
ATOM     11  O   UNL     1      32.206  37.776 -21.179  1.00  0.00    -0.508 OA
ATOM     12  H   UNL     1      32.011  37.507 -20.222  1.00  0.00     0.293 HD
ENDBRANCH   4  11
TORSDOF 3
ENDMDL
MODEL 6
REMARK VINA RESULT:    -4.548      1.702      3.787
REMARK INTER + INTRA:          -5.183
REMARK INTER:                  -5.079
REMARK INTRA:                  -0.104
REMARK UNBOUND:                -0.103
REMARK SMILES CCc1ccc(O)cc1O
REMARK SMILES IDX 3 1 9 2 8 3 6 4 5 5 4 6 2 7 1 8 10 9 7 11
REMARK H PARENT 10 10 7 12
REMARK Flexibility Score: inf
ROOT
ATOM      1  C   UNL     1      22.212  24.226 -24.458  1.00  0.00    -0.006 A 
ATOM      2  C   UNL     1      23.040  23.726 -23.431  1.00  0.00     0.122 A 
ATOM      3  C   UNL     1      24.139  22.915 -23.754  1.00  0.00     0.092 A 
ATOM      4  C   UNL     1      24.427  22.610 -25.087  1.00  0.00     0.119 A 
ATOM      5  C   UNL     1      23.614  23.118 -26.108  1.00  0.00     0.047 A 
ATOM      6  C   UNL     1      22.517  23.925 -25.796  1.00  0.00     0.011 A 
ENDROOT
BRANCH   1   7
ATOM      7  C   UNL     1      21.042  25.124 -24.143  1.00  0.00     0.036 C 
ATOM      8  C   UNL     1      19.752  24.317 -24.046  1.00  0.00     0.009 C 
ENDBRANCH   1   7
BRANCH   2   9
ATOM      9  O   UNL     1      22.770  24.036 -22.099  1.00  0.00    -0.508 OA
ATOM     10  H   UNL     1      22.560  23.315 -21.418  1.00  0.00     0.293 HD
ENDBRANCH   2   9
BRANCH   4  11
ATOM     11  O   UNL     1      25.523  21.804 -25.386  1.00  0.00    -0.508 OA
ATOM     12  H   UNL     1      25.959  21.821 -26.301  1.00  0.00     0.293 HD
ENDBRANCH   4  11
TORSDOF 3
ENDMDL
MODEL 7
REMARK VINA RESULT:    -4.547     16.343     16.875
REMARK INTER + INTRA:          -5.182
REMARK INTER:                  -5.085
REMARK INTRA:                  -0.097
REMARK UNBOUND:                -0.103
REMARK SMILES CCc1ccc(O)cc1O
REMARK SMILES IDX 3 1 9 2 8 3 6 4 5 5 4 6 2 7 1 8 10 9 7 11
REMARK H PARENT 10 10 7 12
REMARK Flexibility Score: inf
ROOT
ATOM      1  C   UNL     1      30.241  38.429 -24.180  1.00  0.00    -0.006 A 
ATOM      2  C   UNL     1      29.517  38.676 -22.995  1.00  0.00     0.122 A 
ATOM      3  C   UNL     1      29.895  38.042 -21.802  1.00  0.00     0.092 A 
ATOM      4  C   UNL     1      30.991  37.176 -21.776  1.00  0.00     0.119 A 
ATOM      5  C   UNL     1      31.719  36.941 -22.949  1.00  0.00     0.047 A 
ATOM      6  C   UNL     1      31.350  37.567 -24.142  1.00  0.00     0.011 A 
ENDROOT
BRANCH   1   7
ATOM      7  C   UNL     1      29.876  39.120 -25.470  1.00  0.00     0.036 C 
ATOM      8  C   UNL     1      28.871  38.291 -26.262  1.00  0.00     0.009 C 
ENDBRANCH   1   7
BRANCH   2   9
ATOM      9  O   UNL     1      28.430  39.550 -23.006  1.00  0.00    -0.508 OA
ATOM     10  H   UNL     1      28.342  40.296 -22.326  1.00  0.00     0.293 HD
ENDBRANCH   2   9
BRANCH   4  11
ATOM     11  O   UNL     1      31.349  36.556 -20.581  1.00  0.00    -0.508 OA
ATOM     12  H   UNL     1      30.723  35.913 -20.110  1.00  0.00     0.293 HD
ENDBRANCH   4  11
TORSDOF 3
ENDMDL
MODEL 8
REMARK VINA RESULT:    -4.537     15.749     16.430
REMARK INTER + INTRA:          -5.170
REMARK INTER:                  -5.063
REMARK INTRA:                  -0.108
REMARK UNBOUND:                -0.103
REMARK SMILES CCc1ccc(O)cc1O
REMARK SMILES IDX 3 1 9 2 8 3 6 4 5 5 4 6 2 7 1 8 10 9 7 11
REMARK H PARENT 10 10 7 12
REMARK Flexibility Score: inf
ROOT
ATOM      1  C   UNL     1      31.864  36.898 -22.933  1.00  0.00    -0.006 A 
ATOM      2  C   UNL     1      31.125  37.101 -21.750  1.00  0.00     0.122 A 
ATOM      3  C   UNL     1      30.007  37.949 -21.763  1.00  0.00     0.092 A 
ATOM      4  C   UNL     1      29.614  38.585 -22.944  1.00  0.00     0.119 A 
ATOM      5  C   UNL     1      30.340  38.373 -24.122  1.00  0.00     0.047 A 
ATOM      6  C   UNL     1      31.455  37.531 -24.119  1.00  0.00     0.011 A 
ENDROOT
BRANCH   1   7
ATOM      7  C   UNL     1      33.052  35.968 -22.956  1.00  0.00     0.036 C 
ATOM      8  C   UNL     1      32.635  34.569 -23.396  1.00  0.00     0.009 C 
ENDBRANCH   1   7
BRANCH   2   9
ATOM      9  O   UNL     1      31.499  36.460 -20.570  1.00  0.00    -0.508 OA
ATOM     10  H   UNL     1      32.250  36.814 -19.989  1.00  0.00     0.293 HD
ENDBRANCH   2   9
BRANCH   4  11
ATOM     11  O   UNL     1      28.502  39.424 -22.936  1.00  0.00    -0.508 OA
ATOM     12  H   UNL     1      28.495  40.299 -23.447  1.00  0.00     0.293 HD
ENDBRANCH   4  11
TORSDOF 3
ENDMDL
MODEL 9
REMARK VINA RESULT:    -4.501     12.560     13.783
REMARK INTER + INTRA:          -5.131
REMARK INTER:                  -5.043
REMARK INTRA:                  -0.087
REMARK UNBOUND:                -0.103
REMARK SMILES CCc1ccc(O)cc1O
REMARK SMILES IDX 3 1 9 2 8 3 6 4 5 5 4 6 2 7 1 8 10 9 7 11
REMARK H PARENT 10 10 7 12
REMARK Flexibility Score: inf
ROOT
ATOM      1  C   UNL     1      31.091  31.449 -16.717  1.00  0.00    -0.006 A 
ATOM      2  C   UNL     1      29.964  32.296 -16.696  1.00  0.00     0.122 A 
ATOM      3  C   UNL     1      29.259  32.549 -17.883  1.00  0.00     0.092 A 
ATOM      4  C   UNL     1      29.659  31.957 -19.084  1.00  0.00     0.119 A 
ATOM      5  C   UNL     1      30.770  31.105 -19.103  1.00  0.00     0.047 A 
ATOM      6  C   UNL     1      31.479  30.847 -17.926  1.00  0.00     0.011 A 
ENDROOT
BRANCH   1   7
ATOM      7  C   UNL     1      31.849  31.135 -15.451  1.00  0.00     0.036 C 
ATOM      8  C   UNL     1      32.931  32.178 -15.196  1.00  0.00     0.009 C 
ENDBRANCH   1   7
BRANCH   2   9
ATOM      9  O   UNL     1      29.547  32.880 -15.500  1.00  0.00    -0.508 OA
ATOM     10  H   UNL     1      28.706  33.443 -15.449  1.00  0.00     0.293 HD
ENDBRANCH   2   9
BRANCH   4  11
ATOM     11  O   UNL     1      28.947  32.221 -20.251  1.00  0.00    -0.508 OA
ATOM     12  H   UNL     1      28.057  31.774 -20.441  1.00  0.00     0.293 HD
ENDBRANCH   4  11
TORSDOF 3
ENDMDL
