MODEL 1
REMARK VINA RESULT:    -1.368      0.000      0.000
REMARK INTER + INTRA:          -2.539
REMARK INTER:                  -2.088
REMARK INTRA:                  -0.452
REMARK UNBOUND:                -0.452
REMARK SMILES CC(=O)CCC=C(C)CCC=C(C)CCC=C(C)C
REMARK SMILES IDX 10 1 11 2 12 3 13 4 14 5 15 6 16 7 18 8 17 9 19 10 9 11 7 12
REMARK SMILES IDX 6 13 8 14 5 15 4 16 2 17 3 18 1 19
REMARK H PARENT
REMARK Flexibility Score: inf
ROOT
ATOM      1  C   UNL     1      10.080  77.653  18.387  1.00  0.00     0.032 C 
ENDROOT
BRANCH   1   2
ATOM      2  C   UNL     1      10.824  78.272  19.548  1.00  0.00    -0.028 C 
ATOM      3  C   UNL     1      11.466  77.595  20.529  1.00  0.00    -0.077 C 
ATOM      4  C   UNL     1      12.116  78.398  21.628  1.00  0.00     0.039 C 
BRANCH   3   5
ATOM      5  C   UNL     1      11.575  76.080  20.573  1.00  0.00     0.034 C 
BRANCH   5   6
ATOM      6  C   UNL     1      10.782  75.456  21.732  1.00  0.00     0.032 C 
BRANCH   6   7
ATOM      7  C   UNL     1      11.383  74.151  22.199  1.00  0.00    -0.028 C 
ATOM      8  C   UNL     1      11.996  72.375  23.779  1.00  0.00     0.039 C 
ATOM      9  C   UNL     1      11.398  73.724  23.480  1.00  0.00    -0.080 C 
ATOM     10  C   UNL     1      10.856  74.565  24.612  1.00  0.00     0.039 C 
ENDBRANCH   6   7
ENDBRANCH   5   6
ENDBRANCH   3   5
ENDBRANCH   1   2
BRANCH   1  11
ATOM     11  C   UNL     1       9.721  78.710  17.332  1.00  0.00     0.034 C 
BRANCH  11  12
ATOM     12  C   UNL     1      10.877  79.646  17.043  1.00  0.00    -0.077 C 
ATOM     13  C   UNL     1      10.786  80.940  17.428  1.00  0.00    -0.028 C 
ATOM     14  C   UNL     1      12.094  79.110  16.327  1.00  0.00     0.039 C 
BRANCH  13  15
ATOM     15  C   UNL     1      11.879  81.968  17.250  1.00  0.00     0.035 C 
BRANCH  15  16
ATOM     16  C   UNL     1      11.705  83.152  18.208  1.00  0.00     0.079 C 
BRANCH  16  17
ATOM     17  C   UNL     1      11.849  82.728  19.648  1.00  0.00     0.130 C 
ATOM     18  O   UNL     1      12.115  81.564  19.909  1.00  0.00    -0.300 OA
ATOM     19  C   UNL     1      11.673  83.708  20.769  1.00  0.00     0.087 C 
ENDBRANCH  16  17
ENDBRANCH  15  16
ENDBRANCH  13  15
ENDBRANCH  11  12
ENDBRANCH   1  11
TORSDOF 9
ENDMDL
MODEL 2
REMARK VINA RESULT:    -1.267      1.283      2.161
REMARK INTER + INTRA:          -2.385
REMARK INTER:                  -3.991
REMARK INTRA:                   1.606
REMARK UNBOUND:                -0.452
REMARK SMILES CC(=O)CCC=C(C)CCC=C(C)CCC=C(C)C
REMARK SMILES IDX 10 1 11 2 12 3 13 4 14 5 15 6 16 7 18 8 17 9 19 10 9 11 7 12
REMARK SMILES IDX 6 13 8 14 5 15 4 16 2 17 3 18 1 19
REMARK H PARENT
REMARK Flexibility Score: inf
ROOT
ATOM      1  C   UNL     1      11.422  77.415  20.212  1.00  0.00     0.032 C 
ENDROOT
BRANCH   1   2
ATOM      2  C   UNL     1      11.963  76.073  20.648  1.00  0.00    -0.028 C 
ATOM      3  C   UNL     1      11.368  75.223  21.517  1.00  0.00    -0.077 C 
ATOM      4  C   UNL     1      12.092  73.944  21.857  1.00  0.00     0.039 C 
BRANCH   3   5
ATOM      5  C   UNL     1      10.012  75.483  22.153  1.00  0.00     0.034 C 
BRANCH   5   6
ATOM      6  C   UNL     1       9.885  74.876  23.559  1.00  0.00     0.032 C 
BRANCH   6   7
ATOM      7  C   UNL     1      10.495  73.497  23.645  1.00  0.00    -0.028 C 
ATOM      8  C   UNL     1      11.949  71.711  24.496  1.00  0.00     0.039 C 
ATOM      9  C   UNL     1      11.478  73.142  24.501  1.00  0.00    -0.080 C 
ATOM     10  C   UNL     1      12.125  74.135  25.437  1.00  0.00     0.039 C 
ENDBRANCH   6   7
ENDBRANCH   5   6
ENDBRANCH   3   5
ENDBRANCH   1   2
BRANCH   1  11
ATOM     11  C   UNL     1      12.121  77.907  18.936  1.00  0.00     0.034 C 
BRANCH  11  12
ATOM     12  C   UNL     1      11.319  78.975  18.220  1.00  0.00    -0.077 C 
ATOM     13  C   UNL     1      11.764  80.252  18.235  1.00  0.00    -0.028 C 
ATOM     14  C   UNL     1      10.040  78.584  17.517  1.00  0.00     0.039 C 
BRANCH  13  15
ATOM     15  C   UNL     1      11.095  81.404  17.523  1.00  0.00     0.035 C 
BRANCH  15  16
ATOM     16  C   UNL     1      11.801  82.734  17.808  1.00  0.00     0.079 C 
BRANCH  16  17
ATOM     17  C   UNL     1      11.399  83.301  19.147  1.00  0.00     0.130 C 
ATOM     18  O   UNL     1      10.495  84.120  19.207  1.00  0.00    -0.300 OA
ATOM     19  C   UNL     1      12.088  82.877  20.410  1.00  0.00     0.087 C 
ENDBRANCH  16  17
ENDBRANCH  15  16
ENDBRANCH  13  15
ENDBRANCH  11  12
ENDBRANCH   1  11
TORSDOF 9
ENDMDL
MODEL 3
REMARK VINA RESULT:    -0.287      5.287     10.132
REMARK INTER + INTRA:          -0.889
REMARK INTER:                  -1.162
REMARK INTRA:                   0.273
REMARK UNBOUND:                -0.452
REMARK SMILES CC(=O)CCC=C(C)CCC=C(C)CCC=C(C)C
REMARK SMILES IDX 10 1 11 2 12 3 13 4 14 5 15 6 16 7 18 8 17 9 19 10 9 11 7 12
REMARK SMILES IDX 6 13 8 14 5 15 4 16 2 17 3 18 1 19
REMARK H PARENT
REMARK Flexibility Score: inf
ROOT
ATOM      1  C   UNL     1      11.745  69.605  24.528  1.00  0.00     0.032 C 
ENDROOT
BRANCH   1   2
ATOM      2  C   UNL     1      11.605  68.439  25.479  1.00  0.00    -0.028 C 
ATOM      3  C   UNL     1      11.745  67.132  25.157  1.00  0.00    -0.077 C 
ATOM      4  C   UNL     1      11.523  66.111  26.245  1.00  0.00     0.039 C 
BRANCH   3   5
ATOM      5  C   UNL     1      12.124  66.645  23.768  1.00  0.00     0.034 C 
BRANCH   5   6
ATOM      6  C   UNL     1      11.331  65.403  23.332  1.00  0.00     0.032 C 
BRANCH   6   7
ATOM      7  C   UNL     1      11.760  64.896  21.975  1.00  0.00    -0.028 C 
ATOM      8  C   UNL     1      11.500  64.024  19.695  1.00  0.00     0.039 C 
ATOM      9  C   UNL     1      10.919  64.454  21.016  1.00  0.00    -0.080 C 
ATOM     10  C   UNL     1       9.427  64.359  21.239  1.00  0.00     0.039 C 
ENDBRANCH   6   7
ENDBRANCH   5   6
ENDBRANCH   3   5
ENDBRANCH   1   2
BRANCH   1  11
ATOM     11  C   UNL     1      12.123  70.891  25.279  1.00  0.00     0.034 C 
BRANCH  11  12
ATOM     12  C   UNL     1      12.117  72.105  24.373  1.00  0.00    -0.077 C 
ATOM     13  C   UNL     1      12.115  71.925  23.032  1.00  0.00    -0.028 C 
ATOM     14  C   UNL     1      12.122  73.483  24.992  1.00  0.00     0.039 C 
BRANCH  13  15
ATOM     15  C   UNL     1      12.059  73.040  22.015  1.00  0.00     0.035 C 
BRANCH  15  16
ATOM     16  C   UNL     1      11.056  74.127  22.420  1.00  0.00     0.079 C 
BRANCH  16  17
ATOM     17  C   UNL     1      11.651  75.507  22.294  1.00  0.00     0.130 C 
ATOM     18  O   UNL     1      11.866  76.164  23.300  1.00  0.00    -0.300 OA
ATOM     19  C   UNL     1      11.987  76.089  20.953  1.00  0.00     0.087 C 
ENDBRANCH  16  17
ENDBRANCH  15  16
ENDBRANCH  13  15
ENDBRANCH  11  12
ENDBRANCH   1  11
TORSDOF 9
ENDMDL
MODEL 4
REMARK VINA RESULT:     0.358      1.585      2.255
REMARK INTER + INTRA:           0.095
REMARK INTER:                  -1.677
REMARK INTRA:                   1.772
REMARK UNBOUND:                -0.452
REMARK SMILES CC(=O)CCC=C(C)CCC=C(C)CCC=C(C)C
REMARK SMILES IDX 10 1 11 2 12 3 13 4 14 5 15 6 16 7 18 8 17 9 19 10 9 11 7 12
REMARK SMILES IDX 6 13 8 14 5 15 4 16 2 17 3 18 1 19
REMARK H PARENT
REMARK Flexibility Score: inf
ROOT
ATOM      1  C   UNL     1      10.872  78.049  19.179  1.00  0.00     0.032 C 
ENDROOT
BRANCH   1   2
ATOM      2  C   UNL     1      11.478  78.035  20.564  1.00  0.00    -0.028 C 
ATOM      3  C   UNL     1      11.508  76.975  21.405  1.00  0.00    -0.077 C 
ATOM      4  C   UNL     1      12.125  77.175  22.767  1.00  0.00     0.039 C 
BRANCH   3   5
ATOM      5  C   UNL     1      10.967  75.601  21.046  1.00  0.00     0.034 C 
BRANCH   5   6
ATOM      6  C   UNL     1      10.264  74.907  22.223  1.00  0.00     0.032 C 
BRANCH   6   7
ATOM      7  C   UNL     1      10.900  73.582  22.569  1.00  0.00    -0.028 C 
ATOM      8  C   UNL     1      12.034  71.906  23.961  1.00  0.00     0.039 C 
ATOM      9  C   UNL     1      11.483  73.293  23.753  1.00  0.00    -0.080 C 
ATOM     10  C   UNL     1      11.616  74.319  24.854  1.00  0.00     0.039 C 
ENDBRANCH   6   7
ENDBRANCH   5   6
ENDBRANCH   3   5
ENDBRANCH   1   2
BRANCH   1  11
ATOM     11  C   UNL     1      11.508  79.141  18.307  1.00  0.00     0.034 C 
BRANCH  11  12
ATOM     12  C   UNL     1      11.769  80.415  19.084  1.00  0.00    -0.077 C 
ATOM     13  C   UNL     1      11.703  81.603  18.440  1.00  0.00    -0.028 C 
ATOM     14  C   UNL     1      12.104  80.322  20.555  1.00  0.00     0.039 C 
BRANCH  13  15
ATOM     15  C   UNL     1      11.890  82.949  19.099  1.00  0.00     0.035 C 
BRANCH  15  16
ATOM     16  C   UNL     1      11.417  84.094  18.195  1.00  0.00     0.079 C 
BRANCH  16  17
ATOM     17  C   UNL     1      11.020  83.594  16.829  1.00  0.00     0.130 C 
ATOM     18  O   UNL     1      11.699  82.741  16.279  1.00  0.00    -0.300 OA
ATOM     19  C   UNL     1       9.804  84.125  16.129  1.00  0.00     0.087 C 
ENDBRANCH  16  17
ENDBRANCH  15  16
ENDBRANCH  13  15
ENDBRANCH  11  12
ENDBRANCH   1  11
TORSDOF 9
ENDMDL
MODEL 5
REMARK VINA RESULT:     0.821      2.429      8.287
REMARK INTER + INTRA:           0.802
REMARK INTER:                  -1.864
REMARK INTRA:                   2.666
REMARK UNBOUND:                -0.452
REMARK SMILES CC(=O)CCC=C(C)CCC=C(C)CCC=C(C)C
REMARK SMILES IDX 10 1 11 2 12 3 13 4 14 5 15 6 16 7 18 8 17 9 19 10 9 11 7 12
REMARK SMILES IDX 6 13 8 14 5 15 4 16 2 17 3 18 1 19
REMARK H PARENT
REMARK Flexibility Score: inf
ROOT
ATOM      1  C   UNL     1      11.702  77.252  19.498  1.00  0.00     0.032 C 
ENDROOT
BRANCH   1   2
ATOM      2  C   UNL     1      11.487  78.638  20.062  1.00  0.00    -0.028 C 
ATOM      3  C   UNL     1      10.998  79.703  19.385  1.00  0.00    -0.077 C 
ATOM      4  C   UNL     1      10.898  81.017  20.118  1.00  0.00     0.039 C 
BRANCH   3   5
ATOM      5  C   UNL     1      10.536  79.639  17.939  1.00  0.00     0.034 C 
BRANCH   5   6
ATOM      6  C   UNL     1      11.302  80.605  17.022  1.00  0.00     0.032 C 
BRANCH   6   7
ATOM      7  C   UNL     1      11.882  81.775  17.781  1.00  0.00    -0.028 C 
ATOM      8  C   UNL     1      12.121  84.106  18.517  1.00  0.00     0.039 C 
ATOM      9  C   UNL     1      11.472  83.056  17.653  1.00  0.00    -0.080 C 
ATOM     10  C   UNL     1      10.408  83.462  16.661  1.00  0.00     0.039 C 
ENDBRANCH   6   7
ENDBRANCH   5   6
ENDBRANCH   3   5
ENDBRANCH   1   2
BRANCH   1  11
ATOM     11  C   UNL     1      11.251  76.172  20.493  1.00  0.00     0.034 C 
BRANCH  11  12
ATOM     12  C   UNL     1      11.686  76.483  21.911  1.00  0.00    -0.077 C 
ATOM     13  C   UNL     1      11.672  75.495  22.834  1.00  0.00    -0.028 C 
ATOM     14  C   UNL     1      12.115  77.891  22.255  1.00  0.00     0.039 C 
BRANCH  13  15
ATOM     15  C   UNL     1      12.125  75.651  24.266  1.00  0.00     0.035 C 
BRANCH  15  16
ATOM     16  C   UNL     1      11.971  74.345  25.055  1.00  0.00     0.079 C 
BRANCH  16  17
ATOM     17  C   UNL     1      11.385  73.247  24.203  1.00  0.00     0.130 C 
ATOM     18  O   UNL     1      10.352  73.452  23.584  1.00  0.00    -0.300 OA
ATOM     19  C   UNL     1      12.047  71.906  24.099  1.00  0.00     0.087 C 
ENDBRANCH  16  17
ENDBRANCH  15  16
ENDBRANCH  13  15
ENDBRANCH  11  12
ENDBRANCH   1  11
TORSDOF 9
ENDMDL
MODEL 6
REMARK VINA RESULT:     1.341      5.607     10.416
REMARK INTER + INTRA:           1.595
REMARK INTER:                   2.150
REMARK INTRA:                  -0.555
REMARK UNBOUND:                -0.452
REMARK SMILES CC(=O)CCC=C(C)CCC=C(C)CCC=C(C)C
REMARK SMILES IDX 10 1 11 2 12 3 13 4 14 5 15 6 16 7 18 8 17 9 19 10 9 11 7 12
REMARK SMILES IDX 6 13 8 14 5 15 4 16 2 17 3 18 1 19
REMARK H PARENT
REMARK Flexibility Score: inf
ROOT
ATOM      1  C   UNL     1      11.472  69.518  24.768  1.00  0.00     0.032 C 
ENDROOT
BRANCH   1   2
ATOM      2  C   UNL     1      12.046  68.232  25.315  1.00  0.00    -0.028 C 
ATOM      3  C   UNL     1      11.367  67.076  25.502  1.00  0.00    -0.077 C 
ATOM      4  C   UNL     1      12.113  65.911  26.102  1.00  0.00     0.039 C 
BRANCH   3   5
ATOM      5  C   UNL     1       9.905  66.891  25.129  1.00  0.00     0.034 C 
BRANCH   5   6
ATOM      6  C   UNL     1       9.623  65.531  24.471  1.00  0.00     0.032 C 
BRANCH   6   7
ATOM      7  C   UNL     1       8.487  64.795  25.142  1.00  0.00    -0.028 C 
ATOM      8  C   UNL     1       6.173  64.082  25.544  1.00  0.00     0.039 C 
ATOM      9  C   UNL     1       7.184  64.922  24.809  1.00  0.00    -0.080 C 
ATOM     10  C   UNL     1       6.718  65.889  23.746  1.00  0.00     0.039 C 
ENDBRANCH   6   7
ENDBRANCH   5   6
ENDBRANCH   3   5
ENDBRANCH   1   2
BRANCH   1  11
ATOM     11  C   UNL     1      12.050  70.739  25.499  1.00  0.00     0.034 C 
BRANCH  11  12
ATOM     12  C   UNL     1      12.078  71.972  24.619  1.00  0.00    -0.077 C 
ATOM     13  C   UNL     1      12.095  71.820  23.275  1.00  0.00    -0.028 C 
ATOM     14  C   UNL     1      12.093  73.337  25.268  1.00  0.00     0.039 C 
BRANCH  13  15
ATOM     15  C   UNL     1      12.073  72.957  22.281  1.00  0.00     0.035 C 
BRANCH  15  16
ATOM     16  C   UNL     1      10.664  73.539  22.116  1.00  0.00     0.079 C 
BRANCH  16  17
ATOM     17  C   UNL     1      10.591  74.965  22.604  1.00  0.00     0.130 C 
ATOM     18  O   UNL     1      10.053  75.208  23.673  1.00  0.00    -0.300 OA
ATOM     19  C   UNL     1      11.168  76.092  21.801  1.00  0.00     0.087 C 
ENDBRANCH  16  17
ENDBRANCH  15  16
ENDBRANCH  13  15
ENDBRANCH  11  12
ENDBRANCH   1  11
TORSDOF 9
ENDMDL
