MODEL 1
REMARK VINA RESULT:    -1.841      0.000      0.000
REMARK INTER + INTRA:          -1.841
REMARK INTER:                  -1.841
REMARK INTRA:                   0.000
REMARK UNBOUND:                 0.000
REMARK SMILES CC(=O)[O-]
REMARK SMILES IDX 1 1 2 2 3 3 4 4
REMARK H PARENT
REMARK Flexibility Score: inf
ROOT
ATOM      1  C   UNL     1      -3.171  -3.337  33.039  1.00  0.00     0.063 C 
ATOM      2  C   UNL     1      -2.298  -4.495  32.689  1.00  0.00     0.038 C 
ATOM      3  O   UNL     1      -1.987  -5.339  33.568  1.00  0.00    -0.550 OA
ATOM      4  O   UNL     1      -1.872  -4.673  31.379  1.00  0.00    -0.550 OA
ENDROOT
TORSDOF 0
ENDMDL
MODEL 2
REMARK VINA RESULT:    -1.834      9.778     10.153
REMARK INTER + INTRA:          -1.834
REMARK INTER:                  -1.834
REMARK INTRA:                   0.000
REMARK UNBOUND:                 0.000
REMARK SMILES CC(=O)[O-]
REMARK SMILES IDX 1 1 2 2 3 3 4 4
REMARK H PARENT
REMARK Flexibility Score: inf
ROOT
ATOM      1  C   UNL     1      -2.511 -10.018  24.164  1.00  0.00     0.063 C 
ATOM      2  C   UNL     1      -3.146 -11.000  25.090  1.00  0.00     0.038 C 
ATOM      3  O   UNL     1      -2.625 -11.238  26.210  1.00  0.00    -0.550 OA
ATOM      4  O   UNL     1      -4.342 -11.613  24.741  1.00  0.00    -0.550 OA
ENDROOT
TORSDOF 0
ENDMDL
MODEL 3
REMARK VINA RESULT:    -1.831      9.737     10.001
REMARK INTER + INTRA:          -1.831
REMARK INTER:                  -1.831
REMARK INTRA:                   0.000
REMARK UNBOUND:                 0.000
REMARK SMILES CC(=O)[O-]
REMARK SMILES IDX 1 1 2 2 3 3 4 4
REMARK H PARENT
REMARK Flexibility Score: inf
ROOT
ATOM      1  C   UNL     1      -2.862 -11.032  25.564  1.00  0.00     0.063 C 
ATOM      2  C   UNL     1      -2.862  -9.972  24.515  1.00  0.00     0.038 C 
ATOM      3  O   UNL     1      -3.771  -9.102  24.496  1.00  0.00    -0.550 OA
ATOM      4  O   UNL     1      -1.827  -9.910  23.590  1.00  0.00    -0.550 OA
ENDROOT
TORSDOF 0
ENDMDL
MODEL 4
REMARK VINA RESULT:    -1.816      1.532      2.727
REMARK INTER + INTRA:          -1.816
REMARK INTER:                  -1.816
REMARK INTRA:                   0.000
REMARK UNBOUND:                 0.000
REMARK SMILES CC(=O)[O-]
REMARK SMILES IDX 1 1 2 2 3 3 4 4
REMARK H PARENT
REMARK Flexibility Score: inf
ROOT
ATOM      1  C   UNL     1      -0.875  -6.417  31.328  1.00  0.00     0.063 C 
ATOM      2  C   UNL     1      -1.653  -5.328  31.988  1.00  0.00     0.038 C 
ATOM      3  O   UNL     1      -2.123  -4.384  31.303  1.00  0.00    -0.550 OA
ATOM      4  O   UNL     1      -1.906  -5.384  33.353  1.00  0.00    -0.550 OA
ENDROOT
TORSDOF 0
ENDMDL
MODEL 5
REMARK VINA RESULT:    -1.806      2.050      2.467
REMARK INTER + INTRA:          -1.806
REMARK INTER:                  -1.806
REMARK INTRA:                   0.000
REMARK UNBOUND:                 0.000
REMARK SMILES CC(=O)[O-]
REMARK SMILES IDX 1 1 2 2 3 3 4 4
REMARK H PARENT
REMARK Flexibility Score: inf
ROOT
ATOM      1  C   UNL     1      -1.713  -5.373  32.988  1.00  0.00     0.063 C 
ATOM      2  C   UNL     1      -1.425  -5.656  31.552  1.00  0.00     0.038 C 
ATOM      3  O   UNL     1      -1.632  -4.772  30.681  1.00  0.00    -0.550 OA
ATOM      4  O   UNL     1      -0.876  -6.876  31.181  1.00  0.00    -0.550 OA
ENDROOT
TORSDOF 0
ENDMDL
MODEL 6
REMARK VINA RESULT:    -1.738      1.927      2.363
REMARK INTER + INTRA:          -1.738
REMARK INTER:                  -1.738
REMARK INTRA:                   0.000
REMARK UNBOUND:                 0.000
REMARK SMILES CC(=O)[O-]
REMARK SMILES IDX 1 1 2 2 3 3 4 4
REMARK H PARENT
REMARK Flexibility Score: inf
ROOT
ATOM      1  C   UNL     1      -2.013  -4.630  30.759  1.00  0.00     0.063 C 
ATOM      2  C   UNL     1      -1.504  -5.620  31.752  1.00  0.00     0.038 C 
ATOM      3  O   UNL     1      -0.875  -6.638  31.362  1.00  0.00    -0.550 OA
ATOM      4  O   UNL     1      -1.676  -5.393  33.111  1.00  0.00    -0.550 OA
ENDROOT
TORSDOF 0
ENDMDL
MODEL 7
REMARK VINA RESULT:    -1.717     21.046     21.360
REMARK INTER + INTRA:          -1.717
REMARK INTER:                  -1.717
REMARK INTRA:                   0.000
REMARK UNBOUND:                 0.000
REMARK SMILES CC(=O)[O-]
REMARK SMILES IDX 1 1 2 2 3 3 4 4
REMARK H PARENT
REMARK Flexibility Score: inf
ROOT
ATOM      1  C   UNL     1     -19.025   7.295  24.599  1.00  0.00     0.063 C 
ATOM      2  C   UNL     1     -19.194   6.618  25.918  1.00  0.00     0.038 C 
ATOM      3  O   UNL     1     -19.362   5.372  25.971  1.00  0.00    -0.550 OA
ATOM      4  O   UNL     1     -19.112   7.354  27.093  1.00  0.00    -0.550 OA
ENDROOT
TORSDOF 0
ENDMDL
MODEL 8
REMARK VINA RESULT:    -1.710     20.558     20.956
REMARK INTER + INTRA:          -1.710
REMARK INTER:                  -1.710
REMARK INTRA:                   0.000
REMARK UNBOUND:                 0.000
REMARK SMILES CC(=O)[O-]
REMARK SMILES IDX 1 1 2 2 3 3 4 4
REMARK H PARENT
REMARK Flexibility Score: inf
ROOT
ATOM      1  C   UNL     1     -19.248   7.043  26.545  1.00  0.00     0.063 C 
ATOM      2  C   UNL     1     -18.944   6.005  25.517  1.00  0.00     0.038 C 
ATOM      3  O   UNL     1     -17.804   5.957  24.987  1.00  0.00    -0.550 OA
ATOM      4  O   UNL     1     -19.902   5.055  25.184  1.00  0.00    -0.550 OA
ENDROOT
TORSDOF 0
ENDMDL
MODEL 9
REMARK VINA RESULT:    -1.697     14.667     15.182
REMARK INTER + INTRA:          -1.697
REMARK INTER:                  -1.697
REMARK INTRA:                   0.000
REMARK UNBOUND:                 0.000
REMARK SMILES CC(=O)[O-]
REMARK SMILES IDX 1 1 2 2 3 3 4 4
REMARK H PARENT
REMARK Flexibility Score: inf
ROOT
ATOM      1  C   UNL     1     -12.126   7.745  28.508  1.00  0.00     0.063 C 
ATOM      2  C   UNL     1     -12.142   6.564  29.420  1.00  0.00     0.038 C 
ATOM      3  O   UNL     1     -13.214   6.210  29.976  1.00  0.00    -0.550 OA
ATOM      4  O   UNL     1     -10.985   5.820  29.614  1.00  0.00    -0.550 OA
ENDROOT
TORSDOF 0
ENDMDL
