MODEL 1
REMARK VINA RESULT:    -3.064      0.000      0.000
REMARK INTER + INTRA:          -3.634
REMARK INTER:                  -3.602
REMARK INTRA:                  -0.033
REMARK UNBOUND:                -0.033
REMARK SMILES O=C([O-])CCC(=O)[O-]
REMARK SMILES IDX 4 1 2 2 1 3 3 4 5 5 6 6 7 7 8 8
REMARK H PARENT
REMARK Flexibility Score: inf
ROOT
ATOM      1  C   UNL     1      24.724  -1.622   1.271  1.00  0.00     0.059 C 
ENDROOT
BRANCH   1   2
ATOM      2  C   UNL     1      25.720  -1.425   2.369  1.00  0.00     0.042 C 
ATOM      3  O   UNL     1      26.727  -0.690   2.188  1.00  0.00    -0.550 OA
ATOM      4  O   UNL     1      25.511  -2.014   3.610  1.00  0.00    -0.550 OA
ENDBRANCH   1   2
BRANCH   1   5
ATOM      5  C   UNL     1      24.887  -3.005   0.639  1.00  0.00     0.059 C 
BRANCH   5   6
ATOM      6  C   UNL     1      23.589  -3.476   0.065  1.00  0.00     0.042 C 
ATOM      7  O   UNL     1      23.360  -3.357  -1.167  1.00  0.00    -0.550 OA
ATOM      8  O   UNL     1      22.610  -4.002   0.899  1.00  0.00    -0.550 OA
ENDBRANCH   5   6
ENDBRANCH   1   5
TORSDOF 3
ENDMDL
MODEL 2
REMARK VINA RESULT:    -3.048      0.130      4.180
REMARK INTER + INTRA:          -3.616
REMARK INTER:                  -3.573
REMARK INTRA:                  -0.043
REMARK UNBOUND:                -0.033
REMARK SMILES O=C([O-])CCC(=O)[O-]
REMARK SMILES IDX 4 1 2 2 1 3 3 4 5 5 6 6 7 7 8 8
REMARK H PARENT
REMARK Flexibility Score: inf
ROOT
ATOM      1  C   UNL     1      24.873  -3.000   0.624  1.00  0.00     0.059 C 
ENDROOT
BRANCH   1   2
ATOM      2  C   UNL     1      23.549  -3.464   0.109  1.00  0.00     0.042 C 
ATOM      3  O   UNL     1      22.683  -3.918   0.903  1.00  0.00    -0.550 OA
ATOM      4  O   UNL     1      23.249  -3.349  -1.243  1.00  0.00    -0.550 OA
ENDBRANCH   1   2
BRANCH   1   5
ATOM      5  C   UNL     1      24.778  -1.559   1.130  1.00  0.00     0.059 C 
BRANCH   5   6
ATOM      6  C   UNL     1      25.661  -1.362   2.320  1.00  0.00     0.042 C 
ATOM      7  O   UNL     1      26.753  -0.746   2.205  1.00  0.00    -0.550 OA
ATOM      8  O   UNL     1      25.301  -1.901   3.550  1.00  0.00    -0.550 OA
ENDBRANCH   5   6
ENDBRANCH   1   5
TORSDOF 3
ENDMDL
MODEL 3
REMARK VINA RESULT:    -3.031      1.400      4.177
REMARK INTER + INTRA:          -3.596
REMARK INTER:                  -3.506
REMARK INTRA:                  -0.090
REMARK UNBOUND:                -0.033
REMARK SMILES O=C([O-])CCC(=O)[O-]
REMARK SMILES IDX 4 1 2 2 1 3 3 4 5 5 6 6 7 7 8 8
REMARK H PARENT
REMARK Flexibility Score: inf
ROOT
ATOM      1  C   UNL     1      23.279  -3.441   0.878  1.00  0.00     0.059 C 
ENDROOT
BRANCH   1   2
ATOM      2  C   UNL     1      22.495  -3.337  -0.391  1.00  0.00     0.042 C 
ATOM      3  O   UNL     1      23.082  -3.372  -1.504  1.00  0.00    -0.550 OA
ATOM      4  O   UNL     1      21.109  -3.251  -0.346  1.00  0.00    -0.550 OA
ENDBRANCH   1   2
BRANCH   1   5
ATOM      5  C   UNL     1      24.733  -3.023   0.646  1.00  0.00     0.059 C 
BRANCH   5   6
ATOM      6  C   UNL     1      25.036  -1.753   1.376  1.00  0.00     0.042 C 
ATOM      7  O   UNL     1      26.003  -1.700   2.181  1.00  0.00    -0.550 OA
ATOM      8  O   UNL     1      24.220  -0.642   1.206  1.00  0.00    -0.550 OA
ENDBRANCH   5   6
ENDBRANCH   1   5
TORSDOF 3
ENDMDL
MODEL 4
REMARK VINA RESULT:    -2.980      1.774      4.330
REMARK INTER + INTRA:          -3.536
REMARK INTER:                  -3.444
REMARK INTRA:                  -0.091
REMARK UNBOUND:                -0.033
REMARK SMILES O=C([O-])CCC(=O)[O-]
REMARK SMILES IDX 4 1 2 2 1 3 3 4 5 5 6 6 7 7 8 8
REMARK H PARENT
REMARK Flexibility Score: inf
ROOT
ATOM      1  C   UNL     1      23.072  -3.437  -0.895  1.00  0.00     0.059 C 
ENDROOT
BRANCH   1   2
ATOM      2  C   UNL     1      21.767  -3.829  -0.279  1.00  0.00     0.042 C 
ATOM      3  O   UNL     1      20.742  -3.120  -0.459  1.00  0.00    -0.550 OA
ATOM      4  O   UNL     1      21.670  -5.005   0.454  1.00  0.00    -0.550 OA
ENDBRANCH   1   2
BRANCH   1   5
ATOM      5  C   UNL     1      24.180  -3.422   0.159  1.00  0.00     0.059 C 
BRANCH   5   6
ATOM      6  C   UNL     1      24.503  -2.019   0.562  1.00  0.00     0.042 C 
ATOM      7  O   UNL     1      25.444  -1.790   1.367  1.00  0.00    -0.550 OA
ATOM      8  O   UNL     1      23.732  -0.964   0.087  1.00  0.00    -0.550 OA
ENDBRANCH   5   6
ENDBRANCH   1   5
TORSDOF 3
ENDMDL
MODEL 5
REMARK VINA RESULT:    -2.975      1.731      2.404
REMARK INTER + INTRA:          -3.529
REMARK INTER:                  -3.439
REMARK INTRA:                  -0.090
REMARK UNBOUND:                -0.033
REMARK SMILES O=C([O-])CCC(=O)[O-]
REMARK SMILES IDX 4 1 2 2 1 3 3 4 5 5 6 6 7 7 8 8
REMARK H PARENT
REMARK Flexibility Score: inf
ROOT
ATOM      1  C   UNL     1      24.189  -3.396   0.169  1.00  0.00     0.059 C 
ENDROOT
BRANCH   1   2
ATOM      2  C   UNL     1      24.479  -1.981   0.555  1.00  0.00     0.042 C 
ATOM      3  O   UNL     1      23.784  -1.040   0.086  1.00  0.00    -0.550 OA
ATOM      4  O   UNL     1      25.484  -1.703   1.473  1.00  0.00    -0.550 OA
ENDBRANCH   1   2
BRANCH   1   5
ATOM      5  C   UNL     1      23.098  -3.448  -0.902  1.00  0.00     0.059 C 
BRANCH   5   6
ATOM      6  C   UNL     1      21.791  -3.856  -0.301  1.00  0.00     0.042 C 
ATOM      7  O   UNL     1      20.771  -3.133  -0.450  1.00  0.00    -0.550 OA
ATOM      8  O   UNL     1      21.710  -5.011   0.467  1.00  0.00    -0.550 OA
ENDBRANCH   5   6
ENDBRANCH   1   5
TORSDOF 3
ENDMDL
MODEL 6
REMARK VINA RESULT:    -2.969      2.363      3.404
REMARK INTER + INTRA:          -3.522
REMARK INTER:                  -3.408
REMARK INTRA:                  -0.114
REMARK UNBOUND:                -0.033
REMARK SMILES O=C([O-])CCC(=O)[O-]
REMARK SMILES IDX 4 1 2 2 1 3 3 4 5 5 6 6 7 7 8 8
REMARK H PARENT
REMARK Flexibility Score: inf
ROOT
ATOM      1  C   UNL     1      22.927  -3.719   0.657  1.00  0.00     0.059 C 
ENDROOT
BRANCH   1   2
ATOM      2  C   UNL     1      24.031  -2.771   0.315  1.00  0.00     0.042 C 
ATOM      3  O   UNL     1      25.216  -3.027   0.657  1.00  0.00    -0.550 OA
ATOM      4  O   UNL     1      23.761  -1.627  -0.426  1.00  0.00    -0.550 OA
ENDBRANCH   1   2
BRANCH   1   5
ATOM      5  C   UNL     1      21.887  -3.759  -0.464  1.00  0.00     0.059 C 
BRANCH   5   6
ATOM      6  C   UNL     1      20.546  -3.338   0.049  1.00  0.00     0.042 C 
ATOM      7  O   UNL     1      19.625  -4.185   0.188  1.00  0.00    -0.550 OA
ATOM      8  O   UNL     1      20.297  -1.999   0.326  1.00  0.00    -0.550 OA
ENDBRANCH   5   6
ENDBRANCH   1   5
TORSDOF 3
ENDMDL
MODEL 7
REMARK VINA RESULT:    -2.944      2.303      3.665
REMARK INTER + INTRA:          -3.493
REMARK INTER:                  -3.415
REMARK INTRA:                  -0.078
REMARK UNBOUND:                -0.033
REMARK SMILES O=C([O-])CCC(=O)[O-]
REMARK SMILES IDX 4 1 2 2 1 3 3 4 5 5 6 6 7 7 8 8
REMARK H PARENT
REMARK Flexibility Score: inf
ROOT
ATOM      1  C   UNL     1      22.948  -3.405   1.504  1.00  0.00     0.059 C 
ENDROOT
BRANCH   1   2
ATOM      2  C   UNL     1      23.910  -3.282   0.366  1.00  0.00     0.042 C 
ATOM      3  O   UNL     1      25.137  -3.107   0.588  1.00  0.00    -0.550 OA
ATOM      4  O   UNL     1      23.459  -3.411  -0.943  1.00  0.00    -0.550 OA
ENDBRANCH   1   2
BRANCH   1   5
ATOM      5  C   UNL     1      21.905  -4.485   1.211  1.00  0.00     0.059 C 
BRANCH   5   6
ATOM      6  C   UNL     1      20.535  -3.888   1.147  1.00  0.00     0.042 C 
ATOM      7  O   UNL     1      20.103  -3.189   2.101  1.00  0.00    -0.550 OA
ATOM      8  O   UNL     1      19.715  -4.145   0.055  1.00  0.00    -0.550 OA
ENDBRANCH   5   6
ENDBRANCH   1   5
TORSDOF 3
ENDMDL
MODEL 8
REMARK VINA RESULT:    -2.933      2.629      4.582
REMARK INTER + INTRA:          -3.480
REMARK INTER:                  -3.381
REMARK INTRA:                  -0.099
REMARK UNBOUND:                -0.033
REMARK SMILES O=C([O-])CCC(=O)[O-]
REMARK SMILES IDX 4 1 2 2 1 3 3 4 5 5 6 6 7 7 8 8
REMARK H PARENT
REMARK Flexibility Score: inf
ROOT
ATOM      1  C   UNL     1      21.916  -4.245   0.246  1.00  0.00     0.059 C 
ENDROOT
BRANCH   1   2
ATOM      2  C   UNL     1      20.575  -3.613   0.439  1.00  0.00     0.042 C 
ATOM      3  O   UNL     1      20.478  -2.485   0.989  1.00  0.00    -0.550 OA
ATOM      4  O   UNL     1      19.433  -4.248  -0.035  1.00  0.00    -0.550 OA
ENDBRANCH   1   2
BRANCH   1   5
ATOM      5  C   UNL     1      22.701  -3.516  -0.847  1.00  0.00     0.059 C 
BRANCH   5   6
ATOM      6  C   UNL     1      23.787  -2.683  -0.245  1.00  0.00     0.042 C 
ATOM      7  O   UNL     1      23.772  -1.431  -0.376  1.00  0.00    -0.550 OA
ATOM      8  O   UNL     1      24.845  -3.293   0.418  1.00  0.00    -0.550 OA
ENDBRANCH   5   6
ENDBRANCH   1   5
TORSDOF 3
ENDMDL
MODEL 9
REMARK VINA RESULT:    -2.927     11.913     13.555
REMARK INTER + INTRA:          -3.473
REMARK INTER:                  -3.295
REMARK INTRA:                  -0.178
REMARK UNBOUND:                -0.033
REMARK SMILES O=C([O-])CCC(=O)[O-]
REMARK SMILES IDX 4 1 2 2 1 3 3 4 5 5 6 6 7 7 8 8
REMARK H PARENT
REMARK Flexibility Score: inf
ROOT
ATOM      1  C   UNL     1      33.827  -2.832  11.909  1.00  0.00     0.059 C 
ENDROOT
BRANCH   1   2
ATOM      2  C   UNL     1      33.880  -4.050  12.774  1.00  0.00     0.042 C 
ATOM      3  O   UNL     1      33.003  -4.238  13.659  1.00  0.00    -0.550 OA
ATOM      4  O   UNL     1      34.868  -5.006  12.571  1.00  0.00    -0.550 OA
ENDBRANCH   1   2
BRANCH   1   5
ATOM      5  C   UNL     1      33.831  -3.224  10.430  1.00  0.00     0.059 C 
BRANCH   5   6
ATOM      6  C   UNL     1      32.618  -4.033  10.098  1.00  0.00     0.042 C 
ATOM      7  O   UNL     1      32.737  -5.147   9.524  1.00  0.00    -0.550 OA
ATOM      8  O   UNL     1      31.352  -3.534  10.378  1.00  0.00    -0.550 OA
ENDBRANCH   5   6
ENDBRANCH   1   5
TORSDOF 3
ENDMDL
