MODEL 1
REMARK VINA RESULT:    -3.858      0.000      0.000
REMARK INTER + INTRA:          -5.202
REMARK INTER:                  -4.986
REMARK INTRA:                  -0.216
REMARK UNBOUND:                -0.216
REMARK SMILES CCCCCCC(=O)[O-]
REMARK SMILES IDX 5 1 6 2 7 3 8 4 9 5 4 6 3 7 2 8 1 9
REMARK H PARENT
REMARK Flexibility Score: inf
ROOT
ATOM      1  C   UNL     1      13.141 -31.329  20.960  1.00  0.00     0.006 C 
ENDROOT
BRANCH   1   2
ATOM      2  C   UNL     1      14.449 -31.942  21.474  1.00  0.00     0.053 C 
BRANCH   2   3
ATOM      3  C   UNL     1      14.589 -33.352  20.995  1.00  0.00     0.041 C 
ATOM      4  O   UNL     1      14.239 -33.661  19.825  1.00  0.00    -0.550 OA
ATOM      5  O   UNL     1      15.153 -34.315  21.822  1.00  0.00    -0.550 OA
ENDBRANCH   2   3
ENDBRANCH   1   2
BRANCH   1   6
ATOM      6  C   UNL     1      12.294 -30.711  22.084  1.00  0.00     0.000 C 
BRANCH   6   7
ATOM      7  C   UNL     1      13.096 -30.488  23.375  1.00  0.00    -0.000 C 
BRANCH   7   8
ATOM      8  C   UNL     1      12.683 -29.179  24.057  1.00  0.00    -0.003 C 
ATOM      9  C   UNL     1      11.550 -28.494  23.297  1.00  0.00     0.004 C 
ENDBRANCH   7   8
ENDBRANCH   6   7
ENDBRANCH   1   6
TORSDOF 5
ENDMDL
MODEL 2
REMARK VINA RESULT:    -3.804      1.916      2.734
REMARK INTER + INTRA:          -5.132
REMARK INTER:                  -4.921
REMARK INTRA:                  -0.211
REMARK UNBOUND:                -0.216
REMARK SMILES CCCCCCC(=O)[O-]
REMARK SMILES IDX 5 1 6 2 7 3 8 4 9 5 4 6 3 7 2 8 1 9
REMARK H PARENT
REMARK Flexibility Score: inf
ROOT
ATOM      1  C   UNL     1      13.356 -30.110  23.853  1.00  0.00     0.006 C 
ENDROOT
BRANCH   1   2
ATOM      2  C   UNL     1      13.482 -31.488  23.191  1.00  0.00     0.053 C 
BRANCH   2   3
ATOM      3  C   UNL     1      13.976 -31.349  21.786  1.00  0.00     0.041 C 
ATOM      4  O   UNL     1      15.164 -30.992  21.564  1.00  0.00    -0.550 OA
ATOM      5  O   UNL     1      13.141 -31.662  20.721  1.00  0.00    -0.550 OA
ENDBRANCH   2   3
ENDBRANCH   1   2
BRANCH   1   6
ATOM      6  C   UNL     1      12.529 -29.123  23.012  1.00  0.00     0.000 C 
BRANCH   6   7
ATOM      7  C   UNL     1      11.846 -28.045  23.867  1.00  0.00    -0.000 C 
BRANCH   7   8
ATOM      8  C   UNL     1      12.724 -27.654  25.061  1.00  0.00    -0.003 C 
ATOM      9  C   UNL     1      13.619 -26.465  24.722  1.00  0.00     0.004 C 
ENDBRANCH   7   8
ENDBRANCH   6   7
ENDBRANCH   1   6
TORSDOF 5
ENDMDL
MODEL 3
REMARK VINA RESULT:    -3.792      1.243      1.737
REMARK INTER + INTRA:          -5.116
REMARK INTER:                  -4.959
REMARK INTRA:                  -0.157
REMARK UNBOUND:                -0.216
REMARK SMILES CCCCCCC(=O)[O-]
REMARK SMILES IDX 5 1 6 2 7 3 8 4 9 5 4 6 3 7 2 8 1 9
REMARK H PARENT
REMARK Flexibility Score: inf
ROOT
ATOM      1  C   UNL     1      12.637 -30.740  22.184  1.00  0.00     0.006 C 
ENDROOT
BRANCH   1   2
ATOM      2  C   UNL     1      13.027 -31.387  20.849  1.00  0.00     0.053 C 
BRANCH   2   3
ATOM      3  C   UNL     1      14.265 -32.211  21.010  1.00  0.00     0.041 C 
ATOM      4  O   UNL     1      14.257 -33.432  20.703  1.00  0.00    -0.550 OA
ATOM      5  O   UNL     1      15.441 -31.619  21.452  1.00  0.00    -0.550 OA
ENDBRANCH   2   3
ENDBRANCH   1   2
BRANCH   1   6
ATOM      6  C   UNL     1      11.387 -29.853  22.069  1.00  0.00     0.000 C 
BRANCH   6   7
ATOM      7  C   UNL     1      11.329 -28.766  23.152  1.00  0.00    -0.000 C 
BRANCH   7   8
ATOM      8  C   UNL     1      12.555 -28.841  24.069  1.00  0.00    -0.003 C 
ATOM      9  C   UNL     1      12.614 -27.641  25.011  1.00  0.00     0.004 C 
ENDBRANCH   7   8
ENDBRANCH   6   7
ENDBRANCH   1   6
TORSDOF 5
ENDMDL
MODEL 4
REMARK VINA RESULT:    -3.747      3.433      5.049
REMARK INTER + INTRA:          -5.059
REMARK INTER:                  -4.742
REMARK INTRA:                  -0.317
REMARK UNBOUND:                -0.216
REMARK SMILES CCCCCCC(=O)[O-]
REMARK SMILES IDX 5 1 6 2 7 3 8 4 9 5 4 6 3 7 2 8 1 9
REMARK H PARENT
REMARK Flexibility Score: inf
ROOT
ATOM      1  C   UNL     1      13.399 -30.186  23.605  1.00  0.00     0.006 C 
ENDROOT
BRANCH   1   2
ATOM      2  C   UNL     1      12.688 -29.004  24.274  1.00  0.00     0.053 C 
BRANCH   2   3
ATOM      3  C   UNL     1      11.587 -28.494  23.399  1.00  0.00     0.041 C 
ATOM      4  O   UNL     1      11.226 -27.289  23.473  1.00  0.00    -0.550 OA
ATOM      5  O   UNL     1      10.994 -29.335  22.466  1.00  0.00    -0.550 OA
ENDBRANCH   2   3
ENDBRANCH   1   2
BRANCH   1   6
ATOM      6  C   UNL     1      14.564 -29.744  22.704  1.00  0.00     0.000 C 
BRANCH   6   7
ATOM      7  C   UNL     1      14.450 -30.296  21.275  1.00  0.00    -0.000 C 
BRANCH   7   8
ATOM      8  C   UNL     1      13.477 -31.478  21.220  1.00  0.00    -0.003 C 
ATOM      9  C   UNL     1      14.220 -32.795  21.010  1.00  0.00     0.004 C 
ENDBRANCH   7   8
ENDBRANCH   6   7
ENDBRANCH   1   6
TORSDOF 5
ENDMDL
MODEL 5
REMARK VINA RESULT:    -3.725      2.034      2.909
REMARK INTER + INTRA:          -5.029
REMARK INTER:                  -4.945
REMARK INTRA:                  -0.085
REMARK UNBOUND:                -0.216
REMARK SMILES CCCCCCC(=O)[O-]
REMARK SMILES IDX 5 1 6 2 7 3 8 4 9 5 4 6 3 7 2 8 1 9
REMARK H PARENT
REMARK Flexibility Score: inf
ROOT
ATOM      1  C   UNL     1      14.549 -33.620  20.161  1.00  0.00     0.006 C 
ENDROOT
BRANCH   1   2
ATOM      2  C   UNL     1      15.353 -34.796  20.727  1.00  0.00     0.053 C 
BRANCH   2   3
ATOM      3  C   UNL     1      16.310 -35.317  19.702  1.00  0.00     0.041 C 
ATOM      4  O   UNL     1      16.912 -34.519  18.935  1.00  0.00    -0.550 OA
ATOM      5  O   UNL     1      16.575 -36.678  19.626  1.00  0.00    -0.550 OA
ENDBRANCH   2   3
ENDBRANCH   1   2
BRANCH   1   6
ATOM      6  C   UNL     1      14.234 -32.553  21.222  1.00  0.00     0.000 C 
BRANCH   6   7
ATOM      7  C   UNL     1      13.149 -31.566  20.765  1.00  0.00    -0.000 C 
BRANCH   7   8
ATOM      8  C   UNL     1      12.565 -30.803  21.959  1.00  0.00    -0.003 C 
ATOM      9  C   UNL     1      11.137 -30.343  21.675  1.00  0.00     0.004 C 
ENDBRANCH   7   8
ENDBRANCH   6   7
ENDBRANCH   1   6
TORSDOF 5
ENDMDL
MODEL 6
REMARK VINA RESULT:    -3.678      9.762     10.453
REMARK INTER + INTRA:          -4.970
REMARK INTER:                  -4.765
REMARK INTRA:                  -0.205
REMARK UNBOUND:                -0.216
REMARK SMILES CCCCCCC(=O)[O-]
REMARK SMILES IDX 5 1 6 2 7 3 8 4 9 5 4 6 3 7 2 8 1 9
REMARK H PARENT
REMARK Flexibility Score: inf
ROOT
ATOM      1  C   UNL     1      20.930 -25.647  20.059  1.00  0.00     0.006 C 
ENDROOT
BRANCH   1   2
ATOM      2  C   UNL     1      22.435 -25.923  19.962  1.00  0.00     0.053 C 
BRANCH   2   3
ATOM      3  C   UNL     1      23.212 -24.662  20.172  1.00  0.00     0.041 C 
ATOM      4  O   UNL     1      23.293 -24.152  21.321  1.00  0.00    -0.550 OA
ATOM      5  O   UNL     1      23.888 -24.077  19.109  1.00  0.00    -0.550 OA
ENDBRANCH   2   3
ENDBRANCH   1   2
BRANCH   1   6
ATOM      6  C   UNL     1      20.167 -26.770  20.781  1.00  0.00     0.000 C 
BRANCH   6   7
ATOM      7  C   UNL     1      21.015 -28.037  20.967  1.00  0.00    -0.000 C 
BRANCH   7   8
ATOM      8  C   UNL     1      20.123 -29.272  21.140  1.00  0.00    -0.003 C 
ATOM      9  C   UNL     1      18.649 -28.916  20.969  1.00  0.00     0.004 C 
ENDBRANCH   7   8
ENDBRANCH   6   7
ENDBRANCH   1   6
TORSDOF 5
ENDMDL
MODEL 7
REMARK VINA RESULT:    -3.652      1.362      2.155
REMARK INTER + INTRA:          -4.936
REMARK INTER:                  -4.697
REMARK INTRA:                  -0.239
REMARK UNBOUND:                -0.216
REMARK SMILES CCCCCCC(=O)[O-]
REMARK SMILES IDX 5 1 6 2 7 3 8 4 9 5 4 6 3 7 2 8 1 9
REMARK H PARENT
REMARK Flexibility Score: inf
ROOT
ATOM      1  C   UNL     1      15.110 -32.092  23.422  1.00  0.00     0.006 C 
ENDROOT
BRANCH   1   2
ATOM      2  C   UNL     1      14.987 -33.604  23.205  1.00  0.00     0.053 C 
BRANCH   2   3
ATOM      3  C   UNL     1      15.047 -33.929  21.746  1.00  0.00     0.041 C 
ATOM      4  O   UNL     1      15.777 -34.871  21.336  1.00  0.00    -0.550 OA
ATOM      5  O   UNL     1      14.259 -33.225  20.844  1.00  0.00    -0.550 OA
ENDBRANCH   2   3
ENDBRANCH   1   2
BRANCH   1   6
ATOM      6  C   UNL     1      13.807 -31.461  23.941  1.00  0.00     0.000 C 
BRANCH   6   7
ATOM      7  C   UNL     1      13.715 -29.958  23.639  1.00  0.00    -0.000 C 
BRANCH   7   8
ATOM      8  C   UNL     1      12.369 -29.610  22.994  1.00  0.00    -0.003 C 
ATOM      9  C   UNL     1      12.037 -30.573  21.857  1.00  0.00     0.004 C 
ENDBRANCH   7   8
ENDBRANCH   6   7
ENDBRANCH   1   6
TORSDOF 5
ENDMDL
MODEL 8
REMARK VINA RESULT:    -3.572      2.674      3.169
REMARK INTER + INTRA:          -4.832
REMARK INTER:                  -4.452
REMARK INTRA:                  -0.380
REMARK UNBOUND:                -0.216
REMARK SMILES CCCCCCC(=O)[O-]
REMARK SMILES IDX 5 1 6 2 7 3 8 4 9 5 4 6 3 7 2 8 1 9
REMARK H PARENT
REMARK Flexibility Score: inf
ROOT
ATOM      1  C   UNL     1      13.428 -31.022  21.302  1.00  0.00     0.006 C 
ENDROOT
BRANCH   1   2
ATOM      2  C   UNL     1      14.944 -30.998  21.527  1.00  0.00     0.053 C 
BRANCH   2   3
ATOM      3  C   UNL     1      15.354 -29.720  22.187  1.00  0.00     0.041 C 
ATOM      4  O   UNL     1      15.921 -29.742  23.312  1.00  0.00    -0.550 OA
ATOM      5  O   UNL     1      15.157 -28.508  21.539  1.00  0.00    -0.550 OA
ENDBRANCH   2   3
ENDBRANCH   1   2
BRANCH   1   6
ATOM      6  C   UNL     1      12.636 -30.640  22.564  1.00  0.00     0.000 C 
BRANCH   6   7
ATOM      7  C   UNL     1      11.448 -29.716  22.261  1.00  0.00    -0.000 C 
BRANCH   7   8
ATOM      8  C   UNL     1      11.529 -28.429  23.088  1.00  0.00    -0.003 C 
ATOM      9  C   UNL     1      12.472 -28.596  24.277  1.00  0.00     0.004 C 
ENDBRANCH   7   8
ENDBRANCH   6   7
ENDBRANCH   1   6
TORSDOF 5
ENDMDL
MODEL 9
REMARK VINA RESULT:    -3.501      3.476      5.207
REMARK INTER + INTRA:          -4.741
REMARK INTER:                  -4.579
REMARK INTRA:                  -0.162
REMARK UNBOUND:                -0.216
REMARK SMILES CCCCCCC(=O)[O-]
REMARK SMILES IDX 5 1 6 2 7 3 8 4 9 5 4 6 3 7 2 8 1 9
REMARK H PARENT
REMARK Flexibility Score: inf
ROOT
ATOM      1  C   UNL     1      12.862 -30.583  22.346  1.00  0.00     0.006 C 
ENDROOT
BRANCH   1   2
ATOM      2  C   UNL     1      13.263 -29.898  23.658  1.00  0.00     0.053 C 
BRANCH   2   3
ATOM      3  C   UNL     1      12.332 -28.768  23.963  1.00  0.00     0.041 C 
ATOM      4  O   UNL     1      11.278 -28.616  23.290  1.00  0.00    -0.550 OA
ATOM      5  O   UNL     1      12.601 -27.912  25.024  1.00  0.00    -0.550 OA
ENDBRANCH   2   3
ENDBRANCH   1   2
BRANCH   1   6
ATOM      6  C   UNL     1      14.048 -31.269  21.649  1.00  0.00     0.000 C 
BRANCH   6   7
ATOM      7  C   UNL     1      13.604 -32.317  20.618  1.00  0.00    -0.000 C 
BRANCH   7   8
ATOM      8  C   UNL     1      14.597 -33.482  20.558  1.00  0.00    -0.003 C 
ATOM      9  C   UNL     1      15.169 -33.791  21.940  1.00  0.00     0.004 C 
ENDBRANCH   7   8
ENDBRANCH   6   7
ENDBRANCH   1   6
TORSDOF 5
ENDMDL
