MODEL 1
REMARK VINA RESULT:    -6.852      0.000      0.000
REMARK INTER + INTRA:         -11.074
REMARK INTER:                  -9.455
REMARK INTRA:                  -1.619
REMARK UNBOUND:                -1.619
REMARK SMILES CC[C@H](CC[C@H](C)[C@H]1CC[C@H]2[C@H]3CC=C4C[C@@H](O)CC[C@@]4(C)[C@@H]3CC[C@@]12C)C(C)C
REMARK SMILES IDX 5 1 4 2 3 3 2 4 1 5 28 6 29 7 30 8 6 9 7 10 8 11 9 12 26 13
REMARK SMILES IDX 10 14 11 15 25 16 27 17 12 18 24 19 23 20 13 21 21 22 14 23
REMARK SMILES IDX 15 24 20 25 22 26 16 27 19 28 17 29 18 30
REMARK H PARENT 18 31
REMARK Flexibility Score: inf
ROOT
ATOM      1  C   UNL     1     173.471 179.024 179.893  1.00  0.00     0.004 C 
ENDROOT
BRANCH   1   2
ATOM      2  C   UNL     1     174.401 179.117 181.124  1.00  0.00     0.004 C 
BRANCH   2   3
ATOM      3  C   UNL     1     175.293 177.866 181.392  1.00  0.00    -0.009 C 
BRANCH   3   4
ATOM      4  C   UNL     1     174.942 176.698 180.423  1.00  0.00     0.000 C 
ATOM      5  C   UNL     1     174.128 175.560 181.038  1.00  0.00     0.004 C 
ENDBRANCH   3   4
BRANCH   3   6
ATOM      6  C   UNL     1     176.824 178.178 181.525  1.00  0.00    -0.014 C 
ATOM      7  C   UNL     1     177.631 177.509 180.394  1.00  0.00     0.007 C 
ATOM      8  C   UNL     1     177.130 179.687 181.501  1.00  0.00     0.007 C 
ENDBRANCH   3   6
ENDBRANCH   2   3
ENDBRANCH   1   2
BRANCH   1   9
ATOM      9  C   UNL     1     171.974 179.147 180.284  1.00  0.00    -0.011 C 
ATOM     10  C   UNL     1     171.877 180.092 181.504  1.00  0.00     0.008 C 
BRANCH   9  11
ATOM     11  C   UNL     1     171.311 177.744 180.573  1.00  0.00    -0.002 C 
ATOM     12  C   UNL     1     170.642 177.708 181.950  1.00  0.00     0.005 C 
ATOM     13  C   UNL     1     170.216 177.196 179.570  1.00  0.00    -0.026 C 
ATOM     14  C   UNL     1     169.635 176.582 181.929  1.00  0.00     0.005 C 
ATOM     15  C   UNL     1     169.254 176.328 180.461  1.00  0.00    -0.001 C 
ATOM     16  C   UNL     1     169.426 178.317 178.815  1.00  0.00     0.007 C 
ATOM     17  C   UNL     1     170.844 176.268 178.494  1.00  0.00     0.012 C 
ATOM     18  C   UNL     1     167.746 176.563 180.135  1.00  0.00     0.000 C 
ATOM     19  C   UNL     1     168.389 179.026 179.701  1.00  0.00     0.005 C 
ATOM     20  C   UNL     1     167.330 178.047 180.305  1.00  0.00     0.003 C 
ATOM     21  C   UNL     1     166.809 175.638 180.931  1.00  0.00     0.031 C 
ATOM     22  C   UNL     1     165.851 178.290 179.815  1.00  0.00    -0.008 C 
ATOM     23  C   UNL     1     165.357 175.986 180.750  1.00  0.00    -0.027 C 
ATOM     24  C   UNL     1     164.912 177.209 180.379  1.00  0.00    -0.065 C 
ATOM     25  C   UNL     1     165.378 179.684 180.340  1.00  0.00     0.014 C 
ATOM     26  C   UNL     1     165.752 178.249 178.262  1.00  0.00     0.016 C 
ATOM     27  C   UNL     1     163.414 177.449 180.340  1.00  0.00     0.063 C 
ATOM     28  C   UNL     1     163.867 179.925 180.197  1.00  0.00     0.033 C 
ATOM     29  C   UNL     1     163.057 178.828 180.901  1.00  0.00     0.118 C 
BRANCH  29  30
ATOM     30  O   UNL     1     163.300 178.844 182.286  1.00  0.00    -0.393 OA
ATOM     31  H   UNL     1     163.501 177.910 182.554  1.00  0.00     0.210 HD
ENDBRANCH  29  30
ENDBRANCH   9  11
ENDBRANCH   1   9
TORSDOF 7
ENDMDL
MODEL 2
REMARK VINA RESULT:    -6.667      2.970      9.239
REMARK INTER + INTRA:         -10.820
REMARK INTER:                  -9.680
REMARK INTRA:                  -1.140
REMARK UNBOUND:                -1.619
REMARK SMILES CC[C@H](CC[C@H](C)[C@H]1CC[C@H]2[C@H]3CC=C4C[C@@H](O)CC[C@@]4(C)[C@@H]3CC[C@@]12C)C(C)C
REMARK SMILES IDX 5 1 4 2 3 3 2 4 1 5 28 6 29 7 30 8 6 9 7 10 8 11 9 12 26 13
REMARK SMILES IDX 10 14 11 15 25 16 27 17 12 18 24 19 23 20 13 21 21 22 14 23
REMARK SMILES IDX 15 24 20 25 22 26 16 27 19 28 17 29 18 30
REMARK H PARENT 18 31
REMARK Flexibility Score: inf
ROOT
ATOM      1  C   UNL     1     167.209 179.002 180.747  1.00  0.00     0.004 C 
ENDROOT
BRANCH   1   2
ATOM      2  C   UNL     1     165.865 178.354 180.342  1.00  0.00     0.004 C 
BRANCH   2   3
ATOM      3  C   UNL     1     164.592 179.217 180.607  1.00  0.00    -0.009 C 
BRANCH   3   4
ATOM      4  C   UNL     1     163.967 179.734 179.278  1.00  0.00     0.000 C 
ATOM      5  C   UNL     1     164.342 178.941 178.027  1.00  0.00     0.004 C 
ENDBRANCH   3   4
BRANCH   3   6
ATOM      6  C   UNL     1     163.574 178.575 181.613  1.00  0.00    -0.014 C 
ATOM      7  C   UNL     1     162.378 179.514 181.872  1.00  0.00     0.007 C 
ATOM      8  C   UNL     1     163.022 177.224 181.124  1.00  0.00     0.007 C 
ENDBRANCH   3   6
ENDBRANCH   2   3
ENDBRANCH   1   2
BRANCH   1   9
ATOM      9  C   UNL     1     168.389 178.484 179.883  1.00  0.00    -0.011 C 
ATOM     10  C   UNL     1     167.820 178.055 178.510  1.00  0.00     0.008 C 
BRANCH   9  11
ATOM     11  C   UNL     1     169.180 177.313 180.584  1.00  0.00    -0.002 C 
ATOM     12  C   UNL     1     169.720 176.306 179.565  1.00  0.00     0.005 C 
ATOM     13  C   UNL     1     170.419 177.671 181.503  1.00  0.00    -0.026 C 
ATOM     14  C   UNL     1     170.848 175.555 180.232  1.00  0.00     0.005 C 
ATOM     15  C   UNL     1     171.389 176.442 181.366  1.00  0.00    -0.001 C 
ATOM     16  C   UNL     1     171.139 179.004 181.108  1.00  0.00     0.007 C 
ATOM     17  C   UNL     1     170.003 177.793 182.995  1.00  0.00     0.012 C 
ATOM     18  C   UNL     1     172.883 176.861 181.202  1.00  0.00     0.000 C 
ATOM     19  C   UNL     1     172.002 178.872 179.843  1.00  0.00     0.005 C 
ATOM     20  C   UNL     1     173.107 177.774 179.968  1.00  0.00     0.003 C 
ATOM     21  C   UNL     1     173.843 175.660 181.175  1.00  0.00     0.031 C 
ATOM     22  C   UNL     1     174.587 178.317 179.916  1.00  0.00    -0.008 C 
ATOM     23  C   UNL     1     175.257 176.053 180.839  1.00  0.00    -0.027 C 
ATOM     24  C   UNL     1     175.589 177.174 180.159  1.00  0.00    -0.065 C 
ATOM     25  C   UNL     1     174.845 178.912 178.495  1.00  0.00     0.014 C 
ATOM     26  C   UNL     1     174.832 179.408 180.998  1.00  0.00     0.016 C 
ATOM     27  C   UNL     1     177.046 177.390 179.795  1.00  0.00     0.063 C 
ATOM     28  C   UNL     1     176.325 179.204 178.200  1.00  0.00     0.033 C 
ATOM     29  C   UNL     1     177.189 177.947 178.377  1.00  0.00     0.118 C 
BRANCH  29  30
ATOM     30  O   UNL     1     176.820 176.958 177.448  1.00  0.00    -0.393 OA
ATOM     31  H   UNL     1     177.066 176.083 177.847  1.00  0.00     0.210 HD
ENDBRANCH  29  30
ENDBRANCH   9  11
ENDBRANCH   1   9
TORSDOF 7
ENDMDL
MODEL 3
REMARK VINA RESULT:    -6.363      1.597      3.120
REMARK INTER + INTRA:         -10.400
REMARK INTER:                  -8.580
REMARK INTRA:                  -1.819
REMARK UNBOUND:                -1.619
REMARK SMILES CC[C@H](CC[C@H](C)[C@H]1CC[C@H]2[C@H]3CC=C4C[C@@H](O)CC[C@@]4(C)[C@@H]3CC[C@@]12C)C(C)C
REMARK SMILES IDX 5 1 4 2 3 3 2 4 1 5 28 6 29 7 30 8 6 9 7 10 8 11 9 12 26 13
REMARK SMILES IDX 10 14 11 15 25 16 27 17 12 18 24 19 23 20 13 21 21 22 14 23
REMARK SMILES IDX 15 24 20 25 22 26 16 27 19 28 17 29 18 30
REMARK H PARENT 18 31
REMARK Flexibility Score: inf
ROOT
ATOM      1  C   UNL     1     172.876 175.568 180.851  1.00  0.00     0.004 C 
ENDROOT
BRANCH   1   2
ATOM      2  C   UNL     1     173.393 176.859 181.525  1.00  0.00     0.004 C 
BRANCH   2   3
ATOM      3  C   UNL     1     174.596 177.555 180.815  1.00  0.00    -0.009 C 
BRANCH   3   4
ATOM      4  C   UNL     1     174.234 179.002 180.368  1.00  0.00     0.000 C 
ATOM      5  C   UNL     1     173.133 179.682 181.182  1.00  0.00     0.004 C 
ENDBRANCH   3   4
BRANCH   3   6
ATOM      6  C   UNL     1     175.962 177.418 181.573  1.00  0.00    -0.014 C 
ATOM      7  C   UNL     1     176.952 176.536 180.786  1.00  0.00     0.007 C 
ATOM      8  C   UNL     1     176.637 178.777 181.836  1.00  0.00     0.007 C 
ENDBRANCH   3   6
ENDBRANCH   2   3
ENDBRANCH   1   2
BRANCH   1   9
ATOM      9  C   UNL     1     171.549 175.804 180.080  1.00  0.00    -0.011 C 
ATOM     10  C   UNL     1     171.842 175.644 178.570  1.00  0.00     0.008 C 
BRANCH   9  11
ATOM     11  C   UNL     1     170.904 177.206 180.409  1.00  0.00    -0.002 C 
ATOM     12  C   UNL     1     170.503 177.956 179.136  1.00  0.00     0.005 C 
ATOM     13  C   UNL     1     169.623 177.258 181.337  1.00  0.00    -0.026 C 
ATOM     14  C   UNL     1     169.472 178.987 179.530  1.00  0.00     0.005 C 
ATOM     15  C   UNL     1     168.815 178.510 180.836  1.00  0.00    -0.001 C 
ATOM     16  C   UNL     1     168.745 175.963 181.283  1.00  0.00     0.007 C 
ATOM     17  C   UNL     1     170.006 177.496 182.823  1.00  0.00     0.012 C 
ATOM     18  C   UNL     1     167.281 178.241 180.727  1.00  0.00     0.000 C 
ATOM     19  C   UNL     1     167.917 175.848 179.994  1.00  0.00     0.005 C 
ATOM     20  C   UNL     1     166.956 177.062 179.773  1.00  0.00     0.003 C 
ATOM     21  C   UNL     1     166.479 179.495 180.339  1.00  0.00     0.031 C 
ATOM     22  C   UNL     1     165.420 176.703 179.806  1.00  0.00    -0.008 C 
ATOM     23  C   UNL     1     165.031 179.195 180.061  1.00  0.00    -0.027 C 
ATOM     24  C   UNL     1     164.567 177.979 179.692  1.00  0.00    -0.065 C 
ATOM     25  C   UNL     1     165.103 175.781 178.586  1.00  0.00     0.014 C 
ATOM     26  C   UNL     1     165.032 175.982 181.129  1.00  0.00     0.016 C 
ATOM     27  C   UNL     1     163.097 177.846 179.338  1.00  0.00     0.063 C 
ATOM     28  C   UNL     1     163.600 175.596 178.317  1.00  0.00     0.033 C 
ATOM     29  C   UNL     1     162.899 176.946 178.115  1.00  0.00     0.118 C 
BRANCH  29  30
ATOM     30  O   UNL     1     163.397 177.597 176.973  1.00  0.00    -0.393 OA
ATOM     31  H   UNL     1     162.610 177.898 176.447  1.00  0.00     0.210 HD
ENDBRANCH  29  30
ENDBRANCH   9  11
ENDBRANCH   1   9
TORSDOF 7
ENDMDL
MODEL 4
REMARK VINA RESULT:    -6.297      1.378      2.268
REMARK INTER + INTRA:         -10.308
REMARK INTER:                  -9.073
REMARK INTRA:                  -1.235
REMARK UNBOUND:                -1.619
REMARK SMILES CC[C@H](CC[C@H](C)[C@H]1CC[C@H]2[C@H]3CC=C4C[C@@H](O)CC[C@@]4(C)[C@@H]3CC[C@@]12C)C(C)C
REMARK SMILES IDX 5 1 4 2 3 3 2 4 1 5 28 6 29 7 30 8 6 9 7 10 8 11 9 12 26 13
REMARK SMILES IDX 10 14 11 15 25 16 27 17 12 18 24 19 23 20 13 21 21 22 14 23
REMARK SMILES IDX 15 24 20 25 22 26 16 27 19 28 17 29 18 30
REMARK H PARENT 18 31
REMARK Flexibility Score: inf
ROOT
ATOM      1  C   UNL     1     172.123 178.208 181.419  1.00  0.00     0.004 C 
ENDROOT
BRANCH   1   2
ATOM      2  C   UNL     1     172.853 179.417 180.792  1.00  0.00     0.004 C 
BRANCH   2   3
ATOM      3  C   UNL     1     174.318 179.152 180.324  1.00  0.00    -0.009 C 
BRANCH   3   4
ATOM      4  C   UNL     1     175.021 178.094 181.224  1.00  0.00     0.000 C 
ATOM      5  C   UNL     1     176.401 178.492 181.746  1.00  0.00     0.004 C 
ENDBRANCH   3   4
BRANCH   3   6
ATOM      6  C   UNL     1     174.472 178.917 178.781  1.00  0.00    -0.014 C 
ATOM      7  C   UNL     1     173.118 179.060 178.056  1.00  0.00     0.007 C 
ATOM      8  C   UNL     1     175.470 179.889 178.125  1.00  0.00     0.007 C 
ENDBRANCH   3   6
ENDBRANCH   2   3
ENDBRANCH   1   2
BRANCH   1   9
ATOM      9  C   UNL     1     170.581 178.329 181.294  1.00  0.00    -0.011 C 
ATOM     10  C   UNL     1     170.004 178.543 182.713  1.00  0.00     0.008 C 
BRANCH   9  11
ATOM     11  C   UNL     1     169.936 177.079 180.579  1.00  0.00    -0.002 C 
ATOM     12  C   UNL     1     169.086 176.250 181.548  1.00  0.00     0.005 C 
ATOM     13  C   UNL     1     169.009 177.313 179.318  1.00  0.00    -0.026 C 
ATOM     14  C   UNL     1     168.133 175.426 180.715  1.00  0.00     0.005 C 
ATOM     15  C   UNL     1     167.966 176.138 179.361  1.00  0.00    -0.001 C 
ATOM     16  C   UNL     1     168.291 178.704 179.307  1.00  0.00     0.007 C 
ATOM     17  C   UNL     1     169.811 177.197 177.993  1.00  0.00     0.012 C 
ATOM     18  C   UNL     1     166.509 176.605 179.052  1.00  0.00     0.000 C 
ATOM     19  C   UNL     1     167.117 178.785 180.297  1.00  0.00     0.005 C 
ATOM     20  C   UNL     1     166.021 177.701 180.036  1.00  0.00     0.003 C 
ATOM     21  C   UNL     1     165.507 175.440 178.990  1.00  0.00     0.031 C 
ATOM     22  C   UNL     1     164.615 178.273 179.607  1.00  0.00    -0.008 C 
ATOM     23  C   UNL     1     164.081 175.906 178.871  1.00  0.00    -0.027 C 
ATOM     24  C   UNL     1     163.647 177.125 179.267  1.00  0.00    -0.065 C 
ATOM     25  C   UNL     1     164.025 179.084 180.804  1.00  0.00     0.014 C 
ATOM     26  C   UNL     1     164.731 179.189 178.354  1.00  0.00     0.016 C 
ATOM     27  C   UNL     1     162.161 177.422 179.188  1.00  0.00     0.063 C 
ATOM     28  C   UNL     1     162.540 179.446 180.642  1.00  0.00     0.033 C 
ATOM     29  C   UNL     1     161.681 178.193 180.420  1.00  0.00     0.118 C 
BRANCH  29  30
ATOM     30  O   UNL     1     161.731 177.352 181.545  1.00  0.00    -0.393 OA
ATOM     31  H   UNL     1     161.380 177.876 182.312  1.00  0.00     0.210 HD
ENDBRANCH  29  30
ENDBRANCH   9  11
ENDBRANCH   1   9
TORSDOF 7
ENDMDL
MODEL 5
REMARK VINA RESULT:    -6.247      6.157     10.224
REMARK INTER + INTRA:         -10.240
REMARK INTER:                  -8.143
REMARK INTRA:                  -2.097
REMARK UNBOUND:                -1.619
REMARK SMILES CC[C@H](CC[C@H](C)[C@H]1CC[C@H]2[C@H]3CC=C4C[C@@H](O)CC[C@@]4(C)[C@@H]3CC[C@@]12C)C(C)C
REMARK SMILES IDX 5 1 4 2 3 3 2 4 1 5 28 6 29 7 30 8 6 9 7 10 8 11 9 12 26 13
REMARK SMILES IDX 10 14 11 15 25 16 27 17 12 18 24 19 23 20 13 21 21 22 14 23
REMARK SMILES IDX 15 24 20 25 22 26 16 27 19 28 17 29 18 30
REMARK H PARENT 18 31
REMARK Flexibility Score: inf
ROOT
ATOM      1  C   UNL     1     175.828 168.749 180.081  1.00  0.00     0.004 C 
ENDROOT
BRANCH   1   2
ATOM      2  C   UNL     1     177.170 168.089 179.686  1.00  0.00     0.004 C 
BRANCH   2   3
ATOM      3  C   UNL     1     178.248 168.028 180.812  1.00  0.00    -0.009 C 
BRANCH   3   4
ATOM      4  C   UNL     1     178.223 166.657 181.551  1.00  0.00     0.000 C 
ATOM      5  C   UNL     1     178.312 165.427 180.648  1.00  0.00     0.004 C 
ENDBRANCH   3   4
BRANCH   3   6
ATOM      6  C   UNL     1     179.672 168.517 180.372  1.00  0.00    -0.014 C 
ATOM      7  C   UNL     1     179.721 168.803 178.858  1.00  0.00     0.007 C 
ATOM      8  C   UNL     1     180.121 169.790 181.113  1.00  0.00     0.007 C 
ENDBRANCH   3   6
ENDBRANCH   2   3
ENDBRANCH   1   2
BRANCH   1   9
ATOM      9  C   UNL     1     175.703 170.192 179.525  1.00  0.00    -0.011 C 
ATOM     10  C   UNL     1     175.509 170.096 177.993  1.00  0.00     0.008 C 
BRANCH   9  11
ATOM     11  C   UNL     1     176.941 171.093 179.905  1.00  0.00    -0.002 C 
ATOM     12  C   UNL     1     177.490 171.844 178.689  1.00  0.00     0.005 C 
ATOM     13  C   UNL     1     176.766 172.198 181.025  1.00  0.00    -0.026 C 
ATOM     14  C   UNL     1     178.285 173.018 179.208  1.00  0.00     0.005 C 
ATOM     15  C   UNL     1     177.764 173.344 180.618  1.00  0.00    -0.001 C 
ATOM     16  C   UNL     1     175.305 172.744 181.157  1.00  0.00     0.007 C 
ATOM     17  C   UNL     1     177.189 171.665 182.422  1.00  0.00     0.012 C 
ATOM     18  C   UNL     1     177.147 174.769 180.766  1.00  0.00     0.000 C 
ATOM     19  C   UNL     1     174.915 173.705 180.022  1.00  0.00     0.005 C 
ATOM     20  C   UNL     1     175.861 174.946 179.918  1.00  0.00     0.003 C 
ATOM     21  C   UNL     1     178.155 175.893 180.471  1.00  0.00     0.031 C 
ATOM     22  C   UNL     1     175.165 176.331 180.209  1.00  0.00    -0.008 C 
ATOM     23  C   UNL     1     177.515 177.254 180.439  1.00  0.00    -0.027 C 
ATOM     24  C   UNL     1     176.202 177.468 180.191  1.00  0.00    -0.065 C 
ATOM     25  C   UNL     1     174.111 176.601 179.087  1.00  0.00     0.014 C 
ATOM     26  C   UNL     1     174.469 176.338 181.600  1.00  0.00     0.016 C 
ATOM     27  C   UNL     1     175.715 178.901 180.082  1.00  0.00     0.063 C 
ATOM     28  C   UNL     1     173.572 178.040 179.070  1.00  0.00     0.033 C 
ATOM     29  C   UNL     1     174.710 179.062 178.938  1.00  0.00     0.118 C 
BRANCH  29  30
ATOM     30  O   UNL     1     175.375 178.906 177.709  1.00  0.00    -0.393 OA
ATOM     31  H   UNL     1     176.121 178.269 177.864  1.00  0.00     0.210 HD
ENDBRANCH  29  30
ENDBRANCH   9  11
ENDBRANCH   1   9
TORSDOF 7
ENDMDL
MODEL 6
REMARK VINA RESULT:    -6.245      2.657      9.052
REMARK INTER + INTRA:         -10.237
REMARK INTER:                  -8.481
REMARK INTRA:                  -1.756
REMARK UNBOUND:                -1.619
REMARK SMILES CC[C@H](CC[C@H](C)[C@H]1CC[C@H]2[C@H]3CC=C4C[C@@H](O)CC[C@@]4(C)[C@@H]3CC[C@@]12C)C(C)C
REMARK SMILES IDX 5 1 4 2 3 3 2 4 1 5 28 6 29 7 30 8 6 9 7 10 8 11 9 12 26 13
REMARK SMILES IDX 10 14 11 15 25 16 27 17 12 18 24 19 23 20 13 21 21 22 14 23
REMARK SMILES IDX 15 24 20 25 22 26 16 27 19 28 17 29 18 30
REMARK H PARENT 18 31
REMARK Flexibility Score: inf
ROOT
ATOM      1  C   UNL     1     164.071 177.761 181.518  1.00  0.00     0.004 C 
ENDROOT
BRANCH   1   2
ATOM      2  C   UNL     1     162.687 178.252 181.035  1.00  0.00     0.004 C 
BRANCH   2   3
ATOM      3  C   UNL     1     161.832 177.202 180.260  1.00  0.00    -0.009 C 
BRANCH   3   4
ATOM      4  C   UNL     1     161.992 177.361 178.719  1.00  0.00     0.000 C 
ATOM      5  C   UNL     1     161.673 178.750 178.169  1.00  0.00     0.004 C 
ENDBRANCH   3   4
BRANCH   3   6
ATOM      6  C   UNL     1     161.972 175.733 180.792  1.00  0.00    -0.014 C 
ATOM      7  C   UNL     1     160.607 175.166 181.233  1.00  0.00     0.007 C 
ATOM      8  C   UNL     1     162.572 174.774 179.747  1.00  0.00     0.007 C 
ENDBRANCH   3   6
ENDBRANCH   2   3
ENDBRANCH   1   2
BRANCH   1   9
ATOM      9  C   UNL     1     165.233 178.442 180.746  1.00  0.00    -0.011 C 
ATOM     10  C   UNL     1     164.686 179.746 180.120  1.00  0.00     0.008 C 
BRANCH   9  11
ATOM     11  C   UNL     1     165.872 177.492 179.661  1.00  0.00    -0.002 C 
ATOM     12  C   UNL     1     166.428 178.283 178.474  1.00  0.00     0.005 C 
ATOM     13  C   UNL     1     167.046 176.521 180.092  1.00  0.00    -0.026 C 
ATOM     14  C   UNL     1     167.435 177.398 177.777  1.00  0.00     0.005 C 
ATOM     15  C   UNL     1     167.934 176.368 178.804  1.00  0.00    -0.001 C 
ATOM     16  C   UNL     1     167.892 177.044 181.301  1.00  0.00     0.007 C 
ATOM     17  C   UNL     1     166.509 175.115 180.477  1.00  0.00     0.012 C 
ATOM     18  C   UNL     1     169.463 176.445 179.106  1.00  0.00     0.000 C 
ATOM     19  C   UNL     1     168.853 178.181 180.918  1.00  0.00     0.005 C 
ATOM     20  C   UNL     1     169.862 177.777 179.794  1.00  0.00     0.003 C 
ATOM     21  C   UNL     1     170.334 176.189 177.864  1.00  0.00     0.031 C 
ATOM     22  C   UNL     1     171.375 177.766 180.237  1.00  0.00    -0.008 C 
ATOM     23  C   UNL     1     171.796 176.441 178.117  1.00  0.00    -0.027 C 
ATOM     24  C   UNL     1     172.267 177.250 179.094  1.00  0.00    -0.065 C 
ATOM     25  C   UNL     1     171.801 179.230 180.579  1.00  0.00     0.014 C 
ATOM     26  C   UNL     1     171.599 176.848 181.473  1.00  0.00     0.016 C 
ATOM     27  C   UNL     1     173.763 177.496 179.166  1.00  0.00     0.063 C 
ATOM     28  C   UNL     1     173.319 179.418 180.735  1.00  0.00     0.033 C 
ATOM     29  C   UNL     1     174.071 178.963 179.477  1.00  0.00     0.118 C 
BRANCH  29  30
ATOM     30  O   UNL     1     173.716 179.758 178.373  1.00  0.00    -0.393 OA
ATOM     31  H   UNL     1     172.771 179.544 178.156  1.00  0.00     0.210 HD
ENDBRANCH  29  30
ENDBRANCH   9  11
ENDBRANCH   1   9
TORSDOF 7
ENDMDL
MODEL 7
REMARK VINA RESULT:    -6.197      1.692      2.617
REMARK INTER + INTRA:         -10.171
REMARK INTER:                  -8.285
REMARK INTRA:                  -1.886
REMARK UNBOUND:                -1.619
REMARK SMILES CC[C@H](CC[C@H](C)[C@H]1CC[C@H]2[C@H]3CC=C4C[C@@H](O)CC[C@@]4(C)[C@@H]3CC[C@@]12C)C(C)C
REMARK SMILES IDX 5 1 4 2 3 3 2 4 1 5 28 6 29 7 30 8 6 9 7 10 8 11 9 12 26 13
REMARK SMILES IDX 10 14 11 15 25 16 27 17 12 18 24 19 23 20 13 21 21 22 14 23
REMARK SMILES IDX 15 24 20 25 22 26 16 27 19 28 17 29 18 30
REMARK H PARENT 18 31
REMARK Flexibility Score: inf
ROOT
ATOM      1  C   UNL     1     171.670 177.704 177.626  1.00  0.00     0.004 C 
ENDROOT
BRANCH   1   2
ATOM      2  C   UNL     1     172.557 176.937 178.634  1.00  0.00     0.004 C 
BRANCH   2   3
ATOM      3  C   UNL     1     173.830 177.695 179.124  1.00  0.00    -0.009 C 
BRANCH   3   4
ATOM      4  C   UNL     1     174.070 178.996 178.304  1.00  0.00     0.000 C 
ATOM      5  C   UNL     1     175.434 179.097 177.623  1.00  0.00     0.004 C 
ENDBRANCH   3   4
BRANCH   3   6
ATOM      6  C   UNL     1     173.921 177.867 180.681  1.00  0.00    -0.014 C 
ATOM      7  C   UNL     1     173.644 179.325 181.098  1.00  0.00     0.007 C 
ATOM      8  C   UNL     1     172.937 176.958 181.441  1.00  0.00     0.007 C 
ENDBRANCH   3   6
ENDBRANCH   2   3
ENDBRANCH   1   2
BRANCH   1   9
ATOM      9  C   UNL     1     170.305 178.110 178.243  1.00  0.00    -0.011 C 
ATOM     10  C   UNL     1     170.529 179.381 179.097  1.00  0.00     0.008 C 
BRANCH   9  11
ATOM     11  C   UNL     1     169.654 176.945 179.084  1.00  0.00    -0.002 C 
ATOM     12  C   UNL     1     169.409 177.363 180.536  1.00  0.00     0.005 C 
ATOM     13  C   UNL     1     168.279 176.328 178.598  1.00  0.00    -0.026 C 
ATOM     14  C   UNL     1     168.361 176.433 181.100  1.00  0.00     0.005 C 
ATOM     15  C   UNL     1     167.555 175.872 179.916  1.00  0.00    -0.001 C 
ATOM     16  C   UNL     1     167.389 177.324 177.781  1.00  0.00     0.007 C 
ATOM     17  C   UNL     1     168.501 175.072 177.711  1.00  0.00     0.012 C 
ATOM     18  C   UNL     1     166.038 176.239 179.935  1.00  0.00     0.000 C 
ATOM     19  C   UNL     1     166.706 178.383 178.661  1.00  0.00     0.005 C 
ATOM     20  C   UNL     1     165.798 177.762 179.772  1.00  0.00     0.003 C 
ATOM     21  C   UNL     1     165.306 175.700 181.176  1.00  0.00     0.031 C 
ATOM     22  C   UNL     1     164.262 178.091 179.629  1.00  0.00    -0.008 C 
ATOM     23  C   UNL     1     163.892 176.204 181.282  1.00  0.00    -0.027 C 
ATOM     24  C   UNL     1     163.450 177.343 180.702  1.00  0.00    -0.065 C 
ATOM     25  C   UNL     1     164.063 179.626 179.834  1.00  0.00     0.014 C 
ATOM     26  C   UNL     1     163.716 177.669 178.234  1.00  0.00     0.016 C 
ATOM     27  C   UNL     1     162.026 177.787 180.982  1.00  0.00     0.063 C 
ATOM     28  C   UNL     1     162.596 180.047 180.021  1.00  0.00     0.033 C 
ATOM     29  C   UNL     1     161.946 179.301 181.195  1.00  0.00     0.118 C 
BRANCH  29  30
ATOM     30  O   UNL     1     162.579 179.635 182.405  1.00  0.00    -0.393 OA
ATOM     31  H   UNL     1     162.099 179.148 183.125  1.00  0.00     0.210 HD
ENDBRANCH  29  30
ENDBRANCH   9  11
ENDBRANCH   1   9
TORSDOF 7
ENDMDL
MODEL 8
REMARK VINA RESULT:    -6.142     11.066     14.564
REMARK INTER + INTRA:         -10.095
REMARK INTER:                  -7.977
REMARK INTRA:                  -2.118
REMARK UNBOUND:                -1.619
REMARK SMILES CC[C@H](CC[C@H](C)[C@H]1CC[C@H]2[C@H]3CC=C4C[C@@H](O)CC[C@@]4(C)[C@@H]3CC[C@@]12C)C(C)C
REMARK SMILES IDX 5 1 4 2 3 3 2 4 1 5 28 6 29 7 30 8 6 9 7 10 8 11 9 12 26 13
REMARK SMILES IDX 10 14 11 15 25 16 27 17 12 18 24 19 23 20 13 21 21 22 14 23
REMARK SMILES IDX 15 24 20 25 22 26 16 27 19 28 17 29 18 30
REMARK H PARENT 18 31
REMARK Flexibility Score: inf
ROOT
ATOM      1  C   UNL     1     179.855 168.752 181.141  1.00  0.00     0.004 C 
ENDROOT
BRANCH   1   2
ATOM      2  C   UNL     1     179.762 169.733 179.949  1.00  0.00     0.004 C 
BRANCH   2   3
ATOM      3  C   UNL     1     179.041 171.085 180.242  1.00  0.00    -0.009 C 
BRANCH   3   4
ATOM      4  C   UNL     1     178.417 171.690 178.950  1.00  0.00     0.000 C 
ATOM      5  C   UNL     1     178.777 170.970 177.651  1.00  0.00     0.004 C 
ENDBRANCH   3   4
BRANCH   3   6
ATOM      6  C   UNL     1     178.086 171.053 181.486  1.00  0.00    -0.014 C 
ATOM      7  C   UNL     1     178.640 171.917 182.637  1.00  0.00     0.007 C 
ATOM      8  C   UNL     1     176.664 171.545 181.160  1.00  0.00     0.007 C 
ENDBRANCH   3   6
ENDBRANCH   2   3
ENDBRANCH   1   2
BRANCH   1   9
ATOM      9  C   UNL     1     178.934 167.518 180.953  1.00  0.00    -0.011 C 
ATOM     10  C   UNL     1     179.740 166.259 181.349  1.00  0.00     0.008 C 
BRANCH   9  11
ATOM     11  C   UNL     1     178.362 167.412 179.486  1.00  0.00    -0.002 C 
ATOM     12  C   UNL     1     178.955 166.218 178.733  1.00  0.00     0.005 C 
ATOM     13  C   UNL     1     176.797 167.288 179.284  1.00  0.00    -0.026 C 
ATOM     14  C   UNL     1     178.016 165.895 177.595  1.00  0.00     0.005 C 
ATOM     15  C   UNL     1     176.627 166.439 177.971  1.00  0.00    -0.001 C 
ATOM     16  C   UNL     1     176.051 166.620 180.487  1.00  0.00     0.007 C 
ATOM     17  C   UNL     1     176.142 168.677 179.047  1.00  0.00     0.012 C 
ATOM     18  C   UNL     1     175.516 165.350 178.090  1.00  0.00     0.000 C 
ATOM     19  C   UNL     1     176.253 165.097 180.552  1.00  0.00     0.005 C 
ATOM     20  C   UNL     1     175.782 164.361 179.255  1.00  0.00     0.003 C 
ATOM     21  C   UNL     1     175.277 164.591 176.773  1.00  0.00     0.031 C 
ATOM     22  C   UNL     1     174.570 163.374 179.460  1.00  0.00    -0.008 C 
ATOM     23  C   UNL     1     174.338 163.426 176.936  1.00  0.00    -0.027 C 
ATOM     24  C   UNL     1     174.116 162.791 178.110  1.00  0.00    -0.065 C 
ATOM     25  C   UNL     1     175.038 162.199 180.377  1.00  0.00     0.014 C 
ATOM     26  C   UNL     1     173.351 164.094 180.105  1.00  0.00     0.016 C 
ATOM     27  C   UNL     1     173.225 161.563 178.106  1.00  0.00     0.063 C 
ATOM     28  C   UNL     1     174.062 161.012 180.419  1.00  0.00     0.033 C 
ATOM     29  C   UNL     1     173.788 160.464 179.012  1.00  0.00     0.118 C 
BRANCH  29  30
ATOM     30  O   UNL     1     174.966 159.949 178.443  1.00  0.00    -0.393 OA
ATOM     31  H   UNL     1     175.232 159.166 178.993  1.00  0.00     0.210 HD
ENDBRANCH  29  30
ENDBRANCH   9  11
ENDBRANCH   1   9
TORSDOF 7
ENDMDL
MODEL 9
REMARK VINA RESULT:    -6.080      6.448     11.343
REMARK INTER + INTRA:         -10.009
REMARK INTER:                  -8.678
REMARK INTRA:                  -1.331
REMARK UNBOUND:                -1.619
REMARK SMILES CC[C@H](CC[C@H](C)[C@H]1CC[C@H]2[C@H]3CC=C4C[C@@H](O)CC[C@@]4(C)[C@@H]3CC[C@@]12C)C(C)C
REMARK SMILES IDX 5 1 4 2 3 3 2 4 1 5 28 6 29 7 30 8 6 9 7 10 8 11 9 12 26 13
REMARK SMILES IDX 10 14 11 15 25 16 27 17 12 18 24 19 23 20 13 21 21 22 14 23
REMARK SMILES IDX 15 24 20 25 22 26 16 27 19 28 17 29 18 30
REMARK H PARENT 18 31
REMARK Flexibility Score: inf
ROOT
ATOM      1  C   UNL     1     160.186 170.140 180.479  1.00  0.00     0.004 C 
ENDROOT
BRANCH   1   2
ATOM      2  C   UNL     1     161.083 168.883 180.424  1.00  0.00     0.004 C 
BRANCH   2   3
ATOM      3  C   UNL     1     160.334 167.528 180.230  1.00  0.00    -0.009 C 
BRANCH   3   4
ATOM      4  C   UNL     1     160.574 166.941 178.808  1.00  0.00     0.000 C 
ATOM      5  C   UNL     1     161.910 167.311 178.165  1.00  0.00     0.004 C 
ENDBRANCH   3   4
BRANCH   3   6
ATOM      6  C   UNL     1     160.525 166.509 181.407  1.00  0.00    -0.014 C 
ATOM      7  C   UNL     1     159.875 165.149 181.080  1.00  0.00     0.007 C 
ATOM      8  C   UNL     1     162.006 166.260 181.748  1.00  0.00     0.007 C 
ENDBRANCH   3   6
ENDBRANCH   2   3
ENDBRANCH   1   2
BRANCH   1   9
ATOM      9  C   UNL     1     160.855 171.364 179.799  1.00  0.00    -0.011 C 
ATOM     10  C   UNL     1     161.031 171.034 178.298  1.00  0.00     0.008 C 
BRANCH   9  11
ATOM     11  C   UNL     1     162.223 171.757 180.479  1.00  0.00    -0.002 C 
ATOM     12  C   UNL     1     163.317 172.018 179.439  1.00  0.00     0.005 C 
ATOM     13  C   UNL     1     162.265 173.013 181.442  1.00  0.00    -0.026 C 
ATOM     14  C   UNL     1     164.381 172.855 180.109  1.00  0.00     0.005 C 
ATOM     15  C   UNL     1     163.719 173.589 181.288  1.00  0.00    -0.001 C 
ATOM     16  C   UNL     1     161.189 174.101 181.114  1.00  0.00     0.007 C 
ATOM     17  C   UNL     1     162.066 172.598 182.926  1.00  0.00     0.012 C 
ATOM     18  C   UNL     1     163.748 175.146 181.178  1.00  0.00     0.000 C 
ATOM     19  C   UNL     1     161.533 174.933 179.868  1.00  0.00     0.005 C 
ATOM     20  C   UNL     1     162.908 175.668 179.983  1.00  0.00     0.003 C 
ATOM     21  C   UNL     1     165.175 175.717 181.134  1.00  0.00     0.031 C 
ATOM     22  C   UNL     1     162.816 177.243 179.989  1.00  0.00    -0.008 C 
ATOM     23  C   UNL     1     165.201 177.195 180.849  1.00  0.00    -0.027 C 
ATOM     24  C   UNL     1     164.207 177.861 180.218  1.00  0.00    -0.065 C 
ATOM     25  C   UNL     1     162.286 177.712 178.597  1.00  0.00     0.014 C 
ATOM     26  C   UNL     1     161.872 177.754 181.114  1.00  0.00     0.016 C 
ATOM     27  C   UNL     1     164.415 179.331 179.900  1.00  0.00     0.063 C 
ATOM     28  C   UNL     1     162.429 179.223 178.351  1.00  0.00     0.033 C 
ATOM     29  C   UNL     1     163.886 179.679 178.506  1.00  0.00     0.118 C 
BRANCH  29  30
ATOM     30  O   UNL     1     164.701 179.072 177.534  1.00  0.00    -0.393 OA
ATOM     31  H   UNL     1     165.616 179.022 177.917  1.00  0.00     0.210 HD
ENDBRANCH  29  30
ENDBRANCH   9  11
ENDBRANCH   1   9
TORSDOF 7
ENDMDL
