MODEL 1
REMARK VINA RESULT:    -4.767      0.000      0.000
REMARK INTER + INTRA:          -9.776
REMARK INTER:                  -8.390
REMARK INTRA:                  -1.386
REMARK UNBOUND:                -1.386
REMARK SMILES CCCCCCCCCCCCCCC(=O)[O-]
REMARK SMILES IDX 9 1 10 2 11 3 12 4 13 5 14 6 15 7 16 8 17 9 8 10 7 11 6 12
REMARK SMILES IDX 5 13 4 14 3 15 2 16 1 17
REMARK H PARENT
REMARK Flexibility Score: inf
ROOT
ATOM      1  C   UNL     1     -22.556 -29.990   4.700  1.00  0.00     0.000 C 
ENDROOT
BRANCH   1   2
ATOM      2  C   UNL     1     -22.533 -31.521   4.760  1.00  0.00     0.000 C 
BRANCH   2   3
ATOM      3  C   UNL     1     -23.292 -32.036   5.990  1.00  0.00     0.000 C 
BRANCH   3   4
ATOM      4  C   UNL     1     -22.574 -31.639   7.285  1.00  0.00     0.000 C 
BRANCH   4   5
ATOM      5  C   UNL     1     -22.274 -32.874   8.148  1.00  0.00     0.006 C 
BRANCH   5   6
ATOM      6  C   UNL     1     -21.836 -32.497   9.569  1.00  0.00     0.053 C 
BRANCH   6   7
ATOM      7  C   UNL     1     -22.981 -32.541  10.534  1.00  0.00     0.041 C 
ATOM      8  O   UNL     1     -23.418 -33.646  10.950  1.00  0.00    -0.550 OA
ATOM      9  O   UNL     1     -23.543 -31.359  11.000  1.00  0.00    -0.550 OA
ENDBRANCH   6   7
ENDBRANCH   5   6
ENDBRANCH   4   5
ENDBRANCH   3   4
ENDBRANCH   2   3
ENDBRANCH   1   2
BRANCH   1  10
ATOM     10  C   UNL     1     -23.841 -29.483   4.036  1.00  0.00     0.000 C 
BRANCH  10  11
ATOM     11  C   UNL     1     -24.495 -28.375   4.876  1.00  0.00    -0.000 C 
BRANCH  11  12
ATOM     12  C   UNL     1     -25.930 -28.722   5.303  1.00  0.00    -0.000 C 
BRANCH  12  13
ATOM     13  C   UNL     1     -25.975 -29.624   6.546  1.00  0.00    -0.000 C 
BRANCH  13  14
ATOM     14  C   UNL     1     -25.143 -29.024   7.689  1.00  0.00    -0.000 C 
BRANCH  14  15
ATOM     15  C   UNL     1     -25.934 -28.897   9.002  1.00  0.00    -0.000 C 
BRANCH  15  16
ATOM     16  C   UNL     1     -27.139 -27.937   8.910  1.00  0.00    -0.003 C 
ATOM     17  C   UNL     1     -26.991 -26.727   9.832  1.00  0.00     0.004 C 
ENDBRANCH  15  16
ENDBRANCH  14  15
ENDBRANCH  13  14
ENDBRANCH  12  13
ENDBRANCH  11  12
ENDBRANCH  10  11
ENDBRANCH   1  10
TORSDOF 13
ENDMDL
MODEL 2
REMARK VINA RESULT:    -4.757      9.013     10.523
REMARK INTER + INTRA:          -9.758
REMARK INTER:                  -8.512
REMARK INTRA:                  -1.246
REMARK UNBOUND:                -1.386
REMARK SMILES CCCCCCCCCCCCCCC(=O)[O-]
REMARK SMILES IDX 9 1 10 2 11 3 12 4 13 5 14 6 15 7 16 8 17 9 8 10 7 11 6 12
REMARK SMILES IDX 5 13 4 14 3 15 2 16 1 17
REMARK H PARENT
REMARK Flexibility Score: inf
ROOT
ATOM      1  C   UNL     1     -17.345 -26.319  13.780  1.00  0.00     0.000 C 
ENDROOT
BRANCH   1   2
ATOM      2  C   UNL     1     -16.043 -25.649  13.325  1.00  0.00     0.000 C 
BRANCH   2   3
ATOM      3  C   UNL     1     -15.933 -25.642  11.795  1.00  0.00     0.000 C 
BRANCH   3   4
ATOM      4  C   UNL     1     -17.319 -25.710  11.142  1.00  0.00     0.000 C 
BRANCH   4   5
ATOM      5  C   UNL     1     -17.212 -26.092   9.659  1.00  0.00     0.006 C 
BRANCH   5   6
ATOM      6  C   UNL     1     -15.884 -26.787   9.333  1.00  0.00     0.053 C 
BRANCH   6   7
ATOM      7  C   UNL     1     -15.491 -26.593   7.900  1.00  0.00     0.041 C 
ATOM      8  O   UNL     1     -14.913 -25.535   7.540  1.00  0.00    -0.550 OA
ATOM      9  O   UNL     1     -15.733 -27.596   6.970  1.00  0.00    -0.550 OA
ENDBRANCH   6   7
ENDBRANCH   5   6
ENDBRANCH   4   5
ENDBRANCH   3   4
ENDBRANCH   2   3
ENDBRANCH   1   2
BRANCH   1  10
ATOM     10  C   UNL     1     -17.811 -25.757  15.128  1.00  0.00     0.000 C 
BRANCH  10  11
ATOM     11  C   UNL     1     -19.269 -25.277  15.049  1.00  0.00    -0.000 C 
BRANCH  11  12
ATOM     12  C   UNL     1     -19.687 -24.881  13.624  1.00  0.00    -0.000 C 
BRANCH  12  13
ATOM     13  C   UNL     1     -19.852 -23.363  13.456  1.00  0.00    -0.000 C 
BRANCH  13  14
ATOM     14  C   UNL     1     -20.043 -22.992  11.979  1.00  0.00    -0.000 C 
BRANCH  14  15
ATOM     15  C   UNL     1     -19.057 -21.913  11.501  1.00  0.00    -0.000 C 
BRANCH  15  16
ATOM     16  C   UNL     1     -19.442 -21.276  10.149  1.00  0.00    -0.003 C 
ATOM     17  C   UNL     1     -19.771 -22.323   9.085  1.00  0.00     0.004 C 
ENDBRANCH  15  16
ENDBRANCH  14  15
ENDBRANCH  13  14
ENDBRANCH  12  13
ENDBRANCH  11  12
ENDBRANCH  10  11
ENDBRANCH   1  10
TORSDOF 13
ENDMDL
MODEL 3
REMARK VINA RESULT:    -4.739      8.748     10.330
REMARK INTER + INTRA:          -9.726
REMARK INTER:                  -7.991
REMARK INTRA:                  -1.735
REMARK UNBOUND:                -1.386
REMARK SMILES CCCCCCCCCCCCCCC(=O)[O-]
REMARK SMILES IDX 9 1 10 2 11 3 12 4 13 5 14 6 15 7 16 8 17 9 8 10 7 11 6 12
REMARK SMILES IDX 5 13 4 14 3 15 2 16 1 17
REMARK H PARENT
REMARK Flexibility Score: inf
ROOT
ATOM      1  C   UNL     1     -19.525 -24.095  14.631  1.00  0.00     0.000 C 
ENDROOT
BRANCH   1   2
ATOM      2  C   UNL     1     -20.101 -25.236  15.476  1.00  0.00     0.000 C 
BRANCH   2   3
ATOM      3  C   UNL     1     -21.001 -26.147  14.631  1.00  0.00     0.000 C 
BRANCH   3   4
ATOM      4  C   UNL     1     -21.118 -27.541  15.258  1.00  0.00     0.000 C 
BRANCH   4   5
ATOM      5  C   UNL     1     -21.730 -27.464  16.664  1.00  0.00     0.006 C 
BRANCH   5   6
ATOM      6  C   UNL     1     -22.636 -28.662  16.970  1.00  0.00     0.053 C 
BRANCH   6   7
ATOM      7  C   UNL     1     -21.919 -29.964  16.787  1.00  0.00     0.041 C 
ATOM      8  O   UNL     1     -20.952 -30.265  17.534  1.00  0.00    -0.550 OA
ATOM      9  O   UNL     1     -22.340 -30.860  15.812  1.00  0.00    -0.550 OA
ENDBRANCH   6   7
ENDBRANCH   5   6
ENDBRANCH   4   5
ENDBRANCH   3   4
ENDBRANCH   2   3
ENDBRANCH   1   2
BRANCH   1  10
ATOM     10  C   UNL     1     -19.865 -24.282  13.148  1.00  0.00     0.000 C 
BRANCH  10  11
ATOM     11  C   UNL     1     -18.638 -24.015  12.263  1.00  0.00    -0.000 C 
BRANCH  11  12
ATOM     12  C   UNL     1     -18.138 -25.279  11.545  1.00  0.00    -0.000 C 
BRANCH  12  13
ATOM     13  C   UNL     1     -16.649 -25.556  11.803  1.00  0.00    -0.000 C 
BRANCH  13  14
ATOM     14  C   UNL     1     -16.367 -25.683  13.307  1.00  0.00    -0.000 C 
BRANCH  14  15
ATOM     15  C   UNL     1     -17.111 -26.861  13.957  1.00  0.00    -0.000 C 
BRANCH  15  16
ATOM     16  C   UNL     1     -16.913 -26.951  15.485  1.00  0.00    -0.003 C 
ATOM     17  C   UNL     1     -16.099 -25.781  16.037  1.00  0.00     0.004 C 
ENDBRANCH  15  16
ENDBRANCH  14  15
ENDBRANCH  13  14
ENDBRANCH  12  13
ENDBRANCH  11  12
ENDBRANCH  10  11
ENDBRANCH   1  10
TORSDOF 13
ENDMDL
MODEL 4
REMARK VINA RESULT:    -4.721      3.422      6.275
REMARK INTER + INTRA:          -9.695
REMARK INTER:                  -8.226
REMARK INTRA:                  -1.469
REMARK UNBOUND:                -1.386
REMARK SMILES CCCCCCCCCCCCCCC(=O)[O-]
REMARK SMILES IDX 9 1 10 2 11 3 12 4 13 5 14 6 15 7 16 8 17 9 8 10 7 11 6 12
REMARK SMILES IDX 5 13 4 14 3 15 2 16 1 17
REMARK H PARENT
REMARK Flexibility Score: inf
ROOT
ATOM      1  C   UNL     1     -25.996 -29.498   6.610  1.00  0.00     0.000 C 
ENDROOT
BRANCH   1   2
ATOM      2  C   UNL     1     -27.443 -29.526   7.116  1.00  0.00     0.000 C 
BRANCH   2   3
ATOM      3  C   UNL     1     -27.677 -28.442   8.175  1.00  0.00     0.000 C 
BRANCH   3   4
ATOM      4  C   UNL     1     -26.425 -28.231   9.034  1.00  0.00     0.000 C 
BRANCH   4   5
ATOM      5  C   UNL     1     -26.066 -26.741   9.128  1.00  0.00     0.006 C 
BRANCH   5   6
ATOM      6  C   UNL     1     -27.209 -25.904   9.714  1.00  0.00     0.053 C 
BRANCH   6   7
ATOM      7  C   UNL     1     -26.760 -24.520  10.070  1.00  0.00     0.041 C 
ATOM      8  O   UNL     1     -27.256 -23.930  11.065  1.00  0.00    -0.550 OA
ATOM      9  O   UNL     1     -25.771 -23.895   9.322  1.00  0.00    -0.550 OA
ENDBRANCH   6   7
ENDBRANCH   5   6
ENDBRANCH   4   5
ENDBRANCH   3   4
ENDBRANCH   2   3
ENDBRANCH   1   2
BRANCH   1  10
ATOM     10  C   UNL     1     -25.892 -28.742   5.281  1.00  0.00     0.000 C 
BRANCH  10  11
ATOM     11  C   UNL     1     -24.764 -27.701   5.327  1.00  0.00    -0.000 C 
BRANCH  11  12
ATOM     12  C   UNL     1     -23.502 -28.159   4.578  1.00  0.00    -0.000 C 
BRANCH  12  13
ATOM     13  C   UNL     1     -23.826 -29.008   3.339  1.00  0.00    -0.000 C 
BRANCH  13  14
ATOM     14  C   UNL     1     -23.121 -30.371   3.409  1.00  0.00    -0.000 C 
BRANCH  14  15
ATOM     15  C   UNL     1     -22.392 -30.600   4.744  1.00  0.00    -0.000 C 
BRANCH  15  16
ATOM     16  C   UNL     1     -22.974 -31.762   5.576  1.00  0.00    -0.003 C 
ATOM     17  C   UNL     1     -22.909 -31.491   7.079  1.00  0.00     0.004 C 
ENDBRANCH  15  16
ENDBRANCH  14  15
ENDBRANCH  13  14
ENDBRANCH  12  13
ENDBRANCH  11  12
ENDBRANCH  10  11
ENDBRANCH   1  10
TORSDOF 13
ENDMDL
MODEL 5
REMARK VINA RESULT:    -4.698      8.333     10.130
REMARK INTER + INTRA:          -9.655
REMARK INTER:                  -8.355
REMARK INTRA:                  -1.300
REMARK UNBOUND:                -1.386
REMARK SMILES CCCCCCCCCCCCCCC(=O)[O-]
REMARK SMILES IDX 9 1 10 2 11 3 12 4 13 5 14 6 15 7 16 8 17 9 8 10 7 11 6 12
REMARK SMILES IDX 5 13 4 14 3 15 2 16 1 17
REMARK H PARENT
REMARK Flexibility Score: inf
ROOT
ATOM      1  C   UNL     1     -23.678 -26.052  16.079  1.00  0.00     0.000 C 
ENDROOT
BRANCH   1   2
ATOM      2  C   UNL     1     -23.341 -25.829  17.558  1.00  0.00     0.000 C 
BRANCH   2   3
ATOM      3  C   UNL     1     -22.750 -27.099  18.185  1.00  0.00     0.000 C 
BRANCH   3   4
ATOM      4  C   UNL     1     -22.974 -28.316  17.280  1.00  0.00     0.000 C 
BRANCH   4   5
ATOM      5  C   UNL     1     -21.654 -29.054  17.013  1.00  0.00     0.006 C 
BRANCH   5   6
ATOM      6  C   UNL     1     -21.396 -29.260  15.515  1.00  0.00     0.053 C 
BRANCH   6   7
ATOM      7  C   UNL     1     -21.878 -30.599  15.047  1.00  0.00     0.041 C 
ATOM      8  O   UNL     1     -21.592 -31.006  13.891  1.00  0.00    -0.550 OA
ATOM      9  O   UNL     1     -22.616 -31.411  15.899  1.00  0.00    -0.550 OA
ENDBRANCH   6   7
ENDBRANCH   5   6
ENDBRANCH   4   5
ENDBRANCH   3   4
ENDBRANCH   2   3
ENDBRANCH   1   2
BRANCH   1  10
ATOM     10  C   UNL     1     -22.931 -25.052  15.188  1.00  0.00     0.000 C 
BRANCH  10  11
ATOM     11  C   UNL     1     -21.647 -25.674  14.620  1.00  0.00    -0.000 C 
BRANCH  11  12
ATOM     12  C   UNL     1     -20.406 -25.354  15.469  1.00  0.00    -0.000 C 
BRANCH  12  13
ATOM     13  C   UNL     1     -19.544 -24.238  14.858  1.00  0.00    -0.000 C 
BRANCH  13  14
ATOM     14  C   UNL     1     -19.688 -24.208  13.330  1.00  0.00    -0.000 C 
BRANCH  14  15
ATOM     15  C   UNL     1     -20.121 -22.831  12.797  1.00  0.00    -0.000 C 
BRANCH  15  16
ATOM     16  C   UNL     1     -19.339 -22.376  11.548  1.00  0.00    -0.003 C 
ATOM     17  C   UNL     1     -19.076 -20.870  11.542  1.00  0.00     0.004 C 
ENDBRANCH  15  16
ENDBRANCH  14  15
ENDBRANCH  13  14
ENDBRANCH  12  13
ENDBRANCH  11  12
ENDBRANCH  10  11
ENDBRANCH   1  10
TORSDOF 13
ENDMDL
MODEL 6
REMARK VINA RESULT:    -4.688      9.191     10.614
REMARK INTER + INTRA:          -9.638
REMARK INTER:                  -8.650
REMARK INTRA:                  -0.988
REMARK UNBOUND:                -1.386
REMARK SMILES CCCCCCCCCCCCCCC(=O)[O-]
REMARK SMILES IDX 9 1 10 2 11 3 12 4 13 5 14 6 15 7 16 8 17 9 8 10 7 11 6 12
REMARK SMILES IDX 5 13 4 14 3 15 2 16 1 17
REMARK H PARENT
REMARK Flexibility Score: inf
ROOT
ATOM      1  C   UNL     1     -20.866 -23.873  13.849  1.00  0.00     0.000 C 
ENDROOT
BRANCH   1   2
ATOM      2  C   UNL     1     -19.485 -24.045  14.490  1.00  0.00     0.000 C 
BRANCH   2   3
ATOM      3  C   UNL     1     -19.136 -25.530  14.657  1.00  0.00     0.000 C 
BRANCH   3   4
ATOM      4  C   UNL     1     -18.084 -25.967  13.630  1.00  0.00     0.000 C 
BRANCH   4   5
ATOM      5  C   UNL     1     -16.671 -25.895  14.226  1.00  0.00     0.006 C 
BRANCH   5   6
ATOM      6  C   UNL     1     -16.686 -25.871  15.759  1.00  0.00     0.053 C 
BRANCH   6   7
ATOM      7  C   UNL     1     -15.409 -26.398  16.337  1.00  0.00     0.041 C 
ATOM      8  O   UNL     1     -15.314 -27.609  16.665  1.00  0.00    -0.550 OA
ATOM      9  O   UNL     1     -14.313 -25.557  16.484  1.00  0.00    -0.550 OA
ENDBRANCH   6   7
ENDBRANCH   5   6
ENDBRANCH   4   5
ENDBRANCH   3   4
ENDBRANCH   2   3
ENDBRANCH   1   2
BRANCH   1  10
ATOM     10  C   UNL     1     -20.745 -23.593  12.347  1.00  0.00     0.000 C 
BRANCH  10  11
ATOM     11  C   UNL     1     -19.397 -22.936  12.016  1.00  0.00    -0.000 C 
BRANCH  11  12
ATOM     12  C   UNL     1     -19.489 -21.404  11.925  1.00  0.00    -0.000 C 
BRANCH  12  13
ATOM     13  C   UNL     1     -19.203 -20.878  10.510  1.00  0.00    -0.000 C 
BRANCH  13  14
ATOM     14  C   UNL     1     -19.929 -21.723   9.453  1.00  0.00    -0.000 C 
BRANCH  14  15
ATOM     15  C   UNL     1     -21.016 -20.937   8.703  1.00  0.00    -0.000 C 
BRANCH  15  16
ATOM     16  C   UNL     1     -22.155 -21.824   8.155  1.00  0.00    -0.003 C 
ATOM     17  C   UNL     1     -22.443 -23.024   9.056  1.00  0.00     0.004 C 
ENDBRANCH  15  16
ENDBRANCH  14  15
ENDBRANCH  13  14
ENDBRANCH  12  13
ENDBRANCH  11  12
ENDBRANCH  10  11
ENDBRANCH   1  10
TORSDOF 13
ENDMDL
MODEL 7
REMARK VINA RESULT:    -4.678      4.970      6.292
REMARK INTER + INTRA:          -9.619
REMARK INTER:                  -8.557
REMARK INTRA:                  -1.061
REMARK UNBOUND:                -1.386
REMARK SMILES CCCCCCCCCCCCCCC(=O)[O-]
REMARK SMILES IDX 9 1 10 2 11 3 12 4 13 5 14 6 15 7 16 8 17 9 8 10 7 11 6 12
REMARK SMILES IDX 5 13 4 14 3 15 2 16 1 17
REMARK H PARENT
REMARK Flexibility Score: inf
ROOT
ATOM      1  C   UNL     1     -24.608 -28.689   4.698  1.00  0.00     0.000 C 
ENDROOT
BRANCH   1   2
ATOM      2  C   UNL     1     -24.038 -29.081   3.330  1.00  0.00     0.000 C 
BRANCH   2   3
ATOM      3  C   UNL     1     -23.038 -30.237   3.462  1.00  0.00     0.000 C 
BRANCH   3   4
ATOM      4  C   UNL     1     -21.642 -29.814   2.989  1.00  0.00     0.000 C 
BRANCH   4   5
ATOM      5  C   UNL     1     -21.725 -28.617   2.029  1.00  0.00     0.006 C 
BRANCH   5   6
ATOM      6  C   UNL     1     -20.599 -27.604   2.266  1.00  0.00     0.053 C 
BRANCH   6   7
ATOM      7  C   UNL     1     -20.330 -26.775   1.047  1.00  0.00     0.041 C 
ATOM      8  O   UNL     1     -19.219 -26.202   0.904  1.00  0.00    -0.550 OA
ATOM      9  O   UNL     1     -21.295 -26.664   0.055  1.00  0.00    -0.550 OA
ENDBRANCH   6   7
ENDBRANCH   5   6
ENDBRANCH   4   5
ENDBRANCH   3   4
ENDBRANCH   2   3
ENDBRANCH   1   2
BRANCH   1  10
ATOM     10  C   UNL     1     -24.417 -29.817   5.718  1.00  0.00     0.000 C 
BRANCH  10  11
ATOM     11  C   UNL     1     -25.325 -29.613   6.941  1.00  0.00    -0.000 C 
BRANCH  11  12
ATOM     12  C   UNL     1     -26.776 -29.284   6.554  1.00  0.00    -0.000 C 
BRANCH  12  13
ATOM     13  C   UNL     1     -27.611 -28.799   7.749  1.00  0.00    -0.000 C 
BRANCH  13  14
ATOM     14  C   UNL     1     -26.705 -28.328   8.896  1.00  0.00    -0.000 C 
BRANCH  14  15
ATOM     15  C   UNL     1     -27.170 -27.001   9.519  1.00  0.00    -0.000 C 
BRANCH  15  16
ATOM     16  C   UNL     1     -26.182 -25.836   9.304  1.00  0.00    -0.003 C 
ATOM     17  C   UNL     1     -25.012 -26.223   8.401  1.00  0.00     0.004 C 
ENDBRANCH  15  16
ENDBRANCH  14  15
ENDBRANCH  13  14
ENDBRANCH  12  13
ENDBRANCH  11  12
ENDBRANCH  10  11
ENDBRANCH   1  10
TORSDOF 13
ENDMDL
MODEL 8
REMARK VINA RESULT:    -4.650      2.215      3.570
REMARK INTER + INTRA:          -9.570
REMARK INTER:                  -7.996
REMARK INTRA:                  -1.573
REMARK UNBOUND:                -1.386
REMARK SMILES CCCCCCCCCCCCCCC(=O)[O-]
REMARK SMILES IDX 9 1 10 2 11 3 12 4 13 5 14 6 15 7 16 8 17 9 8 10 7 11 6 12
REMARK SMILES IDX 5 13 4 14 3 15 2 16 1 17
REMARK H PARENT
REMARK Flexibility Score: inf
ROOT
ATOM      1  C   UNL     1     -25.106 -27.770   5.017  1.00  0.00     0.000 C 
ENDROOT
BRANCH   1   2
ATOM      2  C   UNL     1     -23.910 -27.976   4.081  1.00  0.00     0.000 C 
BRANCH   2   3
ATOM      3  C   UNL     1     -23.898 -29.399   3.507  1.00  0.00     0.000 C 
BRANCH   3   4
ATOM      4  C   UNL     1     -22.463 -29.905   3.317  1.00  0.00     0.000 C 
BRANCH   4   5
ATOM      5  C   UNL     1     -22.257 -31.254   4.022  1.00  0.00     0.006 C 
BRANCH   5   6
ATOM      6  C   UNL     1     -23.088 -31.372   5.305  1.00  0.00     0.053 C 
BRANCH   6   7
ATOM      7  C   UNL     1     -22.325 -30.906   6.507  1.00  0.00     0.041 C 
ATOM      8  O   UNL     1     -21.838 -31.743   7.312  1.00  0.00    -0.550 OA
ATOM      9  O   UNL     1     -22.125 -29.548   6.721  1.00  0.00    -0.550 OA
ENDBRANCH   6   7
ENDBRANCH   5   6
ENDBRANCH   4   5
ENDBRANCH   3   4
ENDBRANCH   2   3
ENDBRANCH   1   2
BRANCH   1  10
ATOM     10  C   UNL     1     -25.811 -29.100   5.311  1.00  0.00     0.000 C 
BRANCH  10  11
ATOM     11  C   UNL     1     -25.941 -29.331   6.824  1.00  0.00    -0.000 C 
BRANCH  11  12
ATOM     12  C   UNL     1     -27.403 -29.441   7.284  1.00  0.00    -0.000 C 
BRANCH  12  13
ATOM     13  C   UNL     1     -27.797 -28.331   8.272  1.00  0.00    -0.000 C 
BRANCH  13  14
ATOM     14  C   UNL     1     -26.616 -27.961   9.180  1.00  0.00    -0.000 C 
BRANCH  14  15
ATOM     15  C   UNL     1     -26.731 -26.542   9.761  1.00  0.00    -0.000 C 
BRANCH  15  16
ATOM     16  C   UNL     1     -25.765 -25.527   9.115  1.00  0.00    -0.003 C 
ATOM     17  C   UNL     1     -24.646 -26.208   8.327  1.00  0.00     0.004 C 
ENDBRANCH  15  16
ENDBRANCH  14  15
ENDBRANCH  13  14
ENDBRANCH  12  13
ENDBRANCH  11  12
ENDBRANCH  10  11
ENDBRANCH   1  10
TORSDOF 13
ENDMDL
MODEL 9
REMARK VINA RESULT:    -4.623      9.258     10.587
REMARK INTER + INTRA:          -9.522
REMARK INTER:                  -7.970
REMARK INTRA:                  -1.553
REMARK UNBOUND:                -1.386
REMARK SMILES CCCCCCCCCCCCCCC(=O)[O-]
REMARK SMILES IDX 9 1 10 2 11 3 12 4 13 5 14 6 15 7 16 8 17 9 8 10 7 11 6 12
REMARK SMILES IDX 5 13 4 14 3 15 2 16 1 17
REMARK H PARENT
REMARK Flexibility Score: inf
ROOT
ATOM      1  C   UNL     1     -18.797 -23.720  12.370  1.00  0.00     0.000 C 
ENDROOT
BRANCH   1   2
ATOM      2  C   UNL     1     -18.403 -25.194  12.224  1.00  0.00     0.000 C 
BRANCH   2   3
ATOM      3  C   UNL     1     -16.906 -25.336  11.918  1.00  0.00     0.000 C 
BRANCH   3   4
ATOM      4  C   UNL     1     -16.119 -25.706  13.181  1.00  0.00     0.000 C 
BRANCH   4   5
ATOM      5  C   UNL     1     -17.034 -26.353  14.231  1.00  0.00     0.006 C 
BRANCH   5   6
ATOM      6  C   UNL     1     -16.862 -25.723  15.619  1.00  0.00     0.053 C 
BRANCH   6   7
ATOM      7  C   UNL     1     -15.594 -26.169  16.280  1.00  0.00     0.041 C 
ATOM      8  O   UNL     1     -14.751 -25.320  16.669  1.00  0.00    -0.550 OA
ATOM      9  O   UNL     1     -15.361 -27.521  16.496  1.00  0.00    -0.550 OA
ENDBRANCH   6   7
ENDBRANCH   5   6
ENDBRANCH   4   5
ENDBRANCH   3   4
ENDBRANCH   2   3
ENDBRANCH   1   2
BRANCH   1  10
ATOM     10  C   UNL     1     -19.583 -23.486  13.665  1.00  0.00     0.000 C 
BRANCH  10  11
ATOM     11  C   UNL     1     -21.056 -23.887  13.494  1.00  0.00    -0.000 C 
BRANCH  11  12
ATOM     12  C   UNL     1     -21.466 -25.046  14.417  1.00  0.00    -0.000 C 
BRANCH  12  13
ATOM     13  C   UNL     1     -20.432 -25.318  15.520  1.00  0.00    -0.000 C 
BRANCH  13  14
ATOM     14  C   UNL     1     -20.536 -26.764  16.024  1.00  0.00    -0.000 C 
BRANCH  14  15
ATOM     15  C   UNL     1     -21.658 -27.559  15.336  1.00  0.00    -0.000 C 
BRANCH  15  16
ATOM     16  C   UNL     1     -21.394 -29.077  15.272  1.00  0.00    -0.003 C 
ATOM     17  C   UNL     1     -21.452 -29.737  16.650  1.00  0.00     0.004 C 
ENDBRANCH  15  16
ENDBRANCH  14  15
ENDBRANCH  13  14
ENDBRANCH  12  13
ENDBRANCH  11  12
ENDBRANCH  10  11
ENDBRANCH   1  10
TORSDOF 13
ENDMDL
