MODEL 1
REMARK VINA RESULT:    -6.358      0.000      0.000
REMARK INTER + INTRA:          -7.990
REMARK INTER:                  -7.659
REMARK INTRA:                  -0.331
REMARK UNBOUND:                -0.331
REMARK SMILES O=c1c(O)c(-c2ccc(O)c(O)c2)oc2cc(O)cc(O)c12
REMARK SMILES IDX 5 1 3 2 2 3 1 4 22 5 20 6 19 7 17 8 16 9 15 10 14 11 6 12
REMARK SMILES IDX 7 13 8 14 9 15 13 16 11 17 10 18 12 20 4 22 21 24 18 26
REMARK H PARENT 10 19 12 21 4 23 21 25 18 27
REMARK Flexibility Score: inf
ROOT
ATOM      1  C   UNL     1      -9.130   9.040   6.420  1.00  0.00     0.180 A 
ATOM      2  C   UNL     1     -10.414   9.615   6.362  1.00  0.00     0.208 A 
ATOM      3  C   UNL     1     -11.537   8.775   6.397  1.00  0.00     0.238 A 
ATOM      4  O   UNL     1     -12.692   9.280   6.357  1.00  0.00    -0.285 OA
ATOM      5  C   UNL     1     -11.360   7.377   6.466  1.00  0.00     0.111 A 
ATOM      6  C   UNL     1     -12.438   6.461   6.500  1.00  0.00     0.134 A 
ATOM      7  C   UNL     1     -12.178   5.083   6.561  1.00  0.00     0.093 A 
ATOM      8  C   UNL     1     -10.866   4.606   6.587  1.00  0.00     0.123 A 
ATOM      9  C   UNL     1      -9.796   5.507   6.553  1.00  0.00     0.094 A 
ATOM     10  C   UNL     1     -10.034   6.883   6.495  1.00  0.00     0.146 A 
ATOM     11  O   UNL     1      -9.001   7.718   6.470  1.00  0.00    -0.452 OA
ENDROOT
BRANCH   1  12
ATOM     12  C   UNL     1      -7.898   9.861   6.408  1.00  0.00     0.025 A 
ATOM     13  C   UNL     1      -7.275  10.154   5.185  1.00  0.00     0.016 A 
ATOM     14  C   UNL     1      -6.100  10.909   5.151  1.00  0.00     0.051 A 
ATOM     15  C   UNL     1      -5.522  11.370   6.342  1.00  0.00     0.157 A 
ATOM     16  C   UNL     1      -7.304  10.307   7.602  1.00  0.00     0.062 A 
ATOM     17  C   UNL     1      -6.126  11.062   7.573  1.00  0.00     0.158 A 
BRANCH  15  18
ATOM     18  O   UNL     1      -4.351  12.125   6.306  1.00  0.00    -0.504 OA
ATOM     19  H   UNL     1      -3.473  11.758   6.656  1.00  0.00     0.293 HD
ENDBRANCH  15  18
BRANCH  17  20
ATOM     20  O   UNL     1      -5.567  11.493   8.776  1.00  0.00    -0.504 OA
ATOM     21  H   UNL     1      -5.572  10.918   9.609  1.00  0.00     0.293 HD
ENDBRANCH  17  20
ENDBRANCH   1  12
BRANCH   2  22
ATOM     22  O   UNL     1     -10.562  11.000   6.244  1.00  0.00    -0.502 OA
ATOM     23  H   UNL     1     -11.076  11.428   5.482  1.00  0.00     0.293 HD
ENDBRANCH   2  22
BRANCH   6  24
ATOM     24  O   UNL     1     -13.760   6.906   6.475  1.00  0.00    -0.507 OA
ATOM     25  H   UNL     1     -14.537   6.280   6.657  1.00  0.00     0.293 HD
ENDBRANCH   6  24
BRANCH   8  26
ATOM     26  O   UNL     1     -10.635   3.233   6.645  1.00  0.00    -0.508 OA
ATOM     27  H   UNL     1     -10.507   2.754   7.529  1.00  0.00     0.293 HD
ENDBRANCH   8  26
TORSDOF 6
ENDMDL
MODEL 2
REMARK VINA RESULT:    -5.946      1.476      6.744
REMARK INTER + INTRA:          -7.494
REMARK INTER:                  -7.275
REMARK INTRA:                  -0.219
REMARK UNBOUND:                -0.331
REMARK SMILES O=c1c(O)c(-c2ccc(O)c(O)c2)oc2cc(O)cc(O)c12
REMARK SMILES IDX 5 1 3 2 2 3 1 4 22 5 20 6 19 7 17 8 16 9 15 10 14 11 6 12
REMARK SMILES IDX 7 13 8 14 9 15 13 16 11 17 10 18 12 20 4 22 21 24 18 26
REMARK H PARENT 10 19 12 21 4 23 21 25 18 27
REMARK Flexibility Score: inf
ROOT
ATOM      1  C   UNL     1      -9.911   7.436   6.606  1.00  0.00     0.180 A 
ATOM      2  C   UNL     1     -10.749   8.470   6.148  1.00  0.00     0.208 A 
ATOM      3  C   UNL     1     -10.170   9.681   5.737  1.00  0.00     0.238 A 
ATOM      4  O   UNL     1     -10.910  10.610   5.314  1.00  0.00    -0.285 OA
ATOM      5  C   UNL     1      -8.772   9.845   5.811  1.00  0.00     0.111 A 
ATOM      6  C   UNL     1      -8.110  11.034   5.422  1.00  0.00     0.134 A 
ATOM      7  C   UNL     1      -6.714  11.123   5.535  1.00  0.00     0.093 A 
ATOM      8  C   UNL     1      -5.970  10.050   6.028  1.00  0.00     0.123 A 
ATOM      9  C   UNL     1      -6.618   8.872   6.414  1.00  0.00     0.094 A 
ATOM     10  C   UNL     1      -8.007   8.763   6.308  1.00  0.00     0.146 A 
ATOM     11  O   UNL     1      -8.597   7.632   6.677  1.00  0.00    -0.452 OA
ENDROOT
BRANCH   1  12
ATOM     12  C   UNL     1     -10.444   6.124   7.038  1.00  0.00     0.025 A 
ATOM     13  C   UNL     1     -10.300   5.727   8.377  1.00  0.00     0.016 A 
ATOM     14  C   UNL     1     -10.777   4.484   8.802  1.00  0.00     0.051 A 
ATOM     15  C   UNL     1     -11.391   3.613   7.892  1.00  0.00     0.157 A 
ATOM     16  C   UNL     1     -11.041   5.238   6.123  1.00  0.00     0.062 A 
ATOM     17  C   UNL     1     -11.518   3.992   6.544  1.00  0.00     0.158 A 
BRANCH  15  18
ATOM     18  O   UNL     1     -11.867   2.375   8.318  1.00  0.00    -0.504 OA
ATOM     19  H   UNL     1     -11.267   1.711   8.796  1.00  0.00     0.293 HD
ENDBRANCH  15  18
BRANCH  17  20
ATOM     20  O   UNL     1     -12.111   3.142   5.611  1.00  0.00    -0.504 OA
ATOM     21  H   UNL     1     -11.851   2.166   5.531  1.00  0.00     0.293 HD
ENDBRANCH  17  20
ENDBRANCH   1  12
BRANCH   2  22
ATOM     22  O   UNL     1     -12.135   8.299   6.131  1.00  0.00    -0.502 OA
ATOM     23  H   UNL     1     -12.585   7.555   5.609  1.00  0.00     0.293 HD
ENDBRANCH   2  22
BRANCH   6  24
ATOM     24  O   UNL     1      -8.826  12.125   4.925  1.00  0.00    -0.507 OA
ATOM     25  H   UNL     1      -9.802  12.047   4.662  1.00  0.00     0.293 HD
ENDBRANCH   6  24
BRANCH   8  26
ATOM     26  O   UNL     1      -4.585  10.164   6.131  1.00  0.00    -0.508 OA
ATOM     27  H   UNL     1      -4.081  10.925   5.690  1.00  0.00     0.293 HD
ENDBRANCH   8  26
TORSDOF 6
ENDMDL
MODEL 3
REMARK VINA RESULT:    -5.690      2.418      6.855
REMARK INTER + INTRA:          -7.186
REMARK INTER:                  -6.889
REMARK INTRA:                  -0.296
REMARK UNBOUND:                -0.331
REMARK SMILES O=c1c(O)c(-c2ccc(O)c(O)c2)oc2cc(O)cc(O)c12
REMARK SMILES IDX 5 1 3 2 2 3 1 4 22 5 20 6 19 7 17 8 16 9 15 10 14 11 6 12
REMARK SMILES IDX 7 13 8 14 9 15 13 16 11 17 10 18 12 20 4 22 21 24 18 26
REMARK H PARENT 10 19 12 21 4 23 21 25 18 27
REMARK Flexibility Score: inf
ROOT
ATOM      1  C   UNL     1     -12.132   7.658   6.544  1.00  0.00     0.180 A 
ATOM      2  C   UNL     1     -13.303   8.213   5.995  1.00  0.00     0.208 A 
ATOM      3  C   UNL     1     -13.238   9.480   5.395  1.00  0.00     0.238 A 
ATOM      4  O   UNL     1     -14.279   9.982   4.890  1.00  0.00    -0.285 OA
ATOM      5  C   UNL     1     -12.014  10.179   5.372  1.00  0.00     0.111 A 
ATOM      6  C   UNL     1     -11.864  11.461   4.792  1.00  0.00     0.134 A 
ATOM      7  C   UNL     1     -10.612  12.094   4.818  1.00  0.00     0.093 A 
ATOM      8  C   UNL     1      -9.511  11.473   5.411  1.00  0.00     0.123 A 
ATOM      9  C   UNL     1      -9.653  10.206   5.986  1.00  0.00     0.094 A 
ATOM     10  C   UNL     1     -10.891   9.557   5.969  1.00  0.00     0.146 A 
ATOM     11  O   UNL     1     -10.997   8.352   6.518  1.00  0.00    -0.452 OA
ENDROOT
BRANCH   1  12
ATOM     12  C   UNL     1     -12.115   6.320   7.175  1.00  0.00     0.025 A 
ATOM     13  C   UNL     1     -12.555   6.176   8.500  1.00  0.00     0.016 A 
ATOM     14  C   UNL     1     -12.529   4.926   9.124  1.00  0.00     0.051 A 
ATOM     15  C   UNL     1     -12.048   3.803   8.437  1.00  0.00     0.157 A 
ATOM     16  C   UNL     1     -11.614   5.195   6.496  1.00  0.00     0.062 A 
ATOM     17  C   UNL     1     -11.583   3.941   7.117  1.00  0.00     0.158 A 
BRANCH  15  18
ATOM     18  O   UNL     1     -12.025   2.557   9.059  1.00  0.00    -0.504 OA
ATOM     19  H   UNL     1     -11.157   2.050   9.201  1.00  0.00     0.293 HD
ENDBRANCH  15  18
BRANCH  17  20
ATOM     20  O   UNL     1     -11.086   2.846   6.412  1.00  0.00    -0.504 OA
ATOM     21  H   UNL     1     -11.119   2.796   5.401  1.00  0.00     0.293 HD
ENDBRANCH  17  20
ENDBRANCH   1  12
BRANCH   2  22
ATOM     22  O   UNL     1     -14.515   7.522   6.074  1.00  0.00    -0.502 OA
ATOM     23  H   UNL     1     -14.571   6.558   6.381  1.00  0.00     0.293 HD
ENDBRANCH   2  22
BRANCH   6  24
ATOM     24  O   UNL     1     -12.945  12.108   4.191  1.00  0.00    -0.507 OA
ATOM     25  H   UNL     1     -12.950  12.331   3.202  1.00  0.00     0.293 HD
ENDBRANCH   6  24
BRANCH   8  26
ATOM     26  O   UNL     1      -8.279  12.125   5.424  1.00  0.00    -0.508 OA
ATOM     27  H   UNL     1      -8.175  13.068   5.070  1.00  0.00     0.293 HD
ENDBRANCH   8  26
TORSDOF 6
ENDMDL
MODEL 4
REMARK VINA RESULT:    -5.678      1.204      1.386
REMARK INTER + INTRA:          -7.172
REMARK INTER:                  -7.002
REMARK INTRA:                  -0.170
REMARK UNBOUND:                -0.331
REMARK SMILES O=c1c(O)c(-c2ccc(O)c(O)c2)oc2cc(O)cc(O)c12
REMARK SMILES IDX 5 1 3 2 2 3 1 4 22 5 20 6 19 7 17 8 16 9 15 10 14 11 6 12
REMARK SMILES IDX 7 13 8 14 9 15 13 16 11 17 10 18 12 20 4 22 21 24 18 26
REMARK H PARENT 10 19 12 21 4 23 21 25 18 27
REMARK Flexibility Score: inf
ROOT
ATOM      1  C   UNL     1     -10.115   8.353   6.420  1.00  0.00     0.180 A 
ATOM      2  C   UNL     1     -11.426   8.865   6.401  1.00  0.00     0.208 A 
ATOM      3  C   UNL     1     -12.497   7.998   6.667  1.00  0.00     0.238 A 
ATOM      4  O   UNL     1     -13.675   8.448   6.664  1.00  0.00    -0.285 OA
ATOM      5  C   UNL     1     -12.244   6.635   6.924  1.00  0.00     0.111 A 
ATOM      6  C   UNL     1     -13.266   5.696   7.197  1.00  0.00     0.134 A 
ATOM      7  C   UNL     1     -12.932   4.353   7.435  1.00  0.00     0.093 A 
ATOM      8  C   UNL     1     -11.601   3.934   7.406  1.00  0.00     0.123 A 
ATOM      9  C   UNL     1     -10.586   4.859   7.138  1.00  0.00     0.094 A 
ATOM     10  C   UNL     1     -10.897   6.200   6.900  1.00  0.00     0.146 A 
ATOM     11  O   UNL     1      -9.914   7.059   6.652  1.00  0.00    -0.452 OA
ENDROOT
BRANCH   1  12
ATOM     12  C   UNL     1      -8.932   9.207   6.169  1.00  0.00     0.025 A 
ATOM     13  C   UNL     1      -8.080   8.909   5.094  1.00  0.00     0.016 A 
ATOM     14  C   UNL     1      -6.947   9.689   4.851  1.00  0.00     0.051 A 
ATOM     15  C   UNL     1      -6.640  10.770   5.688  1.00  0.00     0.157 A 
ATOM     16  C   UNL     1      -8.609  10.279   7.020  1.00  0.00     0.062 A 
ATOM     17  C   UNL     1      -7.474  11.062   6.782  1.00  0.00     0.158 A 
BRANCH  15  18
ATOM     18  O   UNL     1      -5.510  11.548   5.443  1.00  0.00    -0.504 OA
ATOM     19  H   UNL     1      -4.586  11.135   5.370  1.00  0.00     0.293 HD
ENDBRANCH  15  18
BRANCH  17  20
ATOM     20  O   UNL     1      -7.187  12.121   7.642  1.00  0.00    -0.504 OA
ATOM     21  H   UNL     1      -7.491  12.128   8.607  1.00  0.00     0.293 HD
ENDBRANCH  17  20
ENDBRANCH   1  12
BRANCH   2  22
ATOM     22  O   UNL     1     -11.654  10.209   6.094  1.00  0.00    -0.502 OA
ATOM     23  H   UNL     1     -11.144  10.693   5.364  1.00  0.00     0.293 HD
ENDBRANCH   2  22
BRANCH   6  24
ATOM     24  O   UNL     1     -14.607   6.082   7.233  1.00  0.00    -0.507 OA
ATOM     25  H   UNL     1     -14.901   7.014   6.960  1.00  0.00     0.293 HD
ENDBRANCH   6  24
BRANCH   8  26
ATOM     26  O   UNL     1     -11.296   2.596   7.645  1.00  0.00    -0.508 OA
ATOM     27  H   UNL     1     -10.515   2.140   7.188  1.00  0.00     0.293 HD
ENDBRANCH   8  26
TORSDOF 6
ENDMDL
MODEL 5
REMARK VINA RESULT:    -5.279      1.746      3.108
REMARK INTER + INTRA:          -6.691
REMARK INTER:                  -6.557
REMARK INTRA:                  -0.134
REMARK UNBOUND:                -0.331
REMARK SMILES O=c1c(O)c(-c2ccc(O)c(O)c2)oc2cc(O)cc(O)c12
REMARK SMILES IDX 5 1 3 2 2 3 1 4 22 5 20 6 19 7 17 8 16 9 15 10 14 11 6 12
REMARK SMILES IDX 7 13 8 14 9 15 13 16 11 17 10 18 12 20 4 22 21 24 18 26
REMARK H PARENT 10 19 12 21 4 23 21 25 18 27
REMARK Flexibility Score: inf
ROOT
ATOM      1  C   UNL     1      -9.905   7.827   6.250  1.00  0.00     0.180 A 
ATOM      2  C   UNL     1      -9.779   6.589   5.592  1.00  0.00     0.208 A 
ATOM      3  C   UNL     1     -10.794   5.632   5.745  1.00  0.00     0.238 A 
ATOM      4  O   UNL     1     -10.697   4.524   5.151  1.00  0.00    -0.285 OA
ATOM      5  C   UNL     1     -11.904   5.919   6.566  1.00  0.00     0.111 A 
ATOM      6  C   UNL     1     -12.967   5.009   6.776  1.00  0.00     0.134 A 
ATOM      7  C   UNL     1     -14.033   5.366   7.617  1.00  0.00     0.093 A 
ATOM      8  C   UNL     1     -14.056   6.611   8.248  1.00  0.00     0.123 A 
ATOM      9  C   UNL     1     -13.008   7.515   8.044  1.00  0.00     0.094 A 
ATOM     10  C   UNL     1     -11.938   7.179   7.209  1.00  0.00     0.146 A 
ATOM     11  O   UNL     1     -10.958   8.057   7.028  1.00  0.00    -0.452 OA
ENDROOT
BRANCH   1  12
ATOM     12  C   UNL     1      -8.886   8.893   6.122  1.00  0.00     0.025 A 
ATOM     13  C   UNL     1      -9.232  10.109   5.512  1.00  0.00     0.016 A 
ATOM     14  C   UNL     1      -8.281  11.122   5.363  1.00  0.00     0.051 A 
ATOM     15  C   UNL     1      -6.966  10.929   5.808  1.00  0.00     0.157 A 
ATOM     16  C   UNL     1      -7.561   8.696   6.550  1.00  0.00     0.062 A 
ATOM     17  C   UNL     1      -6.605   9.707   6.400  1.00  0.00     0.158 A 
BRANCH  15  18
ATOM     18  O   UNL     1      -6.020  11.941   5.660  1.00  0.00    -0.504 OA
ATOM     19  H   UNL     1      -5.077  11.744   5.342  1.00  0.00     0.293 HD
ENDBRANCH  15  18
BRANCH  17  20
ATOM     20  O   UNL     1      -5.302   9.479   6.841  1.00  0.00    -0.504 OA
ATOM     21  H   UNL     1      -4.503   9.558   6.223  1.00  0.00     0.293 HD
ENDBRANCH  17  20
ENDBRANCH   1  12
BRANCH   2  22
ATOM     22  O   UNL     1      -8.645   6.310   4.823  1.00  0.00    -0.502 OA
ATOM     23  H   UNL     1      -8.635   6.410   3.815  1.00  0.00     0.293 HD
ENDBRANCH   2  22
BRANCH   6  24
ATOM     24  O   UNL     1     -12.974   3.757   6.160  1.00  0.00    -0.507 OA
ATOM     25  H   UNL     1     -13.769   3.132   6.230  1.00  0.00     0.293 HD
ENDBRANCH   6  24
BRANCH   8  26
ATOM     26  O   UNL     1     -15.125   6.941   9.079  1.00  0.00    -0.508 OA
ATOM     27  H   UNL     1     -15.828   7.613   8.796  1.00  0.00     0.293 HD
ENDBRANCH   8  26
TORSDOF 6
ENDMDL
MODEL 6
REMARK VINA RESULT:    -5.035      2.109      2.856
REMARK INTER + INTRA:          -6.396
REMARK INTER:                  -6.150
REMARK INTRA:                  -0.246
REMARK UNBOUND:                -0.331
REMARK SMILES O=c1c(O)c(-c2ccc(O)c(O)c2)oc2cc(O)cc(O)c12
REMARK SMILES IDX 5 1 3 2 2 3 1 4 22 5 20 6 19 7 17 8 16 9 15 10 14 11 6 12
REMARK SMILES IDX 7 13 8 14 9 15 13 16 11 17 10 18 12 20 4 22 21 24 18 26
REMARK H PARENT 10 19 12 21 4 23 21 25 18 27
REMARK Flexibility Score: inf
ROOT
ATOM      1  C   UNL     1     -10.078  10.298   6.322  1.00  0.00     0.180 A 
ATOM      2  C   UNL     1     -10.690  11.047   5.300  1.00  0.00     0.208 A 
ATOM      3  C   UNL     1     -11.969  10.675   4.858  1.00  0.00     0.238 A 
ATOM      4  O   UNL     1     -12.532  11.345   3.951  1.00  0.00    -0.285 OA
ATOM      5  C   UNL     1     -12.604   9.552   5.428  1.00  0.00     0.111 A 
ATOM      6  C   UNL     1     -13.890   9.108   5.037  1.00  0.00     0.134 A 
ATOM      7  C   UNL     1     -14.450   7.975   5.647  1.00  0.00     0.093 A 
ATOM      8  C   UNL     1     -13.752   7.280   6.637  1.00  0.00     0.123 A 
ATOM      9  C   UNL     1     -12.481   7.714   7.027  1.00  0.00     0.094 A 
ATOM     10  C   UNL     1     -11.906   8.841   6.434  1.00  0.00     0.146 A 
ATOM     11  O   UNL     1     -10.700   9.236   6.826  1.00  0.00    -0.452 OA
ENDROOT
BRANCH   1  12
ATOM     12  C   UNL     1      -8.739  10.639   6.855  1.00  0.00     0.025 A 
ATOM     13  C   UNL     1      -8.588  11.772   7.668  1.00  0.00     0.016 A 
ATOM     14  C   UNL     1      -7.331  12.125   8.165  1.00  0.00     0.051 A 
ATOM     15  C   UNL     1      -6.203  11.357   7.844  1.00  0.00     0.157 A 
ATOM     16  C   UNL     1      -7.602   9.883   6.518  1.00  0.00     0.062 A 
ATOM     17  C   UNL     1      -6.340  10.233   7.011  1.00  0.00     0.158 A 
BRANCH  15  18
ATOM     18  O   UNL     1      -4.950  11.709   8.342  1.00  0.00    -0.504 OA
ATOM     19  H   UNL     1      -4.145  11.808   7.733  1.00  0.00     0.293 HD
ENDBRANCH  15  18
BRANCH  17  20
ATOM     20  O   UNL     1      -5.236   9.458   6.661  1.00  0.00    -0.504 OA
ATOM     21  H   UNL     1      -5.244   8.839   5.860  1.00  0.00     0.293 HD
ENDBRANCH  17  20
ENDBRANCH   1  12
BRANCH   2  22
ATOM     22  O   UNL     1     -10.019  12.125   4.717  1.00  0.00    -0.502 OA
ATOM     23  H   UNL     1      -9.203  12.003   4.128  1.00  0.00     0.293 HD
ENDBRANCH   2  22
BRANCH   6  24
ATOM     24  O   UNL     1     -14.613   9.780   4.051  1.00  0.00    -0.507 OA
ATOM     25  H   UNL     1     -15.020   9.292   3.261  1.00  0.00     0.293 HD
ENDBRANCH   6  24
BRANCH   8  26
ATOM     26  O   UNL     1     -14.330   6.157   7.226  1.00  0.00    -0.508 OA
ATOM     27  H   UNL     1     -15.334   6.026   7.244  1.00  0.00     0.293 HD
ENDBRANCH   8  26
TORSDOF 6
ENDMDL
MODEL 7
REMARK VINA RESULT:    -4.980      1.339      2.065
REMARK INTER + INTRA:          -6.330
REMARK INTER:                  -6.008
REMARK INTRA:                  -0.323
REMARK UNBOUND:                -0.331
REMARK SMILES O=c1c(O)c(-c2ccc(O)c(O)c2)oc2cc(O)cc(O)c12
REMARK SMILES IDX 5 1 3 2 2 3 1 4 22 5 20 6 19 7 17 8 16 9 15 10 14 11 6 12
REMARK SMILES IDX 7 13 8 14 9 15 13 16 11 17 10 18 12 20 4 22 21 24 18 26
REMARK H PARENT 10 19 12 21 4 23 21 25 18 27
REMARK Flexibility Score: inf
ROOT
ATOM      1  C   UNL     1      -8.081   9.773   6.199  1.00  0.00     0.180 A 
ATOM      2  C   UNL     1      -9.237  10.561   6.349  1.00  0.00     0.208 A 
ATOM      3  C   UNL     1     -10.484   9.925   6.458  1.00  0.00     0.238 A 
ATOM      4  O   UNL     1     -11.525  10.621   6.604  1.00  0.00    -0.285 OA
ATOM      5  C   UNL     1     -10.556   8.518   6.395  1.00  0.00     0.111 A 
ATOM      6  C   UNL     1     -11.772   7.801   6.493  1.00  0.00     0.134 A 
ATOM      7  C   UNL     1     -11.761   6.399   6.412  1.00  0.00     0.093 A 
ATOM      8  C   UNL     1     -10.562   5.705   6.235  1.00  0.00     0.123 A 
ATOM      9  C   UNL     1      -9.357   6.409   6.138  1.00  0.00     0.094 A 
ATOM     10  C   UNL     1      -9.346   7.804   6.219  1.00  0.00     0.146 A 
ATOM     11  O   UNL     1      -8.189   8.449   6.129  1.00  0.00    -0.452 OA
ENDROOT
BRANCH   1  12
ATOM     12  C   UNL     1      -6.729  10.368   6.097  1.00  0.00     0.025 A 
ATOM     13  C   UNL     1      -5.978  10.579   7.263  1.00  0.00     0.016 A 
ATOM     14  C   UNL     1      -4.708  11.158   7.193  1.00  0.00     0.051 A 
ATOM     15  C   UNL     1      -4.177  11.549   5.956  1.00  0.00     0.157 A 
ATOM     16  C   UNL     1      -6.202  10.780   4.860  1.00  0.00     0.062 A 
ATOM     17  C   UNL     1      -4.932  11.363   4.785  1.00  0.00     0.158 A 
BRANCH  15  18
ATOM     18  O   UNL     1      -2.910  12.125   5.887  1.00  0.00    -0.504 OA
ATOM     19  H   UNL     1      -2.276  12.109   6.678  1.00  0.00     0.293 HD
ENDBRANCH  15  18
BRANCH  17  20
ATOM     20  O   UNL     1      -4.438  11.755   3.541  1.00  0.00    -0.504 OA
ATOM     21  H   UNL     1      -4.714  12.624   3.101  1.00  0.00     0.293 HD
ENDBRANCH  17  20
ENDBRANCH   1  12
BRANCH   2  22
ATOM     22  O   UNL     1      -9.144  11.955   6.359  1.00  0.00    -0.502 OA
ATOM     23  H   UNL     1      -9.710  12.542   5.757  1.00  0.00     0.293 HD
ENDBRANCH   2  22
BRANCH   6  24
ATOM     24  O   UNL     1     -12.986   8.465   6.669  1.00  0.00    -0.507 OA
ATOM     25  H   UNL     1     -13.026   9.453   6.891  1.00  0.00     0.293 HD
ENDBRANCH   6  24
BRANCH   8  26
ATOM     26  O   UNL     1     -10.579   4.314   6.157  1.00  0.00    -0.508 OA
ATOM     27  H   UNL     1     -10.695   3.834   5.272  1.00  0.00     0.293 HD
ENDBRANCH   8  26
TORSDOF 6
ENDMDL
MODEL 8
REMARK VINA RESULT:    -4.928      1.406      3.252
REMARK INTER + INTRA:          -6.267
REMARK INTER:                  -5.959
REMARK INTRA:                  -0.308
REMARK UNBOUND:                -0.331
REMARK SMILES O=c1c(O)c(-c2ccc(O)c(O)c2)oc2cc(O)cc(O)c12
REMARK SMILES IDX 5 1 3 2 2 3 1 4 22 5 20 6 19 7 17 8 16 9 15 10 14 11 6 12
REMARK SMILES IDX 7 13 8 14 9 15 13 16 11 17 10 18 12 20 4 22 21 24 18 26
REMARK H PARENT 10 19 12 21 4 23 21 25 18 27
REMARK Flexibility Score: inf
ROOT
ATOM      1  C   UNL     1      -9.359   9.441   6.366  1.00  0.00     0.180 A 
ATOM      2  C   UNL     1      -9.488   8.055   6.573  1.00  0.00     0.208 A 
ATOM      3  C   UNL     1     -10.763   7.472   6.500  1.00  0.00     0.238 A 
ATOM      4  O   UNL     1     -10.888   6.229   6.672  1.00  0.00    -0.285 OA
ATOM      5  C   UNL     1     -11.886   8.285   6.244  1.00  0.00     0.111 A 
ATOM      6  C   UNL     1     -13.205   7.778   6.159  1.00  0.00     0.134 A 
ATOM      7  C   UNL     1     -14.272   8.654   5.908  1.00  0.00     0.093 A 
ATOM      8  C   UNL     1     -14.048  10.022   5.743  1.00  0.00     0.123 A 
ATOM      9  C   UNL     1     -12.746  10.529   5.826  1.00  0.00     0.094 A 
ATOM     10  C   UNL     1     -11.669   9.673   6.072  1.00  0.00     0.146 A 
ATOM     11  O   UNL     1     -10.443  10.178   6.141  1.00  0.00    -0.452 OA
ENDROOT
BRANCH   1  12
ATOM     12  C   UNL     1      -8.048  10.125   6.407  1.00  0.00     0.025 A 
ATOM     13  C   UNL     1      -7.345  10.345   5.212  1.00  0.00     0.016 A 
ATOM     14  C   UNL     1      -6.096  10.972   5.229  1.00  0.00     0.051 A 
ATOM     15  C   UNL     1      -5.523  11.373   6.444  1.00  0.00     0.157 A 
ATOM     16  C   UNL     1      -7.460  10.511   7.626  1.00  0.00     0.062 A 
ATOM     17  C   UNL     1      -6.208  11.136   7.648  1.00  0.00     0.158 A 
BRANCH  15  18
ATOM     18  O   UNL     1      -4.278  11.998   6.459  1.00  0.00    -0.504 OA
ATOM     19  H   UNL     1      -3.805  12.260   5.601  1.00  0.00     0.293 HD
ENDBRANCH  15  18
BRANCH  17  20
ATOM     20  O   UNL     1      -5.659  11.509   8.874  1.00  0.00    -0.504 OA
ATOM     21  H   UNL     1      -4.659  11.530   9.032  1.00  0.00     0.293 HD
ENDBRANCH  17  20
ENDBRANCH   1  12
BRANCH   2  22
ATOM     22  O   UNL     1      -8.365   7.280   6.875  1.00  0.00    -0.502 OA
ATOM     23  H   UNL     1      -8.287   6.307   6.602  1.00  0.00     0.293 HD
ENDBRANCH   2  22
BRANCH   6  24
ATOM     24  O   UNL     1     -13.463   6.416   6.319  1.00  0.00    -0.507 OA
ATOM     25  H   UNL     1     -14.405   6.043   6.282  1.00  0.00     0.293 HD
ENDBRANCH   6  24
BRANCH   8  26
ATOM     26  O   UNL     1     -15.125  10.871   5.497  1.00  0.00    -0.508 OA
ATOM     27  H   UNL     1     -14.993  11.863   5.339  1.00  0.00     0.293 HD
ENDBRANCH   8  26
TORSDOF 6
ENDMDL
MODEL 9
REMARK VINA RESULT:    -4.724      2.549      6.935
REMARK INTER + INTRA:          -6.022
REMARK INTER:                  -5.781
REMARK INTRA:                  -0.241
REMARK UNBOUND:                -0.331
REMARK SMILES O=c1c(O)c(-c2ccc(O)c(O)c2)oc2cc(O)cc(O)c12
REMARK SMILES IDX 5 1 3 2 2 3 1 4 22 5 20 6 19 7 17 8 16 9 15 10 14 11 6 12
REMARK SMILES IDX 7 13 8 14 9 15 13 16 11 17 10 18 12 20 4 22 21 24 18 26
REMARK H PARENT 10 19 12 21 4 23 21 25 18 27
REMARK Flexibility Score: inf
ROOT
ATOM      1  C   UNL     1     -11.246   7.680   6.601  1.00  0.00     0.180 A 
ATOM      2  C   UNL     1      -9.952   8.216   6.459  1.00  0.00     0.208 A 
ATOM      3  C   UNL     1      -9.803   9.487   5.884  1.00  0.00     0.238 A 
ATOM      4  O   UNL     1      -8.649   9.982   5.762  1.00  0.00    -0.285 OA
ATOM      5  C   UNL     1     -10.942  10.190   5.441  1.00  0.00     0.111 A 
ATOM      6  C   UNL     1     -10.878  11.472   4.846  1.00  0.00     0.134 A 
ATOM      7  C   UNL     1     -12.059  12.103   4.424  1.00  0.00     0.093 A 
ATOM      8  C   UNL     1     -13.297  11.478   4.583  1.00  0.00     0.123 A 
ATOM      9  C   UNL     1     -13.366  10.210   5.170  1.00  0.00     0.094 A 
ATOM     10  C   UNL     1     -12.203   9.566   5.600  1.00  0.00     0.146 A 
ATOM     11  O   UNL     1     -12.297   8.365   6.158  1.00  0.00    -0.452 OA
ENDROOT
BRANCH   1  12
ATOM     12  C   UNL     1     -11.487   6.355   7.215  1.00  0.00     0.025 A 
ATOM     13  C   UNL     1     -12.006   6.281   8.517  1.00  0.00     0.016 A 
ATOM     14  C   UNL     1     -12.222   5.042   9.125  1.00  0.00     0.051 A 
ATOM     15  C   UNL     1     -11.908   3.857   8.445  1.00  0.00     0.157 A 
ATOM     16  C   UNL     1     -11.154   5.164   6.545  1.00  0.00     0.062 A 
ATOM     17  C   UNL     1     -11.366   3.921   7.150  1.00  0.00     0.158 A 
BRANCH  15  18
ATOM     18  O   UNL     1     -12.126   2.622   9.052  1.00  0.00    -0.504 OA
ATOM     19  H   UNL     1     -12.879   2.482   9.717  1.00  0.00     0.293 HD
ENDBRANCH  15  18
BRANCH  17  20
ATOM     20  O   UNL     1     -11.030   2.761   6.453  1.00  0.00    -0.504 OA
ATOM     21  H   UNL     1     -10.341   2.759   5.711  1.00  0.00     0.293 HD
ENDBRANCH  17  20
ENDBRANCH   1  12
BRANCH   2  22
ATOM     22  O   UNL     1      -8.835   7.478   6.861  1.00  0.00    -0.502 OA
ATOM     23  H   UNL     1      -7.990   7.917   7.206  1.00  0.00     0.293 HD
ENDBRANCH   2  22
BRANCH   6  24
ATOM     24  O   UNL     1      -9.656  12.124   4.673  1.00  0.00    -0.507 OA
ATOM     25  H   UNL     1      -8.815  11.620   4.415  1.00  0.00     0.293 HD
ENDBRANCH   6  24
BRANCH   8  26
ATOM     26  O   UNL     1     -14.454  12.125   4.153  1.00  0.00    -0.508 OA
ATOM     27  H   UNL     1     -14.435  13.085   3.831  1.00  0.00     0.293 HD
ENDBRANCH   8  26
TORSDOF 6
ENDMDL
