MODEL 1
REMARK VINA RESULT:    -6.923      0.000      0.000
REMARK INTER + INTRA:         -10.149
REMARK INTER:                  -9.149
REMARK INTRA:                  -1.000
REMARK UNBOUND:                -1.000
REMARK SMILES CC[C@H](C=C[C@H](C)[C@@H]1CC[C@@H]2C3=CC[C@H]4C[C@@H](O)CC[C@]4(C)[C@@H]3CC[C@]21C)C(C)C
REMARK SMILES IDX 6 1 7 2 5 3 4 4 3 5 2 6 1 7 28 8 29 9 30 10 8 11 9 12 26 13
REMARK SMILES IDX 10 14 11 15 25 16 27 17 12 18 24 19 23 20 13 21 21 22 14 23
REMARK SMILES IDX 15 24 20 25 22 26 16 27 19 28 17 29 18 30
REMARK H PARENT 18 31
REMARK Flexibility Score: inf
ROOT
ATOM      1  C   UNL     1     114.765 124.763 123.077  1.00  0.00     0.012 C 
ATOM      2  C   UNL     1     113.818 125.475 122.099  1.00  0.00     0.012 C 
ENDROOT
BRANCH   1   3
ATOM      3  C   UNL     1     114.351 125.095 124.500  1.00  0.00    -0.028 C 
ATOM      4  C   UNL     1     114.195 126.351 124.950  1.00  0.00    -0.027 C 
BRANCH   4   5
ATOM      5  C   UNL     1     113.832 126.634 126.396  1.00  0.00     0.014 C 
BRANCH   5   6
ATOM      6  C   UNL     1     114.977 127.402 127.106  1.00  0.00     0.004 C 
ATOM      7  C   UNL     1     116.260 127.433 126.271  1.00  0.00     0.004 C 
ENDBRANCH   5   6
BRANCH   5   8
ATOM      8  C   UNL     1     112.457 127.368 126.494  1.00  0.00    -0.011 C 
ATOM      9  C   UNL     1     112.363 128.244 127.754  1.00  0.00     0.008 C 
ATOM     10  C   UNL     1     112.116 128.192 125.241  1.00  0.00     0.008 C 
ENDBRANCH   5   8
ENDBRANCH   4   5
ENDBRANCH   1   3
BRANCH   1  11
ATOM     11  C   UNL     1     114.847 123.220 122.822  1.00  0.00     0.002 C 
ATOM     12  C   UNL     1     114.823 122.399 124.141  1.00  0.00     0.005 C 
ATOM     13  C   UNL     1     116.093 122.675 122.056  1.00  0.00    -0.023 C 
ATOM     14  C   UNL     1     115.737 121.183 123.944  1.00  0.00     0.009 C 
ATOM     15  C   UNL     1     116.033 121.194 122.453  1.00  0.00     0.021 C 
ATOM     16  C   UNL     1     116.008 122.736 120.503  1.00  0.00     0.008 C 
ATOM     17  C   UNL     1     117.404 123.365 122.548  1.00  0.00     0.012 C 
ATOM     18  C   UNL     1     117.199 120.434 121.863  1.00  0.00    -0.067 C 
ATOM     19  C   UNL     1     117.128 121.901 119.819  1.00  0.00     0.009 C 
ATOM     20  C   UNL     1     117.204 120.428 120.329  1.00  0.00     0.021 C 
ATOM     21  C   UNL     1     118.260 120.042 122.603  1.00  0.00    -0.027 C 
ATOM     22  C   UNL     1     118.363 119.545 119.721  1.00  0.00    -0.023 C 
ATOM     23  C   UNL     1     119.502 119.436 122.011  1.00  0.00     0.031 C 
ATOM     24  C   UNL     1     119.676 119.805 120.528  1.00  0.00     0.002 C 
ATOM     25  C   UNL     1     118.629 119.879 118.218  1.00  0.00     0.010 C 
ATOM     26  C   UNL     1     117.906 118.055 119.825  1.00  0.00     0.012 C 
ATOM     27  C   UNL     1     120.910 119.078 119.940  1.00  0.00     0.036 C 
ATOM     28  C   UNL     1     119.827 119.110 117.642  1.00  0.00     0.032 C 
ATOM     29  C   UNL     1     121.102 119.404 118.451  1.00  0.00     0.114 C 
BRANCH  29  30
ATOM     30  O   UNL     1     122.203 118.700 117.932  1.00  0.00    -0.393 OA
ATOM     31  H   UNL     1     123.028 119.178 118.211  1.00  0.00     0.210 HD
ENDBRANCH  29  30
ENDBRANCH   1  11
TORSDOF 6
ENDMDL
MODEL 2
REMARK VINA RESULT:    -6.788      3.145      9.646
REMARK INTER + INTRA:          -9.970
REMARK INTER:                  -8.753
REMARK INTRA:                  -1.217
REMARK UNBOUND:                -1.000
REMARK SMILES CC[C@H](C=C[C@H](C)[C@@H]1CC[C@@H]2C3=CC[C@H]4C[C@@H](O)CC[C@]4(C)[C@@H]3CC[C@]21C)C(C)C
REMARK SMILES IDX 6 1 7 2 5 3 4 4 3 5 2 6 1 7 28 8 29 9 30 10 8 11 9 12 26 13
REMARK SMILES IDX 10 14 11 15 25 16 27 17 12 18 24 19 23 20 13 21 21 22 14 23
REMARK SMILES IDX 15 24 20 25 22 26 16 27 19 28 17 29 18 30
REMARK H PARENT 18 31
REMARK Flexibility Score: inf
ROOT
ATOM      1  C   UNL     1     116.948 120.096 121.102  1.00  0.00     0.012 C 
ATOM      2  C   UNL     1     115.973 118.930 120.883  1.00  0.00     0.012 C 
ENDROOT
BRANCH   1   3
ATOM      3  C   UNL     1     118.131 119.939 120.163  1.00  0.00    -0.028 C 
ATOM      4  C   UNL     1     118.248 118.927 119.287  1.00  0.00    -0.027 C 
BRANCH   4   5
ATOM      5  C   UNL     1     119.475 118.783 118.405  1.00  0.00     0.014 C 
BRANCH   5   6
ATOM      6  C   UNL     1     119.826 117.287 118.199  1.00  0.00     0.004 C 
ATOM      7  C   UNL     1     118.756 116.356 118.773  1.00  0.00     0.004 C 
ENDBRANCH   5   6
BRANCH   5   8
ATOM      8  C   UNL     1     119.291 119.554 117.059  1.00  0.00    -0.011 C 
ATOM      9  C   UNL     1     120.315 119.115 116.001  1.00  0.00     0.008 C 
ATOM     10  C   UNL     1     117.863 119.462 116.495  1.00  0.00     0.008 C 
ENDBRANCH   5   8
ENDBRANCH   4   5
ENDBRANCH   1   3
BRANCH   1  11
ATOM     11  C   UNL     1     116.256 121.494 120.965  1.00  0.00     0.002 C 
ATOM     12  C   UNL     1     116.829 122.325 119.783  1.00  0.00     0.005 C 
ATOM     13  C   UNL     1     116.330 122.465 122.185  1.00  0.00    -0.023 C 
ATOM     14  C   UNL     1     116.827 123.798 120.212  1.00  0.00     0.009 C 
ATOM     15  C   UNL     1     116.012 123.798 121.494  1.00  0.00     0.021 C 
ATOM     16  C   UNL     1     115.249 122.249 123.283  1.00  0.00     0.008 C 
ATOM     17  C   UNL     1     117.753 122.458 122.826  1.00  0.00     0.012 C 
ATOM     18  C   UNL     1     116.075 124.941 122.483  1.00  0.00    -0.067 C 
ATOM     19  C   UNL     1     115.190 123.432 124.292  1.00  0.00     0.009 C 
ATOM     20  C   UNL     1     115.038 124.825 123.607  1.00  0.00     0.021 C 
ATOM     21  C   UNL     1     117.105 125.814 122.519  1.00  0.00    -0.027 C 
ATOM     22  C   UNL     1     115.039 126.074 124.574  1.00  0.00    -0.023 C 
ATOM     23  C   UNL     1     117.272 126.852 123.594  1.00  0.00     0.031 C 
ATOM     24  C   UNL     1     116.517 126.479 124.881  1.00  0.00     0.002 C 
ATOM     25  C   UNL     1     114.316 125.771 125.925  1.00  0.00     0.010 C 
ATOM     26  C   UNL     1     114.266 127.218 123.844  1.00  0.00     0.012 C 
ATOM     27  C   UNL     1     116.636 127.621 125.918  1.00  0.00     0.036 C 
ATOM     28  C   UNL     1     114.404 126.937 126.921  1.00  0.00     0.032 C 
ATOM     29  C   UNL     1     115.872 127.294 127.211  1.00  0.00     0.114 C 
BRANCH  29  30
ATOM     30  O   UNL     1     115.962 128.364 128.119  1.00  0.00    -0.393 OA
ATOM     31  H   UNL     1     116.024 129.205 127.593  1.00  0.00     0.210 HD
ENDBRANCH  29  30
ENDBRANCH   1  11
TORSDOF 6
ENDMDL
MODEL 3
REMARK VINA RESULT:    -6.663      1.532      3.125
REMARK INTER + INTRA:          -9.806
REMARK INTER:                  -8.853
REMARK INTRA:                  -0.953
REMARK UNBOUND:                -1.000
REMARK SMILES CC[C@H](C=C[C@H](C)[C@@H]1CC[C@@H]2C3=CC[C@H]4C[C@@H](O)CC[C@]4(C)[C@@H]3CC[C@]21C)C(C)C
REMARK SMILES IDX 6 1 7 2 5 3 4 4 3 5 2 6 1 7 28 8 29 9 30 10 8 11 9 12 26 13
REMARK SMILES IDX 10 14 11 15 25 16 27 17 12 18 24 19 23 20 13 21 21 22 14 23
REMARK SMILES IDX 15 24 20 25 22 26 16 27 19 28 17 29 18 30
REMARK H PARENT 18 31
REMARK Flexibility Score: inf
ROOT
ATOM      1  C   UNL     1     114.481 123.609 123.338  1.00  0.00     0.012 C 
ATOM      2  C   UNL     1     113.974 122.691 124.460  1.00  0.00     0.012 C 
ENDROOT
BRANCH   1   3
ATOM      3  C   UNL     1     114.323 125.056 123.768  1.00  0.00    -0.028 C 
ATOM      4  C   UNL     1     114.551 125.483 125.021  1.00  0.00    -0.027 C 
BRANCH   4   5
ATOM      5  C   UNL     1     114.327 126.931 125.416  1.00  0.00     0.014 C 
BRANCH   5   6
ATOM      6  C   UNL     1     113.238 127.034 126.515  1.00  0.00     0.004 C 
ATOM      7  C   UNL     1     112.021 127.838 126.053  1.00  0.00     0.004 C 
ENDBRANCH   5   6
BRANCH   5   8
ATOM      8  C   UNL     1     115.671 127.613 125.828  1.00  0.00    -0.011 C 
ATOM      9  C   UNL     1     116.096 127.229 127.254  1.00  0.00     0.008 C 
ATOM     10  C   UNL     1     116.817 127.349 124.837  1.00  0.00     0.008 C 
ENDBRANCH   5   8
ENDBRANCH   4   5
ENDBRANCH   1   3
BRANCH   1  11
ATOM     11  C   UNL     1     115.947 123.272 122.899  1.00  0.00     0.002 C 
ATOM     12  C   UNL     1     116.561 124.372 121.990  1.00  0.00     0.005 C 
ATOM     13  C   UNL     1     116.184 121.947 122.109  1.00  0.00    -0.023 C 
ATOM     14  C   UNL     1     117.459 123.672 120.961  1.00  0.00     0.009 C 
ATOM     15  C   UNL     1     117.550 122.245 121.477  1.00  0.00     0.021 C 
ATOM     16  C   UNL     1     116.350 120.667 122.978  1.00  0.00     0.008 C 
ATOM     17  C   UNL     1     115.073 121.725 121.035  1.00  0.00     0.012 C 
ATOM     18  C   UNL     1     117.991 121.101 120.593  1.00  0.00    -0.067 C 
ATOM     19  C   UNL     1     116.889 119.462 122.154  1.00  0.00     0.009 C 
ATOM     20  C   UNL     1     118.192 119.787 121.358  1.00  0.00     0.021 C 
ATOM     21  C   UNL     1     117.947 121.166 119.244  1.00  0.00    -0.027 C 
ATOM     22  C   UNL     1     118.754 118.625 120.449  1.00  0.00    -0.023 C 
ATOM     23  C   UNL     1     118.220 119.989 118.349  1.00  0.00     0.031 C 
ATOM     24  C   UNL     1     118.008 118.649 119.075  1.00  0.00     0.002 C 
ATOM     25  C   UNL     1     118.551 117.219 121.099  1.00  0.00     0.010 C 
ATOM     26  C   UNL     1     120.286 118.876 120.279  1.00  0.00     0.012 C 
ATOM     27  C   UNL     1     118.398 117.474 118.146  1.00  0.00     0.036 C 
ATOM     28  C   UNL     1     118.989 116.070 120.179  1.00  0.00     0.032 C 
ATOM     29  C   UNL     1     118.223 116.118 118.847  1.00  0.00     0.114 C 
BRANCH  29  30
ATOM     30  O   UNL     1     118.622 115.071 117.997  1.00  0.00    -0.393 OA
ATOM     31  H   UNL     1     118.233 114.227 118.351  1.00  0.00     0.210 HD
ENDBRANCH  29  30
ENDBRANCH   1  11
TORSDOF 6
ENDMDL
MODEL 4
REMARK VINA RESULT:    -6.651      2.650      4.846
REMARK INTER + INTRA:          -9.789
REMARK INTER:                  -9.129
REMARK INTRA:                  -0.661
REMARK UNBOUND:                -1.000
REMARK SMILES CC[C@H](C=C[C@H](C)[C@@H]1CC[C@@H]2C3=CC[C@H]4C[C@@H](O)CC[C@]4(C)[C@@H]3CC[C@]21C)C(C)C
REMARK SMILES IDX 6 1 7 2 5 3 4 4 3 5 2 6 1 7 28 8 29 9 30 10 8 11 9 12 26 13
REMARK SMILES IDX 10 14 11 15 25 16 27 17 12 18 24 19 23 20 13 21 21 22 14 23
REMARK SMILES IDX 15 24 20 25 22 26 16 27 19 28 17 29 18 30
REMARK H PARENT 18 31
REMARK Flexibility Score: inf
ROOT
ATOM      1  C   UNL     1     114.969 123.727 123.693  1.00  0.00     0.012 C 
ATOM      2  C   UNL     1     114.425 124.963 122.960  1.00  0.00     0.012 C 
ENDROOT
BRANCH   1   3
ATOM      3  C   UNL     1     113.941 122.612 123.619  1.00  0.00    -0.028 C 
ATOM      4  C   UNL     1     113.618 121.837 124.668  1.00  0.00    -0.027 C 
BRANCH   4   5
ATOM      5  C   UNL     1     112.622 120.699 124.532  1.00  0.00     0.014 C 
BRANCH   5   6
ATOM      6  C   UNL     1     112.656 120.113 123.097  1.00  0.00     0.004 C 
ATOM      7  C   UNL     1     111.310 120.250 122.382  1.00  0.00     0.004 C 
ENDBRANCH   5   6
BRANCH   5   8
ATOM      8  C   UNL     1     112.856 119.617 125.634  1.00  0.00    -0.011 C 
ATOM      9  C   UNL     1     112.027 118.348 125.378  1.00  0.00     0.008 C 
ATOM     10  C   UNL     1     114.338 119.259 125.832  1.00  0.00     0.008 C 
ENDBRANCH   5   8
ENDBRANCH   4   5
ENDBRANCH   1   3
BRANCH   1  11
ATOM     11  C   UNL     1     116.374 123.282 123.162  1.00  0.00     0.002 C 
ATOM     12  C   UNL     1     117.020 124.347 122.233  1.00  0.00     0.005 C 
ATOM     13  C   UNL     1     116.455 121.958 122.341  1.00  0.00    -0.023 C 
ATOM     14  C   UNL     1     117.796 123.596 121.142  1.00  0.00     0.009 C 
ATOM     15  C   UNL     1     117.802 122.157 121.631  1.00  0.00     0.021 C 
ATOM     16  C   UNL     1     116.569 120.652 123.179  1.00  0.00     0.008 C 
ATOM     17  C   UNL     1     115.269 121.845 121.332  1.00  0.00     0.012 C 
ATOM     18  C   UNL     1     118.096 120.998 120.706  1.00  0.00    -0.067 C 
ATOM     19  C   UNL     1     116.959 119.424 122.307  1.00  0.00     0.009 C 
ATOM     20  C   UNL     1     118.234 119.659 121.439  1.00  0.00     0.021 C 
ATOM     21  C   UNL     1     117.977 121.093 119.363  1.00  0.00    -0.027 C 
ATOM     22  C   UNL     1     118.646 118.473 120.481  1.00  0.00    -0.023 C 
ATOM     23  C   UNL     1     118.101 119.915 118.437  1.00  0.00     0.031 C 
ATOM     24  C   UNL     1     117.825 118.583 119.155  1.00  0.00     0.002 C 
ATOM     25  C   UNL     1     118.368 117.076 121.122  1.00  0.00     0.010 C 
ATOM     26  C   UNL     1     120.180 118.604 120.223  1.00  0.00     0.012 C 
ATOM     27  C   UNL     1     118.063 117.398 118.188  1.00  0.00     0.036 C 
ATOM     28  C   UNL     1     118.657 115.913 120.162  1.00  0.00     0.032 C 
ATOM     29  C   UNL     1     117.820 116.047 118.878  1.00  0.00     0.114 C 
BRANCH  29  30
ATOM     30  O   UNL     1     118.082 114.988 117.992  1.00  0.00    -0.393 OA
ATOM     31  H   UNL     1     117.991 115.338 117.066  1.00  0.00     0.210 HD
ENDBRANCH  29  30
ENDBRANCH   1  11
TORSDOF 6
ENDMDL
MODEL 5
REMARK VINA RESULT:    -6.583      3.791      5.175
REMARK INTER + INTRA:          -9.700
REMARK INTER:                  -8.272
REMARK INTRA:                  -1.428
REMARK UNBOUND:                -1.000
REMARK SMILES CC[C@H](C=C[C@H](C)[C@@H]1CC[C@@H]2C3=CC[C@H]4C[C@@H](O)CC[C@]4(C)[C@@H]3CC[C@]21C)C(C)C
REMARK SMILES IDX 6 1 7 2 5 3 4 4 3 5 2 6 1 7 28 8 29 9 30 10 8 11 9 12 26 13
REMARK SMILES IDX 10 14 11 15 25 16 27 17 12 18 24 19 23 20 13 21 21 22 14 23
REMARK SMILES IDX 15 24 20 25 22 26 16 27 19 28 17 29 18 30
REMARK H PARENT 18 31
REMARK Flexibility Score: inf
ROOT
ATOM      1  C   UNL     1     114.413 122.176 122.050  1.00  0.00     0.012 C 
ATOM      2  C   UNL     1     113.427 122.897 121.119  1.00  0.00     0.012 C 
ENDROOT
BRANCH   1   3
ATOM      3  C   UNL     1     113.637 121.293 123.010  1.00  0.00    -0.028 C 
ATOM      4  C   UNL     1     113.772 121.357 124.346  1.00  0.00    -0.027 C 
BRANCH   4   5
ATOM      5  C   UNL     1     113.013 120.416 125.263  1.00  0.00     0.014 C 
BRANCH   5   6
ATOM      6  C   UNL     1     111.780 119.820 124.535  1.00  0.00     0.004 C 
ATOM      7  C   UNL     1     111.741 118.292 124.616  1.00  0.00     0.004 C 
ENDBRANCH   5   6
BRANCH   5   8
ATOM      8  C   UNL     1     113.960 119.320 125.848  1.00  0.00    -0.011 C 
ATOM      9  C   UNL     1     115.431 119.584 125.492  1.00  0.00     0.008 C 
ATOM     10  C   UNL     1     113.801 119.125 127.366  1.00  0.00     0.008 C 
ENDBRANCH   5   8
ENDBRANCH   4   5
ENDBRANCH   1   3
BRANCH   1  11
ATOM     11  C   UNL     1     115.514 121.384 121.265  1.00  0.00     0.002 C 
ATOM     12  C   UNL     1     115.387 119.847 121.455  1.00  0.00     0.005 C 
ATOM     13  C   UNL     1     117.007 121.688 121.601  1.00  0.00    -0.023 C 
ATOM     14  C   UNL     1     116.807 119.267 121.480  1.00  0.00     0.009 C 
ATOM     15  C   UNL     1     117.678 120.429 121.034  1.00  0.00     0.021 C 
ATOM     16  C   UNL     1     117.627 122.909 120.862  1.00  0.00     0.008 C 
ATOM     17  C   UNL     1     117.223 121.828 123.140  1.00  0.00     0.012 C 
ATOM     18  C   UNL     1     119.168 120.457 121.287  1.00  0.00    -0.067 C 
ATOM     19  C   UNL     1     119.176 122.958 121.001  1.00  0.00     0.009 C 
ATOM     20  C   UNL     1     119.878 121.625 120.592  1.00  0.00     0.021 C 
ATOM     21  C   UNL     1     119.757 119.698 122.237  1.00  0.00    -0.027 C 
ATOM     22  C   UNL     1     121.447 121.587 120.773  1.00  0.00    -0.023 C 
ATOM     23  C   UNL     1     121.206 119.829 122.620  1.00  0.00     0.031 C 
ATOM     24  C   UNL     1     121.778 121.209 122.254  1.00  0.00     0.002 C 
ATOM     25  C   UNL     1     122.109 122.965 120.452  1.00  0.00     0.010 C 
ATOM     26  C   UNL     1     121.997 120.525 119.769  1.00  0.00     0.012 C 
ATOM     27  C   UNL     1     123.291 121.260 122.574  1.00  0.00     0.036 C 
ATOM     28  C   UNL     1     123.619 122.977 120.731  1.00  0.00     0.032 C 
ATOM     29  C   UNL     1     123.904 122.618 122.199  1.00  0.00     0.114 C 
BRANCH  29  30
ATOM     30  O   UNL     1     125.285 122.624 122.462  1.00  0.00    -0.393 OA
ATOM     31  H   UNL     1     125.714 123.247 121.817  1.00  0.00     0.210 HD
ENDBRANCH  29  30
ENDBRANCH   1  11
TORSDOF 6
ENDMDL
MODEL 6
REMARK VINA RESULT:    -6.569      0.650      1.723
REMARK INTER + INTRA:          -9.681
REMARK INTER:                  -8.666
REMARK INTRA:                  -1.015
REMARK UNBOUND:                -1.000
REMARK SMILES CC[C@H](C=C[C@H](C)[C@@H]1CC[C@@H]2C3=CC[C@H]4C[C@@H](O)CC[C@]4(C)[C@@H]3CC[C@]21C)C(C)C
REMARK SMILES IDX 6 1 7 2 5 3 4 4 3 5 2 6 1 7 28 8 29 9 30 10 8 11 9 12 26 13
REMARK SMILES IDX 10 14 11 15 25 16 27 17 12 18 24 19 23 20 13 21 21 22 14 23
REMARK SMILES IDX 15 24 20 25 22 26 16 27 19 28 17 29 18 30
REMARK H PARENT 18 31
REMARK Flexibility Score: inf
ROOT
ATOM      1  C   UNL     1     114.595 125.054 122.439  1.00  0.00     0.012 C 
ATOM      2  C   UNL     1     113.313 125.549 121.753  1.00  0.00     0.012 C 
ENDROOT
BRANCH   1   3
ATOM      3  C   UNL     1     114.637 125.586 123.860  1.00  0.00    -0.028 C 
ATOM      4  C   UNL     1     114.382 126.867 124.176  1.00  0.00    -0.027 C 
BRANCH   4   5
ATOM      5  C   UNL     1     114.489 127.364 125.607  1.00  0.00     0.014 C 
BRANCH   5   6
ATOM      6  C   UNL     1     113.380 126.733 126.487  1.00  0.00     0.004 C 
ATOM      7  C   UNL     1     112.341 127.763 126.939  1.00  0.00     0.004 C 
ENDBRANCH   5   6
BRANCH   5   8
ATOM      8  C   UNL     1     115.924 127.127 126.176  1.00  0.00    -0.011 C 
ATOM      9  C   UNL     1     117.006 127.755 125.284  1.00  0.00     0.008 C 
ATOM     10  C   UNL     1     116.088 127.597 127.631  1.00  0.00     0.008 C 
ENDBRANCH   5   8
ENDBRANCH   4   5
ENDBRANCH   1   3
BRANCH   1  11
ATOM     11  C   UNL     1     114.748 123.496 122.378  1.00  0.00     0.002 C 
ATOM     12  C   UNL     1     114.679 122.839 123.784  1.00  0.00     0.005 C 
ATOM     13  C   UNL     1     116.055 122.918 121.750  1.00  0.00    -0.023 C 
ATOM     14  C   UNL     1     115.647 121.648 123.785  1.00  0.00     0.009 C 
ATOM     15  C   UNL     1     116.027 121.493 122.322  1.00  0.00     0.021 C 
ATOM     16  C   UNL     1     116.056 122.789 120.200  1.00  0.00     0.008 C 
ATOM     17  C   UNL     1     117.309 123.717 122.222  1.00  0.00     0.012 C 
ATOM     18  C   UNL     1     117.252 120.720 121.890  1.00  0.00    -0.067 C 
ATOM     19  C   UNL     1     117.243 121.926 119.681  1.00  0.00     0.009 C 
ATOM     20  C   UNL     1     117.344 120.530 120.371  1.00  0.00     0.021 C 
ATOM     21  C   UNL     1     118.282 120.465 122.727  1.00  0.00    -0.027 C 
ATOM     22  C   UNL     1     118.567 119.631 119.936  1.00  0.00    -0.023 C 
ATOM     23  C   UNL     1     119.577 119.847 122.279  1.00  0.00     0.031 C 
ATOM     24  C   UNL     1     119.822 120.042 120.773  1.00  0.00     0.002 C 
ATOM     25  C   UNL     1     118.906 119.794 118.420  1.00  0.00     0.010 C 
ATOM     26  C   UNL     1     118.160 118.147 120.197  1.00  0.00     0.012 C 
ATOM     27  C   UNL     1     121.112 119.305 120.343  1.00  0.00     0.036 C 
ATOM     28  C   UNL     1     120.162 119.014 118.005  1.00  0.00     0.032 C 
ATOM     29  C   UNL     1     121.377 119.458 118.837  1.00  0.00     0.114 C 
BRANCH  29  30
ATOM     30  O   UNL     1     122.531 118.745 118.466  1.00  0.00    -0.393 OA
ATOM     31  H   UNL     1     122.242 117.862 118.114  1.00  0.00     0.210 HD
ENDBRANCH  29  30
ENDBRANCH   1  11
TORSDOF 6
ENDMDL
MODEL 7
REMARK VINA RESULT:    -6.320      2.526      4.978
REMARK INTER + INTRA:          -9.352
REMARK INTER:                  -8.007
REMARK INTRA:                  -1.345
REMARK UNBOUND:                -1.000
REMARK SMILES CC[C@H](C=C[C@H](C)[C@@H]1CC[C@@H]2C3=CC[C@H]4C[C@@H](O)CC[C@]4(C)[C@@H]3CC[C@]21C)C(C)C
REMARK SMILES IDX 6 1 7 2 5 3 4 4 3 5 2 6 1 7 28 8 29 9 30 10 8 11 9 12 26 13
REMARK SMILES IDX 10 14 11 15 25 16 27 17 12 18 24 19 23 20 13 21 21 22 14 23
REMARK SMILES IDX 15 24 20 25 22 26 16 27 19 28 17 29 18 30
REMARK H PARENT 18 31
REMARK Flexibility Score: inf
ROOT
ATOM      1  C   UNL     1     115.285 123.557 124.245  1.00  0.00     0.012 C 
ATOM      2  C   UNL     1     114.919 124.961 124.749  1.00  0.00     0.012 C 
ENDROOT
BRANCH   1   3
ATOM      3  C   UNL     1     114.017 122.734 124.101  1.00  0.00    -0.028 C 
ATOM      4  C   UNL     1     113.889 121.485 124.578  1.00  0.00    -0.027 C 
BRANCH   4   5
ATOM      5  C   UNL     1     112.619 120.682 124.362  1.00  0.00     0.014 C 
BRANCH   5   6
ATOM      6  C   UNL     1     112.546 120.159 122.904  1.00  0.00     0.004 C 
ATOM      7  C   UNL     1     113.928 119.830 122.335  1.00  0.00     0.004 C 
ENDBRANCH   5   6
BRANCH   5   8
ATOM      8  C   UNL     1     112.491 119.542 125.422  1.00  0.00    -0.011 C 
ATOM      9  C   UNL     1     111.762 118.312 124.858  1.00  0.00     0.008 C 
ATOM     10  C   UNL     1     113.839 119.131 126.040  1.00  0.00     0.008 C 
ENDBRANCH   5   8
ENDBRANCH   4   5
ENDBRANCH   1   3
BRANCH   1  11
ATOM     11  C   UNL     1     116.130 123.591 122.926  1.00  0.00     0.002 C 
ATOM     12  C   UNL     1     115.308 123.148 121.684  1.00  0.00     0.005 C 
ATOM     13  C   UNL     1     117.418 122.712 122.865  1.00  0.00    -0.023 C 
ATOM     14  C   UNL     1     116.256 122.381 120.754  1.00  0.00     0.009 C 
ATOM     15  C   UNL     1     117.631 122.642 121.347  1.00  0.00     0.021 C 
ATOM     16  C   UNL     1     118.698 123.351 123.478  1.00  0.00     0.008 C 
ATOM     17  C   UNL     1     117.171 121.304 123.491  1.00  0.00     0.012 C 
ATOM     18  C   UNL     1     118.825 121.777 121.014  1.00  0.00    -0.067 C 
ATOM     19  C   UNL     1     119.987 122.565 123.103  1.00  0.00     0.009 C 
ATOM     20  C   UNL     1     120.145 122.327 121.569  1.00  0.00     0.021 C 
ATOM     21  C   UNL     1     118.700 120.526 120.518  1.00  0.00    -0.027 C 
ATOM     22  C   UNL     1     121.400 121.476 121.127  1.00  0.00    -0.023 C 
ATOM     23  C   UNL     1     119.861 119.588 120.337  1.00  0.00     0.031 C 
ATOM     24  C   UNL     1     121.049 119.957 121.242  1.00  0.00     0.002 C 
ATOM     25  C   UNL     1     122.649 121.767 122.019  1.00  0.00     0.010 C 
ATOM     26  C   UNL     1     121.734 121.883 119.657  1.00  0.00     0.012 C 
ATOM     27  C   UNL     1     122.251 119.028 120.946  1.00  0.00     0.036 C 
ATOM     28  C   UNL     1     123.846 120.867 121.675  1.00  0.00     0.032 C 
ATOM     29  C   UNL     1     123.468 119.383 121.816  1.00  0.00     0.114 C 
BRANCH  29  30
ATOM     30  O   UNL     1     124.557 118.552 121.499  1.00  0.00    -0.393 OA
ATOM     31  H   UNL     1     124.614 118.490 120.509  1.00  0.00     0.210 HD
ENDBRANCH  29  30
ENDBRANCH   1  11
TORSDOF 6
ENDMDL
MODEL 8
REMARK VINA RESULT:    -6.283      3.993     10.266
REMARK INTER + INTRA:          -9.304
REMARK INTER:                  -8.334
REMARK INTRA:                  -0.970
REMARK UNBOUND:                -1.000
REMARK SMILES CC[C@H](C=C[C@H](C)[C@@H]1CC[C@@H]2C3=CC[C@H]4C[C@@H](O)CC[C@]4(C)[C@@H]3CC[C@]21C)C(C)C
REMARK SMILES IDX 6 1 7 2 5 3 4 4 3 5 2 6 1 7 28 8 29 9 30 10 8 11 9 12 26 13
REMARK SMILES IDX 10 14 11 15 25 16 27 17 12 18 24 19 23 20 13 21 21 22 14 23
REMARK SMILES IDX 15 24 20 25 22 26 16 27 19 28 17 29 18 30
REMARK H PARENT 18 31
REMARK Flexibility Score: inf
ROOT
ATOM      1  C   UNL     1     119.729 119.128 117.615  1.00  0.00     0.012 C 
ATOM      2  C   UNL     1     118.589 119.545 116.673  1.00  0.00     0.012 C 
ENDROOT
BRANCH   1   3
ATOM      3  C   UNL     1     121.033 119.107 116.840  1.00  0.00    -0.028 C 
ATOM      4  C   UNL     1     121.137 119.500 115.559  1.00  0.00    -0.027 C 
BRANCH   4   5
ATOM      5  C   UNL     1     122.454 119.410 114.809  1.00  0.00     0.014 C 
BRANCH   5   6
ATOM      6  C   UNL     1     123.505 118.633 115.643  1.00  0.00     0.004 C 
ATOM      7  C   UNL     1     124.808 118.411 114.872  1.00  0.00     0.004 C 
ENDBRANCH   5   6
BRANCH   5   8
ATOM      8  C   UNL     1     122.245 118.807 113.383  1.00  0.00    -0.011 C 
ATOM      9  C   UNL     1     121.008 117.896 113.321  1.00  0.00     0.008 C 
ATOM     10  C   UNL     1     122.184 119.871 112.274  1.00  0.00     0.008 C 
ENDBRANCH   5   8
ENDBRANCH   4   5
ENDBRANCH   1   3
BRANCH   1  11
ATOM     11  C   UNL     1     119.809 120.025 118.898  1.00  0.00     0.002 C 
ATOM     12  C   UNL     1     121.106 119.773 119.716  1.00  0.00     0.005 C 
ATOM     13  C   UNL     1     118.663 119.895 119.949  1.00  0.00    -0.023 C 
ATOM     14  C   UNL     1     120.748 119.914 121.201  1.00  0.00     0.009 C 
ATOM     15  C   UNL     1     119.348 120.505 121.179  1.00  0.00     0.021 C 
ATOM     16  C   UNL     1     117.390 120.744 119.665  1.00  0.00     0.008 C 
ATOM     17  C   UNL     1     118.270 118.401 120.174  1.00  0.00     0.012 C 
ATOM     18  C   UNL     1     118.436 120.448 122.383  1.00  0.00    -0.067 C 
ATOM     19  C   UNL     1     116.439 120.808 120.894  1.00  0.00     0.009 C 
ATOM     20  C   UNL     1     117.149 121.264 122.207  1.00  0.00     0.021 C 
ATOM     21  C   UNL     1     118.612 119.559 123.386  1.00  0.00    -0.027 C 
ATOM     22  C   UNL     1     116.252 121.286 123.506  1.00  0.00    -0.023 C 
ATOM     23  C   UNL     1     117.626 119.371 124.507  1.00  0.00     0.031 C 
ATOM     24  C   UNL     1     116.216 119.850 124.123  1.00  0.00     0.002 C 
ATOM     25  C   UNL     1     114.787 121.733 123.201  1.00  0.00     0.010 C 
ATOM     26  C   UNL     1     116.892 122.320 124.486  1.00  0.00     0.012 C 
ATOM     27  C   UNL     1     115.265 119.729 125.338  1.00  0.00     0.036 C 
ATOM     28  C   UNL     1     113.872 121.652 124.432  1.00  0.00     0.032 C 
ATOM     29  C   UNL     1     113.849 120.222 124.999  1.00  0.00     0.114 C 
BRANCH  29  30
ATOM     30  O   UNL     1     113.017 120.141 126.130  1.00  0.00    -0.393 OA
ATOM     31  H   UNL     1     113.565 119.802 126.886  1.00  0.00     0.210 HD
ENDBRANCH  29  30
ENDBRANCH   1  11
TORSDOF 6
ENDMDL
MODEL 9
REMARK VINA RESULT:    -6.259      4.398     11.142
REMARK INTER + INTRA:          -9.271
REMARK INTER:                  -8.123
REMARK INTRA:                  -1.148
REMARK UNBOUND:                -1.000
REMARK SMILES CC[C@H](C=C[C@H](C)[C@@H]1CC[C@@H]2C3=CC[C@H]4C[C@@H](O)CC[C@]4(C)[C@@H]3CC[C@]21C)C(C)C
REMARK SMILES IDX 6 1 7 2 5 3 4 4 3 5 2 6 1 7 28 8 29 9 30 10 8 11 9 12 26 13
REMARK SMILES IDX 10 14 11 15 25 16 27 17 12 18 24 19 23 20 13 21 21 22 14 23
REMARK SMILES IDX 15 24 20 25 22 26 16 27 19 28 17 29 18 30
REMARK H PARENT 18 31
REMARK Flexibility Score: inf
ROOT
ATOM      1  C   UNL     1     122.909 118.650 116.725  1.00  0.00     0.012 C 
ATOM      2  C   UNL     1     123.819 117.598 117.375  1.00  0.00     0.012 C 
ENDROOT
BRANCH   1   3
ATOM      3  C   UNL     1     123.173 118.682 115.231  1.00  0.00    -0.028 C 
ATOM      4  C   UNL     1     123.881 119.652 114.627  1.00  0.00    -0.027 C 
BRANCH   4   5
ATOM      5  C   UNL     1     124.074 119.670 113.121  1.00  0.00     0.014 C 
BRANCH   5   6
ATOM      6  C   UNL     1     122.721 119.452 112.396  1.00  0.00     0.004 C 
ATOM      7  C   UNL     1     122.321 120.657 111.541  1.00  0.00     0.004 C 
ENDBRANCH   5   6
BRANCH   5   8
ATOM      8  C   UNL     1     124.803 120.974 112.666  1.00  0.00    -0.011 C 
ATOM      9  C   UNL     1     125.048 121.935 113.841  1.00  0.00     0.008 C 
ATOM     10  C   UNL     1     126.116 120.706 111.910  1.00  0.00     0.008 C 
ENDBRANCH   5   8
ENDBRANCH   4   5
ENDBRANCH   1   3
BRANCH   1  11
ATOM     11  C   UNL     1     121.395 118.427 117.060  1.00  0.00     0.002 C 
ATOM     12  C   UNL     1     120.458 118.919 115.922  1.00  0.00     0.005 C 
ATOM     13  C   UNL     1     120.826 119.107 118.345  1.00  0.00    -0.023 C 
ATOM     14  C   UNL     1     119.196 119.493 116.581  1.00  0.00     0.009 C 
ATOM     15  C   UNL     1     119.324 119.067 118.034  1.00  0.00     0.021 C 
ATOM     16  C   UNL     1     121.041 118.323 119.672  1.00  0.00     0.008 C 
ATOM     17  C   UNL     1     121.359 120.567 118.493  1.00  0.00     0.012 C 
ATOM     18  C   UNL     1     118.532 119.733 119.136  1.00  0.00    -0.067 C 
ATOM     19  C   UNL     1     120.186 118.896 120.839  1.00  0.00     0.009 C 
ATOM     20  C   UNL     1     118.671 119.029 120.492  1.00  0.00     0.021 C 
ATOM     21  C   UNL     1     117.987 120.962 118.998  1.00  0.00    -0.027 C 
ATOM     22  C   UNL     1     117.758 119.667 121.612  1.00  0.00    -0.023 C 
ATOM     23  C   UNL     1     117.342 121.713 120.130  1.00  0.00     0.031 C 
ATOM     24  C   UNL     1     117.834 121.224 121.503  1.00  0.00     0.002 C 
ATOM     25  C   UNL     1     118.211 119.246 123.047  1.00  0.00     0.010 C 
ATOM     26  C   UNL     1     116.308 119.141 121.375  1.00  0.00     0.012 C 
ATOM     27  C   UNL     1     117.070 121.954 122.633  1.00  0.00     0.036 C 
ATOM     28  C   UNL     1     117.405 119.946 124.152  1.00  0.00     0.032 C 
ATOM     29  C   UNL     1     117.518 121.474 124.022  1.00  0.00     0.114 C 
BRANCH  29  30
ATOM     30  O   UNL     1     116.780 122.123 125.028  1.00  0.00    -0.393 OA
ATOM     31  H   UNL     1     115.875 122.315 124.665  1.00  0.00     0.210 HD
ENDBRANCH  29  30
ENDBRANCH   1  11
TORSDOF 6
ENDMDL
