MODEL 1
REMARK VINA RESULT:    -3.986      0.000      0.000
REMARK INTER + INTRA:          -6.117
REMARK INTER:                  -6.083
REMARK INTRA:                  -0.034
REMARK UNBOUND:                -0.034
REMARK SMILES CC1=CCC[C@@H](C)C(=O)C[C@H](C(C)C)C(=O)C1
REMARK SMILES IDX 8 1 9 2 6 3 7 4 5 5 4 6 3 7 2 8 1 9 10 11 11 12 15 13 16 14
REMARK SMILES IDX 17 15 12 17 13 18 14 19
REMARK H PARENT
REMARK Flexibility Score: 70.00
ROOT
ATOM      1  C   UNL     1      48.755  22.339  20.692  1.00  0.00     0.136 C 
ATOM      2  O   UNL     1      49.546  22.300  19.761  1.00  0.00    -0.299 OA
ENDROOT
BRANCH   1   3
ATOM      3  C   UNL     1      47.626  21.337  20.759  1.00  0.00     0.053 C 
ATOM      4  C   UNL     1      48.017  20.013  20.091  1.00  0.00     0.016 C 
BRANCH   3   5
ATOM      5  C   UNL     1      46.362  21.951  20.108  1.00  0.00     0.015 C 
BRANCH   5   6
ATOM      6  C   UNL     1      45.160  22.168  21.047  1.00  0.00     0.028 C 
BRANCH   6   7
ATOM      7  C   UNL     1      44.552  23.555  21.077  1.00  0.00    -0.028 C 
ATOM      8  C   UNL     1      45.081  24.662  21.652  1.00  0.00    -0.070 CG0
ATOM      9  C   UNL     1      44.344  25.966  21.468  1.00  0.00     0.039 C 
ATOM     10  G   UNL     1      46.322  24.659  22.527  1.00  0.00     0.000 G0
ENDBRANCH   6   7
ENDBRANCH   5   6
ENDBRANCH   3   5
ENDBRANCH   1   3
BRANCH   1  11
ATOM     11  C   UNL     1      48.871  23.443  21.716  1.00  0.00     0.087 C 
BRANCH  11  12
ATOM     12  C   UNL     1      48.566  24.846  21.107  1.00  0.00     0.066 C 
BRANCH  12  13
ATOM     13  C   UNL     1      47.418  25.490  21.876  1.00  0.00     0.140 C 
ATOM     14  O   UNL     1      47.357  26.711  21.929  1.00  0.00    -0.299 OA
BRANCH  13  15
ATOM     15  C   UNL     1      46.311  24.673  22.510  1.00  0.00     0.106 CG0
ATOM     16  G   UNL     1      45.069  24.671  21.636  1.00  0.00     0.000 G0
ENDBRANCH  13  15
ENDBRANCH  12  13
BRANCH  12  17
ATOM     17  C   UNL     1      49.827  25.773  21.102  1.00  0.00    -0.006 C 
ATOM     18  C   UNL     1      50.874  25.318  22.139  1.00  0.00     0.008 C 
ATOM     19  C   UNL     1      50.508  25.818  19.719  1.00  0.00     0.008 C 
ENDBRANCH  12  17
ENDBRANCH  11  12
ENDBRANCH   1  11
TORSDOF 1
ENDMDL
MODEL 2
REMARK VINA RESULT:    -3.741      1.803      4.276
REMARK INTER + INTRA:          -5.743
REMARK INTER:                  -5.778
REMARK INTRA:                   0.035
REMARK UNBOUND:                -0.034
REMARK SMILES CC1=CCC[C@@H](C)C(=O)C[C@H](C(C)C)C(=O)C1
REMARK SMILES IDX 8 1 9 2 6 3 7 4 5 5 4 6 3 7 2 8 1 9 10 11 11 12 15 13 16 14
REMARK SMILES IDX 17 15 12 17 13 18 14 19
REMARK H PARENT
REMARK Flexibility Score: 70.00
ROOT
ATOM      1  C   UNL     1      45.962  21.174  20.793  1.00  0.00     0.136 C 
ATOM      2  O   UNL     1      45.452  20.538  21.704  1.00  0.00    -0.299 OA
ENDROOT
BRANCH   1   3
ATOM      3  C   UNL     1      47.267  20.707  20.190  1.00  0.00     0.053 C 
ATOM      4  C   UNL     1      47.938  19.647  21.072  1.00  0.00     0.016 C 
BRANCH   3   5
ATOM      5  C   UNL     1      48.191  21.930  19.970  1.00  0.00     0.015 C 
BRANCH   5   6
ATOM      6  C   UNL     1      48.733  22.601  21.247  1.00  0.00     0.028 C 
BRANCH   6   7
ATOM      7  C   UNL     1      48.886  24.107  21.222  1.00  0.00    -0.028 C 
ATOM      8  C   UNL     1      48.113  25.014  21.867  1.00  0.00    -0.070 CG0
ATOM      9  C   UNL     1      48.516  26.466  21.780  1.00  0.00     0.039 C 
ATOM     10  G   UNL     1      46.832  24.671  22.607  1.00  0.00     0.000 G0
ENDBRANCH   6   7
ENDBRANCH   5   6
ENDBRANCH   3   5
ENDBRANCH   1   3
BRANCH   1  11
ATOM     11  C   UNL     1      45.321  22.465  20.342  1.00  0.00     0.087 C 
BRANCH  11  12
ATOM     12  C   UNL     1      44.807  23.318  21.543  1.00  0.00     0.066 C 
BRANCH  12  13
ATOM     13  C   UNL     1      45.650  24.582  21.661  1.00  0.00     0.140 C 
ATOM     14  O   UNL     1      45.323  25.571  21.019  1.00  0.00    -0.299 OA
BRANCH  13  15
ATOM     15  C   UNL     1      46.834  24.680  22.601  1.00  0.00     0.106 CG0
ATOM     16  G   UNL     1      48.103  25.031  21.845  1.00  0.00     0.000 G0
ENDBRANCH  13  15
ENDBRANCH  12  13
BRANCH  12  17
ATOM     17  C   UNL     1      43.288  23.669  21.409  1.00  0.00    -0.006 C 
ATOM     18  C   UNL     1      42.416  22.401  21.307  1.00  0.00     0.008 C 
ATOM     19  C   UNL     1      42.779  24.506  22.601  1.00  0.00     0.008 C 
ENDBRANCH  12  17
ENDBRANCH  11  12
ENDBRANCH   1  11
TORSDOF 1
ENDMDL
MODEL 3
REMARK VINA RESULT:    -3.532      1.912      2.734
REMARK INTER + INTRA:          -5.424
REMARK INTER:                  -5.763
REMARK INTRA:                   0.339
REMARK UNBOUND:                -0.034
REMARK SMILES CC1=CCC[C@@H](C)C(=O)C[C@H](C(C)C)C(=O)C1
REMARK SMILES IDX 8 1 9 2 6 3 7 4 5 5 4 6 3 7 2 8 1 9 10 11 11 12 15 13 16 14
REMARK SMILES IDX 17 15 12 17 13 18 14 19
REMARK H PARENT
REMARK Flexibility Score: 70.00
ROOT
ATOM      1  C   UNL     1      49.673  23.375  20.895  1.00  0.00     0.136 C 
ATOM      2  O   UNL     1      50.034  23.246  19.734  1.00  0.00    -0.299 OA
ENDROOT
BRANCH   1   3
ATOM      3  C   UNL     1      48.473  22.606  21.397  1.00  0.00     0.053 C 
ATOM      4  C   UNL     1      48.387  21.221  20.743  1.00  0.00     0.016 C 
BRANCH   3   5
ATOM      5  C   UNL     1      47.193  23.438  21.138  1.00  0.00     0.015 C 
BRANCH   5   6
ATOM      6  C   UNL     1      46.872  24.521  22.185  1.00  0.00     0.028 C 
BRANCH   6   7
ATOM      7  C   UNL     1      46.484  25.888  21.664  1.00  0.00    -0.028 C 
ATOM      8  C   UNL     1      47.311  26.937  21.439  1.00  0.00    -0.070 CG0
ATOM      9  C   UNL     1      46.716  28.177  20.817  1.00  0.00     0.039 C 
ATOM     10  G   UNL     1      48.776  26.971  21.839  1.00  0.00     0.000 G0
ENDBRANCH   6   7
ENDBRANCH   5   6
ENDBRANCH   3   5
ENDBRANCH   1   3
BRANCH   1  11
ATOM     11  C   UNL     1      50.383  24.368  21.785  1.00  0.00     0.087 C 
BRANCH  11  12
ATOM     12  C   UNL     1      50.883  25.616  20.993  1.00  0.00     0.066 C 
BRANCH  12  13
ATOM     13  C   UNL     1      49.710  26.555  20.741  1.00  0.00     0.140 C 
ATOM     14  O   UNL     1      49.472  26.904  19.593  1.00  0.00    -0.299 OA
BRANCH  13  15
ATOM     15  C   UNL     1      48.784  27.009  21.850  1.00  0.00     0.106 CG0
ATOM     16  G   UNL     1      47.332  26.931  21.413  1.00  0.00     0.000 G0
ENDBRANCH  13  15
ENDBRANCH  12  13
BRANCH  12  17
ATOM     17  C   UNL     1      52.045  26.357  21.735  1.00  0.00    -0.006 C 
ATOM     18  C   UNL     1      52.090  27.855  21.370  1.00  0.00     0.008 C 
ATOM     19  C   UNL     1      51.922  26.240  23.268  1.00  0.00     0.008 C 
ENDBRANCH  12  17
ENDBRANCH  11  12
ENDBRANCH   1  11
TORSDOF 1
ENDMDL
MODEL 4
REMARK VINA RESULT:    -3.399      2.684      4.779
REMARK INTER + INTRA:          -5.221
REMARK INTER:                  -4.907
REMARK INTRA:                  -0.315
REMARK UNBOUND:                -0.034
REMARK SMILES CC1=CCC[C@@H](C)C(=O)C[C@H](C(C)C)C(=O)C1
REMARK SMILES IDX 8 1 9 2 6 3 7 4 5 5 4 6 3 7 2 8 1 9 10 11 11 12 15 13 16 14
REMARK SMILES IDX 17 15 12 17 13 18 14 19
REMARK H PARENT
REMARK Flexibility Score: 70.00
ROOT
ATOM      1  C   UNL     1      47.294  24.386  21.955  1.00  0.00     0.136 C 
ATOM      2  O   UNL     1      46.384  23.765  21.424  1.00  0.00    -0.299 OA
ENDROOT
BRANCH   1   3
ATOM      3  C   UNL     1      47.026  25.751  22.547  1.00  0.00     0.053 C 
ATOM      4  C   UNL     1      45.948  25.682  23.636  1.00  0.00     0.016 C 
BRANCH   3   5
ATOM      5  C   UNL     1      46.627  26.726  21.412  1.00  0.00     0.015 C 
BRANCH   5   6
ATOM      6  C   UNL     1      47.614  27.877  21.138  1.00  0.00     0.028 C 
BRANCH   6   7
ATOM      7  C   UNL     1      48.766  28.041  22.107  1.00  0.00    -0.028 C 
ATOM      8  C   UNL     1      50.045  27.630  21.926  1.00  0.00    -0.070 CG0
ATOM      9  C   UNL     1      51.054  27.994  22.988  1.00  0.00     0.039 C 
ATOM     10  G   UNL     1      50.509  26.768  20.765  1.00  0.00     0.000 G0
ENDBRANCH   6   7
ENDBRANCH   5   6
ENDBRANCH   3   5
ENDBRANCH   1   3
BRANCH   1  11
ATOM     11  C   UNL     1      48.692  23.813  21.934  1.00  0.00     0.087 C 
BRANCH  11  12
ATOM     12  C   UNL     1      49.507  24.294  20.695  1.00  0.00     0.066 C 
BRANCH  12  13
ATOM     13  C   UNL     1      50.566  25.293  21.145  1.00  0.00     0.140 C 
ATOM     14  O   UNL     1      51.521  24.887  21.794  1.00  0.00    -0.299 OA
BRANCH  13  15
ATOM     15  C   UNL     1      50.517  26.755  20.753  1.00  0.00     0.106 CG0
ATOM     16  G   UNL     1      50.051  27.615  21.915  1.00  0.00     0.000 G0
ENDBRANCH  13  15
ENDBRANCH  12  13
BRANCH  12  17
ATOM     17  C   UNL     1      50.157  23.101  19.918  1.00  0.00    -0.006 C 
ATOM     18  C   UNL     1      49.175  21.922  19.757  1.00  0.00     0.008 C 
ATOM     19  C   UNL     1      50.641  23.517  18.514  1.00  0.00     0.008 C 
ENDBRANCH  12  17
ENDBRANCH  11  12
ENDBRANCH   1  11
TORSDOF 1
ENDMDL
MODEL 5
REMARK VINA RESULT:    -3.289      3.359      5.320
REMARK INTER + INTRA:          -5.053
REMARK INTER:                  -5.007
REMARK INTRA:                  -0.046
REMARK UNBOUND:                -0.034
REMARK SMILES CC1=CCC[C@@H](C)C(=O)C[C@H](C(C)C)C(=O)C1
REMARK SMILES IDX 8 1 9 2 6 3 7 4 5 5 4 6 3 7 2 8 1 9 10 11 11 12 15 13 16 14
REMARK SMILES IDX 17 15 12 17 13 18 14 19
REMARK H PARENT
REMARK Flexibility Score: 70.00
ROOT
ATOM      1  C   UNL     1      50.634  27.333  17.878  1.00  0.00     0.136 C 
ATOM      2  O   UNL     1      50.003  28.197  17.287  1.00  0.00    -0.299 OA
ENDROOT
BRANCH   1   3
ATOM      3  C   UNL     1      51.248  26.190  17.103  1.00  0.00     0.053 C 
ATOM      4  C   UNL     1      51.177  26.442  15.592  1.00  0.00     0.016 C 
BRANCH   3   5
ATOM      5  C   UNL     1      50.537  24.871  17.493  1.00  0.00     0.015 C 
BRANCH   5   6
ATOM      6  C   UNL     1      51.355  23.898  18.364  1.00  0.00     0.028 C 
BRANCH   6   7
ATOM      7  C   UNL     1      50.619  23.189  19.481  1.00  0.00    -0.028 C 
ATOM      8  C   UNL     1      50.216  23.724  20.658  1.00  0.00    -0.070 CG0
ATOM      9  C   UNL     1      49.403  22.852  21.583  1.00  0.00     0.039 C 
ATOM     10  G   UNL     1      50.592  25.116  21.136  1.00  0.00     0.000 G0
ENDBRANCH   6   7
ENDBRANCH   5   6
ENDBRANCH   3   5
ENDBRANCH   1   3
BRANCH   1  11
ATOM     11  C   UNL     1      50.715  27.376  19.386  1.00  0.00     0.087 C 
BRANCH  11  12
ATOM     12  C   UNL     1      49.321  27.178  20.057  1.00  0.00     0.066 C 
BRANCH  12  13
ATOM     13  C   UNL     1      49.413  26.057  21.086  1.00  0.00     0.140 C 
ATOM     14  O   UNL     1      48.472  25.879  21.848  1.00  0.00    -0.299 OA
BRANCH  13  15
ATOM     15  C   UNL     1      50.592  25.109  21.146  1.00  0.00     0.106 CG0
ATOM     16  G   UNL     1      50.200  23.721  20.670  1.00  0.00     0.000 G0
ENDBRANCH  13  15
ENDBRANCH  12  13
BRANCH  12  17
ATOM     17  C   UNL     1      48.789  28.497  20.711  1.00  0.00    -0.006 C 
ATOM     18  C   UNL     1      49.937  29.474  21.040  1.00  0.00     0.008 C 
ATOM     19  C   UNL     1      47.781  29.229  19.802  1.00  0.00     0.008 C 
ENDBRANCH  12  17
ENDBRANCH  11  12
ENDBRANCH   1  11
TORSDOF 1
ENDMDL
MODEL 6
REMARK VINA RESULT:    -3.189      8.730     11.689
REMARK INTER + INTRA:          -4.900
REMARK INTER:                  -4.577
REMARK INTRA:                  -0.323
REMARK UNBOUND:                -0.034
REMARK SMILES CC1=CCC[C@@H](C)C(=O)C[C@H](C(C)C)C(=O)C1
REMARK SMILES IDX 8 1 9 2 6 3 7 4 5 5 4 6 3 7 2 8 1 9 10 11 11 12 15 13 16 14
REMARK SMILES IDX 17 15 12 17 13 18 14 19
REMARK H PARENT
REMARK Flexibility Score: 70.00
ROOT
ATOM      1  C   UNL     1      38.495  33.136  21.308  1.00  0.00     0.136 C 
ATOM      2  O   UNL     1      38.098  34.280  21.144  1.00  0.00    -0.299 OA
ENDROOT
BRANCH   1   3
ATOM      3  C   UNL     1      37.516  32.049  21.689  1.00  0.00     0.053 C 
ATOM      4  C   UNL     1      36.116  32.346  21.140  1.00  0.00     0.016 C 
BRANCH   3   5
ATOM      5  C   UNL     1      37.502  31.898  23.231  1.00  0.00     0.015 C 
BRANCH   5   6
ATOM      6  C   UNL     1      37.773  30.480  23.768  1.00  0.00     0.028 C 
BRANCH   6   7
ATOM      7  C   UNL     1      38.764  29.631  23.001  1.00  0.00    -0.028 C 
ATOM      8  C   UNL     1      40.115  29.677  23.091  1.00  0.00    -0.070 CG0
ATOM      9  C   UNL     1      40.905  28.660  22.303  1.00  0.00     0.039 C 
ATOM     10  G   UNL     1      40.883  30.728  23.873  1.00  0.00     0.000 G0
ENDBRANCH   6   7
ENDBRANCH   5   6
ENDBRANCH   3   5
ENDBRANCH   1   3
BRANCH   1  11
ATOM     11  C   UNL     1      39.974  32.844  21.208  1.00  0.00     0.087 C 
BRANCH  11  12
ATOM     12  C   UNL     1      40.710  33.059  22.567  1.00  0.00     0.066 C 
BRANCH  12  13
ATOM     13  C   UNL     1      41.470  31.790  22.935  1.00  0.00     0.140 C 
ATOM     14  O   UNL     1      42.607  31.641  22.509  1.00  0.00    -0.299 OA
BRANCH  13  15
ATOM     15  C   UNL     1      40.896  30.746  23.870  1.00  0.00     0.106 CG0
ATOM     16  G   UNL     1      40.122  29.691  23.098  1.00  0.00     0.000 G0
ENDBRANCH  13  15
ENDBRANCH  12  13
BRANCH  12  17
ATOM     17  C   UNL     1      41.668  34.295  22.529  1.00  0.00    -0.006 C 
ATOM     18  C   UNL     1      41.756  34.906  21.115  1.00  0.00     0.008 C 
ATOM     19  C   UNL     1      41.222  35.405  23.504  1.00  0.00     0.008 C 
ENDBRANCH  12  17
ENDBRANCH  11  12
ENDBRANCH   1  11
TORSDOF 1
ENDMDL
MODEL 7
REMARK VINA RESULT:    -3.107      2.242      3.268
REMARK INTER + INTRA:          -4.776
REMARK INTER:                  -5.039
REMARK INTRA:                   0.263
REMARK UNBOUND:                -0.034
REMARK SMILES CC1=CCC[C@@H](C)C(=O)C[C@H](C(C)C)C(=O)C1
REMARK SMILES IDX 8 1 9 2 6 3 7 4 5 5 4 6 3 7 2 8 1 9 10 11 11 12 15 13 16 14
REMARK SMILES IDX 17 15 12 17 13 18 14 19
REMARK H PARENT
REMARK Flexibility Score: 70.00
ROOT
ATOM      1  C   UNL     1      49.418  23.116  21.472  1.00  0.00     0.136 C 
ATOM      2  O   UNL     1      49.955  23.095  22.570  1.00  0.00    -0.299 OA
ENDROOT
BRANCH   1   3
ATOM      3  C   UNL     1      48.000  22.613  21.320  1.00  0.00     0.053 C 
ATOM      4  C   UNL     1      47.911  21.515  20.253  1.00  0.00     0.016 C 
BRANCH   3   5
ATOM      5  C   UNL     1      47.072  23.807  20.985  1.00  0.00     0.015 C 
BRANCH   5   6
ATOM      6  C   UNL     1      46.995  24.917  22.051  1.00  0.00     0.028 C 
BRANCH   6   7
ATOM      7  C   UNL     1      47.233  26.337  21.583  1.00  0.00    -0.028 C 
ATOM      8  C   UNL     1      48.411  27.007  21.582  1.00  0.00    -0.070 CG0
ATOM      9  C   UNL     1      48.432  28.386  20.971  1.00  0.00     0.039 C 
ATOM     10  G   UNL     1      49.688  26.489  22.222  1.00  0.00     0.000 G0
ENDBRANCH   6   7
ENDBRANCH   5   6
ENDBRANCH   3   5
ENDBRANCH   1   3
BRANCH   1  11
ATOM     11  C   UNL     1      50.211  23.566  20.268  1.00  0.00     0.087 C 
BRANCH  11  12
ATOM     12  C   UNL     1      50.074  25.098  20.011  1.00  0.00     0.066 C 
BRANCH  12  13
ATOM     13  C   UNL     1      50.604  25.861  21.219  1.00  0.00     0.140 C 
ATOM     14  O   UNL     1      51.814  26.005  21.340  1.00  0.00    -0.299 OA
BRANCH  13  15
ATOM     15  C   UNL     1      49.685  26.512  22.232  1.00  0.00     0.106 CG0
ATOM     16  G   UNL     1      48.413  27.011  21.570  1.00  0.00     0.000 G0
ENDBRANCH  13  15
ENDBRANCH  12  13
BRANCH  12  17
ATOM     17  C   UNL     1      50.805  25.544  18.701  1.00  0.00    -0.006 C 
ATOM     18  C   UNL     1      50.686  24.480  17.591  1.00  0.00     0.008 C 
ATOM     19  C   UNL     1      50.250  26.874  18.151  1.00  0.00     0.008 C 
ENDBRANCH  12  17
ENDBRANCH  11  12
ENDBRANCH   1  11
TORSDOF 1
ENDMDL
MODEL 8
REMARK VINA RESULT:    -2.986      3.805      5.271
REMARK INTER + INTRA:          -4.590
REMARK INTER:                  -4.284
REMARK INTRA:                  -0.306
REMARK UNBOUND:                -0.034
REMARK SMILES CC1=CCC[C@@H](C)C(=O)C[C@H](C(C)C)C(=O)C1
REMARK SMILES IDX 8 1 9 2 6 3 7 4 5 5 4 6 3 7 2 8 1 9 10 11 11 12 15 13 16 14
REMARK SMILES IDX 17 15 12 17 13 18 14 19
REMARK H PARENT
REMARK Flexibility Score: 70.00
ROOT
ATOM      1  C   UNL     1      50.658  25.352  18.101  1.00  0.00     0.136 C 
ATOM      2  O   UNL     1      50.014  25.046  17.108  1.00  0.00    -0.299 OA
ENDROOT
BRANCH   1   3
ATOM      3  C   UNL     1      50.831  24.353  19.222  1.00  0.00     0.053 C 
ATOM      4  C   UNL     1      51.370  23.017  18.697  1.00  0.00     0.016 C 
BRANCH   3   5
ATOM      5  C   UNL     1      49.478  24.173  19.953  1.00  0.00     0.015 C 
BRANCH   5   6
ATOM      6  C   UNL     1      49.478  24.505  21.458  1.00  0.00     0.028 C 
BRANCH   6   7
ATOM      7  C   UNL     1      50.785  24.981  22.057  1.00  0.00    -0.028 C 
ATOM      8  C   UNL     1      51.167  26.266  22.256  1.00  0.00    -0.070 CG0
ATOM      9  C   UNL     1      52.477  26.504  22.967  1.00  0.00     0.039 C 
ATOM     10  G   UNL     1      50.401  27.474  21.746  1.00  0.00     0.000 G0
ENDBRANCH   6   7
ENDBRANCH   5   6
ENDBRANCH   3   5
ENDBRANCH   1   3
BRANCH   1  11
ATOM     11  C   UNL     1      51.201  26.756  18.227  1.00  0.00     0.087 C 
BRANCH  11  12
ATOM     12  C   UNL     1      50.280  27.668  19.095  1.00  0.00     0.066 C 
BRANCH  12  13
ATOM     13  C   UNL     1      50.968  27.959  20.424  1.00  0.00     0.140 C 
ATOM     14  O   UNL     1      51.977  28.652  20.425  1.00  0.00    -0.299 OA
BRANCH  13  15
ATOM     15  C   UNL     1      50.405  27.484  21.747  1.00  0.00     0.106 CG0
ATOM     16  G   UNL     1      51.172  26.279  22.264  1.00  0.00     0.000 G0
ENDBRANCH  13  15
ENDBRANCH  12  13
BRANCH  12  17
ATOM     17  C   UNL     1      49.900  28.996  18.359  1.00  0.00    -0.006 C 
ATOM     18  C   UNL     1      49.546  28.745  16.878  1.00  0.00     0.008 C 
ATOM     19  C   UNL     1      48.705  29.707  19.025  1.00  0.00     0.008 C 
ENDBRANCH  12  17
ENDBRANCH  11  12
ENDBRANCH   1  11
TORSDOF 1
ENDMDL
MODEL 9
REMARK VINA RESULT:    -2.880      6.355      8.688
REMARK INTER + INTRA:          -4.429
REMARK INTER:                  -4.291
REMARK INTRA:                  -0.138
REMARK UNBOUND:                -0.034
REMARK SMILES CC1=CCC[C@@H](C)C(=O)C[C@H](C(C)C)C(=O)C1
REMARK SMILES IDX 8 1 9 2 6 3 7 4 5 5 4 6 3 7 2 8 1 9 10 11 11 12 15 13 16 14
REMARK SMILES IDX 17 15 12 17 13 18 14 19
REMARK H PARENT
REMARK Flexibility Score: 70.00
ROOT
ATOM      1  C   UNL     1      41.694  26.127  22.256  1.00  0.00     0.136 C 
ATOM      2  O   UNL     1      42.653  25.992  23.001  1.00  0.00    -0.299 OA
ENDROOT
BRANCH   1   3
ATOM      3  C   UNL     1      41.155  27.509  21.968  1.00  0.00     0.053 C 
ATOM      4  C   UNL     1      42.127  28.314  21.096  1.00  0.00     0.016 C 
BRANCH   3   5
ATOM      5  C   UNL     1      40.864  28.229  23.308  1.00  0.00     0.015 C 
BRANCH   5   6
ATOM      6  C   UNL     1      39.387  28.260  23.746  1.00  0.00     0.028 C 
BRANCH   6   7
ATOM      7  C   UNL     1      38.948  27.224  24.759  1.00  0.00    -0.028 C 
ATOM      8  C   UNL     1      38.530  25.961  24.502  1.00  0.00    -0.070 CG0
ATOM      9  C   UNL     1      38.239  25.065  25.681  1.00  0.00     0.039 C 
ATOM     10  G   UNL     1      38.266  25.416  23.109  1.00  0.00     0.000 G0
ENDBRANCH   6   7
ENDBRANCH   5   6
ENDBRANCH   3   5
ENDBRANCH   1   3
BRANCH   1  11
ATOM     11  C   UNL     1      41.010  24.899  21.701  1.00  0.00     0.087 C 
BRANCH  11  12
ATOM     12  C   UNL     1      40.486  23.957  22.828  1.00  0.00     0.066 C 
BRANCH  12  13
ATOM     13  C   UNL     1      38.969  24.073  22.916  1.00  0.00     0.140 C 
ATOM     14  O   UNL     1      38.298  23.050  22.902  1.00  0.00    -0.299 OA
BRANCH  13  15
ATOM     15  C   UNL     1      38.269  25.404  23.097  1.00  0.00     0.106 CG0
ATOM     16  G   UNL     1      38.516  25.964  24.487  1.00  0.00     0.000 G0
ENDBRANCH  13  15
ENDBRANCH  12  13
BRANCH  12  17
ATOM     17  C   UNL     1      40.922  22.471  22.604  1.00  0.00    -0.006 C 
ATOM     18  C   UNL     1      42.156  22.371  21.684  1.00  0.00     0.008 C 
ATOM     19  C   UNL     1      41.254  21.758  23.932  1.00  0.00     0.008 C 
ENDBRANCH  12  17
ENDBRANCH  11  12
ENDBRANCH   1  11
TORSDOF 1
ENDMDL
