MODEL 1
REMARK VINA RESULT:    -6.746      0.000      0.000
REMARK INTER + INTRA:         -12.066
REMARK INTER:                  -9.112
REMARK INTRA:                  -2.955
REMARK UNBOUND:                -2.955
REMARK SMILES CC[C@H](CC[C@@H](C)[C@@H]1CC[C@H]2[C@@H]3CC(=O)C4=CC(=O)CC[C@@]4(C)[C@H]3CC[C@]21C)C(C)C
REMARK SMILES IDX 4 1 3 2 2 3 1 4 29 5 30 6 31 7 5 8 6 9 7 10 8 11 9 12 27 13
REMARK SMILES IDX 10 14 11 15 26 16 28 17 12 18 25 19 24 20 13 21 22 22 14 23
REMARK SMILES IDX 16 24 21 25 23 26 15 27 17 28 20 29 18 30 19 31
REMARK H PARENT
REMARK Flexibility Score: inf
ROOT
ATOM      1  C   UNL     1      34.062  39.505  84.814  1.00  0.00     0.004 C 
ENDROOT
BRANCH   1   2
ATOM      2  C   UNL     1      32.796  40.366  84.532  1.00  0.00    -0.009 C 
BRANCH   2   3
ATOM      3  C   UNL     1      32.657  41.480  85.618  1.00  0.00     0.000 C 
ATOM      4  C   UNL     1      31.293  41.466  86.310  1.00  0.00     0.004 C 
ENDBRANCH   2   3
BRANCH   2   5
ATOM      5  C   UNL     1      32.750  40.937  83.072  1.00  0.00    -0.014 C 
ATOM      6  C   UNL     1      32.648  42.474  83.053  1.00  0.00     0.007 C 
ATOM      7  C   UNL     1      33.985  40.520  82.251  1.00  0.00     0.007 C 
ENDBRANCH   2   5
ENDBRANCH   1   2
BRANCH   1   8
ATOM      8  C   UNL     1      34.972  40.084  85.916  1.00  0.00     0.004 C 
BRANCH   8   9
ATOM      9  C   UNL     1      36.201  40.913  85.444  1.00  0.00    -0.011 C 
ATOM     10  C   UNL     1      37.301  40.036  84.827  1.00  0.00     0.008 C 
BRANCH   9  11
ATOM     11  C   UNL     1      35.967  42.298  84.727  1.00  0.00    -0.002 C 
ATOM     12  C   UNL     1      36.834  42.521  83.494  1.00  0.00     0.005 C 
ATOM     13  C   UNL     1      35.967  43.676  85.466  1.00  0.00    -0.026 C 
ATOM     14  C   UNL     1      36.548  43.949  83.058  1.00  0.00     0.005 C 
ATOM     15  C   UNL     1      35.970  44.706  84.278  1.00  0.00    -0.001 C 
ATOM     16  C   UNL     1      34.713  43.842  86.382  1.00  0.00     0.007 C 
ATOM     17  C   UNL     1      37.247  43.907  86.305  1.00  0.00     0.012 C 
ATOM     18  C   UNL     1      34.559  45.296  83.980  1.00  0.00     0.004 C 
ATOM     19  C   UNL     1      34.322  45.310  86.565  1.00  0.00     0.005 C 
ATOM     20  C   UNL     1      33.934  45.989  85.225  1.00  0.00     0.003 C 
ATOM     21  C   UNL     1      34.582  46.337  82.831  1.00  0.00     0.085 C 
ATOM     22  C   UNL     1      32.387  46.248  85.013  1.00  0.00    -0.000 C 
ATOM     23  C   UNL     1      33.227  46.962  82.641  1.00  0.00     0.159 C 
ATOM     24  C   UNL     1      32.105  46.603  83.544  1.00  0.00     0.005 C 
ATOM     25  C   UNL     1      31.524  45.002  85.386  1.00  0.00     0.020 C 
ATOM     26  C   UNL     1      31.973  47.463  85.883  1.00  0.00     0.017 C 
ATOM     27  O   UNL     1      33.045  47.759  81.683  1.00  0.00    -0.295 OA
ATOM     28  C   UNL     1      30.870  46.486  83.029  1.00  0.00     0.055 C 
ATOM     29  C   UNL     1      30.023  45.211  85.116  1.00  0.00     0.081 C 
ATOM     30  C   UNL     1      29.777  45.851  83.781  1.00  0.00     0.156 C 
ATOM     31  O   UNL     1      28.618  45.830  83.291  1.00  0.00    -0.295 OA
ENDBRANCH   9  11
ENDBRANCH   8   9
ENDBRANCH   1   8
TORSDOF 6
ENDMDL
MODEL 2
REMARK VINA RESULT:    -6.554      1.760      4.438
REMARK INTER + INTRA:         -11.807
REMARK INTER:                  -8.793
REMARK INTRA:                  -3.014
REMARK UNBOUND:                -2.955
REMARK SMILES CC[C@H](CC[C@@H](C)[C@@H]1CC[C@H]2[C@@H]3CC(=O)C4=CC(=O)CC[C@@]4(C)[C@H]3CC[C@]21C)C(C)C
REMARK SMILES IDX 4 1 3 2 2 3 1 4 29 5 30 6 31 7 5 8 6 9 7 10 8 11 9 12 27 13
REMARK SMILES IDX 10 14 11 15 26 16 28 17 12 18 25 19 24 20 13 21 22 22 14 23
REMARK SMILES IDX 16 24 21 25 23 26 15 27 17 28 20 29 18 30 19 31
REMARK H PARENT
REMARK Flexibility Score: inf
ROOT
ATOM      1  C   UNL     1      36.097  41.370  87.005  1.00  0.00     0.004 C 
ENDROOT
BRANCH   1   2
ATOM      2  C   UNL     1      36.504  42.872  86.999  1.00  0.00    -0.009 C 
BRANCH   2   3
ATOM      3  C   UNL     1      37.288  43.206  85.690  1.00  0.00     0.000 C 
ATOM      4  C   UNL     1      36.976  44.605  85.155  1.00  0.00     0.004 C 
ENDBRANCH   2   3
BRANCH   2   5
ATOM      5  C   UNL     1      35.295  43.841  87.243  1.00  0.00    -0.014 C 
ATOM      6  C   UNL     1      33.951  43.088  87.299  1.00  0.00     0.007 C 
ATOM      7  C   UNL     1      35.456  44.648  88.544  1.00  0.00     0.007 C 
ENDBRANCH   2   5
ENDBRANCH   1   2
BRANCH   1   8
ATOM      8  C   UNL     1      36.724  40.553  85.857  1.00  0.00     0.004 C 
BRANCH   8   9
ATOM      9  C   UNL     1      35.786  40.173  84.675  1.00  0.00    -0.011 C 
ATOM     10  C   UNL     1      35.905  38.693  84.282  1.00  0.00     0.008 C 
BRANCH   9  11
ATOM     11  C   UNL     1      34.323  40.762  84.633  1.00  0.00    -0.002 C 
ATOM     12  C   UNL     1      33.236  39.772  85.030  1.00  0.00     0.005 C 
ATOM     13  C   UNL     1      33.728  41.536  83.411  1.00  0.00    -0.026 C 
ATOM     14  C   UNL     1      31.924  40.499  84.784  1.00  0.00     0.005 C 
ATOM     15  C   UNL     1      32.204  41.644  83.779  1.00  0.00    -0.001 C 
ATOM     16  C   UNL     1      34.390  42.939  83.236  1.00  0.00     0.007 C 
ATOM     17  C   UNL     1      33.846  40.745  82.085  1.00  0.00     0.012 C 
ATOM     18  C   UNL     1      31.816  43.036  84.364  1.00  0.00     0.004 C 
ATOM     19  C   UNL     1      33.450  43.940  82.561  1.00  0.00     0.005 C 
ATOM     20  C   UNL     1      32.169  44.201  83.395  1.00  0.00     0.003 C 
ATOM     21  C   UNL     1      30.304  43.143  84.689  1.00  0.00     0.085 C 
ATOM     22  C   UNL     1      32.112  45.597  84.141  1.00  0.00    -0.000 C 
ATOM     23  C   UNL     1      29.948  44.529  85.150  1.00  0.00     0.159 C 
ATOM     24  C   UNL     1      30.979  45.596  85.181  1.00  0.00     0.005 C 
ATOM     25  C   UNL     1      33.448  45.926  84.878  1.00  0.00     0.020 C 
ATOM     26  C   UNL     1      31.796  46.696  83.095  1.00  0.00     0.017 C 
ATOM     27  O   UNL     1      28.776  44.764  85.550  1.00  0.00    -0.295 OA
ATOM     28  C   UNL     1      30.967  46.482  86.191  1.00  0.00     0.055 C 
ATOM     29  C   UNL     1      33.385  47.244  85.671  1.00  0.00     0.081 C 
ATOM     30  C   UNL     1      32.112  47.367  86.456  1.00  0.00     0.156 C 
ATOM     31  O   UNL     1      32.028  48.233  87.365  1.00  0.00    -0.295 OA
ENDBRANCH   9  11
ENDBRANCH   8   9
ENDBRANCH   1   8
TORSDOF 6
ENDMDL
MODEL 3
REMARK VINA RESULT:    -6.497      1.035      1.256
REMARK INTER + INTRA:         -11.731
REMARK INTER:                  -8.762
REMARK INTRA:                  -2.969
REMARK UNBOUND:                -2.955
REMARK SMILES CC[C@H](CC[C@@H](C)[C@@H]1CC[C@H]2[C@@H]3CC(=O)C4=CC(=O)CC[C@@]4(C)[C@H]3CC[C@]21C)C(C)C
REMARK SMILES IDX 4 1 3 2 2 3 1 4 29 5 30 6 31 7 5 8 6 9 7 10 8 11 9 12 27 13
REMARK SMILES IDX 10 14 11 15 26 16 28 17 12 18 25 19 24 20 13 21 22 22 14 23
REMARK SMILES IDX 16 24 21 25 23 26 15 27 17 28 20 29 18 30 19 31
REMARK H PARENT
REMARK Flexibility Score: inf
ROOT
ATOM      1  C   UNL     1      34.751  39.727  84.594  1.00  0.00     0.004 C 
ENDROOT
BRANCH   1   2
ATOM      2  C   UNL     1      33.249  40.125  84.507  1.00  0.00    -0.009 C 
BRANCH   2   3
ATOM      3  C   UNL     1      32.872  41.050  85.708  1.00  0.00     0.000 C 
ATOM      4  C   UNL     1      31.469  40.773  86.250  1.00  0.00     0.004 C 
ENDBRANCH   2   3
BRANCH   2   5
ATOM      5  C   UNL     1      32.854  40.745  83.120  1.00  0.00    -0.014 C 
ATOM      6  C   UNL     1      32.413  42.216  83.247  1.00  0.00     0.007 C 
ATOM      7  C   UNL     1      34.010  40.668  82.106  1.00  0.00     0.007 C 
ENDBRANCH   2   5
ENDBRANCH   1   2
BRANCH   1   8
ATOM      8  C   UNL     1      35.546  40.535  85.640  1.00  0.00     0.004 C 
BRANCH   8   9
ATOM      9  C   UNL     1      36.401  41.719  85.104  1.00  0.00    -0.011 C 
ATOM     10  C   UNL     1      37.667  41.248  84.374  1.00  0.00     0.008 C 
BRANCH   9  11
ATOM     11  C   UNL     1      35.677  42.962  84.456  1.00  0.00    -0.002 C 
ATOM     12  C   UNL     1      36.239  43.382  83.105  1.00  0.00     0.005 C 
ATOM     13  C   UNL     1      35.407  44.306  85.209  1.00  0.00    -0.026 C 
ATOM     14  C   UNL     1      35.499  44.659  82.743  1.00  0.00     0.005 C 
ATOM     15  C   UNL     1      34.933  45.260  84.053  1.00  0.00    -0.001 C 
ATOM     16  C   UNL     1      34.319  44.142  86.317  1.00  0.00     0.007 C 
ATOM     17  C   UNL     1      36.688  44.911  85.834  1.00  0.00     0.012 C 
ATOM     18  C   UNL     1      33.385  45.423  83.994  1.00  0.00     0.004 C 
ATOM     19  C   UNL     1      33.567  45.447  86.584  1.00  0.00     0.005 C 
ATOM     20  C   UNL     1      32.796  45.950  85.335  1.00  0.00     0.003 C 
ATOM     21  C   UNL     1      32.932  46.395  82.875  1.00  0.00     0.085 C 
ATOM     22  C   UNL     1      31.225  45.761  85.379  1.00  0.00    -0.000 C 
ATOM     23  C   UNL     1      31.444  46.610  82.915  1.00  0.00     0.159 C 
ATOM     24  C   UNL     1      30.626  45.979  83.981  1.00  0.00     0.005 C 
ATOM     25  C   UNL     1      30.817  44.335  85.866  1.00  0.00     0.020 C 
ATOM     26  C   UNL     1      30.631  46.836  86.324  1.00  0.00     0.017 C 
ATOM     27  O   UNL     1      30.895  47.296  82.012  1.00  0.00    -0.295 OA
ATOM     28  C   UNL     1      29.407  45.506  83.669  1.00  0.00     0.055 C 
ATOM     29  C   UNL     1      29.295  44.108  85.844  1.00  0.00     0.081 C 
ATOM     30  C   UNL     1      28.670  44.613  84.576  1.00  0.00     0.156 C 
ATOM     31  O   UNL     1      27.501  44.255  84.278  1.00  0.00    -0.295 OA
ENDBRANCH   9  11
ENDBRANCH   8   9
ENDBRANCH   1   8
TORSDOF 6
ENDMDL
MODEL 4
REMARK VINA RESULT:    -6.444      1.690      3.357
REMARK INTER + INTRA:         -11.659
REMARK INTER:                  -9.664
REMARK INTRA:                  -1.995
REMARK UNBOUND:                -2.955
REMARK SMILES CC[C@H](CC[C@@H](C)[C@@H]1CC[C@H]2[C@@H]3CC(=O)C4=CC(=O)CC[C@@]4(C)[C@H]3CC[C@]21C)C(C)C
REMARK SMILES IDX 4 1 3 2 2 3 1 4 29 5 30 6 31 7 5 8 6 9 7 10 8 11 9 12 27 13
REMARK SMILES IDX 10 14 11 15 26 16 28 17 12 18 25 19 24 20 13 21 22 22 14 23
REMARK SMILES IDX 16 24 21 25 23 26 15 27 17 28 20 29 18 30 19 31
REMARK H PARENT
REMARK Flexibility Score: inf
ROOT
ATOM      1  C   UNL     1      33.878  40.450  83.194  1.00  0.00     0.004 C 
ENDROOT
BRANCH   1   2
ATOM      2  C   UNL     1      33.877  40.579  84.746  1.00  0.00    -0.009 C 
BRANCH   2   3
ATOM      3  C   UNL     1      32.441  40.311  85.301  1.00  0.00     0.000 C 
ATOM      4  C   UNL     1      31.341  40.766  84.340  1.00  0.00     0.004 C 
ENDBRANCH   2   3
BRANCH   2   5
ATOM      5  C   UNL     1      34.968  39.691  85.440  1.00  0.00    -0.014 C 
ATOM      6  C   UNL     1      35.852  38.953  84.417  1.00  0.00     0.007 C 
ATOM      7  C   UNL     1      35.880  40.518  86.365  1.00  0.00     0.007 C 
ENDBRANCH   2   5
ENDBRANCH   1   2
BRANCH   1   8
ATOM      8  C   UNL     1      34.512  41.657  82.473  1.00  0.00     0.004 C 
BRANCH   8   9
ATOM      9  C   UNL     1      34.930  42.862  83.364  1.00  0.00    -0.011 C 
ATOM     10  C   UNL     1      36.453  43.039  83.439  1.00  0.00     0.008 C 
BRANCH   9  11
ATOM     11  C   UNL     1      34.103  44.203  83.282  1.00  0.00    -0.002 C 
ATOM     12  C   UNL     1      34.811  45.333  82.546  1.00  0.00     0.005 C 
ATOM     13  C   UNL     1      33.432  44.893  84.515  1.00  0.00    -0.026 C 
ATOM     14  C   UNL     1      33.908  46.545  82.711  1.00  0.00     0.005 C 
ATOM     15  C   UNL     1      32.999  46.289  83.938  1.00  0.00    -0.001 C 
ATOM     16  C   UNL     1      32.213  44.074  85.045  1.00  0.00     0.007 C 
ATOM     17  C   UNL     1      34.425  45.141  85.677  1.00  0.00     0.012 C 
ATOM     18  C   UNL     1      31.488  46.351  83.562  1.00  0.00     0.004 C 
ATOM     19  C   UNL     1      31.176  44.963  85.734  1.00  0.00     0.005 C 
ATOM     20  C   UNL     1      30.566  46.014  84.770  1.00  0.00     0.003 C 
ATOM     21  C   UNL     1      31.065  47.743  83.028  1.00  0.00     0.085 C 
ATOM     22  C   UNL     1      29.085  45.724  84.290  1.00  0.00    -0.000 C 
ATOM     23  C   UNL     1      29.583  47.798  82.776  1.00  0.00     0.159 C 
ATOM     24  C   UNL     1      28.726  46.632  83.103  1.00  0.00     0.005 C 
ATOM     25  C   UNL     1      28.890  44.241  83.845  1.00  0.00     0.020 C 
ATOM     26  C   UNL     1      28.121  46.061  85.456  1.00  0.00     0.017 C 
ATOM     27  O   UNL     1      29.086  48.827  82.247  1.00  0.00    -0.295 OA
ATOM     28  C   UNL     1      27.707  46.325  82.281  1.00  0.00     0.055 C 
ATOM     29  C   UNL     1      27.477  43.959  83.306  1.00  0.00     0.081 C 
ATOM     30  C   UNL     1      27.010  45.032  82.366  1.00  0.00     0.156 C 
ATOM     31  O   UNL     1      26.014  44.816  81.628  1.00  0.00    -0.295 OA
ENDBRANCH   9  11
ENDBRANCH   8   9
ENDBRANCH   1   8
TORSDOF 6
ENDMDL
MODEL 5
REMARK VINA RESULT:    -6.431      2.909      6.444
REMARK INTER + INTRA:         -11.642
REMARK INTER:                  -9.183
REMARK INTRA:                  -2.459
REMARK UNBOUND:                -2.955
REMARK SMILES CC[C@H](CC[C@@H](C)[C@@H]1CC[C@H]2[C@@H]3CC(=O)C4=CC(=O)CC[C@@]4(C)[C@H]3CC[C@]21C)C(C)C
REMARK SMILES IDX 4 1 3 2 2 3 1 4 29 5 30 6 31 7 5 8 6 9 7 10 8 11 9 12 27 13
REMARK SMILES IDX 10 14 11 15 26 16 28 17 12 18 25 19 24 20 13 21 22 22 14 23
REMARK SMILES IDX 16 24 21 25 23 26 15 27 17 28 20 29 18 30 19 31
REMARK H PARENT
REMARK Flexibility Score: inf
ROOT
ATOM      1  C   UNL     1      31.826  45.148  88.419  1.00  0.00     0.004 C 
ENDROOT
BRANCH   1   2
ATOM      2  C   UNL     1      32.046  43.614  88.567  1.00  0.00    -0.009 C 
BRANCH   2   3
ATOM      3  C   UNL     1      33.161  43.138  87.583  1.00  0.00     0.000 C 
ATOM      4  C   UNL     1      34.166  44.242  87.249  1.00  0.00     0.004 C 
ENDBRANCH   2   3
BRANCH   2   5
ATOM      5  C   UNL     1      32.318  43.170  90.047  1.00  0.00    -0.014 C 
ATOM      6  C   UNL     1      33.183  44.192  90.810  1.00  0.00     0.007 C 
ATOM      7  C   UNL     1      31.011  42.955  90.834  1.00  0.00     0.007 C 
ENDBRANCH   2   5
ENDBRANCH   1   2
BRANCH   1   8
ATOM      8  C   UNL     1      30.414  45.526  87.926  1.00  0.00     0.004 C 
BRANCH   8   9
ATOM      9  C   UNL     1      30.293  46.000  86.449  1.00  0.00    -0.011 C 
ATOM     10  C   UNL     1      29.544  47.334  86.318  1.00  0.00     0.008 C 
BRANCH   9  11
ATOM     11  C   UNL     1      31.526  45.825  85.481  1.00  0.00    -0.002 C 
ATOM     12  C   UNL     1      32.327  47.100  85.248  1.00  0.00     0.005 C 
ATOM     13  C   UNL     1      31.443  45.147  84.074  1.00  0.00    -0.026 C 
ATOM     14  C   UNL     1      33.359  46.737  84.193  1.00  0.00     0.005 C 
ATOM     15  C   UNL     1      32.844  45.483  83.445  1.00  0.00    -0.001 C 
ATOM     16  C   UNL     1      31.206  43.608  84.187  1.00  0.00     0.007 C 
ATOM     17  C   UNL     1      30.350  45.769  83.171  1.00  0.00     0.012 C 
ATOM     18  C   UNL     1      33.853  44.299  83.535  1.00  0.00     0.004 C 
ATOM     19  C   UNL     1      31.771  42.847  82.986  1.00  0.00     0.005 C 
ATOM     20  C   UNL     1      33.309  43.008  82.857  1.00  0.00     0.003 C 
ATOM     21  C   UNL     1      35.217  44.629  82.879  1.00  0.00     0.085 C 
ATOM     22  C   UNL     1      34.166  41.743  83.273  1.00  0.00    -0.000 C 
ATOM     23  C   UNL     1      36.127  43.432  82.891  1.00  0.00     0.159 C 
ATOM     24  C   UNL     1      35.646  42.133  83.422  1.00  0.00     0.005 C 
ATOM     25  C   UNL     1      33.687  41.126  84.624  1.00  0.00     0.020 C 
ATOM     26  C   UNL     1      34.064  40.691  82.140  1.00  0.00     0.017 C 
ATOM     27  O   UNL     1      37.313  43.555  82.484  1.00  0.00    -0.295 OA
ATOM     28  C   UNL     1      36.495  41.366  84.128  1.00  0.00     0.055 C 
ATOM     29  C   UNL     1      34.556  39.940  85.082  1.00  0.00     0.081 C 
ATOM     30  C   UNL     1      36.021  40.228  84.932  1.00  0.00     0.156 C 
ATOM     31  O   UNL     1      36.858  39.492  85.516  1.00  0.00    -0.295 OA
ENDBRANCH   9  11
ENDBRANCH   8   9
ENDBRANCH   1   8
TORSDOF 6
ENDMDL
MODEL 6
REMARK VINA RESULT:    -6.351      2.046      4.065
REMARK INTER + INTRA:         -11.533
REMARK INTER:                 -10.063
REMARK INTRA:                  -1.470
REMARK UNBOUND:                -2.955
REMARK SMILES CC[C@H](CC[C@@H](C)[C@@H]1CC[C@H]2[C@@H]3CC(=O)C4=CC(=O)CC[C@@]4(C)[C@H]3CC[C@]21C)C(C)C
REMARK SMILES IDX 4 1 3 2 2 3 1 4 29 5 30 6 31 7 5 8 6 9 7 10 8 11 9 12 27 13
REMARK SMILES IDX 10 14 11 15 26 16 28 17 12 18 25 19 24 20 13 21 22 22 14 23
REMARK SMILES IDX 16 24 21 25 23 26 15 27 17 28 20 29 18 30 19 31
REMARK H PARENT
REMARK Flexibility Score: inf
ROOT
ATOM      1  C   UNL     1      33.960  39.783  85.495  1.00  0.00     0.004 C 
ENDROOT
BRANCH   1   2
ATOM      2  C   UNL     1      35.332  40.519  85.477  1.00  0.00    -0.009 C 
BRANCH   2   3
ATOM      3  C   UNL     1      35.670  41.051  86.906  1.00  0.00     0.000 C 
ATOM      4  C   UNL     1      36.350  42.421  86.881  1.00  0.00     0.004 C 
ENDBRANCH   2   3
BRANCH   2   5
ATOM      5  C   UNL     1      36.489  39.653  84.866  1.00  0.00    -0.014 C 
ATOM      6  C   UNL     1      35.957  38.559  83.920  1.00  0.00     0.007 C 
ATOM      7  C   UNL     1      37.506  40.513  84.093  1.00  0.00     0.007 C 
ENDBRANCH   2   5
ENDBRANCH   1   2
BRANCH   1   8
ATOM      8  C   UNL     1      32.898  40.430  84.583  1.00  0.00     0.004 C 
BRANCH   8   9
ATOM      9  C   UNL     1      33.413  41.446  83.523  1.00  0.00    -0.011 C 
ATOM     10  C   UNL     1      33.586  40.813  82.135  1.00  0.00     0.008 C 
BRANCH   9  11
ATOM     11  C   UNL     1      32.839  42.916  83.522  1.00  0.00    -0.002 C 
ATOM     12  C   UNL     1      33.790  43.961  82.954  1.00  0.00     0.005 C 
ATOM     13  C   UNL     1      32.194  43.603  84.771  1.00  0.00    -0.026 C 
ATOM     14  C   UNL     1      33.099  45.295  83.180  1.00  0.00     0.005 C 
ATOM     15  C   UNL     1      32.058  45.099  84.310  1.00  0.00    -0.001 C 
ATOM     16  C   UNL     1      30.812  42.972  85.130  1.00  0.00     0.007 C 
ATOM     17  C   UNL     1      33.113  43.566  86.017  1.00  0.00     0.012 C 
ATOM     18  C   UNL     1      30.618  45.464  83.841  1.00  0.00     0.004 C 
ATOM     19  C   UNL     1      29.889  43.968  85.834  1.00  0.00     0.005 C 
ATOM     20  C   UNL     1      29.553  45.193  84.943  1.00  0.00     0.003 C 
ATOM     21  C   UNL     1      30.487  46.951  83.424  1.00  0.00     0.085 C 
ATOM     22  C   UNL     1      28.090  45.216  84.337  1.00  0.00    -0.000 C 
ATOM     23  C   UNL     1      29.064  47.293  83.079  1.00  0.00     0.159 C 
ATOM     24  C   UNL     1      27.994  46.275  83.226  1.00  0.00     0.005 C 
ATOM     25  C   UNL     1      27.681  43.837  83.730  1.00  0.00     0.020 C 
ATOM     26  C   UNL     1      27.103  45.617  85.462  1.00  0.00     0.017 C 
ATOM     27  O   UNL     1      28.797  48.437  82.624  1.00  0.00    -0.295 OA
ATOM     28  C   UNL     1      27.011  46.229  82.310  1.00  0.00     0.055 C 
ATOM     29  C   UNL     1      26.291  43.862  83.070  1.00  0.00     0.081 C 
ATOM     30  C   UNL     1      26.098  45.080  82.215  1.00  0.00     0.156 C 
ATOM     31  O   UNL     1      25.146  45.112  81.393  1.00  0.00    -0.295 OA
ENDBRANCH   9  11
ENDBRANCH   8   9
ENDBRANCH   1   8
TORSDOF 6
ENDMDL
MODEL 7
REMARK VINA RESULT:    -6.254      2.763      5.427
REMARK INTER + INTRA:         -11.403
REMARK INTER:                  -8.721
REMARK INTRA:                  -2.681
REMARK UNBOUND:                -2.955
REMARK SMILES CC[C@H](CC[C@@H](C)[C@@H]1CC[C@H]2[C@@H]3CC(=O)C4=CC(=O)CC[C@@]4(C)[C@H]3CC[C@]21C)C(C)C
REMARK SMILES IDX 4 1 3 2 2 3 1 4 29 5 30 6 31 7 5 8 6 9 7 10 8 11 9 12 27 13
REMARK SMILES IDX 10 14 11 15 26 16 28 17 12 18 25 19 24 20 13 21 22 22 14 23
REMARK SMILES IDX 16 24 21 25 23 26 15 27 17 28 20 29 18 30 19 31
REMARK H PARENT
REMARK Flexibility Score: inf
ROOT
ATOM      1  C   UNL     1      37.498  41.533  84.875  1.00  0.00     0.004 C 
ENDROOT
BRANCH   1   2
ATOM      2  C   UNL     1      37.753  42.988  85.367  1.00  0.00    -0.009 C 
BRANCH   2   3
ATOM      3  C   UNL     1      37.479  43.997  84.207  1.00  0.00     0.000 C 
ATOM      4  C   UNL     1      36.811  45.286  84.690  1.00  0.00     0.004 C 
ENDBRANCH   2   3
BRANCH   2   5
ATOM      5  C   UNL     1      36.966  43.344  86.676  1.00  0.00    -0.014 C 
ATOM      6  C   UNL     1      36.050  42.193  87.134  1.00  0.00     0.007 C 
ATOM      7  C   UNL     1      37.913  43.704  87.837  1.00  0.00     0.007 C 
ENDBRANCH   2   5
ENDBRANCH   1   2
BRANCH   1   8
ATOM      8  C   UNL     1      36.601  41.450  83.623  1.00  0.00     0.004 C 
BRANCH   8   9
ATOM      9  C   UNL     1      35.376  40.493  83.703  1.00  0.00    -0.011 C 
ATOM     10  C   UNL     1      35.787  39.016  83.774  1.00  0.00     0.008 C 
BRANCH   9  11
ATOM     11  C   UNL     1      34.145  40.891  84.606  1.00  0.00    -0.002 C 
ATOM     12  C   UNL     1      33.267  39.718  85.022  1.00  0.00     0.005 C 
ATOM     13  C   UNL     1      33.139  42.036  84.255  1.00  0.00    -0.026 C 
ATOM     14  C   UNL     1      32.088  40.341  85.751  1.00  0.00     0.005 C 
ATOM     15  C   UNL     1      31.992  41.822  85.309  1.00  0.00    -0.001 C 
ATOM     16  C   UNL     1      33.797  43.446  84.384  1.00  0.00     0.007 C 
ATOM     17  C   UNL     1      32.526  41.884  82.841  1.00  0.00     0.012 C 
ATOM     18  C   UNL     1      32.088  42.796  86.521  1.00  0.00     0.004 C 
ATOM     19  C   UNL     1      32.773  44.532  84.717  1.00  0.00     0.005 C 
ATOM     20  C   UNL     1      32.075  44.288  86.081  1.00  0.00     0.003 C 
ATOM     21  C   UNL     1      30.932  42.600  87.534  1.00  0.00     0.085 C 
ATOM     22  C   UNL     1      32.538  45.234  87.264  1.00  0.00    -0.000 C 
ATOM     23  C   UNL     1      30.997  43.624  88.634  1.00  0.00     0.159 C 
ATOM     24  C   UNL     1      32.037  44.683  88.609  1.00  0.00     0.005 C 
ATOM     25  C   UNL     1      34.091  45.364  87.340  1.00  0.00     0.020 C 
ATOM     26  C   UNL     1      31.895  46.628  87.053  1.00  0.00     0.017 C 
ATOM     27  O   UNL     1      30.188  43.548  89.596  1.00  0.00    -0.295 OA
ATOM     28  C   UNL     1      32.604  45.062  89.766  1.00  0.00     0.055 C 
ATOM     29  C   UNL     1      34.562  46.220  88.530  1.00  0.00     0.081 C 
ATOM     30  C   UNL     1      33.832  45.872  89.795  1.00  0.00     0.156 C 
ATOM     31  O   UNL     1      34.287  46.268  90.899  1.00  0.00    -0.295 OA
ENDBRANCH   9  11
ENDBRANCH   8   9
ENDBRANCH   1   8
TORSDOF 6
ENDMDL
MODEL 8
REMARK VINA RESULT:    -6.153      1.852      4.711
REMARK INTER + INTRA:         -11.266
REMARK INTER:                  -9.481
REMARK INTRA:                  -1.784
REMARK UNBOUND:                -2.955
REMARK SMILES CC[C@H](CC[C@@H](C)[C@@H]1CC[C@H]2[C@@H]3CC(=O)C4=CC(=O)CC[C@@]4(C)[C@H]3CC[C@]21C)C(C)C
REMARK SMILES IDX 4 1 3 2 2 3 1 4 29 5 30 6 31 7 5 8 6 9 7 10 8 11 9 12 27 13
REMARK SMILES IDX 10 14 11 15 26 16 28 17 12 18 25 19 24 20 13 21 22 22 14 23
REMARK SMILES IDX 16 24 21 25 23 26 15 27 17 28 20 29 18 30 19 31
REMARK H PARENT
REMARK Flexibility Score: inf
ROOT
ATOM      1  C   UNL     1      35.817  42.078  85.371  1.00  0.00     0.004 C 
ENDROOT
BRANCH   1   2
ATOM      2  C   UNL     1      35.344  42.097  83.888  1.00  0.00    -0.009 C 
BRANCH   2   3
ATOM      3  C   UNL     1      36.235  43.076  83.058  1.00  0.00     0.000 C 
ATOM      4  C   UNL     1      35.457  44.286  82.538  1.00  0.00     0.004 C 
ENDBRANCH   2   3
BRANCH   2   5
ATOM      5  C   UNL     1      35.260  40.667  83.249  1.00  0.00    -0.014 C 
ATOM      6  C   UNL     1      35.241  39.555  84.315  1.00  0.00     0.007 C 
ATOM      7  C   UNL     1      34.015  40.508  82.357  1.00  0.00     0.007 C 
ENDBRANCH   2   5
ENDBRANCH   1   2
BRANCH   1   8
ATOM      8  C   UNL     1      35.366  43.310  86.182  1.00  0.00     0.004 C 
BRANCH   8   9
ATOM      9  C   UNL     1      34.336  43.058  87.321  1.00  0.00    -0.011 C 
ATOM     10  C   UNL     1      34.822  43.580  88.680  1.00  0.00     0.008 C 
BRANCH   9  11
ATOM     11  C   UNL     1      32.800  43.271  87.031  1.00  0.00    -0.002 C 
ATOM     12  C   UNL     1      31.897  43.054  88.239  1.00  0.00     0.005 C 
ATOM     13  C   UNL     1      32.035  42.605  85.840  1.00  0.00    -0.026 C 
ATOM     14  C   UNL     1      30.479  43.170  87.705  1.00  0.00     0.005 C 
ATOM     15  C   UNL     1      30.532  42.917  86.178  1.00  0.00    -0.001 C 
ATOM     16  C   UNL     1      32.464  43.209  84.466  1.00  0.00     0.007 C 
ATOM     17  C   UNL     1      32.209  41.067  85.800  1.00  0.00     0.012 C 
ATOM     18  C   UNL     1      29.963  44.123  85.371  1.00  0.00     0.004 C 
ATOM     19  C   UNL     1      31.350  43.115  83.421  1.00  0.00     0.005 C 
ATOM     20  C   UNL     1      30.086  43.914  83.834  1.00  0.00     0.003 C 
ATOM     21  C   UNL     1      28.470  44.397  85.685  1.00  0.00     0.085 C 
ATOM     22  C   UNL     1      29.851  45.273  83.055  1.00  0.00    -0.000 C 
ATOM     23  C   UNL     1      27.928  45.496  84.814  1.00  0.00     0.159 C 
ATOM     24  C   UNL     1      28.784  46.116  83.772  1.00  0.00     0.005 C 
ATOM     25  C   UNL     1      31.155  46.125  82.952  1.00  0.00     0.020 C 
ATOM     26  C   UNL     1      29.320  44.937  81.639  1.00  0.00     0.017 C 
ATOM     27  O   UNL     1      26.755  45.913  85.006  1.00  0.00    -0.295 OA
ATOM     28  C   UNL     1      28.684  47.438  83.552  1.00  0.00     0.055 C 
ATOM     29  C   UNL     1      30.929  47.483  82.263  1.00  0.00     0.081 C 
ATOM     30  C   UNL     1      29.691  48.168  82.765  1.00  0.00     0.156 C 
ATOM     31  O   UNL     1      29.519  49.390  82.521  1.00  0.00    -0.295 OA
ENDBRANCH   9  11
ENDBRANCH   8   9
ENDBRANCH   1   8
TORSDOF 6
ENDMDL
MODEL 9
REMARK VINA RESULT:    -5.981      2.539      3.998
REMARK INTER + INTRA:         -11.033
REMARK INTER:                  -8.097
REMARK INTRA:                  -2.937
REMARK UNBOUND:                -2.955
REMARK SMILES CC[C@H](CC[C@@H](C)[C@@H]1CC[C@H]2[C@@H]3CC(=O)C4=CC(=O)CC[C@@]4(C)[C@H]3CC[C@]21C)C(C)C
REMARK SMILES IDX 4 1 3 2 2 3 1 4 29 5 30 6 31 7 5 8 6 9 7 10 8 11 9 12 27 13
REMARK SMILES IDX 10 14 11 15 26 16 28 17 12 18 25 19 24 20 13 21 22 22 14 23
REMARK SMILES IDX 16 24 21 25 23 26 15 27 17 28 20 29 18 30 19 31
REMARK H PARENT
REMARK Flexibility Score: inf
ROOT
ATOM      1  C   UNL     1      31.735  41.119  84.352  1.00  0.00     0.004 C 
ENDROOT
BRANCH   1   2
ATOM      2  C   UNL     1      31.399  42.373  85.212  1.00  0.00    -0.009 C 
BRANCH   2   3
ATOM      3  C   UNL     1      32.271  42.379  86.507  1.00  0.00     0.000 C 
ATOM      4  C   UNL     1      31.481  42.794  87.750  1.00  0.00     0.004 C 
ENDBRANCH   2   3
BRANCH   2   5
ATOM      5  C   UNL     1      31.500  43.717  84.409  1.00  0.00    -0.014 C 
ATOM      6  C   UNL     1      32.656  44.605  84.908  1.00  0.00     0.007 C 
ATOM      7  C   UNL     1      31.688  43.474  82.900  1.00  0.00     0.007 C 
ENDBRANCH   2   5
ENDBRANCH   1   2
BRANCH   1   8
ATOM      8  C   UNL     1      33.031  40.402  84.783  1.00  0.00     0.004 C 
BRANCH   8   9
ATOM      9  C   UNL     1      34.307  40.699  83.943  1.00  0.00    -0.011 C 
ATOM     10  C   UNL     1      34.215  40.140  82.516  1.00  0.00     0.008 C 
BRANCH   9  11
ATOM     11  C   UNL     1      35.000  42.111  84.068  1.00  0.00    -0.002 C 
ATOM     12  C   UNL     1      35.253  42.805  82.736  1.00  0.00     0.005 C 
ATOM     13  C   UNL     1      36.292  42.379  84.907  1.00  0.00    -0.026 C 
ATOM     14  C   UNL     1      36.041  44.058  83.081  1.00  0.00     0.005 C 
ATOM     15  C   UNL     1      36.693  43.834  84.468  1.00  0.00    -0.001 C 
ATOM     16  C   UNL     1      36.016  42.285  86.441  1.00  0.00     0.007 C 
ATOM     17  C   UNL     1      37.456  41.427  84.536  1.00  0.00     0.012 C 
ATOM     18  C   UNL     1      36.259  44.922  85.495  1.00  0.00     0.004 C 
ATOM     19  C   UNL     1      36.978  43.153  87.254  1.00  0.00     0.005 C 
ATOM     20  C   UNL     1      36.844  44.661  86.913  1.00  0.00     0.003 C 
ATOM     21  C   UNL     1      36.693  46.348  85.069  1.00  0.00     0.085 C 
ATOM     22  C   UNL     1      36.109  45.545  88.002  1.00  0.00    -0.000 C 
ATOM     23  C   UNL     1      36.351  47.356  86.131  1.00  0.00     0.159 C 
ATOM     24  C   UNL     1      35.745  46.917  87.413  1.00  0.00     0.005 C 
ATOM     25  C   UNL     1      34.798  44.874  88.519  1.00  0.00     0.020 C 
ATOM     26  C   UNL     1      37.088  45.779  89.181  1.00  0.00     0.017 C 
ATOM     27  O   UNL     1      36.547  48.580  85.905  1.00  0.00    -0.295 OA
ATOM     28  C   UNL     1      34.798  47.684  87.979  1.00  0.00     0.055 C 
ATOM     29  C   UNL     1      34.032  45.753  89.524  1.00  0.00     0.081 C 
ATOM     30  C   UNL     1      33.948  47.181  89.069  1.00  0.00     0.156 C 
ATOM     31  O   UNL     1      33.125  47.958  89.622  1.00  0.00    -0.295 OA
ENDBRANCH   9  11
ENDBRANCH   8   9
ENDBRANCH   1   8
TORSDOF 6
ENDMDL
