MODEL 1
REMARK VINA RESULT:    -5.352      0.000      0.000
REMARK INTER + INTRA:         -11.178
REMARK INTER:                  -9.732
REMARK INTRA:                  -1.446
REMARK UNBOUND:                -1.446
REMARK SMILES CCCCCCCCCCCCCCCC(=O)[O-]
REMARK SMILES IDX 9 1 10 2 11 3 12 4 13 5 14 6 15 7 16 8 17 9 18 10 8 11 7 12
REMARK SMILES IDX 6 13 5 14 4 15 3 16 2 17 1 18
REMARK H PARENT
REMARK Flexibility Score: inf
ROOT
ATOM      1  C   UNL     1       4.637 -35.194  19.072  1.00  0.00     0.000 C 
ENDROOT
BRANCH   1   2
ATOM      2  C   UNL     1       5.125 -34.102  20.033  1.00  0.00     0.000 C 
BRANCH   2   3
ATOM      3  C   UNL     1       4.008 -33.676  20.997  1.00  0.00     0.000 C 
BRANCH   3   4
ATOM      4  C   UNL     1       4.403 -33.888  22.475  1.00  0.00     0.000 C 
BRANCH   4   5
ATOM      5  C   UNL     1       5.881 -34.268  22.670  1.00  0.00     0.000 C 
BRANCH   5   6
ATOM      6  C   UNL     1       6.062 -35.584  23.443  1.00  0.00     0.006 C 
BRANCH   6   7
ATOM      7  C   UNL     1       4.961 -36.603  23.120  1.00  0.00     0.053 C 
BRANCH   7   8
ATOM      8  C   UNL     1       4.723 -37.547  24.259  1.00  0.00     0.041 C 
ATOM      9  O   UNL     1       4.594 -38.780  24.042  1.00  0.00    -0.550 OA
ATOM     10  O   UNL     1       4.616 -37.062  25.556  1.00  0.00    -0.550 OA
ENDBRANCH   7   8
ENDBRANCH   6   7
ENDBRANCH   5   6
ENDBRANCH   4   5
ENDBRANCH   3   4
ENDBRANCH   2   3
ENDBRANCH   1   2
BRANCH   1  11
ATOM     11  C   UNL     1       4.729 -36.580  19.720  1.00  0.00     0.000 C 
BRANCH  11  12
ATOM     12  C   UNL     1       3.437 -37.376  19.505  1.00  0.00    -0.000 C 
BRANCH  12  13
ATOM     13  C   UNL     1       3.130 -37.533  18.007  1.00  0.00    -0.000 C 
BRANCH  13  14
ATOM     14  C   UNL     1       1.774 -36.927  17.616  1.00  0.00    -0.000 C 
BRANCH  14  15
ATOM     15  C   UNL     1       1.711 -36.528  16.131  1.00  0.00    -0.000 C 
BRANCH  15  16
ATOM     16  C   UNL     1       3.073 -36.073  15.583  1.00  0.00    -0.000 C 
BRANCH  16  17
ATOM     17  C   UNL     1       3.366 -36.641  14.187  1.00  0.00    -0.003 C 
ATOM     18  C   UNL     1       3.938 -38.053  14.278  1.00  0.00     0.004 C 
ENDBRANCH  16  17
ENDBRANCH  15  16
ENDBRANCH  14  15
ENDBRANCH  13  14
ENDBRANCH  12  13
ENDBRANCH  11  12
ENDBRANCH   1  11
TORSDOF 14
ENDMDL
MODEL 2
REMARK VINA RESULT:    -5.292      2.302      3.604
REMARK INTER + INTRA:         -11.070
REMARK INTER:                  -9.703
REMARK INTRA:                  -1.367
REMARK UNBOUND:                -1.446
REMARK SMILES CCCCCCCCCCCCCCCC(=O)[O-]
REMARK SMILES IDX 9 1 10 2 11 3 12 4 13 5 14 6 15 7 16 8 17 9 18 10 8 11 7 12
REMARK SMILES IDX 6 13 5 14 4 15 3 16 2 17 1 18
REMARK H PARENT
REMARK Flexibility Score: inf
ROOT
ATOM      1  C   UNL     1       4.252 -38.743  22.238  1.00  0.00     0.000 C 
ENDROOT
BRANCH   1   2
ATOM      2  C   UNL     1       4.738 -38.683  23.691  1.00  0.00     0.000 C 
BRANCH   2   3
ATOM      3  C   UNL     1       4.685 -37.247  24.233  1.00  0.00     0.000 C 
BRANCH   3   4
ATOM      4  C   UNL     1       5.908 -36.413  23.794  1.00  0.00     0.000 C 
BRANCH   4   5
ATOM      5  C   UNL     1       5.914 -34.982  24.358  1.00  0.00     0.000 C 
BRANCH   5   6
ATOM      6  C   UNL     1       5.726 -33.911  23.273  1.00  0.00     0.006 C 
BRANCH   6   7
ATOM      7  C   UNL     1       5.713 -34.511  21.861  1.00  0.00     0.053 C 
BRANCH   7   8
ATOM      8  C   UNL     1       4.595 -33.961  21.030  1.00  0.00     0.041 C 
ATOM      9  O   UNL     1       4.717 -33.877  19.780  1.00  0.00    -0.550 OA
ATOM     10  O   UNL     1       3.428 -33.515  21.639  1.00  0.00    -0.550 OA
ENDBRANCH   7   8
ENDBRANCH   6   7
ENDBRANCH   5   6
ENDBRANCH   4   5
ENDBRANCH   3   4
ENDBRANCH   2   3
ENDBRANCH   1   2
BRANCH   1  11
ATOM     11  C   UNL     1       5.432 -38.854  21.265  1.00  0.00     0.000 C 
BRANCH  11  12
ATOM     12  C   UNL     1       5.347 -37.781  20.172  1.00  0.00    -0.000 C 
BRANCH  12  13
ATOM     13  C   UNL     1       3.896 -37.318  19.968  1.00  0.00    -0.000 C 
BRANCH  13  14
ATOM     14  C   UNL     1       3.596 -36.941  18.509  1.00  0.00    -0.000 C 
BRANCH  14  15
ATOM     15  C   UNL     1       2.174 -37.338  18.076  1.00  0.00    -0.000 C 
BRANCH  15  16
ATOM     16  C   UNL     1       1.812 -36.806  16.680  1.00  0.00    -0.000 C 
BRANCH  16  17
ATOM     17  C   UNL     1       2.993 -36.107  15.992  1.00  0.00    -0.003 C 
ATOM     18  C   UNL     1       3.305 -36.753  14.645  1.00  0.00     0.004 C 
ENDBRANCH  16  17
ENDBRANCH  15  16
ENDBRANCH  14  15
ENDBRANCH  13  14
ENDBRANCH  12  13
ENDBRANCH  11  12
ENDBRANCH   1  11
TORSDOF 14
ENDMDL
MODEL 3
REMARK VINA RESULT:    -5.192      1.385      2.359
REMARK INTER + INTRA:         -10.888
REMARK INTER:                  -9.771
REMARK INTRA:                  -1.117
REMARK UNBOUND:                -1.446
REMARK SMILES CCCCCCCCCCCCCCCC(=O)[O-]
REMARK SMILES IDX 9 1 10 2 11 3 12 4 13 5 14 6 15 7 16 8 17 9 18 10 8 11 7 12
REMARK SMILES IDX 6 13 5 14 4 15 3 16 2 17 1 18
REMARK H PARENT
REMARK Flexibility Score: inf
ROOT
ATOM      1  C   UNL     1       4.531 -34.071  21.008  1.00  0.00     0.000 C 
ENDROOT
BRANCH   1   2
ATOM      2  C   UNL     1       4.617 -33.698  22.492  1.00  0.00     0.000 C 
BRANCH   2   3
ATOM      3  C   UNL     1       5.995 -34.049  23.071  1.00  0.00     0.000 C 
BRANCH   3   4
ATOM      4  C   UNL     1       5.898 -35.056  24.237  1.00  0.00     0.000 C 
BRANCH   4   5
ATOM      5  C   UNL     1       5.861 -36.526  23.782  1.00  0.00     0.000 C 
BRANCH   5   6
ATOM      6  C   UNL     1       4.692 -37.312  24.396  1.00  0.00     0.006 C 
BRANCH   6   7
ATOM      7  C   UNL     1       4.705 -38.789  23.981  1.00  0.00     0.053 C 
BRANCH   7   8
ATOM      8  C   UNL     1       4.781 -38.950  22.494  1.00  0.00     0.041 C 
ATOM      9  O   UNL     1       3.918 -38.410  21.754  1.00  0.00    -0.550 OA
ATOM     10  O   UNL     1       5.789 -39.720  21.926  1.00  0.00    -0.550 OA
ENDBRANCH   7   8
ENDBRANCH   6   7
ENDBRANCH   5   6
ENDBRANCH   4   5
ENDBRANCH   3   4
ENDBRANCH   2   3
ENDBRANCH   1   2
BRANCH   1  11
ATOM     11  C   UNL     1       5.767 -34.862  20.565  1.00  0.00     0.000 C 
BRANCH  11  12
ATOM     12  C   UNL     1       5.366 -36.142  19.822  1.00  0.00    -0.000 C 
BRANCH  12  13
ATOM     13  C   UNL     1       3.953 -36.016  19.232  1.00  0.00    -0.000 C 
BRANCH  13  14
ATOM     14  C   UNL     1       3.554 -37.236  18.388  1.00  0.00    -0.000 C 
BRANCH  14  15
ATOM     15  C   UNL     1       2.347 -36.956  17.477  1.00  0.00    -0.000 C 
BRANCH  15  16
ATOM     16  C   UNL     1       2.668 -35.942  16.367  1.00  0.00    -0.000 C 
BRANCH  16  17
ATOM     17  C   UNL     1       2.605 -36.563  14.965  1.00  0.00    -0.003 C 
ATOM     18  C   UNL     1       3.584 -37.727  14.835  1.00  0.00     0.004 C 
ENDBRANCH  16  17
ENDBRANCH  15  16
ENDBRANCH  14  15
ENDBRANCH  13  14
ENDBRANCH  12  13
ENDBRANCH  11  12
ENDBRANCH   1  11
TORSDOF 14
ENDMDL
MODEL 4
REMARK VINA RESULT:    -5.131      3.553      6.878
REMARK INTER + INTRA:         -10.776
REMARK INTER:                  -8.859
REMARK INTRA:                  -1.917
REMARK UNBOUND:                -1.446
REMARK SMILES CCCCCCCCCCCCCCCC(=O)[O-]
REMARK SMILES IDX 9 1 10 2 11 3 12 4 13 5 14 6 15 7 16 8 17 9 18 10 8 11 7 12
REMARK SMILES IDX 6 13 5 14 4 15 3 16 2 17 1 18
REMARK H PARENT
REMARK Flexibility Score: inf
ROOT
ATOM      1  C   UNL     1       4.310 -38.160  22.033  1.00  0.00     0.000 C 
ENDROOT
BRANCH   1   2
ATOM      2  C   UNL     1       5.387 -37.941  20.964  1.00  0.00     0.000 C 
BRANCH   2   3
ATOM      3  C   UNL     1       4.757 -37.746  19.577  1.00  0.00     0.000 C 
BRANCH   3   4
ATOM      4  C   UNL     1       3.316 -37.196  19.664  1.00  0.00     0.000 C 
BRANCH   4   5
ATOM      5  C   UNL     1       2.504 -37.389  18.372  1.00  0.00     0.000 C 
BRANCH   5   6
ATOM      6  C   UNL     1       3.085 -36.614  17.179  1.00  0.00     0.006 C 
BRANCH   6   7
ATOM      7  C   UNL     1       2.380 -36.963  15.862  1.00  0.00     0.053 C 
BRANCH   7   8
ATOM      8  C   UNL     1       3.355 -37.152  14.740  1.00  0.00     0.041 C 
ATOM      9  O   UNL     1       3.627 -36.194  13.970  1.00  0.00    -0.550 OA
ATOM     10  O   UNL     1       3.942 -38.393  14.528  1.00  0.00    -0.550 OA
ENDBRANCH   7   8
ENDBRANCH   6   7
ENDBRANCH   5   6
ENDBRANCH   4   5
ENDBRANCH   3   4
ENDBRANCH   2   3
ENDBRANCH   1   2
BRANCH   1  11
ATOM     11  C   UNL     1       4.774 -37.638  23.398  1.00  0.00     0.000 C 
BRANCH  11  12
ATOM     12  C   UNL     1       5.870 -36.577  23.239  1.00  0.00    -0.000 C 
BRANCH  12  13
ATOM     13  C   UNL     1       5.459 -35.257  23.911  1.00  0.00    -0.000 C 
BRANCH  13  14
ATOM     14  C   UNL     1       5.673 -34.039  23.000  1.00  0.00    -0.000 C 
BRANCH  14  15
ATOM     15  C   UNL     1       4.369 -33.556  22.341  1.00  0.00    -0.000 C 
BRANCH  15  16
ATOM     16  C   UNL     1       4.242 -34.013  20.879  1.00  0.00    -0.000 C 
BRANCH  16  17
ATOM     17  C   UNL     1       5.603 -34.308  20.234  1.00  0.00    -0.003 C 
ATOM     18  C   UNL     1       5.519 -34.223  18.712  1.00  0.00     0.004 C 
ENDBRANCH  16  17
ENDBRANCH  15  16
ENDBRANCH  14  15
ENDBRANCH  13  14
ENDBRANCH  12  13
ENDBRANCH  11  12
ENDBRANCH   1  11
TORSDOF 14
ENDMDL
MODEL 5
REMARK VINA RESULT:    -5.039      3.272      6.675
REMARK INTER + INTRA:         -10.610
REMARK INTER:                  -9.051
REMARK INTRA:                  -1.559
REMARK UNBOUND:                -1.446
REMARK SMILES CCCCCCCCCCCCCCCC(=O)[O-]
REMARK SMILES IDX 9 1 10 2 11 3 12 4 13 5 14 6 15 7 16 8 17 9 18 10 8 11 7 12
REMARK SMILES IDX 6 13 5 14 4 15 3 16 2 17 1 18
REMARK H PARENT
REMARK Flexibility Score: inf
ROOT
ATOM      1  C   UNL     1       5.408 -33.459  22.876  1.00  0.00     0.000 C 
ENDROOT
BRANCH   1   2
ATOM      2  C   UNL     1       4.542 -34.424  22.056  1.00  0.00     0.000 C 
BRANCH   2   3
ATOM      3  C   UNL     1       4.330 -33.898  20.629  1.00  0.00     0.000 C 
BRANCH   3   4
ATOM      4  C   UNL     1       5.314 -34.532  19.622  1.00  0.00     0.000 C 
BRANCH   4   5
ATOM      5  C   UNL     1       4.621 -35.288  18.475  1.00  0.00     0.000 C 
BRANCH   5   6
ATOM      6  C   UNL     1       3.516 -36.236  18.965  1.00  0.00     0.006 C 
BRANCH   6   7
ATOM      7  C   UNL     1       3.190 -37.327  17.938  1.00  0.00     0.053 C 
BRANCH   7   8
ATOM      8  C   UNL     1       2.748 -36.748  16.628  1.00  0.00     0.041 C 
ATOM      9  O   UNL     1       1.621 -36.196  16.528  1.00  0.00    -0.550 OA
ATOM     10  O   UNL     1       3.570 -36.842  15.512  1.00  0.00    -0.550 OA
ENDBRANCH   7   8
ENDBRANCH   6   7
ENDBRANCH   5   6
ENDBRANCH   4   5
ENDBRANCH   3   4
ENDBRANCH   2   3
ENDBRANCH   1   2
BRANCH   1  11
ATOM     11  C   UNL     1       6.075 -34.181  24.053  1.00  0.00     0.000 C 
BRANCH  11  12
ATOM     12  C   UNL     1       6.112 -35.696  23.820  1.00  0.00    -0.000 C 
BRANCH  12  13
ATOM     13  C   UNL     1       5.950 -36.460  25.143  1.00  0.00    -0.000 C 
BRANCH  13  14
ATOM     14  C   UNL     1       4.624 -37.232  25.221  1.00  0.00    -0.000 C 
BRANCH  14  15
ATOM     15  C   UNL     1       4.234 -37.875  23.879  1.00  0.00    -0.000 C 
BRANCH  15  16
ATOM     16  C   UNL     1       4.912 -39.236  23.657  1.00  0.00    -0.000 C 
BRANCH  16  17
ATOM     17  C   UNL     1       5.326 -39.457  22.195  1.00  0.00    -0.003 C 
ATOM     18  C   UNL     1       5.103 -38.196  21.365  1.00  0.00     0.004 C 
ENDBRANCH  16  17
ENDBRANCH  15  16
ENDBRANCH  14  15
ENDBRANCH  13  14
ENDBRANCH  12  13
ENDBRANCH  11  12
ENDBRANCH   1  11
TORSDOF 14
ENDMDL
MODEL 6
REMARK VINA RESULT:    -5.012      2.013      3.461
REMARK INTER + INTRA:         -10.560
REMARK INTER:                  -9.267
REMARK INTRA:                  -1.293
REMARK UNBOUND:                -1.446
REMARK SMILES CCCCCCCCCCCCCCCC(=O)[O-]
REMARK SMILES IDX 9 1 10 2 11 3 12 4 13 5 14 6 15 7 16 8 17 9 18 10 8 11 7 12
REMARK SMILES IDX 6 13 5 14 4 15 3 16 2 17 1 18
REMARK H PARENT
REMARK Flexibility Score: inf
ROOT
ATOM      1  C   UNL     1       4.333 -38.396  21.498  1.00  0.00     0.000 C 
ENDROOT
BRANCH   1   2
ATOM      2  C   UNL     1       4.964 -39.340  22.528  1.00  0.00     0.000 C 
BRANCH   2   3
ATOM      3  C   UNL     1       4.658 -38.879  23.960  1.00  0.00     0.000 C 
BRANCH   3   4
ATOM      4  C   UNL     1       4.617 -37.340  24.081  1.00  0.00     0.000 C 
BRANCH   4   5
ATOM      5  C   UNL     1       5.730 -36.761  24.972  1.00  0.00     0.000 C 
BRANCH   5   6
ATOM      6  C   UNL     1       6.116 -35.325  24.587  1.00  0.00     0.006 C 
BRANCH   6   7
ATOM      7  C   UNL     1       5.988 -35.073  23.080  1.00  0.00     0.053 C 
BRANCH   7   8
ATOM      8  C   UNL     1       5.329 -33.759  22.787  1.00  0.00     0.041 C 
ATOM      9  O   UNL     1       5.831 -32.689  23.219  1.00  0.00    -0.550 OA
ATOM     10  O   UNL     1       4.144 -33.720  22.062  1.00  0.00    -0.550 OA
ENDBRANCH   7   8
ENDBRANCH   6   7
ENDBRANCH   5   6
ENDBRANCH   4   5
ENDBRANCH   3   4
ENDBRANCH   2   3
ENDBRANCH   1   2
BRANCH   1  11
ATOM     11  C   UNL     1       5.373 -37.914  20.481  1.00  0.00     0.000 C 
BRANCH  11  12
ATOM     12  C   UNL     1       4.962 -36.570  19.867  1.00  0.00    -0.000 C 
BRANCH  12  13
ATOM     13  C   UNL     1       3.489 -36.592  19.432  1.00  0.00    -0.000 C 
BRANCH  13  14
ATOM     14  C   UNL     1       3.285 -37.270  18.068  1.00  0.00    -0.000 C 
BRANCH  14  15
ATOM     15  C   UNL     1       1.857 -37.090  17.525  1.00  0.00    -0.000 C 
BRANCH  15  16
ATOM     16  C   UNL     1       1.829 -36.392  16.156  1.00  0.00    -0.000 C 
BRANCH  16  17
ATOM     17  C   UNL     1       3.234 -36.187  15.571  1.00  0.00    -0.003 C 
ATOM     18  C   UNL     1       3.540 -37.230  14.499  1.00  0.00     0.004 C 
ENDBRANCH  16  17
ENDBRANCH  15  16
ENDBRANCH  14  15
ENDBRANCH  13  14
ENDBRANCH  12  13
ENDBRANCH  11  12
ENDBRANCH   1  11
TORSDOF 14
ENDMDL
MODEL 7
REMARK VINA RESULT:    -4.365      1.404      2.739
REMARK INTER + INTRA:          -9.383
REMARK INTER:                  -8.293
REMARK INTRA:                  -1.090
REMARK UNBOUND:                -1.446
REMARK SMILES CCCCCCCCCCCCCCCC(=O)[O-]
REMARK SMILES IDX 9 1 10 2 11 3 12 4 13 5 14 6 15 7 16 8 17 9 18 10 8 11 7 12
REMARK SMILES IDX 6 13 5 14 4 15 3 16 2 17 1 18
REMARK H PARENT
REMARK Flexibility Score: inf
ROOT
ATOM      1  C   UNL     1       5.071 -34.220  21.421  1.00  0.00     0.000 C 
ENDROOT
BRANCH   1   2
ATOM      2  C   UNL     1       5.750 -35.595  21.422  1.00  0.00     0.000 C 
BRANCH   2   3
ATOM      3  C   UNL     1       4.712 -36.723  21.335  1.00  0.00     0.000 C 
BRANCH   3   4
ATOM      4  C   UNL     1       5.346 -38.067  20.913  1.00  0.00     0.000 C 
BRANCH   4   5
ATOM      5  C   UNL     1       5.181 -39.182  21.960  1.00  0.00     0.000 C 
BRANCH   5   6
ATOM      6  C   UNL     1       4.204 -38.806  23.085  1.00  0.00     0.006 C 
BRANCH   6   7
ATOM      7  C   UNL     1       4.909 -38.654  24.439  1.00  0.00     0.053 C 
BRANCH   7   8
ATOM      8  C   UNL     1       4.538 -37.372  25.120  1.00  0.00     0.041 C 
ATOM      9  O   UNL     1       5.070 -36.288  24.763  1.00  0.00    -0.550 OA
ATOM     10  O   UNL     1       3.626 -37.378  26.168  1.00  0.00    -0.550 OA
ENDBRANCH   7   8
ENDBRANCH   6   7
ENDBRANCH   5   6
ENDBRANCH   4   5
ENDBRANCH   3   4
ENDBRANCH   2   3
ENDBRANCH   1   2
BRANCH   1  11
ATOM     11  C   UNL     1       4.276 -33.999  20.129  1.00  0.00     0.000 C 
BRANCH  11  12
ATOM     12  C   UNL     1       5.144 -34.269  18.894  1.00  0.00    -0.000 C 
BRANCH  12  13
ATOM     13  C   UNL     1       4.341 -34.998  17.807  1.00  0.00    -0.000 C 
BRANCH  13  14
ATOM     14  C   UNL     1       3.531 -36.179  18.363  1.00  0.00    -0.000 C 
BRANCH  14  15
ATOM     15  C   UNL     1       3.121 -37.183  17.270  1.00  0.00    -0.000 C 
BRANCH  15  16
ATOM     16  C   UNL     1       2.147 -36.576  16.248  1.00  0.00    -0.000 C 
BRANCH  16  17
ATOM     17  C   UNL     1       2.827 -36.239  14.913  1.00  0.00    -0.003 C 
ATOM     18  C   UNL     1       3.687 -37.401  14.426  1.00  0.00     0.004 C 
ENDBRANCH  16  17
ENDBRANCH  15  16
ENDBRANCH  14  15
ENDBRANCH  13  14
ENDBRANCH  12  13
ENDBRANCH  11  12
ENDBRANCH   1  11
TORSDOF 14
ENDMDL
MODEL 8
REMARK VINA RESULT:    -4.353      1.639      4.732
REMARK INTER + INTRA:          -9.363
REMARK INTER:                  -7.622
REMARK INTRA:                  -1.741
REMARK UNBOUND:                -1.446
REMARK SMILES CCCCCCCCCCCCCCCC(=O)[O-]
REMARK SMILES IDX 9 1 10 2 11 3 12 4 13 5 14 6 15 7 16 8 17 9 18 10 8 11 7 12
REMARK SMILES IDX 6 13 5 14 4 15 3 16 2 17 1 18
REMARK H PARENT
REMARK Flexibility Score: inf
ROOT
ATOM      1  C   UNL     1       2.784 -37.565  18.078  1.00  0.00     0.000 C 
ENDROOT
BRANCH   1   2
ATOM      2  C   UNL     1       3.322 -37.322  19.493  1.00  0.00     0.000 C 
BRANCH   2   3
ATOM      3  C   UNL     1       4.686 -37.999  19.689  1.00  0.00     0.000 C 
BRANCH   3   4
ATOM      4  C   UNL     1       5.246 -37.780  21.111  1.00  0.00     0.000 C 
BRANCH   4   5
ATOM      5  C   UNL     1       5.090 -39.004  22.031  1.00  0.00     0.000 C 
BRANCH   5   6
ATOM      6  C   UNL     1       4.685 -38.627  23.464  1.00  0.00     0.006 C 
BRANCH   6   7
ATOM      7  C   UNL     1       4.726 -37.112  23.699  1.00  0.00     0.053 C 
BRANCH   7   8
ATOM      8  C   UNL     1       4.984 -36.776  25.137  1.00  0.00     0.041 C 
ATOM      9  O   UNL     1       5.994 -36.095  25.457  1.00  0.00    -0.550 OA
ATOM     10  O   UNL     1       4.125 -37.239  26.125  1.00  0.00    -0.550 OA
ENDBRANCH   7   8
ENDBRANCH   6   7
ENDBRANCH   5   6
ENDBRANCH   4   5
ENDBRANCH   3   4
ENDBRANCH   2   3
ENDBRANCH   1   2
BRANCH   1  11
ATOM     11  C   UNL     1       2.644 -36.247  17.307  1.00  0.00     0.000 C 
BRANCH  11  12
ATOM     12  C   UNL     1       4.014 -35.603  17.063  1.00  0.00    -0.000 C 
BRANCH  12  13
ATOM     13  C   UNL     1       4.274 -34.467  18.064  1.00  0.00    -0.000 C 
BRANCH  13  14
ATOM     14  C   UNL     1       5.662 -34.559  18.715  1.00  0.00    -0.000 C 
BRANCH  14  15
ATOM     15  C   UNL     1       5.618 -34.329  20.236  1.00  0.00    -0.000 C 
BRANCH  15  16
ATOM     16  C   UNL     1       4.227 -33.901  20.729  1.00  0.00    -0.000 C 
BRANCH  16  17
ATOM     17  C   UNL     1       4.118 -33.900  22.260  1.00  0.00    -0.003 C 
ATOM     18  C   UNL     1       5.459 -33.560  22.906  1.00  0.00     0.004 C 
ENDBRANCH  16  17
ENDBRANCH  15  16
ENDBRANCH  14  15
ENDBRANCH  13  14
ENDBRANCH  12  13
ENDBRANCH  11  12
ENDBRANCH   1  11
TORSDOF 14
ENDMDL
MODEL 9
REMARK VINA RESULT:    -4.308      3.554      7.231
REMARK INTER + INTRA:          -9.280
REMARK INTER:                  -7.718
REMARK INTRA:                  -1.562
REMARK UNBOUND:                -1.446
REMARK SMILES CCCCCCCCCCCCCCCC(=O)[O-]
REMARK SMILES IDX 9 1 10 2 11 3 12 4 13 5 14 6 15 7 16 8 17 9 18 10 8 11 7 12
REMARK SMILES IDX 6 13 5 14 4 15 3 16 2 17 1 18
REMARK H PARENT
REMARK Flexibility Score: inf
ROOT
ATOM      1  C   UNL     1       3.992 -33.523  20.865  1.00  0.00     0.000 C 
ENDROOT
BRANCH   1   2
ATOM      2  C   UNL     1       4.719 -34.324  19.778  1.00  0.00     0.000 C 
BRANCH   2   3
ATOM      3  C   UNL     1       5.309 -35.621  20.350  1.00  0.00     0.000 C 
BRANCH   3   4
ATOM      4  C   UNL     1       4.824 -36.870  19.582  1.00  0.00     0.000 C 
BRANCH   4   5
ATOM      5  C   UNL     1       3.318 -36.855  19.270  1.00  0.00     0.000 C 
BRANCH   5   6
ATOM      6  C   UNL     1       3.001 -37.290  17.830  1.00  0.00     0.006 C 
BRANCH   6   7
ATOM      7  C   UNL     1       3.183 -36.145  16.826  1.00  0.00     0.053 C 
BRANCH   7   8
ATOM      8  C   UNL     1       2.818 -36.560  15.434  1.00  0.00     0.041 C 
ATOM      9  O   UNL     1       1.663 -36.331  14.987  1.00  0.00    -0.550 OA
ATOM     10  O   UNL     1       3.743 -37.225  14.639  1.00  0.00    -0.550 OA
ENDBRANCH   7   8
ENDBRANCH   6   7
ENDBRANCH   5   6
ENDBRANCH   4   5
ENDBRANCH   3   4
ENDBRANCH   2   3
ENDBRANCH   1   2
BRANCH   1  11
ATOM     11  C   UNL     1       4.339 -34.049  22.263  1.00  0.00     0.000 C 
BRANCH  11  12
ATOM     12  C   UNL     1       5.477 -33.236  22.891  1.00  0.00    -0.000 C 
BRANCH  12  13
ATOM     13  C   UNL     1       6.118 -33.999  24.060  1.00  0.00    -0.000 C 
BRANCH  13  14
ATOM     14  C   UNL     1       6.125 -35.519  23.841  1.00  0.00    -0.000 C 
BRANCH  14  15
ATOM     15  C   UNL     1       5.515 -36.291  25.024  1.00  0.00    -0.000 C 
BRANCH  15  16
ATOM     16  C   UNL     1       4.633 -37.466  24.571  1.00  0.00    -0.000 C 
BRANCH  16  17
ATOM     17  C   UNL     1       4.902 -37.877  23.116  1.00  0.00    -0.003 C 
ATOM     18  C   UNL     1       4.315 -39.254  22.818  1.00  0.00     0.004 C 
ENDBRANCH  16  17
ENDBRANCH  15  16
ENDBRANCH  14  15
ENDBRANCH  13  14
ENDBRANCH  12  13
ENDBRANCH  11  12
ENDBRANCH   1  11
TORSDOF 14
ENDMDL
