MODEL 1
REMARK VINA RESULT:    -4.256      0.000      0.000
REMARK INTER + INTRA:          -4.820
REMARK INTER:                  -4.629
REMARK INTRA:                  -0.191
REMARK UNBOUND:                -0.191
REMARK SMILES C=C(C)[C@H]1CC[C@H](C)C[C@@H]1O
REMARK SMILES IDX 8 1 7 2 6 3 5 4 4 5 10 6 9 7 11 8 2 10 1 11 3 12
REMARK H PARENT 11 9
REMARK Flexibility Score: inf
ROOT
ATOM      1  C   UNL     1     -38.125  25.116   3.886  1.00  0.00     0.008 C 
ATOM      2  C   UNL     1     -37.403  24.172   4.855  1.00  0.00    -0.012 C 
ATOM      3  C   UNL     1     -37.974  24.319   6.277  1.00  0.00     0.004 C 
ATOM      4  C   UNL     1     -37.271  23.368   7.252  1.00  0.00     0.011 C 
ATOM      5  C   UNL     1     -37.380  21.906   6.773  1.00  0.00     0.043 C 
ATOM      6  C   UNL     1     -36.810  21.749   5.344  1.00  0.00     0.121 C 
ATOM      7  C   UNL     1     -37.518  22.712   4.374  1.00  0.00     0.035 C 
ENDROOT
BRANCH   6   8
ATOM      8  O   UNL     1     -36.998  20.425   4.910  1.00  0.00    -0.392 OA
ATOM      9  H   UNL     1     -37.350  20.475   3.983  1.00  0.00     0.210 HD
ENDBRANCH   6   8
BRANCH   5  10
ATOM     10  C   UNL     1     -36.705  20.956   7.756  1.00  0.00    -0.075 C 
ATOM     11  C   UNL     1     -35.420  21.121   8.118  1.00  0.00     0.008 C 
ATOM     12  C   UNL     1     -37.476  19.803   8.345  1.00  0.00     0.039 C 
ENDBRANCH   5  10
TORSDOF 2
ENDMDL
MODEL 2
REMARK VINA RESULT:    -2.701      1.796      4.582
REMARK INTER + INTRA:          -3.129
REMARK INTER:                  -3.270
REMARK INTRA:                   0.141
REMARK UNBOUND:                -0.191
REMARK SMILES C=C(C)[C@H]1CC[C@H](C)C[C@@H]1O
REMARK SMILES IDX 8 1 7 2 6 3 5 4 4 5 10 6 9 7 11 8 2 10 1 11 3 12
REMARK H PARENT 11 9
REMARK Flexibility Score: inf
ROOT
ATOM      1  C   UNL     1     -36.984  19.487   8.386  1.00  0.00     0.008 C 
ATOM      2  C   UNL     1     -36.877  20.592   7.329  1.00  0.00    -0.012 C 
ATOM      3  C   UNL     1     -38.107  20.575   6.404  1.00  0.00     0.004 C 
ATOM      4  C   UNL     1     -38.020  21.686   5.352  1.00  0.00     0.011 C 
ATOM      5  C   UNL     1     -37.865  23.068   6.020  1.00  0.00     0.043 C 
ATOM      6  C   UNL     1     -36.632  23.095   6.954  1.00  0.00     0.121 C 
ATOM      7  C   UNL     1     -36.725  21.971   8.002  1.00  0.00     0.035 C 
ENDROOT
BRANCH   6   8
ATOM      8  O   UNL     1     -36.568  24.338   7.605  1.00  0.00    -0.392 OA
ATOM      9  H   UNL     1     -35.784  24.303   8.213  1.00  0.00     0.210 HD
ENDBRANCH   6   8
BRANCH   5  10
ATOM     10  C   UNL     1     -37.805  24.177   4.976  1.00  0.00    -0.075 C 
ATOM     11  C   UNL     1     -37.470  23.919   3.700  1.00  0.00     0.008 C 
ATOM     12  C   UNL     1     -38.125  25.598   5.363  1.00  0.00     0.039 C 
ENDBRANCH   5  10
TORSDOF 2
ENDMDL
MODEL 3
REMARK VINA RESULT:    -2.328      1.608      2.093
REMARK INTER + INTRA:          -2.723
REMARK INTER:                  -2.980
REMARK INTRA:                   0.257
REMARK UNBOUND:                -0.191
REMARK SMILES C=C(C)[C@H]1CC[C@H](C)C[C@@H]1O
REMARK SMILES IDX 8 1 7 2 6 3 5 4 4 5 10 6 9 7 11 8 2 10 1 11 3 12
REMARK H PARENT 11 9
REMARK Flexibility Score: inf
ROOT
ATOM      1  C   UNL     1     -38.125  24.278   3.900  1.00  0.00     0.008 C 
ATOM      2  C   UNL     1     -38.121  23.332   5.106  1.00  0.00    -0.012 C 
ATOM      3  C   UNL     1     -38.125  21.864   4.641  1.00  0.00     0.004 C 
ATOM      4  C   UNL     1     -38.105  20.908   5.839  1.00  0.00     0.011 C 
ATOM      5  C   UNL     1     -36.888  21.185   6.746  1.00  0.00     0.043 C 
ATOM      6  C   UNL     1     -36.874  22.659   7.217  1.00  0.00     0.121 C 
ATOM      7  C   UNL     1     -36.902  23.611   6.007  1.00  0.00     0.035 C 
ENDROOT
BRANCH   6   8
ATOM      8  O   UNL     1     -35.713  22.895   7.973  1.00  0.00    -0.392 OA
ATOM      9  H   UNL     1     -35.624  23.880   8.061  1.00  0.00     0.210 HD
ENDBRANCH   6   8
BRANCH   5  10
ATOM     10  C   UNL     1     -36.852  20.217   7.923  1.00  0.00    -0.075 C 
ATOM     11  C   UNL     1     -35.744  20.065   8.671  1.00  0.00     0.008 C 
ATOM     12  C   UNL     1     -38.072  19.404   8.271  1.00  0.00     0.039 C 
ENDBRANCH   5  10
TORSDOF 2
ENDMDL
MODEL 4
REMARK VINA RESULT:    -2.089      1.141      4.177
REMARK INTER + INTRA:          -2.463
REMARK INTER:                  -2.877
REMARK INTRA:                   0.414
REMARK UNBOUND:                -0.191
REMARK SMILES C=C(C)[C@H]1CC[C@H](C)C[C@@H]1O
REMARK SMILES IDX 8 1 7 2 6 3 5 4 4 5 10 6 9 7 11 8 2 10 1 11 3 12
REMARK H PARENT 11 9
REMARK Flexibility Score: inf
ROOT
ATOM      1  C   UNL     1     -36.902  19.358   8.515  1.00  0.00     0.008 C 
ATOM      2  C   UNL     1     -37.461  20.612   7.833  1.00  0.00    -0.012 C 
ATOM      3  C   UNL     1     -36.580  21.835   8.147  1.00  0.00     0.004 C 
ATOM      4  C   UNL     1     -37.120  23.092   7.457  1.00  0.00     0.011 C 
ATOM      5  C   UNL     1     -37.229  22.882   5.932  1.00  0.00     0.043 C 
ATOM      6  C   UNL     1     -38.112  21.653   5.607  1.00  0.00     0.121 C 
ATOM      7  C   UNL     1     -37.566  20.397   6.310  1.00  0.00     0.035 C 
ENDROOT
BRANCH   6   8
ATOM      8  O   UNL     1     -38.125  21.444   4.218  1.00  0.00    -0.392 OA
ATOM      9  H   UNL     1     -38.678  20.636   4.054  1.00  0.00     0.210 HD
ENDBRANCH   6   8
BRANCH   5  10
ATOM     10  C   UNL     1     -37.740  24.141   5.242  1.00  0.00    -0.075 C 
ATOM     11  C   UNL     1     -37.860  24.206   3.904  1.00  0.00     0.008 C 
ATOM     12  C   UNL     1     -38.124  25.348   6.058  1.00  0.00     0.039 C 
ENDBRANCH   5  10
TORSDOF 2
ENDMDL
