MODEL 1
REMARK VINA RESULT:    -3.325      0.000      0.000
REMARK INTER + INTRA:          -4.232
REMARK INTER:                  -4.102
REMARK INTRA:                  -0.130
REMARK UNBOUND:                -0.130
REMARK SMILES CCCCCC(=O)[O-]
REMARK SMILES IDX 4 1 5 2 6 3 7 4 8 5 3 6 2 7 1 8
REMARK H PARENT
REMARK Flexibility Score: inf
ROOT
ATOM      1  C   UNL     1      -4.008  -2.136  -6.446  1.00  0.00     0.006 C 
ENDROOT
BRANCH   1   2
ATOM      2  C   UNL     1      -5.226  -1.205  -6.379  1.00  0.00     0.053 C 
BRANCH   2   3
ATOM      3  C   UNL     1      -4.803   0.180  -6.002  1.00  0.00     0.041 C 
ATOM      4  O   UNL     1      -5.640   1.121  -6.008  1.00  0.00    -0.550 OA
ATOM      5  O   UNL     1      -3.497   0.423  -5.596  1.00  0.00    -0.550 OA
ENDBRANCH   2   3
ENDBRANCH   1   2
BRANCH   1   6
ATOM      6  C   UNL     1      -4.271  -3.502  -5.792  1.00  0.00     0.000 C 
BRANCH   6   7
ATOM      7  C   UNL     1      -5.334  -3.432  -4.686  1.00  0.00    -0.003 C 
ATOM      8  C   UNL     1      -4.861  -4.147  -3.423  1.00  0.00     0.004 C 
ENDBRANCH   6   7
ENDBRANCH   1   6
TORSDOF 4
ENDMDL
MODEL 2
REMARK VINA RESULT:    -3.280      0.869      1.412
REMARK INTER + INTRA:          -4.178
REMARK INTER:                  -4.112
REMARK INTRA:                  -0.065
REMARK UNBOUND:                -0.130
REMARK SMILES CCCCCC(=O)[O-]
REMARK SMILES IDX 4 1 5 2 6 3 7 4 8 5 3 6 2 7 1 8
REMARK H PARENT
REMARK Flexibility Score: inf
ROOT
ATOM      1  C   UNL     1      -4.799  -1.447  -6.536  1.00  0.00     0.006 C 
ENDROOT
BRANCH   1   2
ATOM      2  C   UNL     1      -3.943  -0.222  -6.191  1.00  0.00     0.053 C 
BRANCH   2   3
ATOM      3  C   UNL     1      -4.815   0.936  -5.818  1.00  0.00     0.041 C 
ATOM      4  O   UNL     1      -4.398   1.807  -5.010  1.00  0.00    -0.550 OA
ATOM      5  O   UNL     1      -6.069   1.078  -6.398  1.00  0.00    -0.550 OA
ENDBRANCH   2   3
ENDBRANCH   1   2
BRANCH   1   6
ATOM      6  C   UNL     1      -4.268  -2.739  -5.895  1.00  0.00     0.000 C 
BRANCH   6   7
ATOM      7  C   UNL     1      -5.281  -3.381  -4.935  1.00  0.00    -0.003 C 
ATOM      8  C   UNL     1      -4.572  -4.125  -3.807  1.00  0.00     0.004 C 
ENDBRANCH   6   7
ENDBRANCH   1   6
TORSDOF 4
ENDMDL
MODEL 3
REMARK VINA RESULT:    -3.246     15.275     15.606
REMARK INTER + INTRA:          -4.135
REMARK INTER:                  -3.996
REMARK INTRA:                  -0.139
REMARK UNBOUND:                -0.130
REMARK SMILES CCCCCC(=O)[O-]
REMARK SMILES IDX 4 1 5 2 6 3 7 4 8 5 3 6 2 7 1 8
REMARK H PARENT
REMARK Flexibility Score: inf
ROOT
ATOM      1  C   UNL     1     -12.581   5.600 -16.815  1.00  0.00     0.006 C 
ENDROOT
BRANCH   1   2
ATOM      2  C   UNL     1     -12.405   6.352 -15.489  1.00  0.00     0.053 C 
BRANCH   2   3
ATOM      3  C   UNL     1     -13.571   7.259 -15.245  1.00  0.00     0.041 C 
ATOM      4  O   UNL     1     -14.728   6.780 -15.109  1.00  0.00    -0.550 OA
ATOM      5  O   UNL     1     -13.374   8.628 -15.120  1.00  0.00    -0.550 OA
ENDBRANCH   2   3
ENDBRANCH   1   2
BRANCH   1   6
ATOM      6  C   UNL     1     -12.927   4.116 -16.611  1.00  0.00     0.000 C 
BRANCH   6   7
ATOM      7  C   UNL     1     -14.348   3.771 -17.079  1.00  0.00    -0.003 C 
ATOM      8  C   UNL     1     -14.782   2.405 -16.555  1.00  0.00     0.004 C 
ENDBRANCH   6   7
ENDBRANCH   1   6
TORSDOF 4
ENDMDL
MODEL 4
REMARK VINA RESULT:    -3.166     13.400     14.258
REMARK INTER + INTRA:          -4.037
REMARK INTER:                  -3.904
REMARK INTRA:                  -0.133
REMARK UNBOUND:                -0.130
REMARK SMILES CCCCCC(=O)[O-]
REMARK SMILES IDX 4 1 5 2 6 3 7 4 8 5 3 6 2 7 1 8
REMARK H PARENT
REMARK Flexibility Score: inf
ROOT
ATOM      1  C   UNL     1     -17.423  -4.082  -2.355  1.00  0.00     0.006 C 
ENDROOT
BRANCH   1   2
ATOM      2  C   UNL     1     -16.698  -5.422  -2.536  1.00  0.00     0.053 C 
BRANCH   2   3
ATOM      3  C   UNL     1     -17.356  -6.230  -3.610  1.00  0.00     0.041 C 
ATOM      4  O   UNL     1     -16.967  -7.404  -3.848  1.00  0.00    -0.550 OA
ATOM      5  O   UNL     1     -18.431  -5.705  -4.316  1.00  0.00    -0.550 OA
ENDBRANCH   2   3
ENDBRANCH   1   2
BRANCH   1   6
ATOM      6  C   UNL     1     -18.364  -4.078  -1.140  1.00  0.00     0.000 C 
BRANCH   6   7
ATOM      7  C   UNL     1     -17.608  -3.981   0.193  1.00  0.00    -0.003 C 
ATOM      8  C   UNL     1     -17.996  -5.123   1.129  1.00  0.00     0.004 C 
ENDBRANCH   6   7
ENDBRANCH   1   6
TORSDOF 4
ENDMDL
MODEL 5
REMARK VINA RESULT:    -3.096      2.432      4.870
REMARK INTER + INTRA:          -3.951
REMARK INTER:                  -3.820
REMARK INTRA:                  -0.131
REMARK UNBOUND:                -0.130
REMARK SMILES CCCCCC(=O)[O-]
REMARK SMILES IDX 4 1 5 2 6 3 7 4 8 5 3 6 2 7 1 8
REMARK H PARENT
REMARK Flexibility Score: inf
ROOT
ATOM      1  C   UNL     1      -3.831   0.591  -5.011  1.00  0.00     0.006 C 
ENDROOT
BRANCH   1   2
ATOM      2  C   UNL     1      -3.569  -0.207  -6.295  1.00  0.00     0.053 C 
BRANCH   2   3
ATOM      3  C   UNL     1      -4.568  -1.312  -6.436  1.00  0.00     0.041 C 
ATOM      4  O   UNL     1      -4.180  -2.503  -6.566  1.00  0.00    -0.550 OA
ATOM      5  O   UNL     1      -5.927  -1.034  -6.375  1.00  0.00    -0.550 OA
ENDBRANCH   2   3
ENDBRANCH   1   2
BRANCH   1   6
ATOM      6  C   UNL     1      -4.435   1.977  -5.289  1.00  0.00     0.000 C 
BRANCH   6   7
ATOM      7  C   UNL     1      -3.490   2.883  -6.092  1.00  0.00    -0.003 C 
ATOM      8  C   UNL     1      -4.222   3.545  -7.257  1.00  0.00     0.004 C 
ENDBRANCH   6   7
ENDBRANCH   1   6
TORSDOF 4
ENDMDL
MODEL 6
REMARK VINA RESULT:    -3.083      5.022      6.612
REMARK INTER + INTRA:          -3.934
REMARK INTER:                  -3.745
REMARK INTRA:                  -0.189
REMARK UNBOUND:                -0.130
REMARK SMILES CCCCCC(=O)[O-]
REMARK SMILES IDX 4 1 5 2 6 3 7 4 8 5 3 6 2 7 1 8
REMARK H PARENT
REMARK Flexibility Score: inf
ROOT
ATOM      1  C   UNL     1      -6.668  -2.845   0.521  1.00  0.00     0.006 C 
ENDROOT
BRANCH   1   2
ATOM      2  C   UNL     1      -5.588  -3.868   0.145  1.00  0.00     0.053 C 
BRANCH   2   3
ATOM      3  C   UNL     1      -5.216  -3.728  -1.298  1.00  0.00     0.041 C 
ATOM      4  O   UNL     1      -4.471  -2.783  -1.671  1.00  0.00    -0.550 OA
ATOM      5  O   UNL     1      -5.651  -4.668  -2.223  1.00  0.00    -0.550 OA
ENDBRANCH   2   3
ENDBRANCH   1   2
BRANCH   1   6
ATOM      6  C   UNL     1      -8.060  -3.239   0.002  1.00  0.00     0.000 C 
BRANCH   6   7
ATOM      7  C   UNL     1      -8.411  -4.703   0.304  1.00  0.00    -0.003 C 
ATOM      8  C   UNL     1      -9.398  -4.804   1.463  1.00  0.00     0.004 C 
ENDBRANCH   6   7
ENDBRANCH   1   6
TORSDOF 4
ENDMDL
MODEL 7
REMARK VINA RESULT:    -3.048      6.091      7.433
REMARK INTER + INTRA:          -3.891
REMARK INTER:                  -3.731
REMARK INTRA:                  -0.160
REMARK UNBOUND:                -0.130
REMARK SMILES CCCCCC(=O)[O-]
REMARK SMILES IDX 4 1 5 2 6 3 7 4 8 5 3 6 2 7 1 8
REMARK H PARENT
REMARK Flexibility Score: inf
ROOT
ATOM      1  C   UNL     1      -6.821  -2.787   0.297  1.00  0.00     0.006 C 
ENDROOT
BRANCH   1   2
ATOM      2  C   UNL     1      -8.039  -3.658  -0.038  1.00  0.00     0.053 C 
BRANCH   2   3
ATOM      3  C   UNL     1      -8.393  -4.529   1.126  1.00  0.00     0.041 C 
ATOM      4  O   UNL     1      -9.582  -4.908   1.294  1.00  0.00    -0.550 OA
ATOM      5  O   UNL     1      -7.403  -4.962   1.998  1.00  0.00    -0.550 OA
ENDBRANCH   2   3
ENDBRANCH   1   2
BRANCH   1   6
ATOM      6  C   UNL     1      -5.591  -3.136  -0.556  1.00  0.00     0.000 C 
BRANCH   6   7
ATOM      7  C   UNL     1      -5.836  -4.337  -1.481  1.00  0.00    -0.003 C 
ATOM      8  C   UNL     1      -5.171  -4.128  -2.839  1.00  0.00     0.004 C 
ENDBRANCH   6   7
ENDBRANCH   1   6
TORSDOF 4
ENDMDL
MODEL 8
REMARK VINA RESULT:    -3.000      9.649     11.378
REMARK INTER + INTRA:          -3.832
REMARK INTER:                  -3.739
REMARK INTRA:                  -0.093
REMARK UNBOUND:                -0.130
REMARK SMILES CCCCCC(=O)[O-]
REMARK SMILES IDX 4 1 5 2 6 3 7 4 8 5 3 6 2 7 1 8
REMARK H PARENT
REMARK Flexibility Score: inf
ROOT
ATOM      1  C   UNL     1      -3.236   5.489 -14.282  1.00  0.00     0.006 C 
ENDROOT
BRANCH   1   2
ATOM      2  C   UNL     1      -3.965   4.311 -13.624  1.00  0.00     0.053 C 
BRANCH   2   3
ATOM      3  C   UNL     1      -3.197   3.820 -12.436  1.00  0.00     0.041 C 
ATOM      4  O   UNL     1      -3.205   4.478 -11.362  1.00  0.00    -0.550 OA
ATOM      5  O   UNL     1      -2.513   2.614 -12.500  1.00  0.00    -0.550 OA
ENDBRANCH   2   3
ENDBRANCH   1   2
BRANCH   1   6
ATOM      6  C   UNL     1      -3.528   5.599 -15.787  1.00  0.00     0.000 C 
BRANCH   6   7
ATOM      7  C   UNL     1      -4.816   4.868 -16.194  1.00  0.00    -0.003 C 
ATOM      8  C   UNL     1      -5.240   5.250 -17.609  1.00  0.00     0.004 C 
ENDBRANCH   6   7
ENDBRANCH   1   6
TORSDOF 4
ENDMDL
MODEL 9
REMARK VINA RESULT:    -2.989      5.500      6.548
REMARK INTER + INTRA:          -3.818
REMARK INTER:                  -3.597
REMARK INTRA:                  -0.222
REMARK UNBOUND:                -0.130
REMARK SMILES CCCCCC(=O)[O-]
REMARK SMILES IDX 4 1 5 2 6 3 7 4 8 5 3 6 2 7 1 8
REMARK H PARENT
REMARK Flexibility Score: inf
ROOT
ATOM      1  C   UNL     1      -7.702  -3.113  -0.170  1.00  0.00     0.006 C 
ENDROOT
BRANCH   1   2
ATOM      2  C   UNL     1      -6.315  -3.061   0.485  1.00  0.00     0.053 C 
BRANCH   2   3
ATOM      3  C   UNL     1      -5.245  -3.022  -0.560  1.00  0.00     0.041 C 
ATOM      4  O   UNL     1      -5.200  -3.908  -1.453  1.00  0.00    -0.550 OA
ATOM      5  O   UNL     1      -4.327  -1.980  -0.577  1.00  0.00    -0.550 OA
ENDBRANCH   2   3
ENDBRANCH   1   2
BRANCH   1   6
ATOM      6  C   UNL     1      -8.521  -4.334   0.276  1.00  0.00     0.000 C 
BRANCH   6   7
ATOM      7  C   UNL     1      -7.643  -5.461   0.841  1.00  0.00    -0.003 C 
ATOM      8  C   UNL     1      -7.514  -6.609  -0.157  1.00  0.00     0.004 C 
ENDBRANCH   6   7
ENDBRANCH   1   6
TORSDOF 4
ENDMDL
