MODEL 1
REMARK VINA RESULT:    -2.238      0.000      0.000
REMARK INTER + INTRA:          -3.850
REMARK INTER:                  -3.154
REMARK INTRA:                  -0.696
REMARK UNBOUND:                -0.696
REMARK SMILES CCCCCCCCC=O
REMARK SMILES IDX 5 1 4 2 3 3 2 4 1 5 6 6 7 7 8 8 9 9 10 10
REMARK H PARENT
REMARK Flexibility Score: inf
ROOT
ATOM      1  C   UNL     1     124.993 122.138 118.581  1.00  0.00     0.000 C 
ENDROOT
BRANCH   1   2
ATOM      2  C   UNL     1     124.597 120.681 118.872  1.00  0.00    -0.000 C 
BRANCH   2   3
ATOM      3  C   UNL     1     124.179 119.908 117.607  1.00  0.00    -0.000 C 
BRANCH   3   4
ATOM      4  C   UNL     1     123.912 120.780 116.367  1.00  0.00    -0.003 C 
ATOM      5  C   UNL     1     124.708 120.337 115.140  1.00  0.00     0.004 C 
ENDBRANCH   3   4
ENDBRANCH   2   3
ENDBRANCH   1   2
BRANCH   1   6
ATOM      6  C   UNL     1     126.516 122.336 118.477  1.00  0.00     0.000 C 
BRANCH   6   7
ATOM      7  C   UNL     1     127.006 122.981 117.168  1.00  0.00     0.008 C 
BRANCH   7   8
ATOM      8  C   UNL     1     125.954 123.890 116.516  1.00  0.00     0.072 C 
BRANCH   8   9
ATOM      9  C   UNL     1     125.988 123.762 115.024  1.00  0.00     0.224 C 
ATOM     10  O   UNL     1     125.751 124.726 114.313  1.00  0.00    -0.303 OA
ENDBRANCH   8   9
ENDBRANCH   7   8
ENDBRANCH   6   7
ENDBRANCH   1   6
TORSDOF 7
ENDMDL
MODEL 2
REMARK VINA RESULT:    -2.192      9.095     11.028
REMARK INTER + INTRA:          -3.785
REMARK INTER:                  -3.488
REMARK INTRA:                  -0.297
REMARK UNBOUND:                -0.696
REMARK SMILES CCCCCCCCC=O
REMARK SMILES IDX 5 1 4 2 3 3 2 4 1 5 6 6 7 7 8 8 9 9 10 10
REMARK H PARENT
REMARK Flexibility Score: inf
ROOT
ATOM      1  C   UNL     1     117.054 118.520 112.667  1.00  0.00     0.000 C 
ENDROOT
BRANCH   1   2
ATOM      2  C   UNL     1     117.829 119.586 111.875  1.00  0.00    -0.000 C 
BRANCH   2   3
ATOM      3  C   UNL     1     118.843 120.357 112.741  1.00  0.00    -0.000 C 
BRANCH   3   4
ATOM      4  C   UNL     1     119.503 119.534 113.862  1.00  0.00    -0.003 C 
ATOM      5  C   UNL     1     120.180 120.403 114.923  1.00  0.00     0.004 C 
ENDBRANCH   3   4
ENDBRANCH   2   3
ENDBRANCH   1   2
BRANCH   1   6
ATOM      6  C   UNL     1     115.792 119.078 113.349  1.00  0.00     0.000 C 
BRANCH   6   7
ATOM      7  C   UNL     1     114.558 119.210 112.438  1.00  0.00     0.008 C 
BRANCH   7   8
ATOM      8  C   UNL     1     113.232 119.048 113.194  1.00  0.00     0.072 C 
BRANCH   8   9
ATOM      9  C   UNL     1     113.206 119.913 114.417  1.00  0.00     0.224 C 
ATOM     10  O   UNL     1     113.060 119.418 115.524  1.00  0.00    -0.303 OA
ENDBRANCH   8   9
ENDBRANCH   7   8
ENDBRANCH   6   7
ENDBRANCH   1   6
TORSDOF 7
ENDMDL
MODEL 3
REMARK VINA RESULT:    -2.134      8.622     10.268
REMARK INTER + INTRA:          -3.703
REMARK INTER:                  -3.422
REMARK INTRA:                  -0.281
REMARK UNBOUND:                -0.696
REMARK SMILES CCCCCCCCC=O
REMARK SMILES IDX 5 1 4 2 3 3 2 4 1 5 6 6 7 7 8 8 9 9 10 10
REMARK H PARENT
REMARK Flexibility Score: inf
ROOT
ATOM      1  C   UNL     1     116.296 119.080 113.129  1.00  0.00     0.000 C 
ENDROOT
BRANCH   1   2
ATOM      2  C   UNL     1     115.423 117.889 112.699  1.00  0.00    -0.000 C 
BRANCH   2   3
ATOM      3  C   UNL     1     114.036 117.889 113.368  1.00  0.00    -0.000 C 
BRANCH   3   4
ATOM      4  C   UNL     1     113.228 119.187 113.196  1.00  0.00    -0.003 C 
ATOM      5  C   UNL     1     112.962 119.907 114.518  1.00  0.00     0.004 C 
ENDBRANCH   3   4
ENDBRANCH   2   3
ENDBRANCH   1   2
BRANCH   1   6
ATOM      6  C   UNL     1     117.175 119.623 111.988  1.00  0.00     0.000 C 
BRANCH   6   7
ATOM      7  C   UNL     1     118.574 120.105 112.412  1.00  0.00     0.008 C 
BRANCH   7   8
ATOM      8  C   UNL     1     119.280 119.133 113.367  1.00  0.00     0.072 C 
BRANCH   8   9
ATOM      9  C   UNL     1     119.523 119.775 114.699  1.00  0.00     0.224 C 
ATOM     10  O   UNL     1     120.438 120.569 114.847  1.00  0.00    -0.303 OA
ENDBRANCH   8   9
ENDBRANCH   7   8
ENDBRANCH   6   7
ENDBRANCH   1   6
TORSDOF 7
ENDMDL
MODEL 4
REMARK VINA RESULT:    -2.114     10.088     11.794
REMARK INTER + INTRA:          -3.675
REMARK INTER:                  -3.357
REMARK INTRA:                  -0.318
REMARK UNBOUND:                -0.696
REMARK SMILES CCCCCCCCC=O
REMARK SMILES IDX 5 1 4 2 3 3 2 4 1 5 6 6 7 7 8 8 9 9 10 10
REMARK H PARENT
REMARK Flexibility Score: inf
ROOT
ATOM      1  C   UNL     1     117.167 114.364 113.208  1.00  0.00     0.000 C 
ENDROOT
BRANCH   1   2
ATOM      2  C   UNL     1     116.459 114.071 111.875  1.00  0.00    -0.000 C 
BRANCH   2   3
ATOM      3  C   UNL     1     114.951 114.381 111.915  1.00  0.00    -0.000 C 
BRANCH   3   4
ATOM      4  C   UNL     1     114.067 113.256 112.482  1.00  0.00    -0.003 C 
ATOM      5  C   UNL     1     113.563 113.545 113.896  1.00  0.00     0.004 C 
ENDBRANCH   3   4
ENDBRANCH   2   3
ENDBRANCH   1   2
BRANCH   1   6
ATOM      6  C   UNL     1     118.667 114.016 113.181  1.00  0.00     0.000 C 
BRANCH   6   7
ATOM      7  C   UNL     1     119.610 115.204 112.918  1.00  0.00     0.008 C 
BRANCH   7   8
ATOM      8  C   UNL     1     118.934 116.566 113.133  1.00  0.00     0.072 C 
BRANCH   8   9
ATOM      9  C   UNL     1     118.980 117.389 111.881  1.00  0.00     0.224 C 
ATOM     10  O   UNL     1     119.135 118.598 111.939  1.00  0.00    -0.303 OA
ENDBRANCH   8   9
ENDBRANCH   7   8
ENDBRANCH   6   7
ENDBRANCH   1   6
TORSDOF 7
ENDMDL
MODEL 5
REMARK VINA RESULT:    -2.113     10.128     12.037
REMARK INTER + INTRA:          -3.674
REMARK INTER:                  -2.949
REMARK INTRA:                  -0.725
REMARK UNBOUND:                -0.696
REMARK SMILES CCCCCCCCC=O
REMARK SMILES IDX 5 1 4 2 3 3 2 4 1 5 6 6 7 7 8 8 9 9 10 10
REMARK H PARENT
REMARK Flexibility Score: inf
ROOT
ATOM      1  C   UNL     1     117.314 116.840 113.399  1.00  0.00     0.000 C 
ENDROOT
BRANCH   1   2
ATOM      2  C   UNL     1     118.841 116.662 113.360  1.00  0.00    -0.000 C 
BRANCH   2   3
ATOM      3  C   UNL     1     119.332 115.971 112.074  1.00  0.00    -0.000 C 
BRANCH   3   4
ATOM      4  C   UNL     1     119.761 114.502 112.245  1.00  0.00    -0.003 C 
ATOM      5  C   UNL     1     119.699 114.025 113.696  1.00  0.00     0.004 C 
ENDBRANCH   3   4
ENDBRANCH   2   3
ENDBRANCH   1   2
BRANCH   1   6
ATOM      6  C   UNL     1     116.644 116.585 112.036  1.00  0.00     0.000 C 
BRANCH   6   7
ATOM      7  C   UNL     1     115.603 115.451 112.020  1.00  0.00     0.008 C 
BRANCH   7   8
ATOM      8  C   UNL     1     115.983 114.275 112.930  1.00  0.00     0.072 C 
BRANCH   8   9
ATOM      9  C   UNL     1     114.900 114.001 113.929  1.00  0.00     0.224 C 
ATOM     10  O   UNL     1     114.019 114.822 114.130  1.00  0.00    -0.303 OA
ENDBRANCH   8   9
ENDBRANCH   7   8
ENDBRANCH   6   7
ENDBRANCH   1   6
TORSDOF 7
ENDMDL
MODEL 6
REMARK VINA RESULT:    -2.107     12.151     14.118
REMARK INTER + INTRA:          -3.666
REMARK INTER:                  -3.045
REMARK INTRA:                  -0.621
REMARK UNBOUND:                -0.696
REMARK SMILES CCCCCCCCC=O
REMARK SMILES IDX 5 1 4 2 3 3 2 4 1 5 6 6 7 7 8 8 9 9 10 10
REMARK H PARENT
REMARK Flexibility Score: inf
ROOT
ATOM      1  C   UNL     1     121.082 107.993 115.186  1.00  0.00     0.000 C 
ENDROOT
BRANCH   1   2
ATOM      2  C   UNL     1     122.311 107.236 115.717  1.00  0.00    -0.000 C 
BRANCH   2   3
ATOM      3  C   UNL     1     123.471 107.192 114.706  1.00  0.00    -0.000 C 
BRANCH   3   4
ATOM      4  C   UNL     1     124.727 107.982 115.116  1.00  0.00    -0.003 C 
ATOM      5  C   UNL     1     124.550 108.748 116.427  1.00  0.00     0.004 C 
ENDBRANCH   3   4
ENDBRANCH   2   3
ENDBRANCH   1   2
BRANCH   1   6
ATOM      6  C   UNL     1     120.332 108.767 116.286  1.00  0.00     0.000 C 
BRANCH   6   7
ATOM      7  C   UNL     1     120.747 108.423 117.728  1.00  0.00     0.008 C 
BRANCH   7   8
ATOM      8  C   UNL     1     121.506 109.563 118.422  1.00  0.00     0.072 C 
BRANCH   8   9
ATOM      9  C   UNL     1     121.384 110.838 117.643  1.00  0.00     0.224 C 
ATOM     10  O   UNL     1     122.371 111.516 117.404  1.00  0.00    -0.303 OA
ENDBRANCH   8   9
ENDBRANCH   7   8
ENDBRANCH   6   7
ENDBRANCH   1   6
TORSDOF 7
ENDMDL
MODEL 7
REMARK VINA RESULT:    -2.079      8.600     10.563
REMARK INTER + INTRA:          -3.626
REMARK INTER:                  -2.856
REMARK INTRA:                  -0.770
REMARK UNBOUND:                -0.696
REMARK SMILES CCCCCCCCC=O
REMARK SMILES IDX 5 1 4 2 3 3 2 4 1 5 6 6 7 7 8 8 9 9 10 10
REMARK H PARENT
REMARK Flexibility Score: inf
ROOT
ATOM      1  C   UNL     1     118.805 116.973 114.069  1.00  0.00     0.000 C 
ENDROOT
BRANCH   1   2
ATOM      2  C   UNL     1     118.397 118.456 114.099  1.00  0.00    -0.000 C 
BRANCH   2   3
ATOM      3  C   UNL     1     119.272 119.337 113.189  1.00  0.00    -0.000 C 
BRANCH   3   4
ATOM      4  C   UNL     1     118.504 120.146 112.128  1.00  0.00    -0.003 C 
ATOM      5  C   UNL     1     117.084 119.630 111.895  1.00  0.00     0.004 C 
ENDBRANCH   3   4
ENDBRANCH   2   3
ENDBRANCH   1   2
BRANCH   1   6
ATOM      6  C   UNL     1     119.051 116.446 112.644  1.00  0.00     0.000 C 
BRANCH   6   7
ATOM      7  C   UNL     1     117.787 116.017 111.877  1.00  0.00     0.008 C 
BRANCH   7   8
ATOM      8  C   UNL     1     116.694 115.448 112.793  1.00  0.00     0.072 C 
BRANCH   8   9
ATOM      9  C   UNL     1     115.421 116.227 112.653  1.00  0.00     0.224 C 
ATOM     10  O   UNL     1     115.109 117.060 113.488  1.00  0.00    -0.303 OA
ENDBRANCH   8   9
ENDBRANCH   7   8
ENDBRANCH   6   7
ENDBRANCH   1   6
TORSDOF 7
ENDMDL
MODEL 8
REMARK VINA RESULT:    -2.037     11.018     12.965
REMARK INTER + INTRA:          -3.567
REMARK INTER:                  -2.983
REMARK INTRA:                  -0.585
REMARK UNBOUND:                -0.696
REMARK SMILES CCCCCCCCC=O
REMARK SMILES IDX 5 1 4 2 3 3 2 4 1 5 6 6 7 7 8 8 9 9 10 10
REMARK H PARENT
REMARK Flexibility Score: inf
ROOT
ATOM      1  C   UNL     1     113.626 117.886 112.588  1.00  0.00     0.000 C 
ENDROOT
BRANCH   1   2
ATOM      2  C   UNL     1     114.652 118.937 113.040  1.00  0.00    -0.000 C 
BRANCH   2   3
ATOM      3  C   UNL     1     115.850 119.059 112.080  1.00  0.00    -0.000 C 
BRANCH   3   4
ATOM      4  C   UNL     1     117.229 119.126 112.760  1.00  0.00    -0.003 C 
ATOM      5  C   UNL     1     118.110 117.916 112.449  1.00  0.00     0.004 C 
ENDBRANCH   3   4
ENDBRANCH   2   3
ENDBRANCH   1   2
BRANCH   1   6
ATOM      6  C   UNL     1     114.276 116.559 112.155  1.00  0.00     0.000 C 
BRANCH   6   7
ATOM      7  C   UNL     1     114.816 115.689 113.305  1.00  0.00     0.008 C 
BRANCH   7   8
ATOM      8  C   UNL     1     115.830 114.636 112.836  1.00  0.00     0.072 C 
BRANCH   8   9
ATOM      9  C   UNL     1     115.197 113.676 111.875  1.00  0.00     0.224 C 
ATOM     10  O   UNL     1     114.362 112.873 112.261  1.00  0.00    -0.303 OA
ENDBRANCH   8   9
ENDBRANCH   7   8
ENDBRANCH   6   7
ENDBRANCH   1   6
TORSDOF 7
ENDMDL
MODEL 9
REMARK VINA RESULT:     0.420     13.633     15.105
REMARK INTER + INTRA:          -0.104
REMARK INTER:                   0.000
REMARK INTRA:                  -0.104
REMARK UNBOUND:                -0.696
REMARK SMILES CCCCCCCCC=O
REMARK SMILES IDX 5 1 4 2 3 3 2 4 1 5 6 6 7 7 8 8 9 9 10 10
REMARK H PARENT
REMARK Flexibility Score: inf
ROOT
ATOM      1  C   UNL     1     118.179 117.606 127.837  1.00  0.00     0.000 C 
ENDROOT
BRANCH   1   2
ATOM      2  C   UNL     1     116.882 117.559 128.662  1.00  0.00    -0.000 C 
BRANCH   2   3
ATOM      3  C   UNL     1     116.103 118.887 128.632  1.00  0.00    -0.000 C 
BRANCH   3   4
ATOM      4  C   UNL     1     114.573 118.750 128.737  1.00  0.00    -0.003 C 
ATOM      5  C   UNL     1     114.124 117.986 129.983  1.00  0.00     0.004 C 
ENDBRANCH   3   4
ENDBRANCH   2   3
ENDBRANCH   1   2
BRANCH   1   6
ATOM      6  C   UNL     1     119.403 117.088 128.614  1.00  0.00     0.000 C 
BRANCH   6   7
ATOM      7  C   UNL     1     120.264 116.054 127.865  1.00  0.00     0.008 C 
BRANCH   7   8
ATOM      8  C   UNL     1     121.767 116.219 128.131  1.00  0.00     0.072 C 
BRANCH   8   9
ATOM      9  C   UNL     1     122.345 114.967 128.719  1.00  0.00     0.224 C 
ATOM     10  O   UNL     1     123.545 114.878 128.931  1.00  0.00    -0.303 OA
ENDBRANCH   8   9
ENDBRANCH   7   8
ENDBRANCH   6   7
ENDBRANCH   1   6
TORSDOF 7
ENDMDL
