MODEL 1
REMARK VINA RESULT:    -3.991      0.000      0.000
REMARK INTER + INTRA:          -5.228
REMARK INTER:                  -5.857
REMARK INTRA:                   0.629
REMARK UNBOUND:                 0.629
REMARK SMILES C=C1CC=CC(C)(C)CC=C(C)CCC1
REMARK SMILES IDX 2 1 1 2 15 3 14 4 13 5 11 6 12 7 10 8 3 10 4 11 5 12 6 13
REMARK SMILES IDX 7 14 8 15 9 16
REMARK H PARENT
REMARK Flexibility Score: 60.00
ROOT
ATOM      1  C   UNL     1     146.323 150.310 164.030  1.00  0.00    -0.074 C 
ATOM      2  C   UNL     1     145.817 150.814 165.172  1.00  0.00     0.008 C 
ENDROOT
BRANCH   1   3
ATOM      3  C   UNL     1     147.623 149.520 164.059  1.00  0.00     0.031 C 
BRANCH   3   4
ATOM      4  C   UNL     1     147.606 148.238 164.920  1.00  0.00     0.009 C 
BRANCH   4   5
ATOM      5  C   UNL     1     146.755 147.091 164.353  1.00  0.00     0.030 C 
BRANCH   5   6
ATOM      6  C   UNL     1     147.362 146.497 163.097  1.00  0.00    -0.077 C 
ATOM      7  C   UNL     1     148.721 145.853 163.189  1.00  0.00     0.039 C 
ATOM      8  C   UNL     1     146.763 146.558 161.889  1.00  0.00    -0.027 CG0
ATOM      9  G   UNL     1     145.406 147.185 161.638  1.00  0.00     0.000 G0
ENDBRANCH   5   6
ENDBRANCH   4   5
ENDBRANCH   3   4
ENDBRANCH   1   3
BRANCH   1  10
ATOM     10  C   UNL     1     145.452 150.254 162.784  1.00  0.00     0.057 C 
BRANCH  10  11
ATOM     11  C   UNL     1     146.239 150.235 161.492  1.00  0.00    -0.026 C 
ATOM     12  C   UNL     1     146.184 149.324 160.493  1.00  0.00    -0.024 C 
BRANCH  12  13
ATOM     13  C   UNL     1     145.308 148.070 160.388  1.00  0.00    -0.014 C 
ATOM     14  C   UNL     1     143.841 148.475 160.122  1.00  0.00     0.016 C 
ATOM     15  C   UNL     1     145.779 147.245 159.165  1.00  0.00     0.016 C 
BRANCH  13  16
ATOM     16  C   UNL     1     145.394 147.177 161.657  1.00  0.00     0.038 CG0
ATOM     17  G   UNL     1     146.765 146.566 161.867  1.00  0.00     0.000 G0
ENDBRANCH  13  16
ENDBRANCH  12  13
ENDBRANCH  10  11
ENDBRANCH   1  10
TORSDOF 0
ENDMDL
MODEL 2
REMARK VINA RESULT:    -3.977      4.960      6.765
REMARK INTER + INTRA:          -5.207
REMARK INTER:                  -5.858
REMARK INTRA:                   0.651
REMARK UNBOUND:                 0.629
REMARK SMILES C=C1CC=CC(C)(C)CC=C(C)CCC1
REMARK SMILES IDX 2 1 1 2 15 3 14 4 13 5 11 6 12 7 10 8 3 10 4 11 5 12 6 13
REMARK SMILES IDX 7 14 8 15 9 16
REMARK H PARENT
REMARK Flexibility Score: 60.00
ROOT
ATOM      1  C   UNL     1     144.296 140.653 163.823  1.00  0.00    -0.074 C 
ATOM      2  C   UNL     1     144.698 140.065 164.965  1.00  0.00     0.008 C 
ENDROOT
BRANCH   1   3
ATOM      3  C   UNL     1     143.415 141.893 163.875  1.00  0.00     0.031 C 
BRANCH   3   4
ATOM      4  C   UNL     1     143.912 143.026 164.799  1.00  0.00     0.009 C 
BRANCH   4   5
ATOM      5  C   UNL     1     144.730 144.121 164.094  1.00  0.00     0.030 C 
BRANCH   5   6
ATOM      6  C   UNL     1     146.106 143.631 163.686  1.00  0.00    -0.077 C 
ATOM      7  C   UNL     1     147.138 143.407 164.761  1.00  0.00     0.039 C 
ATOM      8  C   UNL     1     146.465 143.431 162.401  1.00  0.00    -0.027 CG0
ATOM      9  G   UNL     1     145.543 143.628 161.215  1.00  0.00     0.000 G0
ENDBRANCH   5   6
ENDBRANCH   4   5
ENDBRANCH   3   4
ENDBRANCH   1   3
BRANCH   1  10
ATOM     10  C   UNL     1     144.968 140.279 162.510  1.00  0.00     0.057 C 
BRANCH  10  11
ATOM     11  C   UNL     1     144.133 140.593 161.288  1.00  0.00    -0.026 C 
ATOM     12  C   UNL     1     144.382 141.502 160.316  1.00  0.00    -0.024 C 
BRANCH  12  13
ATOM     13  C   UNL     1     145.575 142.454 160.180  1.00  0.00    -0.014 C 
ATOM     14  C   UNL     1     146.896 141.667 160.335  1.00  0.00     0.016 C 
ATOM     15  C   UNL     1     145.567 143.046 158.748  1.00  0.00     0.016 C 
BRANCH  13  16
ATOM     16  C   UNL     1     145.525 143.621 161.204  1.00  0.00     0.038 CG0
ATOM     17  G   UNL     1     146.461 143.425 162.381  1.00  0.00     0.000 G0
ENDBRANCH  13  16
ENDBRANCH  12  13
ENDBRANCH  10  11
ENDBRANCH   1  10
TORSDOF 0
ENDMDL
MODEL 3
REMARK VINA RESULT:    -3.966      1.567      2.383
REMARK INTER + INTRA:          -5.191
REMARK INTER:                  -5.960
REMARK INTRA:                   0.769
REMARK UNBOUND:                 0.629
REMARK SMILES C=C1CC=CC(C)(C)CC=C(C)CCC1
REMARK SMILES IDX 2 1 1 2 15 3 14 4 13 5 11 6 12 7 10 8 3 10 4 11 5 12 6 13
REMARK SMILES IDX 7 14 8 15 9 16
REMARK H PARENT
REMARK Flexibility Score: 60.00
ROOT
ATOM      1  C   UNL     1     147.589 149.228 163.866  1.00  0.00    -0.074 C 
ATOM      2  C   UNL     1     147.560 150.045 164.936  1.00  0.00     0.008 C 
ENDROOT
BRANCH   1   3
ATOM      3  C   UNL     1     147.530 147.719 164.060  1.00  0.00     0.031 C 
BRANCH   3   4
ATOM      4  C   UNL     1     146.495 147.219 165.091  1.00  0.00     0.009 C 
BRANCH   4   5
ATOM      5  C   UNL     1     145.386 146.325 164.510  1.00  0.00     0.030 C 
BRANCH   5   6
ATOM      6  C   UNL     1     144.142 147.116 164.158  1.00  0.00    -0.077 C 
ATOM      7  C   UNL     1     143.131 147.388 165.243  1.00  0.00     0.039 C 
ATOM      8  C   UNL     1     143.872 147.549 162.909  1.00  0.00    -0.027 CG0
ATOM      9  G   UNL     1     144.783 147.338 161.716  1.00  0.00     0.000 G0
ENDBRANCH   5   6
ENDBRANCH   4   5
ENDBRANCH   3   4
ENDBRANCH   1   3
BRANCH   1  10
ATOM     10  C   UNL     1     147.361 149.803 162.476  1.00  0.00     0.057 C 
BRANCH  10  11
ATOM     11  C   UNL     1     145.984 150.401 162.283  1.00  0.00    -0.026 C 
ATOM     12  C   UNL     1     144.945 149.895 161.579  1.00  0.00    -0.024 C 
BRANCH  12  13
ATOM     13  C   UNL     1     144.871 148.582 160.792  1.00  0.00    -0.014 C 
ATOM     14  C   UNL     1     143.667 148.617 159.825  1.00  0.00     0.016 C 
ATOM     15  C   UNL     1     146.147 148.459 159.923  1.00  0.00     0.016 C 
BRANCH  13  16
ATOM     16  C   UNL     1     144.775 147.337 161.719  1.00  0.00     0.038 CG0
ATOM     17  G   UNL     1     143.875 147.553 162.919  1.00  0.00     0.000 G0
ENDBRANCH  13  16
ENDBRANCH  12  13
ENDBRANCH  10  11
ENDBRANCH   1  10
TORSDOF 0
ENDMDL
MODEL 4
REMARK VINA RESULT:    -3.924      1.336      3.559
REMARK INTER + INTRA:          -5.130
REMARK INTER:                  -5.732
REMARK INTRA:                   0.602
REMARK UNBOUND:                 0.629
REMARK SMILES C=C1CC=CC(C)(C)CC=C(C)CCC1
REMARK SMILES IDX 2 1 1 2 15 3 14 4 13 5 11 6 12 7 10 8 3 10 4 11 5 12 6 13
REMARK SMILES IDX 7 14 8 15 9 16
REMARK H PARENT
REMARK Flexibility Score: 60.00
ROOT
ATOM      1  C   UNL     1     146.536 149.251 164.707  1.00  0.00    -0.074 C 
ATOM      2  C   UNL     1     147.692 149.936 164.794  1.00  0.00     0.008 C 
ENDROOT
BRANCH   1   3
ATOM      3  C   UNL     1     145.365 149.830 163.926  1.00  0.00     0.031 C 
BRANCH   3   4
ATOM      4  C   UNL     1     145.732 150.548 162.609  1.00  0.00     0.009 C 
BRANCH   4   5
ATOM      5  C   UNL     1     145.642 149.670 161.350  1.00  0.00     0.030 C 
BRANCH   5   6
ATOM      6  C   UNL     1     146.969 149.018 161.013  1.00  0.00    -0.077 C 
ATOM      7  C   UNL     1     148.015 149.839 160.302  1.00  0.00     0.039 C 
ATOM      8  C   UNL     1     147.242 147.724 161.278  1.00  0.00    -0.027 CG0
ATOM      9  G   UNL     1     146.287 146.773 161.972  1.00  0.00     0.000 G0
ENDBRANCH   5   6
ENDBRANCH   4   5
ENDBRANCH   3   4
ENDBRANCH   1   3
BRANCH   1  10
ATOM     10  C   UNL     1     146.501 147.783 165.110  1.00  0.00     0.057 C 
BRANCH  10  11
ATOM     11  C   UNL     1     147.775 147.034 164.785  1.00  0.00    -0.026 C 
ATOM     12  C   UNL     1     147.984 146.129 163.801  1.00  0.00    -0.024 C 
BRANCH  12  13
ATOM     13  C   UNL     1     146.999 145.621 162.742  1.00  0.00    -0.014 C 
ATOM     14  C   UNL     1     147.731 144.697 161.744  1.00  0.00     0.016 C 
ATOM     15  C   UNL     1     145.921 144.762 163.449  1.00  0.00     0.016 C 
BRANCH  13  16
ATOM     16  C   UNL     1     146.295 146.779 161.980  1.00  0.00     0.038 CG0
ATOM     17  G   UNL     1     147.263 147.707 161.275  1.00  0.00     0.000 G0
ENDBRANCH  13  16
ENDBRANCH  12  13
ENDBRANCH  10  11
ENDBRANCH   1  10
TORSDOF 0
ENDMDL
MODEL 5
REMARK VINA RESULT:    -3.918      5.376      7.197
REMARK INTER + INTRA:          -5.121
REMARK INTER:                  -5.677
REMARK INTRA:                   0.556
REMARK UNBOUND:                 0.629
REMARK SMILES C=C1CC=CC(C)(C)CC=C(C)CCC1
REMARK SMILES IDX 2 1 1 2 15 3 14 4 13 5 11 6 12 7 10 8 3 10 4 11 5 12 6 13
REMARK SMILES IDX 7 14 8 15 9 16
REMARK H PARENT
REMARK Flexibility Score: 60.00
ROOT
ATOM      1  C   UNL     1     144.079 140.569 162.829  1.00  0.00    -0.074 C 
ATOM      2  C   UNL     1     145.202 140.236 163.495  1.00  0.00     0.008 C 
ENDROOT
BRANCH   1   3
ATOM      3  C   UNL     1     142.920 141.218 163.571  1.00  0.00     0.031 C 
BRANCH   3   4
ATOM      4  C   UNL     1     143.253 142.534 164.309  1.00  0.00     0.009 C 
BRANCH   4   5
ATOM      5  C   UNL     1     143.851 143.637 163.421  1.00  0.00     0.030 C 
BRANCH   5   6
ATOM      6  C   UNL     1     142.784 144.400 162.662  1.00  0.00    -0.077 C 
ATOM      7  C   UNL     1     141.612 144.957 163.430  1.00  0.00     0.039 C 
ATOM      8  C   UNL     1     142.808 144.566 161.323  1.00  0.00    -0.027 CG0
ATOM      9  G   UNL     1     143.910 144.052 160.418  1.00  0.00     0.000 G0
ENDBRANCH   5   6
ENDBRANCH   4   5
ENDBRANCH   3   4
ENDBRANCH   1   3
BRANCH   1  10
ATOM     10  C   UNL     1     144.087 140.591 161.308  1.00  0.00     0.057 C 
BRANCH  10  11
ATOM     11  C   UNL     1     142.754 140.964 160.698  1.00  0.00    -0.026 C 
ATOM     12  C   UNL     1     142.474 141.997 159.869  1.00  0.00    -0.024 C 
BRANCH  12  13
ATOM     13  C   UNL     1     143.424 143.063 159.314  1.00  0.00    -0.014 C 
ATOM     14  C   UNL     1     144.632 142.386 158.628  1.00  0.00     0.016 C 
ATOM     15  C   UNL     1     142.674 143.866 158.222  1.00  0.00     0.016 C 
BRANCH  13  16
ATOM     16  C   UNL     1     143.917 144.050 160.410  1.00  0.00     0.038 CG0
ATOM     17  G   UNL     1     142.803 144.549 161.309  1.00  0.00     0.000 G0
ENDBRANCH  13  16
ENDBRANCH  12  13
ENDBRANCH  10  11
ENDBRANCH   1  10
TORSDOF 0
ENDMDL
MODEL 6
REMARK VINA RESULT:    -3.914      3.451      5.409
REMARK INTER + INTRA:          -5.115
REMARK INTER:                  -5.894
REMARK INTRA:                   0.779
REMARK UNBOUND:                 0.629
REMARK SMILES C=C1CC=CC(C)(C)CC=C(C)CCC1
REMARK SMILES IDX 2 1 1 2 15 3 14 4 13 5 11 6 12 7 10 8 3 10 4 11 5 12 6 13
REMARK SMILES IDX 7 14 8 15 9 16
REMARK H PARENT
REMARK Flexibility Score: 60.00
ROOT
ATOM      1  C   UNL     1     140.999 146.744 164.623  1.00  0.00    -0.074 C 
ATOM      2  C   UNL     1     140.488 147.950 164.934  1.00  0.00     0.008 C 
ENDROOT
BRANCH   1   3
ATOM      3  C   UNL     1     140.189 145.771 163.778  1.00  0.00     0.031 C 
BRANCH   3   4
ATOM      4  C   UNL     1     140.147 146.075 162.265  1.00  0.00     0.009 C 
BRANCH   4   5
ATOM      5  C   UNL     1     141.447 145.758 161.508  1.00  0.00     0.030 C 
BRANCH   5   6
ATOM      6  C   UNL     1     142.191 147.014 161.100  1.00  0.00    -0.077 C 
ATOM      7  C   UNL     1     141.474 148.030 160.248  1.00  0.00     0.039 C 
ATOM      8  C   UNL     1     143.480 147.245 161.424  1.00  0.00    -0.027 CG0
ATOM      9  G   UNL     1     144.332 146.310 162.259  1.00  0.00     0.000 G0
ENDBRANCH   5   6
ENDBRANCH   4   5
ENDBRANCH   3   4
ENDBRANCH   1   3
BRANCH   1  10
ATOM     10  C   UNL     1     142.482 146.478 164.837  1.00  0.00     0.057 C 
BRANCH  10  11
ATOM     11  C   UNL     1     143.326 147.733 164.868  1.00  0.00    -0.026 C 
ATOM     12  C   UNL     1     144.490 147.973 164.221  1.00  0.00    -0.024 C 
BRANCH  12  13
ATOM     13  C   UNL     1     145.269 147.050 163.278  1.00  0.00    -0.014 C 
ATOM     14  C   UNL     1     146.346 147.859 162.521  1.00  0.00     0.016 C 
ATOM     15  C   UNL     1     146.015 145.994 164.132  1.00  0.00     0.016 C 
BRANCH  13  16
ATOM     16  C   UNL     1     144.345 146.314 162.268  1.00  0.00     0.038 CG0
ATOM     17  G   UNL     1     143.485 147.255 161.449  1.00  0.00     0.000 G0
ENDBRANCH  13  16
ENDBRANCH  12  13
ENDBRANCH  10  11
ENDBRANCH   1  10
TORSDOF 0
ENDMDL
MODEL 7
REMARK VINA RESULT:    -3.902      2.445      3.567
REMARK INTER + INTRA:          -5.098
REMARK INTER:                  -5.655
REMARK INTRA:                   0.557
REMARK UNBOUND:                 0.629
REMARK SMILES C=C1CC=CC(C)(C)CC=C(C)CCC1
REMARK SMILES IDX 2 1 1 2 15 3 14 4 13 5 11 6 12 7 10 8 3 10 4 11 5 12 6 13
REMARK SMILES IDX 7 14 8 15 9 16
REMARK H PARENT
REMARK Flexibility Score: 60.00
ROOT
ATOM      1  C   UNL     1     145.188 149.123 163.234  1.00  0.00    -0.074 C 
ATOM      2  C   UNL     1     145.176 150.063 162.270  1.00  0.00     0.008 C 
ENDROOT
BRANCH   1   3
ATOM      3  C   UNL     1     146.275 149.141 164.299  1.00  0.00     0.031 C 
BRANCH   3   4
ATOM      4  C   UNL     1     147.584 148.408 163.930  1.00  0.00     0.009 C 
BRANCH   4   5
ATOM      5  C   UNL     1     147.399 147.168 163.040  1.00  0.00     0.030 C 
BRANCH   5   6
ATOM      6  C   UNL     1     147.482 145.879 163.833  1.00  0.00    -0.077 C 
ATOM      7  C   UNL     1     148.765 145.560 164.557  1.00  0.00     0.039 C 
ATOM      8  C   UNL     1     146.477 144.980 163.885  1.00  0.00    -0.027 CG0
ATOM      9  G   UNL     1     145.138 145.155 163.198  1.00  0.00     0.000 G0
ENDBRANCH   5   6
ENDBRANCH   4   5
ENDBRANCH   3   4
ENDBRANCH   1   3
BRANCH   1  10
ATOM     10  C   UNL     1     143.960 148.250 163.446  1.00  0.00     0.057 C 
BRANCH  10  11
ATOM     11  C   UNL     1     143.899 147.609 164.815  1.00  0.00    -0.026 C 
ATOM     12  C   UNL     1     143.883 146.290 165.121  1.00  0.00    -0.024 C 
BRANCH  12  13
ATOM     13  C   UNL     1     143.928 145.088 164.172  1.00  0.00    -0.014 C 
ATOM     14  C   UNL     1     143.960 143.776 164.988  1.00  0.00     0.016 C 
ATOM     15  C   UNL     1     142.622 145.071 163.339  1.00  0.00     0.016 C 
BRANCH  13  16
ATOM     16  C   UNL     1     145.140 145.141 163.201  1.00  0.00     0.038 CG0
ATOM     17  G   UNL     1     146.476 144.988 163.901  1.00  0.00     0.000 G0
ENDBRANCH  13  16
ENDBRANCH  12  13
ENDBRANCH  10  11
ENDBRANCH   1  10
TORSDOF 0
ENDMDL
MODEL 8
REMARK VINA RESULT:    -3.778      4.048      5.465
REMARK INTER + INTRA:          -4.916
REMARK INTER:                  -5.650
REMARK INTRA:                   0.733
REMARK UNBOUND:                 0.629
REMARK SMILES C=C1CC=CC(C)(C)CC=C(C)CCC1
REMARK SMILES IDX 2 1 1 2 15 3 14 4 13 5 11 6 12 7 10 8 3 10 4 11 5 12 6 13
REMARK SMILES IDX 7 14 8 15 9 16
REMARK H PARENT
REMARK Flexibility Score: 60.00
ROOT
ATOM      1  C   UNL     1     149.582 143.891 164.729  1.00  0.00    -0.074 C 
ATOM      2  C   UNL     1     150.218 142.737 165.004  1.00  0.00     0.008 C 
ENDROOT
BRANCH   1   3
ATOM      3  C   UNL     1     150.328 145.024 164.040  1.00  0.00     0.031 C 
BRANCH   3   4
ATOM      4  C   UNL     1     150.474 144.893 162.508  1.00  0.00     0.009 C 
BRANCH   4   5
ATOM      5  C   UNL     1     149.302 145.471 161.697  1.00  0.00     0.030 C 
BRANCH   5   6
ATOM      6  C   UNL     1     148.590 144.407 160.886  1.00  0.00    -0.077 C 
ATOM      7  C   UNL     1     149.389 143.607 159.889  1.00  0.00     0.039 C 
ATOM      8  C   UNL     1     147.265 144.172 160.979  1.00  0.00    -0.027 CG0
ATOM      9  G   UNL     1     146.332 144.905 161.923  1.00  0.00     0.000 G0
ENDBRANCH   5   6
ENDBRANCH   4   5
ENDBRANCH   3   4
ENDBRANCH   1   3
BRANCH   1  10
ATOM     10  C   UNL     1     148.063 143.950 164.812  1.00  0.00     0.057 C 
BRANCH  10  11
ATOM     11  C   UNL     1     147.373 142.764 164.176  1.00  0.00    -0.026 C 
ATOM     12  C   UNL     1     146.298 142.765 163.353  1.00  0.00    -0.024 C 
BRANCH  12  13
ATOM     13  C   UNL     1     145.492 143.960 162.834  1.00  0.00    -0.014 C 
ATOM     14  C   UNL     1     144.253 143.460 162.058  1.00  0.00     0.016 C 
ATOM     15  C   UNL     1     144.970 144.764 164.051  1.00  0.00     0.016 C 
BRANCH  13  16
ATOM     16  C   UNL     1     146.338 144.905 161.936  1.00  0.00     0.038 CG0
ATOM     17  G   UNL     1     147.248 144.163 160.977  1.00  0.00     0.000 G0
ENDBRANCH  13  16
ENDBRANCH  12  13
ENDBRANCH  10  11
ENDBRANCH   1  10
TORSDOF 0
ENDMDL
MODEL 9
REMARK VINA RESULT:    -3.771      4.949      6.702
REMARK INTER + INTRA:          -4.905
REMARK INTER:                  -5.715
REMARK INTRA:                   0.810
REMARK UNBOUND:                 0.629
REMARK SMILES C=C1CC=CC(C)(C)CC=C(C)CCC1
REMARK SMILES IDX 2 1 1 2 15 3 14 4 13 5 11 6 12 7 10 8 3 10 4 11 5 12 6 13
REMARK SMILES IDX 7 14 8 15 9 16
REMARK H PARENT
REMARK Flexibility Score: 60.00
ROOT
ATOM      1  C   UNL     1     143.624 141.408 164.666  1.00  0.00    -0.074 C 
ATOM      2  C   UNL     1     142.773 140.427 165.019  1.00  0.00     0.008 C 
ENDROOT
BRANCH   1   3
ATOM      3  C   UNL     1     144.989 141.058 164.091  1.00  0.00     0.031 C 
BRANCH   3   4
ATOM      4  C   UNL     1     144.972 140.204 162.804  1.00  0.00     0.009 C 
BRANCH   4   5
ATOM      5  C   UNL     1     145.311 140.971 161.516  1.00  0.00     0.030 C 
BRANCH   5   6
ATOM      6  C   UNL     1     144.175 141.870 161.072  1.00  0.00    -0.077 C 
ATOM      7  C   UNL     1     143.035 141.261 160.296  1.00  0.00     0.039 C 
ATOM      8  C   UNL     1     144.156 143.201 161.297  1.00  0.00    -0.027 CG0
ATOM      9  G   UNL     1     145.236 143.956 162.047  1.00  0.00     0.000 G0
ENDBRANCH   5   6
ENDBRANCH   4   5
ENDBRANCH   3   4
ENDBRANCH   1   3
BRANCH   1  10
ATOM     10  C   UNL     1     143.115 142.837 164.543  1.00  0.00     0.057 C 
BRANCH  10  11
ATOM     11  C   UNL     1     144.075 143.873 165.085  1.00  0.00    -0.026 C 
ATOM     12  C   UNL     1     144.741 144.832 164.401  1.00  0.00    -0.024 C 
BRANCH  12  13
ATOM     13  C   UNL     1     144.704 145.139 162.900  1.00  0.00    -0.014 C 
ATOM     14  C   UNL     1     143.263 145.496 162.473  1.00  0.00     0.016 C 
ATOM     15  C   UNL     1     145.578 146.390 162.634  1.00  0.00     0.016 C 
BRANCH  13  16
ATOM     16  C   UNL     1     145.240 143.962 162.038  1.00  0.00     0.038 CG0
ATOM     17  G   UNL     1     144.145 143.204 161.314  1.00  0.00     0.000 G0
ENDBRANCH  13  16
ENDBRANCH  12  13
ENDBRANCH  10  11
ENDBRANCH   1  10
TORSDOF 0
ENDMDL
