MODEL 1
REMARK VINA RESULT:    -3.206      0.000      0.000
REMARK INTER + INTRA:          -5.197
REMARK INTER:                  -4.330
REMARK INTRA:                  -0.867
REMARK UNBOUND:                -0.867
REMARK SMILES CCCCCCC=CC(=O)[O-]
REMARK SMILES IDX 5 1 6 2 7 3 8 4 9 5 10 6 11 7 4 8 3 9 2 10 1 11
REMARK H PARENT
REMARK Flexibility Score: inf
ROOT
ATOM      1  C   UNL     1      40.776 184.909 172.579  1.00  0.00     0.004 C 
ENDROOT
BRANCH   1   2
ATOM      2  C   UNL     1      39.298 185.310 172.439  1.00  0.00     0.027 C 
BRANCH   2   3
ATOM      3  C   UNL     1      38.369 184.130 172.560  1.00  0.00    -0.025 C 
ATOM      4  C   UNL     1      37.811 183.456 171.541  1.00  0.00     0.020 C 
BRANCH   4   5
ATOM      5  C   UNL     1      38.027 183.699 170.099  1.00  0.00     0.064 C 
ATOM      6  O   UNL     1      37.199 184.335 169.396  1.00  0.00    -0.545 OA
ATOM      7  O   UNL     1      39.194 183.233 169.508  1.00  0.00    -0.545 OA
ENDBRANCH   4   5
ENDBRANCH   2   3
ENDBRANCH   1   2
BRANCH   1   8
ATOM      8  C   UNL     1      41.049 184.164 173.894  1.00  0.00     0.000 C 
BRANCH   8   9
ATOM      9  C   UNL     1      41.694 182.800 173.629  1.00  0.00    -0.000 C 
BRANCH   9  10
ATOM     10  C   UNL     1      41.728 182.488 172.129  1.00  0.00    -0.003 C 
ATOM     11  C   UNL     1      40.961 181.207 171.813  1.00  0.00     0.004 C 
ENDBRANCH   9  10
ENDBRANCH   8   9
ENDBRANCH   1   8
TORSDOF 6
ENDMDL
MODEL 2
REMARK VINA RESULT:    -3.133     21.370     22.813
REMARK INTER + INTRA:          -5.099
REMARK INTER:                  -4.533
REMARK INTRA:                  -0.565
REMARK UNBOUND:                -0.867
REMARK SMILES CCCCCCC=CC(=O)[O-]
REMARK SMILES IDX 5 1 6 2 7 3 8 4 9 5 10 6 11 7 4 8 3 9 2 10 1 11
REMARK H PARENT
REMARK Flexibility Score: inf
ROOT
ATOM      1  C   UNL     1      33.936 168.180 155.953  1.00  0.00     0.004 C 
ENDROOT
BRANCH   1   2
ATOM      2  C   UNL     1      33.169 167.898 157.255  1.00  0.00     0.027 C 
BRANCH   2   3
ATOM      3  C   UNL     1      32.202 169.000 157.601  1.00  0.00    -0.025 C 
ATOM      4  C   UNL     1      31.362 169.013 158.651  1.00  0.00     0.020 C 
BRANCH   4   5
ATOM      5  C   UNL     1      31.248 167.981 159.702  1.00  0.00     0.064 C 
ATOM      6  O   UNL     1      30.326 167.125 159.703  1.00  0.00    -0.545 OA
ATOM      7  O   UNL     1      32.205 167.940 160.707  1.00  0.00    -0.545 OA
ENDBRANCH   4   5
ENDBRANCH   2   3
ENDBRANCH   1   2
BRANCH   1   8
ATOM      8  C   UNL     1      33.350 169.375 155.186  1.00  0.00     0.000 C 
BRANCH   8   9
ATOM      9  C   UNL     1      32.698 168.920 153.876  1.00  0.00    -0.000 C 
BRANCH   9  10
ATOM     10  C   UNL     1      31.182 169.142 153.909  1.00  0.00    -0.003 C 
ATOM     11  C   UNL     1      30.842 170.626 154.003  1.00  0.00     0.004 C 
ENDBRANCH   9  10
ENDBRANCH   8   9
ENDBRANCH   1   8
TORSDOF 6
ENDMDL
MODEL 3
REMARK VINA RESULT:    -3.100      1.405      2.127
REMARK INTER + INTRA:          -5.054
REMARK INTER:                  -4.380
REMARK INTRA:                  -0.674
REMARK UNBOUND:                -0.867
REMARK SMILES CCCCCCC=CC(=O)[O-]
REMARK SMILES IDX 5 1 6 2 7 3 8 4 9 5 10 6 11 7 4 8 3 9 2 10 1 11
REMARK H PARENT
REMARK Flexibility Score: inf
ROOT
ATOM      1  C   UNL     1      41.045 183.739 174.021  1.00  0.00     0.004 C 
ENDROOT
BRANCH   1   2
ATOM      2  C   UNL     1      41.091 184.678 172.804  1.00  0.00     0.027 C 
BRANCH   2   3
ATOM      3  C   UNL     1      39.773 185.367 172.563  1.00  0.00    -0.025 C 
ATOM      4  C   UNL     1      38.722 184.853 171.900  1.00  0.00     0.020 C 
BRANCH   4   5
ATOM      5  C   UNL     1      38.624 183.499 171.318  1.00  0.00     0.064 C 
ATOM      6  O   UNL     1      39.034 183.237 170.157  1.00  0.00    -0.545 OA
ATOM      7  O   UNL     1      38.084 182.477 172.087  1.00  0.00    -0.545 OA
ENDBRANCH   4   5
ENDBRANCH   2   3
ENDBRANCH   1   2
BRANCH   1   8
ATOM      8  C   UNL     1      41.409 182.295 173.649  1.00  0.00     0.000 C 
BRANCH   8   9
ATOM      9  C   UNL     1      41.888 182.206 172.195  1.00  0.00    -0.000 C 
BRANCH   9  10
ATOM     10  C   UNL     1      43.264 181.534 172.109  1.00  0.00    -0.003 C 
ATOM     11  C   UNL     1      43.853 181.303 173.497  1.00  0.00     0.004 C 
ENDBRANCH   9  10
ENDBRANCH   8   9
ENDBRANCH   1   8
TORSDOF 6
ENDMDL
MODEL 4
REMARK VINA RESULT:    -3.039     21.377     22.773
REMARK INTER + INTRA:          -4.972
REMARK INTER:                  -4.467
REMARK INTRA:                  -0.506
REMARK UNBOUND:                -0.867
REMARK SMILES CCCCCCC=CC(=O)[O-]
REMARK SMILES IDX 5 1 6 2 7 3 8 4 9 5 10 6 11 7 4 8 3 9 2 10 1 11
REMARK H PARENT
REMARK Flexibility Score: inf
ROOT
ATOM      1  C   UNL     1      33.701 167.758 156.938  1.00  0.00     0.004 C 
ENDROOT
BRANCH   1   2
ATOM      2  C   UNL     1      33.385 169.139 156.341  1.00  0.00     0.027 C 
BRANCH   2   3
ATOM      3  C   UNL     1      33.510 169.155 154.839  1.00  0.00    -0.025 C 
ATOM      4  C   UNL     1      32.513 169.382 153.967  1.00  0.00     0.020 C 
BRANCH   4   5
ATOM      5  C   UNL     1      31.110 169.708 154.295  1.00  0.00     0.064 C 
ATOM      6  O   UNL     1      30.304 168.841 154.723  1.00  0.00    -0.545 OA
ATOM      7  O   UNL     1      30.674 171.018 154.152  1.00  0.00    -0.545 OA
ENDBRANCH   4   5
ENDBRANCH   2   3
ENDBRANCH   1   2
BRANCH   1   8
ATOM      8  C   UNL     1      32.582 167.262 157.866  1.00  0.00     0.000 C 
BRANCH   8   9
ATOM      9  C   UNL     1      31.627 168.403 158.234  1.00  0.00    -0.000 C 
BRANCH   9  10
ATOM     10  C   UNL     1      31.288 168.376 159.729  1.00  0.00    -0.003 C 
ATOM     11  C   UNL     1      32.330 167.589 160.518  1.00  0.00     0.004 C 
ENDBRANCH   9  10
ENDBRANCH   8   9
ENDBRANCH   1   8
TORSDOF 6
ENDMDL
MODEL 5
REMARK VINA RESULT:    -2.977      1.589      1.946
REMARK INTER + INTRA:          -4.888
REMARK INTER:                  -4.377
REMARK INTRA:                  -0.511
REMARK UNBOUND:                -0.867
REMARK SMILES CCCCCCC=CC(=O)[O-]
REMARK SMILES IDX 5 1 6 2 7 3 8 4 9 5 10 6 11 7 4 8 3 9 2 10 1 11
REMARK H PARENT
REMARK Flexibility Score: inf
ROOT
ATOM      1  C   UNL     1      39.861 183.653 173.138  1.00  0.00     0.004 C 
ENDROOT
BRANCH   1   2
ATOM      2  C   UNL     1      39.056 182.742 172.196  1.00  0.00     0.027 C 
BRANCH   2   3
ATOM      3  C   UNL     1      39.406 182.963 170.747  1.00  0.00    -0.025 C 
ATOM      4  C   UNL     1      38.638 183.581 169.834  1.00  0.00     0.020 C 
BRANCH   4   5
ATOM      5  C   UNL     1      37.322 184.210 170.068  1.00  0.00     0.064 C 
ATOM      6  O   UNL     1      36.249 183.687 169.668  1.00  0.00    -0.545 OA
ATOM      7  O   UNL     1      37.265 185.403 170.775  1.00  0.00    -0.545 OA
ENDBRANCH   4   5
ENDBRANCH   2   3
ENDBRANCH   1   2
BRANCH   1   8
ATOM      8  C   UNL     1      41.373 183.541 172.895  1.00  0.00     0.000 C 
BRANCH   8   9
ATOM      9  C   UNL     1      41.964 182.348 173.655  1.00  0.00    -0.000 C 
BRANCH   9  10
ATOM     10  C   UNL     1      42.273 181.187 172.702  1.00  0.00    -0.003 C 
ATOM     11  C   UNL     1      43.514 181.478 171.863  1.00  0.00     0.004 C 
ENDBRANCH   9  10
ENDBRANCH   8   9
ENDBRANCH   1   8
TORSDOF 6
ENDMDL
MODEL 6
REMARK VINA RESULT:    -2.950     21.939     22.979
REMARK INTER + INTRA:          -4.851
REMARK INTER:                  -4.122
REMARK INTRA:                  -0.729
REMARK UNBOUND:                -0.867
REMARK SMILES CCCCCCC=CC(=O)[O-]
REMARK SMILES IDX 5 1 6 2 7 3 8 4 9 5 10 6 11 7 4 8 3 9 2 10 1 11
REMARK H PARENT
REMARK Flexibility Score: inf
ROOT
ATOM      1  C   UNL     1      33.281 167.090 156.577  1.00  0.00     0.004 C 
ENDROOT
BRANCH   1   2
ATOM      2  C   UNL     1      32.566 166.980 157.934  1.00  0.00     0.027 C 
BRANCH   2   3
ATOM      3  C   UNL     1      32.249 168.329 158.525  1.00  0.00    -0.025 C 
ATOM      4  C   UNL     1      31.098 169.006 158.379  1.00  0.00     0.020 C 
BRANCH   4   5
ATOM      5  C   UNL     1      29.894 168.550 157.653  1.00  0.00     0.064 C 
ATOM      6  O   UNL     1      29.091 167.715 158.145  1.00  0.00    -0.545 OA
ATOM      7  O   UNL     1      29.626 169.081 156.398  1.00  0.00    -0.545 OA
ENDBRANCH   4   5
ENDBRANCH   2   3
ENDBRANCH   1   2
BRANCH   1   8
ATOM      8  C   UNL     1      34.249 168.280 156.530  1.00  0.00     0.000 C 
BRANCH   8   9
ATOM      9  C   UNL     1      34.016 169.130 155.276  1.00  0.00    -0.000 C 
BRANCH   9  10
ATOM     10  C   UNL     1      32.752 168.680 154.533  1.00  0.00    -0.003 C 
ATOM     11  C   UNL     1      32.035 169.867 153.896  1.00  0.00     0.004 C 
ENDBRANCH   9  10
ENDBRANCH   8   9
ENDBRANCH   1   8
TORSDOF 6
ENDMDL
MODEL 7
REMARK VINA RESULT:    -2.908     20.873     22.484
REMARK INTER + INTRA:          -4.795
REMARK INTER:                  -4.491
REMARK INTRA:                  -0.304
REMARK UNBOUND:                -0.867
REMARK SMILES CCCCCCC=CC(=O)[O-]
REMARK SMILES IDX 5 1 6 2 7 3 8 4 9 5 10 6 11 7 4 8 3 9 2 10 1 11
REMARK H PARENT
REMARK Flexibility Score: inf
ROOT
ATOM      1  C   UNL     1      32.658 167.599 158.381  1.00  0.00     0.004 C 
ENDROOT
BRANCH   1   2
ATOM      2  C   UNL     1      33.283 167.151 157.049  1.00  0.00     0.027 C 
BRANCH   2   3
ATOM      3  C   UNL     1      34.247 168.169 156.497  1.00  0.00    -0.025 C 
ATOM      4  C   UNL     1      34.007 169.013 155.479  1.00  0.00     0.020 C 
BRANCH   4   5
ATOM      5  C   UNL     1      32.742 169.152 154.728  1.00  0.00     0.064 C 
ATOM      6  O   UNL     1      32.373 168.302 153.876  1.00  0.00    -0.545 OA
ATOM      7  O   UNL     1      31.923 170.242 154.989  1.00  0.00    -0.545 OA
ENDBRANCH   4   5
ENDBRANCH   2   3
ENDBRANCH   1   2
BRANCH   1   8
ATOM      8  C   UNL     1      31.625 168.718 158.186  1.00  0.00     0.000 C 
BRANCH   8   9
ATOM      9  C   UNL     1      30.893 169.024 159.496  1.00  0.00    -0.000 C 
BRANCH   9  10
ATOM     10  C   UNL     1      29.482 169.561 159.227  1.00  0.00    -0.003 C 
ATOM     11  C   UNL     1      29.084 170.610 160.261  1.00  0.00     0.004 C 
ENDBRANCH   9  10
ENDBRANCH   8   9
ENDBRANCH   1   8
TORSDOF 6
ENDMDL
MODEL 8
REMARK VINA RESULT:    -2.475     21.927     23.309
REMARK INTER + INTRA:          -4.210
REMARK INTER:                  -3.394
REMARK INTRA:                  -0.816
REMARK UNBOUND:                -0.867
REMARK SMILES CCCCCCC=CC(=O)[O-]
REMARK SMILES IDX 5 1 6 2 7 3 8 4 9 5 10 6 11 7 4 8 3 9 2 10 1 11
REMARK H PARENT
REMARK Flexibility Score: inf
ROOT
ATOM      1  C   UNL     1      33.765 168.950 154.998  1.00  0.00     0.004 C 
ENDROOT
BRANCH   1   2
ATOM      2  C   UNL     1      34.265 168.518 156.386  1.00  0.00     0.027 C 
BRANCH   2   3
ATOM      3  C   UNL     1      33.771 167.147 156.772  1.00  0.00    -0.025 C 
ATOM      4  C   UNL     1      32.851 166.875 157.714  1.00  0.00     0.020 C 
BRANCH   4   5
ATOM      5  C   UNL     1      32.104 167.857 158.527  1.00  0.00     0.064 C 
ATOM      6  O   UNL     1      31.255 168.637 158.021  1.00  0.00    -0.545 OA
ATOM      7  O   UNL     1      32.327 167.903 159.896  1.00  0.00    -0.545 OA
ENDBRANCH   4   5
ENDBRANCH   2   3
ENDBRANCH   1   2
BRANCH   1   8
ATOM      8  C   UNL     1      32.548 169.881 155.087  1.00  0.00     0.000 C 
BRANCH   8   9
ATOM      9  C   UNL     1      31.454 169.452 154.103  1.00  0.00    -0.000 C 
BRANCH   9  10
ATOM     10  C   UNL     1      31.482 167.936 153.875  1.00  0.00    -0.003 C 
ATOM     11  C   UNL     1      30.412 167.233 154.706  1.00  0.00     0.004 C 
ENDBRANCH   9  10
ENDBRANCH   8   9
ENDBRANCH   1   8
TORSDOF 6
ENDMDL
