MODEL 1
REMARK VINA RESULT:    -4.332      0.000      0.000
REMARK INTER + INTRA:          -8.974
REMARK INTER:                  -7.877
REMARK INTRA:                  -1.097
REMARK UNBOUND:                -1.097
REMARK SMILES CCCCCCCCCCCCCCCC(=O)[O-]
REMARK SMILES IDX 9 1 10 2 11 3 12 4 13 5 14 6 15 7 16 8 17 9 18 10 8 11 7 12
REMARK SMILES IDX 6 13 5 14 4 15 3 16 2 17 1 18
REMARK H PARENT
REMARK Flexibility Score: inf
ROOT
ATOM      1  C   UNL     1      15.505  12.290  17.366  1.00  0.00     0.000 C 
ENDROOT
BRANCH   1   2
ATOM      2  C   UNL     1      15.974  11.901  18.780  1.00  0.00     0.000 C 
BRANCH   2   3
ATOM      3  C   UNL     1      17.147  12.733  19.332  1.00  0.00     0.000 C 
BRANCH   3   4
ATOM      4  C   UNL     1      18.300  12.880  18.323  1.00  0.00     0.000 C 
BRANCH   4   5
ATOM      5  C   UNL     1      18.992  11.541  18.018  1.00  0.00     0.000 C 
BRANCH   5   6
ATOM      6  C   UNL     1      19.531  11.462  16.582  1.00  0.00     0.006 C 
BRANCH   6   7
ATOM      7  C   UNL     1      19.124  12.699  15.776  1.00  0.00     0.053 C 
BRANCH   7   8
ATOM      8  C   UNL     1      18.636  12.305  14.418  1.00  0.00     0.041 C 
ATOM      9  O   UNL     1      17.935  11.268  14.273  1.00  0.00    -0.550 OA
ATOM     10  O   UNL     1      18.995  13.054  13.305  1.00  0.00    -0.550 OA
ENDBRANCH   7   8
ENDBRANCH   6   7
ENDBRANCH   5   6
ENDBRANCH   4   5
ENDBRANCH   3   4
ENDBRANCH   2   3
ENDBRANCH   1   2
BRANCH   1  11
ATOM     11  C   UNL     1      13.973  12.317  17.231  1.00  0.00     0.000 C 
BRANCH  11  12
ATOM     12  C   UNL     1      13.254  11.853  18.509  1.00  0.00    -0.000 C 
BRANCH  12  13
ATOM     13  C   UNL     1      11.722  12.032  18.461  1.00  0.00    -0.000 C 
BRANCH  13  14
ATOM     14  C   UNL     1      11.043  11.567  19.759  1.00  0.00    -0.000 C 
BRANCH  14  15
ATOM     15  C   UNL     1      11.839  10.435  20.423  1.00  0.00    -0.000 C 
BRANCH  15  16
ATOM     16  C   UNL     1      10.939   9.332  21.009  1.00  0.00    -0.000 C 
BRANCH  16  17
ATOM     17  C   UNL     1       9.615   9.109  20.257  1.00  0.00    -0.003 C 
ATOM     18  C   UNL     1       9.762   8.189  19.047  1.00  0.00     0.004 C 
ENDBRANCH  16  17
ENDBRANCH  15  16
ENDBRANCH  14  15
ENDBRANCH  13  14
ENDBRANCH  12  13
ENDBRANCH  11  12
ENDBRANCH   1  11
TORSDOF 14
ENDMDL
MODEL 2
REMARK VINA RESULT:    -4.331      4.906      6.798
REMARK INTER + INTRA:          -8.973
REMARK INTER:                  -7.810
REMARK INTRA:                  -1.162
REMARK UNBOUND:                -1.097
REMARK SMILES CCCCCCCCCCCCCCCC(=O)[O-]
REMARK SMILES IDX 9 1 10 2 11 3 12 4 13 5 14 6 15 7 16 8 17 9 18 10 8 11 7 12
REMARK SMILES IDX 6 13 5 14 4 15 3 16 2 17 1 18
REMARK H PARENT
REMARK Flexibility Score: inf
ROOT
ATOM      1  C   UNL     1      13.393  11.881  13.625  1.00  0.00     0.000 C 
ENDROOT
BRANCH   1   2
ATOM      2  C   UNL     1      14.265  11.157  14.667  1.00  0.00     0.000 C 
BRANCH   2   3
ATOM      3  C   UNL     1      15.497  11.946  15.149  1.00  0.00     0.000 C 
BRANCH   3   4
ATOM      4  C   UNL     1      16.789  11.540  14.418  1.00  0.00     0.000 C 
BRANCH   4   5
ATOM      5  C   UNL     1      17.870  12.632  14.476  1.00  0.00     0.000 C 
BRANCH   5   6
ATOM      6  C   UNL     1      19.072  12.237  15.345  1.00  0.00     0.006 C 
BRANCH   6   7
ATOM      7  C   UNL     1      18.992  12.899  16.723  1.00  0.00     0.053 C 
BRANCH   7   8
ATOM      8  C   UNL     1      19.056  11.868  17.806  1.00  0.00     0.041 C 
ATOM      9  O   UNL     1      19.979  11.012  17.812  1.00  0.00    -0.550 OA
ATOM     10  O   UNL     1      18.068  11.822  18.782  1.00  0.00    -0.550 OA
ENDBRANCH   7   8
ENDBRANCH   6   7
ENDBRANCH   5   6
ENDBRANCH   4   5
ENDBRANCH   3   4
ENDBRANCH   2   3
ENDBRANCH   1   2
BRANCH   1  11
ATOM     11  C   UNL     1      12.375  10.948  12.946  1.00  0.00     0.000 C 
BRANCH  11  12
ATOM     12  C   UNL     1      12.290  11.165  11.425  1.00  0.00    -0.000 C 
BRANCH  12  13
ATOM     13  C   UNL     1      13.143  12.345  10.917  1.00  0.00    -0.000 C 
BRANCH  13  14
ATOM     14  C   UNL     1      12.412  13.171   9.847  1.00  0.00    -0.000 C 
BRANCH  14  15
ATOM     15  C   UNL     1      12.290  14.641  10.273  1.00  0.00    -0.000 C 
BRANCH  15  16
ATOM     16  C   UNL     1      10.845  15.051  10.608  1.00  0.00    -0.000 C 
BRANCH  16  17
ATOM     17  C   UNL     1      10.506  15.059  12.109  1.00  0.00    -0.003 C 
ATOM     18  C   UNL     1       9.855  13.761  12.582  1.00  0.00     0.004 C 
ENDBRANCH  16  17
ENDBRANCH  15  16
ENDBRANCH  14  15
ENDBRANCH  13  14
ENDBRANCH  12  13
ENDBRANCH  11  12
ENDBRANCH   1  11
TORSDOF 14
ENDMDL
MODEL 3
REMARK VINA RESULT:    -4.314      3.566      5.469
REMARK INTER + INTRA:          -8.941
REMARK INTER:                  -7.908
REMARK INTRA:                  -1.034
REMARK UNBOUND:                -1.097
REMARK SMILES CCCCCCCCCCCCCCCC(=O)[O-]
REMARK SMILES IDX 9 1 10 2 11 3 12 4 13 5 14 6 15 7 16 8 17 9 18 10 8 11 7 12
REMARK SMILES IDX 6 13 5 14 4 15 3 16 2 17 1 18
REMARK H PARENT
REMARK Flexibility Score: inf
ROOT
ATOM      1  C   UNL     1      15.721  12.305  16.993  1.00  0.00     0.000 C 
ENDROOT
BRANCH   1   2
ATOM      2  C   UNL     1      15.765  12.012  18.505  1.00  0.00     0.000 C 
BRANCH   2   3
ATOM      3  C   UNL     1      17.179  11.898  19.106  1.00  0.00     0.000 C 
BRANCH   3   4
ATOM      4  C   UNL     1      18.254  12.570  18.234  1.00  0.00     0.000 C 
BRANCH   4   5
ATOM      5  C   UNL     1      19.388  11.606  17.846  1.00  0.00     0.000 C 
BRANCH   5   6
ATOM      6  C   UNL     1      19.549  11.456  16.326  1.00  0.00     0.006 C 
BRANCH   6   7
ATOM      7  C   UNL     1      19.068  12.714  15.598  1.00  0.00     0.053 C 
BRANCH   7   8
ATOM      8  C   UNL     1      18.434  12.355  14.291  1.00  0.00     0.041 C 
ATOM      9  O   UNL     1      18.078  11.168  14.064  1.00  0.00    -0.550 OA
ATOM     10  O   UNL     1      18.280  13.320  13.304  1.00  0.00    -0.550 OA
ENDBRANCH   7   8
ENDBRANCH   6   7
ENDBRANCH   5   6
ENDBRANCH   4   5
ENDBRANCH   3   4
ENDBRANCH   2   3
ENDBRANCH   1   2
BRANCH   1  11
ATOM     11  C   UNL     1      14.420  11.821  16.329  1.00  0.00     0.000 C 
BRANCH  11  12
ATOM     12  C   UNL     1      14.584  11.554  14.823  1.00  0.00    -0.000 C 
BRANCH  12  13
ATOM     13  C   UNL     1      13.272  11.156  14.115  1.00  0.00    -0.000 C 
BRANCH  13  14
ATOM     14  C   UNL     1      13.007  12.008  12.865  1.00  0.00    -0.000 C 
BRANCH  14  15
ATOM     15  C   UNL     1      12.261  11.199  11.794  1.00  0.00    -0.000 C 
BRANCH  15  16
ATOM     16  C   UNL     1      12.180  11.926  10.440  1.00  0.00    -0.000 C 
BRANCH  16  17
ATOM     17  C   UNL     1      13.106  13.147  10.305  1.00  0.00    -0.003 C 
ATOM     18  C   UNL     1      12.348  14.473  10.274  1.00  0.00     0.004 C 
ENDBRANCH  16  17
ENDBRANCH  15  16
ENDBRANCH  14  15
ENDBRANCH  13  14
ENDBRANCH  12  13
ENDBRANCH  11  12
ENDBRANCH   1  11
TORSDOF 14
ENDMDL
MODEL 4
REMARK VINA RESULT:    -4.300      4.544      7.647
REMARK INTER + INTRA:          -8.917
REMARK INTER:                  -7.847
REMARK INTRA:                  -1.069
REMARK UNBOUND:                -1.097
REMARK SMILES CCCCCCCCCCCCCCCC(=O)[O-]
REMARK SMILES IDX 9 1 10 2 11 3 12 4 13 5 14 6 15 7 16 8 17 9 18 10 8 11 7 12
REMARK SMILES IDX 6 13 5 14 4 15 3 16 2 17 1 18
REMARK H PARENT
REMARK Flexibility Score: inf
ROOT
ATOM      1  C   UNL     1      15.059  11.939  15.720  1.00  0.00     0.000 C 
ENDROOT
BRANCH   1   2
ATOM      2  C   UNL     1      14.251  11.044  14.762  1.00  0.00     0.000 C 
BRANCH   2   3
ATOM      3  C   UNL     1      13.281  11.794  13.830  1.00  0.00     0.000 C 
BRANCH   3   4
ATOM      4  C   UNL     1      12.495  10.851  12.902  1.00  0.00     0.000 C 
BRANCH   4   5
ATOM      5  C   UNL     1      12.412  11.375  11.459  1.00  0.00     0.000 C 
BRANCH   5   6
ATOM      6  C   UNL     1      13.107  12.732  11.277  1.00  0.00     0.006 C 
BRANCH   6   7
ATOM      7  C   UNL     1      12.506  13.500  10.097  1.00  0.00     0.053 C 
BRANCH   7   8
ATOM      8  C   UNL     1      11.805  14.733  10.574  1.00  0.00     0.041 C 
ATOM      9  O   UNL     1      11.323  14.777  11.737  1.00  0.00    -0.550 OA
ATOM     10  O   UNL     1      11.639  15.814   9.719  1.00  0.00    -0.550 OA
ENDBRANCH   7   8
ENDBRANCH   6   7
ENDBRANCH   5   6
ENDBRANCH   4   5
ENDBRANCH   3   4
ENDBRANCH   2   3
ENDBRANCH   1   2
BRANCH   1  11
ATOM     11  C   UNL     1      14.410  12.068  17.109  1.00  0.00     0.000 C 
BRANCH  11  12
ATOM     12  C   UNL     1      15.437  12.033  18.253  1.00  0.00    -0.000 C 
BRANCH  12  13
ATOM     13  C   UNL     1      16.825  12.582  17.860  1.00  0.00    -0.000 C 
BRANCH  13  14
ATOM     14  C   UNL     1      17.968  11.786  18.508  1.00  0.00    -0.000 C 
BRANCH  14  15
ATOM     15  C   UNL     1      19.232  11.826  17.636  1.00  0.00    -0.000 C 
BRANCH  15  16
ATOM     16  C   UNL     1      19.050  12.658  16.354  1.00  0.00    -0.000 C 
BRANCH  16  17
ATOM     17  C   UNL     1      18.819  11.835  15.075  1.00  0.00    -0.003 C 
ATOM     18  C   UNL     1      18.091  12.617  13.984  1.00  0.00     0.004 C 
ENDBRANCH  16  17
ENDBRANCH  15  16
ENDBRANCH  14  15
ENDBRANCH  13  14
ENDBRANCH  12  13
ENDBRANCH  11  12
ENDBRANCH   1  11
TORSDOF 14
ENDMDL
MODEL 5
REMARK VINA RESULT:    -4.250      4.835      6.844
REMARK INTER + INTRA:          -8.824
REMARK INTER:                  -8.062
REMARK INTRA:                  -0.762
REMARK UNBOUND:                -1.097
REMARK SMILES CCCCCCCCCCCCCCCC(=O)[O-]
REMARK SMILES IDX 9 1 10 2 11 3 12 4 13 5 14 6 15 7 16 8 17 9 18 10 8 11 7 12
REMARK SMILES IDX 6 13 5 14 4 15 3 16 2 17 1 18
REMARK H PARENT
REMARK Flexibility Score: inf
ROOT
ATOM      1  C   UNL     1      15.051  10.974  14.740  1.00  0.00     0.000 C 
ENDROOT
BRANCH   1   2
ATOM      2  C   UNL     1      16.169  12.004  14.986  1.00  0.00     0.000 C 
BRANCH   2   3
ATOM      3  C   UNL     1      17.517  11.679  14.314  1.00  0.00     0.000 C 
BRANCH   3   4
ATOM      4  C   UNL     1      18.671  12.550  14.840  1.00  0.00     0.000 C 
BRANCH   4   5
ATOM      5  C   UNL     1      19.300  11.986  16.124  1.00  0.00     0.000 C 
BRANCH   5   6
ATOM      6  C   UNL     1      18.850  12.736  17.387  1.00  0.00     0.006 C 
BRANCH   6   7
ATOM      7  C   UNL     1      18.482  11.756  18.504  1.00  0.00     0.053 C 
BRANCH   7   8
ATOM      8  C   UNL     1      17.119  12.059  19.041  1.00  0.00     0.041 C 
ATOM      9  O   UNL     1      16.124  12.079  18.270  1.00  0.00    -0.550 OA
ATOM     10  O   UNL     1      16.955  12.367  20.386  1.00  0.00    -0.550 OA
ENDBRANCH   7   8
ENDBRANCH   6   7
ENDBRANCH   5   6
ENDBRANCH   4   5
ENDBRANCH   3   4
ENDBRANCH   2   3
ENDBRANCH   1   2
BRANCH   1  11
ATOM     11  C   UNL     1      13.671  11.624  14.548  1.00  0.00     0.000 C 
BRANCH  11  12
ATOM     12  C   UNL     1      12.963  11.152  13.266  1.00  0.00    -0.000 C 
BRANCH  12  13
ATOM     13  C   UNL     1      12.371  12.302  12.424  1.00  0.00    -0.000 C 
BRANCH  13  14
ATOM     14  C   UNL     1      13.463  13.152  11.757  1.00  0.00    -0.000 C 
BRANCH  14  15
ATOM     15  C   UNL     1      12.887  13.978  10.597  1.00  0.00    -0.000 C 
BRANCH  15  16
ATOM     16  C   UNL     1      11.543  14.644  10.943  1.00  0.00    -0.000 C 
BRANCH  16  17
ATOM     17  C   UNL     1      10.355  14.195  10.075  1.00  0.00    -0.003 C 
ATOM     18  C   UNL     1      10.169  15.054   8.826  1.00  0.00     0.004 C 
ENDBRANCH  16  17
ENDBRANCH  15  16
ENDBRANCH  14  15
ENDBRANCH  13  14
ENDBRANCH  12  13
ENDBRANCH  11  12
ENDBRANCH   1  11
TORSDOF 14
ENDMDL
MODEL 6
REMARK VINA RESULT:    -4.240      4.227      7.145
REMARK INTER + INTRA:          -8.808
REMARK INTER:                  -7.619
REMARK INTRA:                  -1.189
REMARK UNBOUND:                -1.097
REMARK SMILES CCCCCCCCCCCCCCCC(=O)[O-]
REMARK SMILES IDX 9 1 10 2 11 3 12 4 13 5 14 6 15 7 16 8 17 9 18 10 8 11 7 12
REMARK SMILES IDX 6 13 5 14 4 15 3 16 2 17 1 18
REMARK H PARENT
REMARK Flexibility Score: inf
ROOT
ATOM      1  C   UNL     1      16.741  12.087  14.271  1.00  0.00     0.000 C 
ENDROOT
BRANCH   1   2
ATOM      2  C   UNL     1      15.726  11.811  15.395  1.00  0.00     0.000 C 
BRANCH   2   3
ATOM      3  C   UNL     1      14.403  11.168  14.937  1.00  0.00     0.000 C 
BRANCH   3   4
ATOM      4  C   UNL     1      13.724  11.948  13.797  1.00  0.00     0.000 C 
BRANCH   4   5
ATOM      5  C   UNL     1      12.342  11.380  13.433  1.00  0.00     0.000 C 
BRANCH   5   6
ATOM      6  C   UNL     1      12.276  10.849  11.994  1.00  0.00     0.006 C 
BRANCH   6   7
ATOM      7  C   UNL     1      11.658  11.888  11.055  1.00  0.00     0.053 C 
BRANCH   7   8
ATOM      8  C   UNL     1      12.722  12.584  10.268  1.00  0.00     0.041 C 
ATOM      9  O   UNL     1      13.278  12.000   9.300  1.00  0.00    -0.550 OA
ATOM     10  O   UNL     1      13.136  13.860  10.632  1.00  0.00    -0.550 OA
ENDBRANCH   7   8
ENDBRANCH   6   7
ENDBRANCH   5   6
ENDBRANCH   4   5
ENDBRANCH   3   4
ENDBRANCH   2   3
ENDBRANCH   1   2
BRANCH   1  11
ATOM     11  C   UNL     1      18.167  11.635  14.629  1.00  0.00     0.000 C 
BRANCH  11  12
ATOM     12  C   UNL     1      19.122  12.815  14.876  1.00  0.00    -0.000 C 
BRANCH  12  13
ATOM     13  C   UNL     1      19.575  12.952  16.345  1.00  0.00    -0.000 C 
BRANCH  13  14
ATOM     14  C   UNL     1      19.877  11.589  16.988  1.00  0.00    -0.000 C 
BRANCH  14  15
ATOM     15  C   UNL     1      19.003  11.360  18.229  1.00  0.00    -0.000 C 
BRANCH  15  16
ATOM     16  C   UNL     1      17.966  12.475  18.448  1.00  0.00    -0.000 C 
BRANCH  16  17
ATOM     17  C   UNL     1      16.574  11.989  18.888  1.00  0.00    -0.003 C 
ATOM     18  C   UNL     1      16.581  11.314  20.258  1.00  0.00     0.004 C 
ENDBRANCH  16  17
ENDBRANCH  15  16
ENDBRANCH  14  15
ENDBRANCH  13  14
ENDBRANCH  12  13
ENDBRANCH  11  12
ENDBRANCH   1  11
TORSDOF 14
ENDMDL
MODEL 7
REMARK VINA RESULT:    -4.224      4.791      8.074
REMARK INTER + INTRA:          -8.778
REMARK INTER:                  -7.981
REMARK INTRA:                  -0.797
REMARK UNBOUND:                -1.097
REMARK SMILES CCCCCCCCCCCCCCCC(=O)[O-]
REMARK SMILES IDX 9 1 10 2 11 3 12 4 13 5 14 6 15 7 16 8 17 9 18 10 8 11 7 12
REMARK SMILES IDX 6 13 5 14 4 15 3 16 2 17 1 18
REMARK H PARENT
REMARK Flexibility Score: inf
ROOT
ATOM      1  C   UNL     1      14.924  11.092  14.798  1.00  0.00     0.000 C 
ENDROOT
BRANCH   1   2
ATOM      2  C   UNL     1      13.805  11.894  14.107  1.00  0.00     0.000 C 
BRANCH   2   3
ATOM      3  C   UNL     1      12.797  11.051  13.305  1.00  0.00     0.000 C 
BRANCH   3   4
ATOM      4  C   UNL     1      11.373  11.635  13.333  1.00  0.00     0.000 C 
BRANCH   4   5
ATOM      5  C   UNL     1      11.030  12.419  12.056  1.00  0.00     0.000 C 
BRANCH   5   6
ATOM      6  C   UNL     1      10.144  13.643  12.327  1.00  0.00     0.006 C 
BRANCH   6   7
ATOM      7  C   UNL     1      10.857  14.935  11.921  1.00  0.00     0.053 C 
BRANCH   7   8
ATOM      8  C   UNL     1      11.047  14.987  10.438  1.00  0.00     0.041 C 
ATOM      9  O   UNL     1      12.169  15.293   9.954  1.00  0.00    -0.550 OA
ATOM     10  O   UNL     1       9.974  14.745   9.590  1.00  0.00    -0.550 OA
ENDBRANCH   7   8
ENDBRANCH   6   7
ENDBRANCH   5   6
ENDBRANCH   4   5
ENDBRANCH   3   4
ENDBRANCH   2   3
ENDBRANCH   1   2
BRANCH   1  11
ATOM     11  C   UNL     1      16.113  11.970  15.225  1.00  0.00     0.000 C 
BRANCH  11  12
ATOM     12  C   UNL     1      17.215  12.042  14.154  1.00  0.00    -0.000 C 
BRANCH  12  13
ATOM     13  C   UNL     1      18.621  11.693  14.684  1.00  0.00    -0.000 C 
BRANCH  13  14
ATOM     14  C   UNL     1      19.079  12.658  15.789  1.00  0.00    -0.000 C 
BRANCH  14  15
ATOM     15  C   UNL     1      19.167  11.942  17.145  1.00  0.00    -0.000 C 
BRANCH  15  16
ATOM     16  C   UNL     1      18.343  12.636  18.244  1.00  0.00    -0.000 C 
BRANCH  16  17
ATOM     17  C   UNL     1      17.125  11.837  18.742  1.00  0.00    -0.003 C 
ATOM     18  C   UNL     1      17.015  11.802  20.265  1.00  0.00     0.004 C 
ENDBRANCH  16  17
ENDBRANCH  15  16
ENDBRANCH  14  15
ENDBRANCH  13  14
ENDBRANCH  12  13
ENDBRANCH  11  12
ENDBRANCH   1  11
TORSDOF 14
ENDMDL
MODEL 8
REMARK VINA RESULT:    -4.217      7.705     10.073
REMARK INTER + INTRA:          -8.765
REMARK INTER:                  -6.304
REMARK INTRA:                  -2.461
REMARK UNBOUND:                -1.097
REMARK SMILES CCCCCCCCCCCCCCCC(=O)[O-]
REMARK SMILES IDX 9 1 10 2 11 3 12 4 13 5 14 6 15 7 16 8 17 9 18 10 8 11 7 12
REMARK SMILES IDX 6 13 5 14 4 15 3 16 2 17 1 18
REMARK H PARENT
REMARK Flexibility Score: inf
ROOT
ATOM      1  C   UNL     1      11.685  14.286  11.385  1.00  0.00     0.000 C 
ENDROOT
BRANCH   1   2
ATOM      2  C   UNL     1      10.661  15.165  12.127  1.00  0.00     0.000 C 
BRANCH   2   3
ATOM      3  C   UNL     1       9.291  14.505  12.373  1.00  0.00     0.000 C 
BRANCH   3   4
ATOM      4  C   UNL     1       9.205  13.078  11.804  1.00  0.00     0.000 C 
BRANCH   4   5
ATOM      5  C   UNL     1       8.877  12.030  12.880  1.00  0.00     0.000 C 
BRANCH   5   6
ATOM      6  C   UNL     1       9.983  10.978  13.044  1.00  0.00     0.006 C 
BRANCH   6   7
ATOM      7  C   UNL     1      11.124  11.513  13.914  1.00  0.00     0.053 C 
BRANCH   7   8
ATOM      8  C   UNL     1      12.450  11.154  13.322  1.00  0.00     0.041 C 
ATOM      9  O   UNL     1      12.514  10.656  12.167  1.00  0.00    -0.550 OA
ATOM     10  O   UNL     1      13.612  11.323  14.064  1.00  0.00    -0.550 OA
ENDBRANCH   7   8
ENDBRANCH   6   7
ENDBRANCH   5   6
ENDBRANCH   4   5
ENDBRANCH   3   4
ENDBRANCH   2   3
ENDBRANCH   1   2
BRANCH   1  11
ATOM     11  C   UNL     1      12.169  14.917  10.068  1.00  0.00     0.000 C 
BRANCH  11  12
ATOM     12  C   UNL     1      11.138  15.878   9.453  1.00  0.00    -0.000 C 
BRANCH  12  13
ATOM     13  C   UNL     1      10.383  15.289   8.243  1.00  0.00    -0.000 C 
BRANCH  13  14
ATOM     14  C   UNL     1       9.124  14.516   8.665  1.00  0.00    -0.000 C 
BRANCH  14  15
ATOM     15  C   UNL     1       9.026  13.175   7.924  1.00  0.00    -0.000 C 
BRANCH  15  16
ATOM     16  C   UNL     1      10.400  12.537   7.651  1.00  0.00    -0.000 C 
BRANCH  16  17
ATOM     17  C   UNL     1      10.946  11.661   8.793  1.00  0.00    -0.003 C 
ATOM     18  C   UNL     1      12.462  11.487   8.741  1.00  0.00     0.004 C 
ENDBRANCH  16  17
ENDBRANCH  15  16
ENDBRANCH  14  15
ENDBRANCH  13  14
ENDBRANCH  12  13
ENDBRANCH  11  12
ENDBRANCH   1  11
TORSDOF 14
ENDMDL
MODEL 9
REMARK VINA RESULT:    -4.122      5.998      9.061
REMARK INTER + INTRA:          -8.593
REMARK INTER:                  -6.975
REMARK INTRA:                  -1.618
REMARK UNBOUND:                -1.097
REMARK SMILES CCCCCCCCCCCCCCCC(=O)[O-]
REMARK SMILES IDX 9 1 10 2 11 3 12 4 13 5 14 6 15 7 16 8 17 9 18 10 8 11 7 12
REMARK SMILES IDX 6 13 5 14 4 15 3 16 2 17 1 18
REMARK H PARENT
REMARK Flexibility Score: inf
ROOT
ATOM      1  C   UNL     1       8.965  13.651  13.248  1.00  0.00     0.000 C 
ENDROOT
BRANCH   1   2
ATOM      2  C   UNL     1       8.930  12.176  12.805  1.00  0.00     0.000 C 
BRANCH   2   3
ATOM      3  C   UNL     1       9.121  11.150  13.938  1.00  0.00     0.000 C 
BRANCH   3   4
ATOM      4  C   UNL     1      10.083  11.643  15.034  1.00  0.00     0.000 C 
BRANCH   4   5
ATOM      5  C   UNL     1       9.420  11.700  16.420  1.00  0.00     0.000 C 
BRANCH   5   6
ATOM      6  C   UNL     1      10.432  11.907  17.557  1.00  0.00     0.006 C 
BRANCH   6   7
ATOM      7  C   UNL     1      10.096  11.017  18.757  1.00  0.00     0.053 C 
BRANCH   7   8
ATOM      8  C   UNL     1      11.092  11.218  19.855  1.00  0.00     0.041 C 
ATOM      9  O   UNL     1      10.819  11.969  20.828  1.00  0.00    -0.550 OA
ATOM     10  O   UNL     1      12.341  10.614  19.780  1.00  0.00    -0.550 OA
ENDBRANCH   7   8
ENDBRANCH   6   7
ENDBRANCH   5   6
ENDBRANCH   4   5
ENDBRANCH   3   4
ENDBRANCH   2   3
ENDBRANCH   1   2
BRANCH   1  11
ATOM     11  C   UNL     1       9.249  14.617  12.086  1.00  0.00     0.000 C 
BRANCH  11  12
ATOM     12  C   UNL     1      10.693  15.147  12.091  1.00  0.00    -0.000 C 
BRANCH  12  13
ATOM     13  C   UNL     1      11.371  15.121  10.705  1.00  0.00    -0.000 C 
BRANCH  13  14
ATOM     14  C   UNL     1      12.194  13.842  10.487  1.00  0.00    -0.000 C 
BRANCH  14  15
ATOM     15  C   UNL     1      12.901  13.413  11.781  1.00  0.00    -0.000 C 
BRANCH  15  16
ATOM     16  C   UNL     1      12.588  11.961  12.183  1.00  0.00    -0.000 C 
BRANCH  16  17
ATOM     17  C   UNL     1      12.392  10.990  11.005  1.00  0.00    -0.003 C 
ATOM     18  C   UNL     1      11.368   9.895  11.296  1.00  0.00     0.004 C 
ENDBRANCH  16  17
ENDBRANCH  15  16
ENDBRANCH  14  15
ENDBRANCH  13  14
ENDBRANCH  12  13
ENDBRANCH  11  12
ENDBRANCH   1  11
TORSDOF 14
ENDMDL
