MODEL 1
REMARK VINA RESULT:    -1.035      0.000      0.000
REMARK INTER + INTRA:          -3.276
REMARK INTER:                  -2.367
REMARK INTRA:                  -0.909
REMARK UNBOUND:                -0.909
REMARK SMILES CCCCCCCCCCCCCCCCCCCCCCCC(=O)[O-]
REMARK SMILES IDX 13 1 14 2 15 3 16 4 17 5 18 6 19 7 20 8 21 9 22 10 23 11
REMARK SMILES IDX 24 12 25 13 26 14 12 15 11 16 10 17 9 18 8 19 7 20 6 21 5 22
REMARK SMILES IDX 4 23 3 24 2 25 1 26
REMARK H PARENT
REMARK Flexibility Score: inf
ROOT
ATOM      1  C   UNL     1       0.447  -6.726  -9.517  1.00  0.00     0.000 C 
ENDROOT
BRANCH   1   2
ATOM      2  C   UNL     1       1.254  -7.894 -10.113  1.00  0.00     0.000 C 
BRANCH   2   3
ATOM      3  C   UNL     1       1.784  -8.915  -9.084  1.00  0.00     0.000 C 
BRANCH   3   4
ATOM      4  C   UNL     1       1.275  -8.713  -7.644  1.00  0.00     0.000 C 
BRANCH   4   5
ATOM      5  C   UNL     1       0.158  -9.681  -7.212  1.00  0.00     0.000 C 
BRANCH   5   6
ATOM      6  C   UNL     1      -1.008  -8.988  -6.475  1.00  0.00     0.000 C 
BRANCH   6   7
ATOM      7  C   UNL     1      -0.993  -9.266  -4.964  1.00  0.00     0.000 C 
BRANCH   7   8
ATOM      8  C   UNL     1      -0.816  -7.969  -4.167  1.00  0.00     0.000 C 
BRANCH   8   9
ATOM      9  C   UNL     1      -2.124  -7.568  -3.472  1.00  0.00     0.000 C 
BRANCH   9  10
ATOM     10  C   UNL     1      -2.905  -8.805  -3.013  1.00  0.00     0.006 C 
BRANCH  10  11
ATOM     11  C   UNL     1      -3.893  -8.447  -1.899  1.00  0.00     0.053 C 
BRANCH  11  12
ATOM     12  C   UNL     1      -3.938  -6.967  -1.691  1.00  0.00     0.041 C 
ATOM     13  O   UNL     1      -4.808  -6.270  -2.277  1.00  0.00    -0.550 OA
ATOM     14  O   UNL     1      -2.995  -6.350  -0.879  1.00  0.00    -0.550 OA
ENDBRANCH  11  12
ENDBRANCH  10  11
ENDBRANCH   9  10
ENDBRANCH   8   9
ENDBRANCH   7   8
ENDBRANCH   6   7
ENDBRANCH   5   6
ENDBRANCH   4   5
ENDBRANCH   3   4
ENDBRANCH   2   3
ENDBRANCH   1   2
BRANCH   1  15
ATOM     15  C   UNL     1      -0.960  -6.602 -10.121  1.00  0.00     0.000 C 
BRANCH  15  16
ATOM     16  C   UNL     1      -1.937  -7.574  -9.444  1.00  0.00     0.000 C 
BRANCH  16  17
ATOM     17  C   UNL     1      -1.728  -9.032  -9.886  1.00  0.00     0.000 C 
BRANCH  17  18
ATOM     18  C   UNL     1      -3.049  -9.788 -10.089  1.00  0.00    -0.000 C 
BRANCH  18  19
ATOM     19  C   UNL     1      -4.197  -9.110  -9.326  1.00  0.00    -0.000 C 
BRANCH  19  20
ATOM     20  C   UNL     1      -5.557  -9.803  -9.555  1.00  0.00    -0.000 C 
BRANCH  20  21
ATOM     21  C   UNL     1      -6.655  -8.867 -10.094  1.00  0.00    -0.000 C 
BRANCH  21  22
ATOM     22  C   UNL     1      -7.879  -8.692  -9.177  1.00  0.00    -0.000 C 
BRANCH  22  23
ATOM     23  C   UNL     1      -8.944  -7.706  -9.694  1.00  0.00    -0.000 C 
BRANCH  23  24
ATOM     24  C   UNL     1      -9.905  -7.231  -8.592  1.00  0.00    -0.000 C 
BRANCH  24  25
ATOM     25  C   UNL     1      -9.200  -6.387  -7.518  1.00  0.00    -0.003 C 
ATOM     26  C   UNL     1     -10.123  -5.346  -6.885  1.00  0.00     0.004 C 
ENDBRANCH  24  25
ENDBRANCH  23  24
ENDBRANCH  22  23
ENDBRANCH  21  22
ENDBRANCH  20  21
ENDBRANCH  19  20
ENDBRANCH  18  19
ENDBRANCH  17  18
ENDBRANCH  16  17
ENDBRANCH  15  16
ENDBRANCH   1  15
TORSDOF 22
ENDMDL
MODEL 2
REMARK VINA RESULT:    -0.623     12.608     15.286
REMARK INTER + INTRA:          -2.333
REMARK INTER:                  -1.250
REMARK INTRA:                  -1.083
REMARK UNBOUND:                -0.909
REMARK SMILES CCCCCCCCCCCCCCCCCCCCCCCC(=O)[O-]
REMARK SMILES IDX 13 1 14 2 15 3 16 4 17 5 18 6 19 7 20 8 21 9 22 10 23 11
REMARK SMILES IDX 24 12 25 13 26 14 12 15 11 16 10 17 9 18 8 19 7 20 6 21 5 22
REMARK SMILES IDX 4 23 3 24 2 25 1 26
REMARK H PARENT
REMARK Flexibility Score: inf
ROOT
ATOM      1  C   UNL     1      -4.817   3.795  -9.776  1.00  0.00     0.000 C 
ENDROOT
BRANCH   1   2
ATOM      2  C   UNL     1      -3.909   4.989 -10.120  1.00  0.00     0.000 C 
BRANCH   2   3
ATOM      3  C   UNL     1      -3.194   5.636  -8.916  1.00  0.00     0.000 C 
BRANCH   3   4
ATOM      4  C   UNL     1      -2.325   6.862  -9.255  1.00  0.00     0.000 C 
BRANCH   4   5
ATOM      5  C   UNL     1      -3.071   8.004  -9.969  1.00  0.00     0.000 C 
BRANCH   5   6
ATOM      6  C   UNL     1      -3.695   9.034  -9.002  1.00  0.00     0.000 C 
BRANCH   6   7
ATOM      7  C   UNL     1      -4.500  10.115  -9.738  1.00  0.00     0.000 C 
BRANCH   7   8
ATOM      8  C   UNL     1      -5.892   9.600 -10.123  1.00  0.00     0.000 C 
BRANCH   8   9
ATOM      9  C   UNL     1      -6.910   9.890  -9.014  1.00  0.00     0.000 C 
BRANCH   9  10
ATOM     10  C   UNL     1      -8.333   9.542  -9.467  1.00  0.00     0.006 C 
BRANCH  10  11
ATOM     11  C   UNL     1      -9.367  10.017  -8.442  1.00  0.00     0.053 C 
BRANCH  11  12
ATOM     12  C   UNL     1      -9.136   9.361  -7.119  1.00  0.00     0.041 C 
ATOM     13  O   UNL     1      -9.631   8.228  -6.877  1.00  0.00    -0.550 OA
ATOM     14  O   UNL     1      -8.405  10.016  -6.135  1.00  0.00    -0.550 OA
ENDBRANCH  11  12
ENDBRANCH  10  11
ENDBRANCH   9  10
ENDBRANCH   8   9
ENDBRANCH   7   8
ENDBRANCH   6   7
ENDBRANCH   5   6
ENDBRANCH   4   5
ENDBRANCH   3   4
ENDBRANCH   2   3
ENDBRANCH   1   2
BRANCH   1  15
ATOM     15  C   UNL     1      -4.037   2.486  -9.586  1.00  0.00     0.000 C 
BRANCH  15  16
ATOM     16  C   UNL     1      -4.267   1.906  -8.182  1.00  0.00     0.000 C 
BRANCH  16  17
ATOM     17  C   UNL     1      -3.876   2.886  -7.063  1.00  0.00     0.000 C 
BRANCH  17  18
ATOM     18  C   UNL     1      -5.091   3.574  -6.424  1.00  0.00    -0.000 C 
BRANCH  18  19
ATOM     19  C   UNL     1      -6.404   2.942  -6.910  1.00  0.00    -0.000 C 
BRANCH  19  20
ATOM     20  C   UNL     1      -7.267   2.395  -5.752  1.00  0.00    -0.000 C 
BRANCH  20  21
ATOM     21  C   UNL     1      -6.649   2.605  -4.357  1.00  0.00    -0.000 C 
BRANCH  21  22
ATOM     22  C   UNL     1      -7.239   1.729  -3.237  1.00  0.00    -0.000 C 
BRANCH  22  23
ATOM     23  C   UNL     1      -6.977   2.237  -1.807  1.00  0.00    -0.000 C 
BRANCH  23  24
ATOM     24  C   UNL     1      -7.889   1.575  -0.761  1.00  0.00    -0.000 C 
BRANCH  24  25
ATOM     25  C   UNL     1      -7.171   1.330   0.576  1.00  0.00    -0.003 C 
ATOM     26  C   UNL     1      -7.997   0.479   1.542  1.00  0.00     0.004 C 
ENDBRANCH  24  25
ENDBRANCH  23  24
ENDBRANCH  22  23
ENDBRANCH  21  22
ENDBRANCH  20  21
ENDBRANCH  19  20
ENDBRANCH  18  19
ENDBRANCH  17  18
ENDBRANCH  16  17
ENDBRANCH  15  16
ENDBRANCH   1  15
TORSDOF 22
ENDMDL
MODEL 3
REMARK VINA RESULT:    -0.550     15.510     20.216
REMARK INTER + INTRA:          -2.166
REMARK INTER:                  -3.630
REMARK INTRA:                   1.464
REMARK UNBOUND:                -0.909
REMARK SMILES CCCCCCCCCCCCCCCCCCCCCCCC(=O)[O-]
REMARK SMILES IDX 13 1 14 2 15 3 16 4 17 5 18 6 19 7 20 8 21 9 22 10 23 11
REMARK SMILES IDX 24 12 25 13 26 14 12 15 11 16 10 17 9 18 8 19 7 20 6 21 5 22
REMARK SMILES IDX 4 23 3 24 2 25 1 26
REMARK H PARENT
REMARK Flexibility Score: inf
ROOT
ATOM      1  C   UNL     1       6.019  -6.877   7.635  1.00  0.00     0.000 C 
ENDROOT
BRANCH   1   2
ATOM      2  C   UNL     1       6.184  -7.000   9.160  1.00  0.00     0.000 C 
BRANCH   2   3
ATOM      3  C   UNL     1       5.139  -7.894   9.861  1.00  0.00     0.000 C 
BRANCH   3   4
ATOM      4  C   UNL     1       5.207  -9.388   9.490  1.00  0.00     0.000 C 
BRANCH   4   5
ATOM      5  C   UNL     1       4.528  -9.754   8.157  1.00  0.00     0.000 C 
BRANCH   5   6
ATOM      6  C   UNL     1       3.023  -9.413   8.117  1.00  0.00     0.000 C 
BRANCH   6   7
ATOM      7  C   UNL     1       2.716  -8.043   8.739  1.00  0.00     0.000 C 
BRANCH   7   8
ATOM      8  C   UNL     1       2.113  -7.089   7.701  1.00  0.00     0.000 C 
BRANCH   8   9
ATOM      9  C   UNL     1       2.860  -5.749   7.687  1.00  0.00     0.000 C 
BRANCH   9  10
ATOM     10  C   UNL     1       1.885  -4.573   7.815  1.00  0.00     0.006 C 
BRANCH  10  11
ATOM     11  C   UNL     1       0.521  -5.045   8.330  1.00  0.00     0.053 C 
BRANCH  11  12
ATOM     12  C   UNL     1      -0.385  -5.378   7.188  1.00  0.00     0.041 C 
ATOM     13  O   UNL     1      -0.815  -4.467   6.433  1.00  0.00    -0.550 OA
ATOM     14  O   UNL     1      -0.787  -6.691   6.979  1.00  0.00    -0.550 OA
ENDBRANCH  11  12
ENDBRANCH  10  11
ENDBRANCH   9  10
ENDBRANCH   8   9
ENDBRANCH   7   8
ENDBRANCH   6   7
ENDBRANCH   5   6
ENDBRANCH   4   5
ENDBRANCH   3   4
ENDBRANCH   2   3
ENDBRANCH   1   2
BRANCH   1  15
ATOM     15  C   UNL     1       6.816  -5.707   7.039  1.00  0.00     0.000 C 
BRANCH  15  16
ATOM     16  C   UNL     1       8.104  -5.455   7.837  1.00  0.00     0.000 C 
BRANCH  16  17
ATOM     17  C   UNL     1       7.830  -4.992   9.278  1.00  0.00     0.000 C 
BRANCH  17  18
ATOM     18  C   UNL     1       8.867  -3.979   9.785  1.00  0.00    -0.000 C 
BRANCH  18  19
ATOM     19  C   UNL     1       8.621  -2.588   9.183  1.00  0.00    -0.000 C 
BRANCH  19  20
ATOM     20  C   UNL     1       9.059  -1.445  10.124  1.00  0.00    -0.000 C 
BRANCH  20  21
ATOM     21  C   UNL     1       8.361  -0.101   9.846  1.00  0.00    -0.000 C 
BRANCH  21  22
ATOM     22  C   UNL     1       9.302   1.091   9.597  1.00  0.00    -0.000 C 
BRANCH  22  23
ATOM     23  C   UNL     1       8.790   2.446  10.120  1.00  0.00    -0.000 C 
BRANCH  23  24
ATOM     24  C   UNL     1       9.393   3.645   9.370  1.00  0.00    -0.000 C 
BRANCH  24  25
ATOM     25  C   UNL     1       8.968   4.992   9.973  1.00  0.00    -0.003 C 
ATOM     26  C   UNL     1      10.125   5.987  10.069  1.00  0.00     0.004 C 
ENDBRANCH  24  25
ENDBRANCH  23  24
ENDBRANCH  22  23
ENDBRANCH  21  22
ENDBRANCH  20  21
ENDBRANCH  19  20
ENDBRANCH  18  19
ENDBRANCH  17  18
ENDBRANCH  16  17
ENDBRANCH  15  16
ENDBRANCH   1  15
TORSDOF 22
ENDMDL
MODEL 4
REMARK VINA RESULT:    -0.314     15.997     20.658
REMARK INTER + INTRA:          -1.626
REMARK INTER:                  -0.374
REMARK INTRA:                  -1.253
REMARK UNBOUND:                -0.909
REMARK SMILES CCCCCCCCCCCCCCCCCCCCCCCC(=O)[O-]
REMARK SMILES IDX 13 1 14 2 15 3 16 4 17 5 18 6 19 7 20 8 21 9 22 10 23 11
REMARK SMILES IDX 24 12 25 13 26 14 12 15 11 16 10 17 9 18 8 19 7 20 6 21 5 22
REMARK SMILES IDX 4 23 3 24 2 25 1 26
REMARK H PARENT
REMARK Flexibility Score: inf
ROOT
ATOM      1  C   UNL     1       9.358  -5.540   9.920  1.00  0.00     0.000 C 
ENDROOT
BRANCH   1   2
ATOM      2  C   UNL     1       8.163  -6.493   9.743  1.00  0.00     0.000 C 
BRANCH   2   3
ATOM      3  C   UNL     1       6.776  -5.852   9.964  1.00  0.00     0.000 C 
BRANCH   3   4
ATOM      4  C   UNL     1       5.587  -6.829   9.891  1.00  0.00     0.000 C 
BRANCH   4   5
ATOM      5  C   UNL     1       5.962  -8.314  10.046  1.00  0.00     0.000 C 
BRANCH   5   6
ATOM      6  C   UNL     1       5.056  -9.267   9.237  1.00  0.00     0.000 C 
BRANCH   6   7
ATOM      7  C   UNL     1       4.963  -8.870   7.756  1.00  0.00     0.000 C 
BRANCH   7   8
ATOM      8  C   UNL     1       3.600  -9.255   7.167  1.00  0.00     0.000 C 
BRANCH   8   9
ATOM      9  C   UNL     1       2.489  -8.351   7.714  1.00  0.00     0.000 C 
BRANCH   9  10
ATOM     10  C   UNL     1       2.906  -6.876   7.668  1.00  0.00     0.006 C 
BRANCH  10  11
ATOM     11  C   UNL     1       1.875  -5.992   8.376  1.00  0.00     0.053 C 
BRANCH  11  12
ATOM     12  C   UNL     1       0.722  -5.700   7.469  1.00  0.00     0.041 C 
ATOM     13  O   UNL     1      -0.105  -6.604   7.182  1.00  0.00    -0.550 OA
ATOM     14  O   UNL     1       0.581  -4.436   6.908  1.00  0.00    -0.550 OA
ENDBRANCH  11  12
ENDBRANCH  10  11
ENDBRANCH   9  10
ENDBRANCH   8   9
ENDBRANCH   7   8
ENDBRANCH   6   7
ENDBRANCH   5   6
ENDBRANCH   4   5
ENDBRANCH   3   4
ENDBRANCH   2   3
ENDBRANCH   1   2
BRANCH   1  15
ATOM     15  C   UNL     1       9.914  -5.023   8.586  1.00  0.00     0.000 C 
BRANCH  15  16
ATOM     16  C   UNL     1       8.786  -4.803   7.567  1.00  0.00     0.000 C 
BRANCH  16  17
ATOM     17  C   UNL     1       8.459  -3.315   7.354  1.00  0.00     0.000 C 
BRANCH  17  18
ATOM     18  C   UNL     1       8.114  -2.589   8.662  1.00  0.00    -0.000 C 
BRANCH  18  19
ATOM     19  C   UNL     1       8.840  -1.239   8.754  1.00  0.00    -0.000 C 
BRANCH  19  20
ATOM     20  C   UNL     1       8.231  -0.305   9.822  1.00  0.00    -0.000 C 
BRANCH  20  21
ATOM     21  C   UNL     1       9.083   0.942  10.125  1.00  0.00    -0.000 C 
BRANCH  21  22
ATOM     22  C   UNL     1       8.351   2.289   9.990  1.00  0.00    -0.000 C 
BRANCH  22  23
ATOM     23  C   UNL     1       8.977   3.272   8.983  1.00  0.00    -0.000 C 
BRANCH  23  24
ATOM     24  C   UNL     1       9.914   4.293   9.648  1.00  0.00    -0.000 C 
BRANCH  24  25
ATOM     25  C   UNL     1       9.564   5.743   9.278  1.00  0.00    -0.003 C 
ATOM     26  C   UNL     1       8.424   6.309  10.125  1.00  0.00     0.004 C 
ENDBRANCH  24  25
ENDBRANCH  23  24
ENDBRANCH  22  23
ENDBRANCH  21  22
ENDBRANCH  20  21
ENDBRANCH  19  20
ENDBRANCH  18  19
ENDBRANCH  17  18
ENDBRANCH  16  17
ENDBRANCH  15  16
ENDBRANCH   1  15
TORSDOF 22
ENDMDL
MODEL 5
REMARK VINA RESULT:    -0.277     21.489     24.708
REMARK INTER + INTRA:          -1.542
REMARK INTER:                  -2.625
REMARK INTRA:                   1.083
REMARK UNBOUND:                -0.909
REMARK SMILES CCCCCCCCCCCCCCCCCCCCCCCC(=O)[O-]
REMARK SMILES IDX 13 1 14 2 15 3 16 4 17 5 18 6 19 7 20 8 21 9 22 10 23 11
REMARK SMILES IDX 24 12 25 13 26 14 12 15 11 16 10 17 9 18 8 19 7 20 6 21 5 22
REMARK SMILES IDX 4 23 3 24 2 25 1 26
REMARK H PARENT
REMARK Flexibility Score: inf
ROOT
ATOM      1  C   UNL     1      -0.380   9.993   9.560  1.00  0.00     0.000 C 
ENDROOT
BRANCH   1   2
ATOM      2  C   UNL     1      -0.980   8.656   9.086  1.00  0.00     0.000 C 
BRANCH   2   3
ATOM      3  C   UNL     1      -1.030   8.469   7.555  1.00  0.00     0.000 C 
BRANCH   3   4
ATOM      4  C   UNL     1      -2.152   9.245   6.839  1.00  0.00     0.000 C 
BRANCH   4   5
ATOM      5  C   UNL     1      -3.557   8.634   6.990  1.00  0.00     0.000 C 
BRANCH   5   6
ATOM      6  C   UNL     1      -3.548   7.194   7.546  1.00  0.00     0.000 C 
BRANCH   6   7
ATOM      7  C   UNL     1      -4.407   7.049   8.811  1.00  0.00     0.000 C 
BRANCH   7   8
ATOM      8  C   UNL     1      -4.244   8.266   9.730  1.00  0.00     0.000 C 
BRANCH   8   9
ATOM      9  C   UNL     1      -4.762   9.540   9.052  1.00  0.00     0.000 C 
BRANCH   9  10
ATOM     10  C   UNL     1      -6.139   9.936   9.600  1.00  0.00     0.006 C 
BRANCH  10  11
ATOM     11  C   UNL     1      -7.260   9.242   8.819  1.00  0.00     0.053 C 
BRANCH  11  12
ATOM     12  C   UNL     1      -7.891   8.169   9.647  1.00  0.00     0.041 C 
ATOM     13  O   UNL     1      -7.260   7.108   9.899  1.00  0.00    -0.550 OA
ATOM     14  O   UNL     1      -9.191   8.322  10.112  1.00  0.00    -0.550 OA
ENDBRANCH  11  12
ENDBRANCH  10  11
ENDBRANCH   9  10
ENDBRANCH   8   9
ENDBRANCH   7   8
ENDBRANCH   6   7
ENDBRANCH   5   6
ENDBRANCH   4   5
ENDBRANCH   3   4
ENDBRANCH   2   3
ENDBRANCH   1   2
BRANCH   1  15
ATOM     15  C   UNL     1       1.117  10.121   9.246  1.00  0.00     0.000 C 
BRANCH  15  16
ATOM     16  C   UNL     1       1.888   8.880   9.721  1.00  0.00     0.000 C 
BRANCH  16  17
ATOM     17  C   UNL     1       3.390   9.151   9.913  1.00  0.00     0.000 C 
BRANCH  17  18
ATOM     18  C   UNL     1       4.273   8.020   9.365  1.00  0.00    -0.000 C 
BRANCH  18  19
ATOM     19  C   UNL     1       5.763   8.333   9.569  1.00  0.00    -0.000 C 
BRANCH  19  20
ATOM     20  C   UNL     1       6.125   9.783   9.183  1.00  0.00    -0.000 C 
BRANCH  20  21
ATOM     21  C   UNL     1       7.640  10.050   9.102  1.00  0.00    -0.000 C 
BRANCH  21  22
ATOM     22  C   UNL     1       8.222  10.117   7.679  1.00  0.00    -0.000 C 
BRANCH  22  23
ATOM     23  C   UNL     1       7.206   9.871   6.548  1.00  0.00    -0.000 C 
BRANCH  23  24
ATOM     24  C   UNL     1       6.567   8.474   6.611  1.00  0.00    -0.000 C 
BRANCH  24  25
ATOM     25  C   UNL     1       5.231   8.402   5.856  1.00  0.00    -0.003 C 
ATOM     26  C   UNL     1       4.332   7.270   6.354  1.00  0.00     0.004 C 
ENDBRANCH  24  25
ENDBRANCH  23  24
ENDBRANCH  22  23
ENDBRANCH  21  22
ENDBRANCH  20  21
ENDBRANCH  19  20
ENDBRANCH  18  19
ENDBRANCH  17  18
ENDBRANCH  16  17
ENDBRANCH  15  16
ENDBRANCH   1  15
TORSDOF 22
ENDMDL
MODEL 6
REMARK VINA RESULT:    -0.155     15.945     19.949
REMARK INTER + INTRA:          -1.264
REMARK INTER:                   0.885
REMARK INTRA:                  -2.149
REMARK UNBOUND:                -0.909
REMARK SMILES CCCCCCCCCCCCCCCCCCCCCCCC(=O)[O-]
REMARK SMILES IDX 13 1 14 2 15 3 16 4 17 5 18 6 19 7 20 8 21 9 22 10 23 11
REMARK SMILES IDX 24 12 25 13 26 14 12 15 11 16 10 17 9 18 8 19 7 20 6 21 5 22
REMARK SMILES IDX 4 23 3 24 2 25 1 26
REMARK H PARENT
REMARK Flexibility Score: inf
ROOT
ATOM      1  C   UNL     1       5.955  -5.819  10.125  1.00  0.00     0.000 C 
ENDROOT
BRANCH   1   2
ATOM      2  C   UNL     1       5.281  -6.091   8.768  1.00  0.00     0.000 C 
BRANCH   2   3
ATOM      3  C   UNL     1       6.146  -5.765   7.532  1.00  0.00     0.000 C 
BRANCH   3   4
ATOM      4  C   UNL     1       6.034  -6.776   6.374  1.00  0.00     0.000 C 
BRANCH   4   5
ATOM      5  C   UNL     1       6.456  -8.214   6.730  1.00  0.00     0.000 C 
BRANCH   5   6
ATOM      6  C   UNL     1       5.356  -9.264   6.462  1.00  0.00     0.000 C 
BRANCH   6   7
ATOM      7  C   UNL     1       4.827  -9.901   7.755  1.00  0.00     0.000 C 
BRANCH   7   8
ATOM      8  C   UNL     1       3.627  -9.120   8.304  1.00  0.00     0.000 C 
BRANCH   8   9
ATOM      9  C   UNL     1       2.920  -8.344   7.187  1.00  0.00     0.000 C 
BRANCH   9  10
ATOM     10  C   UNL     1       1.613  -7.719   7.691  1.00  0.00     0.006 C 
BRANCH  10  11
ATOM     11  C   UNL     1       1.854  -6.306   8.232  1.00  0.00     0.053 C 
BRANCH  11  12
ATOM     12  C   UNL     1       0.950  -5.324   7.558  1.00  0.00     0.041 C 
ATOM     13  O   UNL     1      -0.257  -5.614   7.346  1.00  0.00    -0.550 OA
ATOM     14  O   UNL     1       1.450  -4.101   7.127  1.00  0.00    -0.550 OA
ENDBRANCH  11  12
ENDBRANCH  10  11
ENDBRANCH   9  10
ENDBRANCH   8   9
ENDBRANCH   7   8
ENDBRANCH   6   7
ENDBRANCH   5   6
ENDBRANCH   4   5
ENDBRANCH   3   4
ENDBRANCH   2   3
ENDBRANCH   1   2
BRANCH   1  15
ATOM     15  C   UNL     1       7.461  -6.120  10.117  1.00  0.00     0.000 C 
BRANCH  15  16
ATOM     16  C   UNL     1       8.282  -4.823  10.068  1.00  0.00     0.000 C 
BRANCH  16  17
ATOM     17  C   UNL     1       9.529  -4.942   9.176  1.00  0.00     0.000 C 
BRANCH  17  18
ATOM     18  C   UNL     1       9.456  -4.048   7.929  1.00  0.00    -0.000 C 
BRANCH  18  19
ATOM     19  C   UNL     1       8.336  -3.005   8.061  1.00  0.00    -0.000 C 
BRANCH  19  20
ATOM     20  C   UNL     1       8.845  -1.558   7.885  1.00  0.00    -0.000 C 
BRANCH  20  21
ATOM     21  C   UNL     1       7.850  -0.481   8.357  1.00  0.00    -0.000 C 
BRANCH  21  22
ATOM     22  C   UNL     1       8.015  -0.028   9.818  1.00  0.00    -0.000 C 
BRANCH  22  23
ATOM     23  C   UNL     1       9.145   0.991  10.060  1.00  0.00    -0.000 C 
BRANCH  23  24
ATOM     24  C   UNL     1       8.645   2.444  10.084  1.00  0.00    -0.000 C 
BRANCH  24  25
ATOM     25  C   UNL     1       9.795   3.463  10.103  1.00  0.00    -0.003 C 
ATOM     26  C   UNL     1       9.433   4.775   9.405  1.00  0.00     0.004 C 
ENDBRANCH  24  25
ENDBRANCH  23  24
ENDBRANCH  22  23
ENDBRANCH  21  22
ENDBRANCH  20  21
ENDBRANCH  19  20
ENDBRANCH  18  19
ENDBRANCH  17  18
ENDBRANCH  16  17
ENDBRANCH  15  16
ENDBRANCH   1  15
TORSDOF 22
ENDMDL
MODEL 7
REMARK VINA RESULT:     0.899     18.591     23.403
REMARK INTER + INTRA:           1.146
REMARK INTER:                  -0.512
REMARK INTRA:                   1.657
REMARK UNBOUND:                -0.909
REMARK SMILES CCCCCCCCCCCCCCCCCCCCCCCC(=O)[O-]
REMARK SMILES IDX 13 1 14 2 15 3 16 4 17 5 18 6 19 7 20 8 21 9 22 10 23 11
REMARK SMILES IDX 24 12 25 13 26 14 12 15 11 16 10 17 9 18 8 19 7 20 6 21 5 22
REMARK SMILES IDX 4 23 3 24 2 25 1 26
REMARK H PARENT
REMARK Flexibility Score: inf
ROOT
ATOM      1  C   UNL     1      -0.422   9.842   9.175  1.00  0.00     0.000 C 
ENDROOT
BRANCH   1   2
ATOM      2  C   UNL     1      -1.433   8.855   8.566  1.00  0.00     0.000 C 
BRANCH   2   3
ATOM      3  C   UNL     1      -1.803   9.124   7.092  1.00  0.00     0.000 C 
BRANCH   3   4
ATOM      4  C   UNL     1      -2.955  10.125   6.881  1.00  0.00     0.000 C 
BRANCH   4   5
ATOM      5  C   UNL     1      -4.045   9.657   5.899  1.00  0.00     0.000 C 
BRANCH   5   6
ATOM      6  C   UNL     1      -3.811  10.123   4.447  1.00  0.00     0.000 C 
BRANCH   6   7
ATOM      7  C   UNL     1      -3.485   8.957   3.502  1.00  0.00     0.000 C 
BRANCH   7   8
ATOM      8  C   UNL     1      -2.573   7.931   4.187  1.00  0.00     0.000 C 
BRANCH   8   9
ATOM      9  C   UNL     1      -3.181   6.525   4.120  1.00  0.00     0.000 C 
BRANCH   9  10
ATOM     10  C   UNL     1      -2.088   5.458   3.990  1.00  0.00     0.006 C 
BRANCH  10  11
ATOM     11  C   UNL     1      -2.471   4.185   4.752  1.00  0.00     0.053 C 
BRANCH  11  12
ATOM     12  C   UNL     1      -3.130   4.527   6.050  1.00  0.00     0.041 C 
ATOM     13  O   UNL     1      -3.457   3.616   6.855  1.00  0.00    -0.550 OA
ATOM     14  O   UNL     1      -3.420   5.852   6.355  1.00  0.00    -0.550 OA
ENDBRANCH  11  12
ENDBRANCH  10  11
ENDBRANCH   9  10
ENDBRANCH   8   9
ENDBRANCH   7   8
ENDBRANCH   6   7
ENDBRANCH   5   6
ENDBRANCH   4   5
ENDBRANCH   3   4
ENDBRANCH   2   3
ENDBRANCH   1   2
BRANCH   1  15
ATOM     15  C   UNL     1       0.998   9.665   8.617  1.00  0.00     0.000 C 
BRANCH  15  16
ATOM     16  C   UNL     1       2.021   9.513   9.753  1.00  0.00     0.000 C 
BRANCH  16  17
ATOM     17  C   UNL     1       3.459   9.824   9.303  1.00  0.00     0.000 C 
BRANCH  17  18
ATOM     18  C   UNL     1       4.367   8.586   9.315  1.00  0.00    -0.000 C 
BRANCH  18  19
ATOM     19  C   UNL     1       5.848   8.987   9.379  1.00  0.00    -0.000 C 
BRANCH  19  20
ATOM     20  C   UNL     1       6.201  10.123   8.395  1.00  0.00    -0.000 C 
BRANCH  20  21
ATOM     21  C   UNL     1       7.623  10.026   7.809  1.00  0.00    -0.000 C 
BRANCH  21  22
ATOM     22  C   UNL     1       7.702   9.538   6.351  1.00  0.00    -0.000 C 
BRANCH  22  23
ATOM     23  C   UNL     1       6.387   8.975   5.781  1.00  0.00    -0.000 C 
BRANCH  23  24
ATOM     24  C   UNL     1       5.964   7.654   6.444  1.00  0.00    -0.000 C 
BRANCH  24  25
ATOM     25  C   UNL     1       4.457   7.598   6.738  1.00  0.00    -0.003 C 
ATOM     26  C   UNL     1       3.608   8.075   5.559  1.00  0.00     0.004 C 
ENDBRANCH  24  25
ENDBRANCH  23  24
ENDBRANCH  22  23
ENDBRANCH  21  22
ENDBRANCH  20  21
ENDBRANCH  19  20
ENDBRANCH  18  19
ENDBRANCH  17  18
ENDBRANCH  16  17
ENDBRANCH  15  16
ENDBRANCH   1  15
TORSDOF 22
ENDMDL
MODEL 8
REMARK VINA RESULT:     1.396     19.542     23.248
REMARK INTER + INTRA:           2.282
REMARK INTER:                   2.837
REMARK INTRA:                  -0.555
REMARK UNBOUND:                -0.909
REMARK SMILES CCCCCCCCCCCCCCCCCCCCCCCC(=O)[O-]
REMARK SMILES IDX 13 1 14 2 15 3 16 4 17 5 18 6 19 7 20 8 21 9 22 10 23 11
REMARK SMILES IDX 24 12 25 13 26 14 12 15 11 16 10 17 9 18 8 19 7 20 6 21 5 22
REMARK SMILES IDX 4 23 3 24 2 25 1 26
REMARK H PARENT
REMARK Flexibility Score: inf
ROOT
ATOM      1  C   UNL     1       2.145   9.490   7.668  1.00  0.00     0.000 C 
ENDROOT
BRANCH   1   2
ATOM      2  C   UNL     1       3.672   9.507   7.473  1.00  0.00     0.000 C 
BRANCH   2   3
ATOM      3  C   UNL     1       4.281   8.184   6.963  1.00  0.00     0.000 C 
BRANCH   3   4
ATOM      4  C   UNL     1       5.590   7.760   7.656  1.00  0.00     0.000 C 
BRANCH   4   5
ATOM      5  C   UNL     1       6.736   8.783   7.551  1.00  0.00     0.000 C 
BRANCH   5   6
ATOM      6  C   UNL     1       6.603   9.963   8.539  1.00  0.00     0.000 C 
BRANCH   6   7
ATOM      7  C   UNL     1       7.212   9.648   9.913  1.00  0.00     0.000 C 
BRANCH   7   8
ATOM      8  C   UNL     1       7.762   8.218   9.958  1.00  0.00     0.000 C 
BRANCH   8   9
ATOM      9  C   UNL     1       9.286   8.220  10.124  1.00  0.00     0.000 C 
BRANCH   9  10
ATOM     10  C   UNL     1       9.843   6.792  10.122  1.00  0.00     0.006 C 
BRANCH  10  11
ATOM     11  C   UNL     1       9.149   5.934   9.059  1.00  0.00     0.053 C 
BRANCH  11  12
ATOM     12  C   UNL     1       9.117   4.500   9.479  1.00  0.00     0.041 C 
ATOM     13  O   UNL     1      10.125   3.765   9.306  1.00  0.00    -0.550 OA
ATOM     14  O   UNL     1       7.960   3.961  10.028  1.00  0.00    -0.550 OA
ENDBRANCH  11  12
ENDBRANCH  10  11
ENDBRANCH   9  10
ENDBRANCH   8   9
ENDBRANCH   7   8
ENDBRANCH   6   7
ENDBRANCH   5   6
ENDBRANCH   4   5
ENDBRANCH   3   4
ENDBRANCH   2   3
ENDBRANCH   1   2
BRANCH   1  15
ATOM     15  C   UNL     1       1.731   9.452   9.146  1.00  0.00     0.000 C 
BRANCH  15  16
ATOM     16  C   UNL     1       0.348  10.088   9.348  1.00  0.00     0.000 C 
BRANCH  16  17
ATOM     17  C   UNL     1      -0.603   9.831   8.167  1.00  0.00     0.000 C 
BRANCH  17  18
ATOM     18  C   UNL     1      -2.029   9.479   8.617  1.00  0.00    -0.000 C 
BRANCH  18  19
ATOM     19  C   UNL     1      -3.020   9.587   7.449  1.00  0.00    -0.000 C 
BRANCH  19  20
ATOM     20  C   UNL     1      -2.556   8.810   6.199  1.00  0.00    -0.000 C 
BRANCH  20  21
ATOM     21  C   UNL     1      -3.368   9.124   4.928  1.00  0.00    -0.000 C 
BRANCH  21  22
ATOM     22  C   UNL     1      -3.137   8.166   3.745  1.00  0.00    -0.000 C 
BRANCH  22  23
ATOM     23  C   UNL     1      -1.986   7.161   3.937  1.00  0.00    -0.000 C 
BRANCH  23  24
ATOM     24  C   UNL     1      -2.475   5.762   4.346  1.00  0.00    -0.000 C 
BRANCH  24  25
ATOM     25  C   UNL     1      -3.127   5.748   5.737  1.00  0.00    -0.003 C 
ATOM     26  C   UNL     1      -3.498   4.340   6.201  1.00  0.00     0.004 C 
ENDBRANCH  24  25
ENDBRANCH  23  24
ENDBRANCH  22  23
ENDBRANCH  21  22
ENDBRANCH  20  21
ENDBRANCH  19  20
ENDBRANCH  18  19
ENDBRANCH  17  18
ENDBRANCH  16  17
ENDBRANCH  15  16
ENDBRANCH   1  15
TORSDOF 22
ENDMDL
