MODEL 1
REMARK VINA RESULT:    -6.751      0.000      0.000
REMARK INTER + INTRA:         -11.180
REMARK INTER:                 -10.501
REMARK INTRA:                  -0.680
REMARK UNBOUND:                -0.680
REMARK SMILES COc1cc(CNC(=O)CCCCC=CC(C)C)ccc1O
REMARK SMILES IDX 11 1 12 2 13 3 14 4 15 5 16 6 17 7 18 8 10 9 8 10 9 11 7 12
REMARK SMILES IDX 6 14 5 15 4 16 19 17 3 18 20 19 21 20 2 21 1 22 22 23
REMARK H PARENT 7 13 22 24
REMARK Flexibility Score: inf
ROOT
ATOM      1  C   UNL     1      19.807 -13.236  14.574  1.00  0.00     0.010 C 
ENDROOT
BRANCH   1   2
ATOM      2  C   UNL     1      19.734 -14.768  14.481  1.00  0.00     0.005 C 
BRANCH   2   3
ATOM      3  C   UNL     1      20.291 -15.305  13.155  1.00  0.00     0.027 C 
BRANCH   3   4
ATOM      4  C   UNL     1      20.056 -14.325  12.038  1.00  0.00    -0.031 C 
ATOM      5  C   UNL     1      20.180 -14.689  10.750  1.00  0.00    -0.028 C 
BRANCH   5   6
ATOM      6  C   UNL     1      19.950 -13.730   9.604  1.00  0.00     0.005 C 
ATOM      7  C   UNL     1      20.724 -14.161   8.354  1.00  0.00     0.012 C 
ATOM      8  C   UNL     1      18.456 -13.563   9.302  1.00  0.00     0.012 C 
ENDBRANCH   5   6
ENDBRANCH   3   4
ENDBRANCH   2   3
ENDBRANCH   1   2
BRANCH   1   9
ATOM      9  C   UNL     1      20.543 -12.757  15.831  1.00  0.00     0.100 C 
BRANCH   9  10
ATOM     10  C   UNL     1      19.607 -12.729  17.001  1.00  0.00     0.220 C 
ATOM     11  O   UNL     1      19.795 -13.517  17.966  1.00  0.00    -0.275 OA
ATOM     12  N   UNL     1      18.475 -11.847  16.996  1.00  0.00    -0.352 N 
ATOM     13  H   UNL     1      18.320 -11.228  16.169  1.00  0.00     0.163 HD
BRANCH  12  14
ATOM     14  C   UNL     1      17.489 -11.827  18.074  1.00  0.00     0.151 C 
BRANCH  14  15
ATOM     15  C   UNL     1      17.631 -10.575  18.895  1.00  0.00    -0.025 A 
ATOM     16  C   UNL     1      18.678 -10.443  19.822  1.00  0.00     0.056 A 
ATOM     17  C   UNL     1      16.728  -9.516  18.721  1.00  0.00     0.009 A 
ATOM     18  C   UNL     1      18.820  -9.264  20.580  1.00  0.00     0.160 A 
ATOM     19  C   UNL     1      16.863  -8.345  19.470  1.00  0.00     0.050 A 
ATOM     20  C   UNL     1      17.905  -8.216  20.398  1.00  0.00     0.157 A 
BRANCH  18  21
ATOM     21  O   UNL     1      19.852  -9.095  21.516  1.00  0.00    -0.493 OA
ATOM     22  C   UNL     1      19.786  -9.518  22.874  1.00  0.00     0.278 C 
ENDBRANCH  18  21
BRANCH  20  23
ATOM     23  O   UNL     1      18.039  -7.047  21.145  1.00  0.00    -0.504 OA
ATOM     24  H   UNL     1      17.232  -6.513  21.445  1.00  0.00     0.293 HD
ENDBRANCH  20  23
ENDBRANCH  14  15
ENDBRANCH  12  14
ENDBRANCH   9  10
ENDBRANCH   1   9
TORSDOF 10
ENDMDL
MODEL 2
REMARK VINA RESULT:    -6.694      2.615      9.019
REMARK INTER + INTRA:         -11.092
REMARK INTER:                 -10.157
REMARK INTRA:                  -0.935
REMARK UNBOUND:                -0.680
REMARK SMILES COc1cc(CNC(=O)CCCCC=CC(C)C)ccc1O
REMARK SMILES IDX 11 1 12 2 13 3 14 4 15 5 16 6 17 7 18 8 10 9 8 10 9 11 7 12
REMARK SMILES IDX 6 14 5 15 4 16 19 17 3 18 20 19 21 20 2 21 1 22 22 23
REMARK H PARENT 7 13 22 24
REMARK Flexibility Score: inf
ROOT
ATOM      1  C   UNL     1      16.871  -9.028  19.310  1.00  0.00     0.010 C 
ENDROOT
BRANCH   1   2
ATOM      2  C   UNL     1      17.269  -7.917  20.296  1.00  0.00     0.005 C 
BRANCH   2   3
ATOM      3  C   UNL     1      18.410  -8.341  21.230  1.00  0.00     0.027 C 
BRANCH   3   4
ATOM      4  C   UNL     1      19.663  -7.562  20.937  1.00  0.00    -0.031 C 
ATOM      5  C   UNL     1      19.615  -6.356  20.346  1.00  0.00    -0.028 C 
BRANCH   5   6
ATOM      6  C   UNL     1      20.854  -5.547  20.038  1.00  0.00     0.005 C 
ATOM      7  C   UNL     1      21.548  -6.054  18.768  1.00  0.00     0.012 C 
ATOM      8  C   UNL     1      20.538  -4.050  19.937  1.00  0.00     0.012 C 
ENDBRANCH   5   6
ENDBRANCH   3   4
ENDBRANCH   2   3
ENDBRANCH   1   2
BRANCH   1   9
ATOM      9  C   UNL     1      17.045  -8.605  17.846  1.00  0.00     0.100 C 
BRANCH   9  10
ATOM     10  C   UNL     1      18.231  -9.296  17.245  1.00  0.00     0.220 C 
ATOM     11  O   UNL     1      19.380  -9.078  17.714  1.00  0.00    -0.275 OA
ATOM     12  N   UNL     1      18.063 -10.156  16.110  1.00  0.00    -0.352 N 
ATOM     13  H   UNL     1      17.106 -10.295  15.716  1.00  0.00     0.163 HD
BRANCH  12  14
ATOM     14  C   UNL     1      19.190 -10.798  15.436  1.00  0.00     0.151 C 
BRANCH  14  15
ATOM     15  C   UNL     1      19.087 -12.296  15.547  1.00  0.00    -0.025 A 
ATOM     16  C   UNL     1      19.641 -13.125  14.559  1.00  0.00     0.056 A 
ATOM     17  C   UNL     1      18.453 -12.874  16.657  1.00  0.00     0.009 A 
ATOM     18  C   UNL     1      19.557 -14.527  14.671  1.00  0.00     0.160 A 
ATOM     19  C   UNL     1      18.366 -14.263  16.772  1.00  0.00     0.050 A 
ATOM     20  C   UNL     1      18.915 -15.090  15.784  1.00  0.00     0.157 A 
BRANCH  18  21
ATOM     21  O   UNL     1      20.098 -15.389  13.704  1.00  0.00    -0.493 OA
ATOM     22  C   UNL     1      20.161 -15.100  12.311  1.00  0.00     0.278 C 
ENDBRANCH  18  21
BRANCH  20  23
ATOM     23  O   UNL     1      18.828 -16.477  15.900  1.00  0.00    -0.504 OA
ATOM     24  H   UNL     1      19.398 -17.094  15.334  1.00  0.00     0.293 HD
ENDBRANCH  20  23
ENDBRANCH  14  15
ENDBRANCH  12  14
ENDBRANCH   9  10
ENDBRANCH   1   9
TORSDOF 10
ENDMDL
MODEL 3
REMARK VINA RESULT:    -6.694      1.238      2.131
REMARK INTER + INTRA:         -11.091
REMARK INTER:                 -10.554
REMARK INTRA:                  -0.537
REMARK UNBOUND:                -0.680
REMARK SMILES COc1cc(CNC(=O)CCCCC=CC(C)C)ccc1O
REMARK SMILES IDX 11 1 12 2 13 3 14 4 15 5 16 6 17 7 18 8 10 9 8 10 9 11 7 12
REMARK SMILES IDX 6 14 5 15 4 16 19 17 3 18 20 19 21 20 2 21 1 22 22 23
REMARK H PARENT 7 13 22 24
REMARK Flexibility Score: inf
ROOT
ATOM      1  C   UNL     1      19.725 -13.305  14.880  1.00  0.00     0.010 C 
ENDROOT
BRANCH   1   2
ATOM      2  C   UNL     1      19.392 -14.655  14.227  1.00  0.00     0.005 C 
BRANCH   2   3
ATOM      3  C   UNL     1      20.347 -15.005  13.077  1.00  0.00     0.027 C 
BRANCH   3   4
ATOM      4  C   UNL     1      19.685 -14.791  11.744  1.00  0.00    -0.031 C 
ATOM      5  C   UNL     1      20.403 -14.514  10.641  1.00  0.00    -0.028 C 
BRANCH   5   6
ATOM      6  C   UNL     1      19.768 -14.294   9.287  1.00  0.00     0.005 C 
ATOM      7  C   UNL     1      18.497 -13.445   9.400  1.00  0.00     0.012 C 
ATOM      8  C   UNL     1      20.762 -13.678   8.294  1.00  0.00     0.012 C 
ENDBRANCH   5   6
ENDBRANCH   3   4
ENDBRANCH   2   3
ENDBRANCH   1   2
BRANCH   1   9
ATOM      9  C   UNL     1      19.578 -13.338  16.406  1.00  0.00     0.100 C 
BRANCH   9  10
ATOM     10  C   UNL     1      18.766 -12.169  16.875  1.00  0.00     0.220 C 
ATOM     11  O   UNL     1      18.747 -11.111  16.190  1.00  0.00    -0.275 OA
ATOM     12  N   UNL     1      18.059 -12.238  18.121  1.00  0.00    -0.352 N 
ATOM     13  H   UNL     1      18.117 -13.112  18.689  1.00  0.00     0.163 HD
BRANCH  12  14
ATOM     14  C   UNL     1      17.311 -11.105  18.664  1.00  0.00     0.151 C 
BRANCH  14  15
ATOM     15  C   UNL     1      18.079 -10.453  19.781  1.00  0.00    -0.025 A 
ATOM     16  C   UNL     1      18.109  -9.055  19.907  1.00  0.00     0.056 A 
ATOM     17  C   UNL     1      18.755 -11.244  20.722  1.00  0.00     0.009 A 
ATOM     18  C   UNL     1      18.816  -8.445  20.963  1.00  0.00     0.160 A 
ATOM     19  C   UNL     1      19.459 -10.646  21.769  1.00  0.00     0.050 A 
ATOM     20  C   UNL     1      19.491  -9.250  21.892  1.00  0.00     0.157 A 
BRANCH  18  21
ATOM     21  O   UNL     1      18.869  -7.052  21.122  1.00  0.00    -0.493 OA
ATOM     22  C   UNL     1      19.863  -6.212  20.543  1.00  0.00     0.278 C 
ENDBRANCH  18  21
BRANCH  20  23
ATOM     23  O   UNL     1      20.194  -8.654  22.938  1.00  0.00    -0.504 OA
ATOM     24  H   UNL     1      21.146  -8.920  23.158  1.00  0.00     0.293 HD
ENDBRANCH  20  23
ENDBRANCH  14  15
ENDBRANCH  12  14
ENDBRANCH   9  10
ENDBRANCH   1   9
TORSDOF 10
ENDMDL
MODEL 4
REMARK VINA RESULT:    -6.602      2.180      8.924
REMARK INTER + INTRA:         -10.948
REMARK INTER:                  -9.912
REMARK INTRA:                  -1.036
REMARK UNBOUND:                -0.680
REMARK SMILES COc1cc(CNC(=O)CCCCC=CC(C)C)ccc1O
REMARK SMILES IDX 11 1 12 2 13 3 14 4 15 5 16 6 17 7 18 8 10 9 8 10 9 11 7 12
REMARK SMILES IDX 6 14 5 15 4 16 19 17 3 18 20 19 21 20 2 21 1 22 22 23
REMARK H PARENT 7 13 22 24
REMARK Flexibility Score: inf
ROOT
ATOM      1  C   UNL     1      16.901  -7.989  18.781  1.00  0.00     0.010 C 
ENDROOT
BRANCH   1   2
ATOM      2  C   UNL     1      17.107  -8.019  20.304  1.00  0.00     0.005 C 
BRANCH   2   3
ATOM      3  C   UNL     1      18.507  -7.546  20.719  1.00  0.00     0.027 C 
BRANCH   3   4
ATOM      4  C   UNL     1      19.295  -8.671  21.330  1.00  0.00    -0.031 C 
ATOM      5  C   UNL     1      18.866  -9.944  21.264  1.00  0.00    -0.028 C 
BRANCH   5   6
ATOM      6  C   UNL     1      19.635 -11.098  21.867  1.00  0.00     0.005 C 
ATOM      7  C   UNL     1      18.933 -12.434  21.599  1.00  0.00     0.012 C 
ATOM      8  C   UNL     1      21.087 -11.124  21.373  1.00  0.00     0.012 C 
ENDBRANCH   5   6
ENDBRANCH   3   4
ENDBRANCH   2   3
ENDBRANCH   1   2
BRANCH   1   9
ATOM      9  C   UNL     1      16.795  -9.394  18.175  1.00  0.00     0.100 C 
BRANCH   9  10
ATOM     10  C   UNL     1      18.037  -9.720  17.403  1.00  0.00     0.220 C 
ATOM     11  O   UNL     1      19.073  -9.023  17.569  1.00  0.00    -0.275 OA
ATOM     12  N   UNL     1      18.027 -10.787  16.443  1.00  0.00    -0.352 N 
ATOM     13  H   UNL     1      17.147 -11.329  16.297  1.00  0.00     0.163 HD
BRANCH  12  14
ATOM     14  C   UNL     1      19.185 -11.104  15.609  1.00  0.00     0.151 C 
BRANCH  14  15
ATOM     15  C   UNL     1      19.459 -12.584  15.629  1.00  0.00    -0.025 A 
ATOM     16  C   UNL     1      19.677 -13.286  14.433  1.00  0.00     0.056 A 
ATOM     17  C   UNL     1      19.521 -13.269  16.852  1.00  0.00     0.009 A 
ATOM     18  C   UNL     1      19.949 -14.669  14.453  1.00  0.00     0.160 A 
ATOM     19  C   UNL     1      19.788 -14.639  16.878  1.00  0.00     0.050 A 
ATOM     20  C   UNL     1      20.002 -15.340  15.683  1.00  0.00     0.157 A 
BRANCH  18  21
ATOM     21  O   UNL     1      20.172 -15.405  13.279  1.00  0.00    -0.493 OA
ATOM     22  C   UNL     1      19.986 -14.897  11.962  1.00  0.00     0.278 C 
ENDBRANCH  18  21
BRANCH  20  23
ATOM     23  O   UNL     1      20.269 -16.708  15.710  1.00  0.00    -0.504 OA
ATOM     24  H   UNL     1      21.205 -17.063  15.868  1.00  0.00     0.293 HD
ENDBRANCH  20  23
ENDBRANCH  14  15
ENDBRANCH  12  14
ENDBRANCH   9  10
ENDBRANCH   1   9
TORSDOF 10
ENDMDL
MODEL 5
REMARK VINA RESULT:    -6.593      1.775      2.672
REMARK INTER + INTRA:         -10.934
REMARK INTER:                 -10.235
REMARK INTRA:                  -0.698
REMARK UNBOUND:                -0.680
REMARK SMILES COc1cc(CNC(=O)CCCCC=CC(C)C)ccc1O
REMARK SMILES IDX 11 1 12 2 13 3 14 4 15 5 16 6 17 7 18 8 10 9 8 10 9 11 7 12
REMARK SMILES IDX 6 14 5 15 4 16 19 17 3 18 20 19 21 20 2 21 1 22 22 23
REMARK H PARENT 7 13 22 24
REMARK Flexibility Score: inf
ROOT
ATOM      1  C   UNL     1      19.582 -13.681  15.233  1.00  0.00     0.010 C 
ENDROOT
BRANCH   1   2
ATOM      2  C   UNL     1      19.907 -13.653  13.731  1.00  0.00     0.005 C 
BRANCH   2   3
ATOM      3  C   UNL     1      19.888 -15.051  13.098  1.00  0.00     0.027 C 
BRANCH   3   4
ATOM      4  C   UNL     1      19.473 -14.982  11.655  1.00  0.00    -0.031 C 
ATOM      5  C   UNL     1      20.223 -14.344  10.739  1.00  0.00    -0.028 C 
BRANCH   5   6
ATOM      6  C   UNL     1      19.835 -14.257   9.281  1.00  0.00     0.005 C 
ATOM      7  C   UNL     1      18.500 -13.524   9.104  1.00  0.00     0.012 C 
ATOM      8  C   UNL     1      20.941 -13.607   8.442  1.00  0.00     0.012 C 
ENDBRANCH   5   6
ENDBRANCH   3   4
ENDBRANCH   2   3
ENDBRANCH   1   2
BRANCH   1   9
ATOM      9  C   UNL     1      19.000 -15.027  15.684  1.00  0.00     0.100 C 
BRANCH   9  10
ATOM     10  C   UNL     1      18.139 -14.840  16.895  1.00  0.00     0.220 C 
ATOM     11  O   UNL     1      16.890 -14.980  16.797  1.00  0.00    -0.275 OA
ATOM     12  N   UNL     1      18.728 -14.451  18.144  1.00  0.00    -0.352 N 
ATOM     13  H   UNL     1      19.761 -14.307  18.193  1.00  0.00     0.163 HD
BRANCH  12  14
ATOM     14  C   UNL     1      17.932 -14.183  19.340  1.00  0.00     0.151 C 
BRANCH  14  15
ATOM     15  C   UNL     1      18.243 -12.816  19.885  1.00  0.00    -0.025 A 
ATOM     16  C   UNL     1      17.942 -11.664  19.139  1.00  0.00     0.056 A 
ATOM     17  C   UNL     1      18.818 -12.682  21.157  1.00  0.00     0.009 A 
ATOM     18  C   UNL     1      18.220 -10.383  19.656  1.00  0.00     0.160 A 
ATOM     19  C   UNL     1      19.096 -11.415  21.674  1.00  0.00     0.050 A 
ATOM     20  C   UNL     1      18.800 -10.267  20.928  1.00  0.00     0.157 A 
BRANCH  18  21
ATOM     21  O   UNL     1      17.934  -9.210  18.941  1.00  0.00    -0.493 OA
ATOM     22  C   UNL     1      16.644  -8.614  18.853  1.00  0.00     0.278 C 
ENDBRANCH  18  21
BRANCH  20  23
ATOM     23  O   UNL     1      19.078  -9.002  21.445  1.00  0.00    -0.504 OA
ATOM     24  H   UNL     1      19.391  -8.243  20.851  1.00  0.00     0.293 HD
ENDBRANCH  20  23
ENDBRANCH  14  15
ENDBRANCH  12  14
ENDBRANCH   9  10
ENDBRANCH   1   9
TORSDOF 10
ENDMDL
MODEL 6
REMARK VINA RESULT:    -6.562      3.337      8.176
REMARK INTER + INTRA:         -10.886
REMARK INTER:                  -9.549
REMARK INTRA:                  -1.337
REMARK UNBOUND:                -0.680
REMARK SMILES COc1cc(CNC(=O)CCCCC=CC(C)C)ccc1O
REMARK SMILES IDX 11 1 12 2 13 3 14 4 15 5 16 6 17 7 18 8 10 9 8 10 9 11 7 12
REMARK SMILES IDX 6 14 5 15 4 16 19 17 3 18 20 19 21 20 2 21 1 22 22 23
REMARK H PARENT 7 13 22 24
REMARK Flexibility Score: inf
ROOT
ATOM      1  C   UNL     1      20.242 -10.572  21.695  1.00  0.00     0.010 C 
ENDROOT
BRANCH   1   2
ATOM      2  C   UNL     1      19.701  -9.841  22.934  1.00  0.00     0.005 C 
BRANCH   2   3
ATOM      3  C   UNL     1      19.575  -8.327  22.716  1.00  0.00     0.027 C 
BRANCH   3   4
ATOM      4  C   UNL     1      19.358  -8.010  21.262  1.00  0.00    -0.031 C 
ATOM      5  C   UNL     1      18.123  -7.963  20.732  1.00  0.00    -0.028 C 
BRANCH   5   6
ATOM      6  C   UNL     1      17.871  -7.646  19.275  1.00  0.00     0.005 C 
ATOM      7  C   UNL     1      19.030  -8.123  18.394  1.00  0.00     0.012 C 
ATOM      8  C   UNL     1      16.534  -8.226  18.798  1.00  0.00     0.012 C 
ENDBRANCH   5   6
ENDBRANCH   3   4
ENDBRANCH   2   3
ENDBRANCH   1   2
BRANCH   1   9
ATOM      9  C   UNL     1      19.874 -12.061  21.683  1.00  0.00     0.100 C 
BRANCH   9  10
ATOM     10  C   UNL     1      18.791 -12.320  20.680  1.00  0.00     0.220 C 
ATOM     11  O   UNL     1      18.102 -13.371  20.768  1.00  0.00    -0.275 OA
ATOM     12  N   UNL     1      18.579 -11.402  19.598  1.00  0.00    -0.352 N 
ATOM     13  H   UNL     1      19.186 -10.555  19.526  1.00  0.00     0.163 HD
BRANCH  12  14
ATOM     14  C   UNL     1      17.588 -11.639  18.550  1.00  0.00     0.151 C 
BRANCH  14  15
ATOM     15  C   UNL     1      18.256 -12.134  17.296  1.00  0.00    -0.025 A 
ATOM     16  C   UNL     1      18.359 -13.510  17.037  1.00  0.00     0.056 A 
ATOM     17  C   UNL     1      18.762 -11.218  16.362  1.00  0.00     0.009 A 
ATOM     18  C   UNL     1      18.971 -13.974  15.855  1.00  0.00     0.160 A 
ATOM     19  C   UNL     1      19.370 -11.671  15.190  1.00  0.00     0.050 A 
ATOM     20  C   UNL     1      19.476 -13.045  14.934  1.00  0.00     0.157 A 
BRANCH  18  21
ATOM     21  O   UNL     1      19.092 -15.341  15.562  1.00  0.00    -0.493 OA
ATOM     22  C   UNL     1      20.098 -16.194  16.099  1.00  0.00     0.278 C 
ENDBRANCH  18  21
BRANCH  20  23
ATOM     23  O   UNL     1      20.083 -13.497  13.763  1.00  0.00    -0.504 OA
ATOM     24  H   UNL     1      19.545 -13.693  12.928  1.00  0.00     0.293 HD
ENDBRANCH  20  23
ENDBRANCH  14  15
ENDBRANCH  12  14
ENDBRANCH   9  10
ENDBRANCH   1   9
TORSDOF 10
ENDMDL
MODEL 7
REMARK VINA RESULT:    -6.529      2.351      9.865
REMARK INTER + INTRA:         -10.835
REMARK INTER:                 -10.245
REMARK INTRA:                  -0.590
REMARK UNBOUND:                -0.680
REMARK SMILES COc1cc(CNC(=O)CCCCC=CC(C)C)ccc1O
REMARK SMILES IDX 11 1 12 2 13 3 14 4 15 5 16 6 17 7 18 8 10 9 8 10 9 11 7 12
REMARK SMILES IDX 6 14 5 15 4 16 19 17 3 18 20 19 21 20 2 21 1 22 22 23
REMARK H PARENT 7 13 22 24
REMARK Flexibility Score: inf
ROOT
ATOM      1  C   UNL     1      17.060  -8.564  19.860  1.00  0.00     0.010 C 
ENDROOT
BRANCH   1   2
ATOM      2  C   UNL     1      18.078  -7.891  20.794  1.00  0.00     0.005 C 
BRANCH   2   3
ATOM      3  C   UNL     1      19.101  -8.884  21.363  1.00  0.00     0.027 C 
BRANCH   3   4
ATOM      4  C   UNL     1      19.571  -8.450  22.725  1.00  0.00    -0.031 C 
ATOM      5  C   UNL     1      19.738  -9.336  23.723  1.00  0.00    -0.028 C 
BRANCH   5   6
ATOM      6  C   UNL     1      20.210  -8.933  25.102  1.00  0.00     0.005 C 
ATOM      7  C   UNL     1      20.700  -7.480  25.120  1.00  0.00     0.012 C 
ATOM      8  C   UNL     1      19.122  -9.165  26.157  1.00  0.00     0.012 C 
ENDBRANCH   5   6
ENDBRANCH   3   4
ENDBRANCH   2   3
ENDBRANCH   1   2
BRANCH   1   9
ATOM      9  C   UNL     1      17.198  -8.098  18.406  1.00  0.00     0.100 C 
BRANCH   9  10
ATOM     10  C   UNL     1      18.360  -8.782  17.751  1.00  0.00     0.220 C 
ATOM     11  O   UNL     1      19.459  -8.175  17.647  1.00  0.00    -0.275 OA
ATOM     12  N   UNL     1      18.202 -10.097  17.199  1.00  0.00    -0.352 N 
ATOM     13  H   UNL     1      17.272 -10.566  17.266  1.00  0.00     0.163 HD
BRANCH  12  14
ATOM     14  C   UNL     1      19.277 -10.783  16.485  1.00  0.00     0.151 C 
BRANCH  14  15
ATOM     15  C   UNL     1      18.977 -12.253  16.367  1.00  0.00    -0.025 A 
ATOM     16  C   UNL     1      19.428 -12.988  15.259  1.00  0.00     0.056 A 
ATOM     17  C   UNL     1      18.259 -12.905  17.381  1.00  0.00     0.009 A 
ATOM     18  C   UNL     1      19.160 -14.368  15.157  1.00  0.00     0.160 A 
ATOM     19  C   UNL     1      17.990 -14.271  17.285  1.00  0.00     0.050 A 
ATOM     20  C   UNL     1      18.437 -15.004  16.177  1.00  0.00     0.157 A 
BRANCH  18  21
ATOM     21  O   UNL     1      19.594 -15.136  14.066  1.00  0.00    -0.493 OA
ATOM     22  C   UNL     1      19.790 -14.628  12.750  1.00  0.00     0.278 C 
ENDBRANCH  18  21
BRANCH  20  23
ATOM     23  O   UNL     1      18.167 -16.368  16.081  1.00  0.00    -0.504 OA
ATOM     24  H   UNL     1      17.246 -16.711  15.837  1.00  0.00     0.293 HD
ENDBRANCH  20  23
ENDBRANCH  14  15
ENDBRANCH  12  14
ENDBRANCH   9  10
ENDBRANCH   1   9
TORSDOF 10
ENDMDL
MODEL 8
REMARK VINA RESULT:    -6.489      2.993      8.642
REMARK INTER + INTRA:         -10.772
REMARK INTER:                  -9.911
REMARK INTRA:                  -0.861
REMARK UNBOUND:                -0.680
REMARK SMILES COc1cc(CNC(=O)CCCCC=CC(C)C)ccc1O
REMARK SMILES IDX 11 1 12 2 13 3 14 4 15 5 16 6 17 7 18 8 10 9 8 10 9 11 7 12
REMARK SMILES IDX 6 14 5 15 4 16 19 17 3 18 20 19 21 20 2 21 1 22 22 23
REMARK H PARENT 7 13 22 24
REMARK Flexibility Score: inf
ROOT
ATOM      1  C   UNL     1      16.821  -9.021  19.159  1.00  0.00     0.010 C 
ENDROOT
BRANCH   1   2
ATOM      2  C   UNL     1      17.179  -7.899  20.146  1.00  0.00     0.005 C 
BRANCH   2   3
ATOM      3  C   UNL     1      18.363  -8.267  21.052  1.00  0.00     0.027 C 
BRANCH   3   4
ATOM      4  C   UNL     1      19.581  -7.460  20.698  1.00  0.00    -0.031 C 
ATOM      5  C   UNL     1      19.518  -6.126  20.544  1.00  0.00    -0.028 C 
BRANCH   5   6
ATOM      6  C   UNL     1      20.724  -5.286  20.189  1.00  0.00     0.005 C 
ATOM      7  C   UNL     1      21.490  -5.886  19.005  1.00  0.00     0.012 C 
ATOM      8  C   UNL     1      20.333  -3.829  19.917  1.00  0.00     0.012 C 
ENDBRANCH   5   6
ENDBRANCH   3   4
ENDBRANCH   2   3
ENDBRANCH   1   2
BRANCH   1   9
ATOM      9  C   UNL     1      17.099  -8.633  17.702  1.00  0.00     0.100 C 
BRANCH   9  10
ATOM     10  C   UNL     1      18.252  -9.426  17.165  1.00  0.00     0.220 C 
ATOM     11  O   UNL     1      19.359  -9.396  17.765  1.00  0.00    -0.275 OA
ATOM     12  N   UNL     1      18.107 -10.171  15.947  1.00  0.00    -0.352 N 
ATOM     13  H   UNL     1      17.190 -10.153  15.449  1.00  0.00     0.163 HD
BRANCH  12  14
ATOM     14  C   UNL     1      19.216 -10.903  15.338  1.00  0.00     0.151 C 
BRANCH  14  15
ATOM     15  C   UNL     1      19.066 -12.381  15.578  1.00  0.00    -0.025 A 
ATOM     16  C   UNL     1      18.407 -12.856  16.723  1.00  0.00     0.056 A 
ATOM     17  C   UNL     1      19.566 -13.298  14.641  1.00  0.00     0.009 A 
ATOM     18  C   UNL     1      18.253 -14.240  16.940  1.00  0.00     0.160 A 
ATOM     19  C   UNL     1      19.417 -14.670  14.851  1.00  0.00     0.050 A 
ATOM     20  C   UNL     1      18.763 -15.143  15.996  1.00  0.00     0.157 A 
BRANCH  18  21
ATOM     21  O   UNL     1      17.601 -14.752  18.072  1.00  0.00    -0.493 OA
ATOM     22  C   UNL     1      17.720 -14.212  19.384  1.00  0.00     0.278 C 
ENDBRANCH  18  21
BRANCH  20  23
ATOM     23  O   UNL     1      18.615 -16.514  16.205  1.00  0.00    -0.504 OA
ATOM     24  H   UNL     1      17.908 -17.051  15.718  1.00  0.00     0.293 HD
ENDBRANCH  20  23
ENDBRANCH  14  15
ENDBRANCH  12  14
ENDBRANCH   9  10
ENDBRANCH   1   9
TORSDOF 10
ENDMDL
MODEL 9
REMARK VINA RESULT:    -6.482      5.254      7.626
REMARK INTER + INTRA:         -10.762
REMARK INTER:                  -8.529
REMARK INTRA:                  -2.233
REMARK UNBOUND:                -0.680
REMARK SMILES COc1cc(CNC(=O)CCCCC=CC(C)C)ccc1O
REMARK SMILES IDX 11 1 12 2 13 3 14 4 15 5 16 6 17 7 18 8 10 9 8 10 9 11 7 12
REMARK SMILES IDX 6 14 5 15 4 16 19 17 3 18 20 19 21 20 2 21 1 22 22 23
REMARK H PARENT 7 13 22 24
REMARK Flexibility Score: inf
ROOT
ATOM      1  C   UNL     1      19.908  -6.095  20.256  1.00  0.00     0.010 C 
ENDROOT
BRANCH   1   2
ATOM      2  C   UNL     1      20.035  -7.040  21.462  1.00  0.00     0.005 C 
BRANCH   2   3
ATOM      3  C   UNL     1      18.721  -7.766  21.782  1.00  0.00     0.027 C 
BRANCH   3   4
ATOM      4  C   UNL     1      17.876  -7.918  20.546  1.00  0.00    -0.031 C 
ATOM      5  C   UNL     1      17.661  -9.122  19.988  1.00  0.00    -0.028 C 
BRANCH   5   6
ATOM      6  C   UNL     1      16.817  -9.309  18.748  1.00  0.00     0.005 C 
ATOM      7  C   UNL     1      16.482  -7.962  18.096  1.00  0.00     0.012 C 
ATOM      8  C   UNL     1      17.489 -10.258  17.749  1.00  0.00     0.012 C 
ENDBRANCH   5   6
ENDBRANCH   3   4
ENDBRANCH   2   3
ENDBRANCH   1   2
BRANCH   1   9
ATOM      9  C   UNL     1      21.019  -6.310  19.221  1.00  0.00     0.100 C 
BRANCH   9  10
ATOM     10  C   UNL     1      20.994  -7.722  18.719  1.00  0.00     0.220 C 
ATOM     11  O   UNL     1      20.151  -8.054  17.842  1.00  0.00    -0.275 OA
ATOM     12  N   UNL     1      21.887  -8.698  19.271  1.00  0.00    -0.352 N 
ATOM     13  H   UNL     1      22.553  -8.408  20.022  1.00  0.00     0.163 HD
BRANCH  12  14
ATOM     14  C   UNL     1      21.859 -10.104  18.874  1.00  0.00     0.151 C 
BRANCH  14  15
ATOM     15  C   UNL     1      20.960 -10.892  19.788  1.00  0.00    -0.025 A 
ATOM     16  C   UNL     1      20.219 -11.979  19.298  1.00  0.00     0.056 A 
ATOM     17  C   UNL     1      20.876 -10.557  21.147  1.00  0.00     0.009 A 
ATOM     18  C   UNL     1      19.389 -12.727  20.158  1.00  0.00     0.160 A 
ATOM     19  C   UNL     1      20.055 -11.293  22.004  1.00  0.00     0.050 A 
ATOM     20  C   UNL     1      19.312 -12.375  21.514  1.00  0.00     0.157 A 
BRANCH  18  21
ATOM     21  O   UNL     1      18.633 -13.819  19.706  1.00  0.00    -0.493 OA
ATOM     22  C   UNL     1      17.347 -13.716  19.105  1.00  0.00     0.278 C 
ENDBRANCH  18  21
BRANCH  20  23
ATOM     23  O   UNL     1      18.492 -13.110  22.370  1.00  0.00    -0.504 OA
ATOM     24  H   UNL     1      17.751 -12.670  22.902  1.00  0.00     0.293 HD
ENDBRANCH  20  23
ENDBRANCH  14  15
ENDBRANCH  12  14
ENDBRANCH   9  10
ENDBRANCH   1   9
TORSDOF 10
ENDMDL
