MODEL 1
REMARK VINA RESULT:    -3.723      0.000      0.000
REMARK INTER + INTRA:          -4.774
REMARK INTER:                  -4.594
REMARK INTRA:                  -0.181
REMARK UNBOUND:                -0.181
REMARK SMILES CCCCCC(=O)[O-]
REMARK SMILES IDX 4 1 5 2 6 3 7 4 8 5 3 6 2 7 1 8
REMARK H PARENT
REMARK Flexibility Score: inf
ROOT
ATOM      1  C   UNL     1      15.088  11.966  -1.244  1.00  0.00     0.006 C 
ENDROOT
BRANCH   1   2
ATOM      2  C   UNL     1      15.738  11.580  -2.581  1.00  0.00     0.053 C 
BRANCH   2   3
ATOM      3  C   UNL     1      17.029  12.306  -2.807  1.00  0.00     0.041 C 
ATOM      4  O   UNL     1      17.581  12.280  -3.938  1.00  0.00    -0.550 OA
ATOM      5  O   UNL     1      17.638  12.986  -1.759  1.00  0.00    -0.550 OA
ENDBRANCH   2   3
ENDBRANCH   1   2
BRANCH   1   6
ATOM      6  C   UNL     1      15.290  10.933  -0.119  1.00  0.00     0.000 C 
BRANCH   6   7
ATOM      7  C   UNL     1      15.973  11.530   1.120  1.00  0.00    -0.003 C 
ATOM      8  C   UNL     1      17.298  10.829   1.407  1.00  0.00     0.004 C 
ENDBRANCH   6   7
ENDBRANCH   1   6
TORSDOF 4
ENDMDL
MODEL 2
REMARK VINA RESULT:    -3.615      1.889      3.701
REMARK INTER + INTRA:          -4.641
REMARK INTER:                  -4.442
REMARK INTRA:                  -0.199
REMARK UNBOUND:                -0.181
REMARK SMILES CCCCCC(=O)[O-]
REMARK SMILES IDX 4 1 5 2 6 3 7 4 8 5 3 6 2 7 1 8
REMARK H PARENT
REMARK Flexibility Score: inf
ROOT
ATOM      1  C   UNL     1      15.377  10.989  -0.005  1.00  0.00     0.006 C 
ENDROOT
BRANCH   1   2
ATOM      2  C   UNL     1      16.208  11.369   1.230  1.00  0.00     0.053 C 
BRANCH   2   3
ATOM      3  C   UNL     1      17.671  11.123   1.019  1.00  0.00     0.041 C 
ATOM      4  O   UNL     1      18.168   9.996   1.281  1.00  0.00    -0.550 OA
ATOM      5  O   UNL     1      18.490  12.148   0.562  1.00  0.00    -0.550 OA
ENDBRANCH   2   3
ENDBRANCH   1   2
BRANCH   1   6
ATOM      6  C   UNL     1      15.341  12.071  -1.100  1.00  0.00     0.000 C 
BRANCH   6   7
ATOM      7  C   UNL     1      15.886  11.572  -2.446  1.00  0.00    -0.003 C 
ATOM      8  C   UNL     1      17.073  12.414  -2.905  1.00  0.00     0.004 C 
ENDBRANCH   6   7
ENDBRANCH   1   6
TORSDOF 4
ENDMDL
MODEL 3
REMARK VINA RESULT:    -3.111     17.817     18.340
REMARK INTER + INTRA:          -4.019
REMARK INTER:                  -3.951
REMARK INTRA:                  -0.069
REMARK UNBOUND:                -0.181
REMARK SMILES CCCCCC(=O)[O-]
REMARK SMILES IDX 4 1 5 2 6 3 7 4 8 5 3 6 2 7 1 8
REMARK H PARENT
REMARK Flexibility Score: inf
ROOT
ATOM      1  C   UNL     1      13.450  -6.073   2.447  1.00  0.00     0.006 C 
ENDROOT
BRANCH   1   2
ATOM      2  C   UNL     1      12.324  -6.259   1.419  1.00  0.00     0.053 C 
BRANCH   2   3
ATOM      3  C   UNL     1      12.790  -5.979   0.022  1.00  0.00     0.041 C 
ATOM      4  O   UNL     1      12.283  -5.033  -0.637  1.00  0.00    -0.550 OA
ATOM      5  O   UNL     1      13.761  -6.782  -0.561  1.00  0.00    -0.550 OA
ENDBRANCH   2   3
ENDBRANCH   1   2
BRANCH   1   6
ATOM      6  C   UNL     1      12.994  -6.192   3.913  1.00  0.00     0.000 C 
BRANCH   6   7
ATOM      7  C   UNL     1      11.867  -5.211   4.266  1.00  0.00    -0.003 C 
ATOM      8  C   UNL     1      12.207  -4.414   5.523  1.00  0.00     0.004 C 
ENDBRANCH   6   7
ENDBRANCH   1   6
TORSDOF 4
ENDMDL
MODEL 4
REMARK VINA RESULT:    -3.072     11.418     12.224
REMARK INTER + INTRA:          -3.972
REMARK INTER:                  -3.868
REMARK INTRA:                  -0.104
REMARK UNBOUND:                -0.181
REMARK SMILES CCCCCC(=O)[O-]
REMARK SMILES IDX 4 1 5 2 6 3 7 4 8 5 3 6 2 7 1 8
REMARK H PARENT
REMARK Flexibility Score: inf
ROOT
ATOM      1  C   UNL     1       5.736   8.050   1.183  1.00  0.00     0.006 C 
ENDROOT
BRANCH   1   2
ATOM      2  C   UNL     1       5.843   6.771   2.025  1.00  0.00     0.053 C 
BRANCH   2   3
ATOM      3  C   UNL     1       6.107   7.071   3.469  1.00  0.00     0.041 C 
ATOM      4  O   UNL     1       5.968   8.243   3.908  1.00  0.00    -0.550 OA
ATOM      5  O   UNL     1       6.538   6.062   4.322  1.00  0.00    -0.550 OA
ENDBRANCH   2   3
ENDBRANCH   1   2
BRANCH   1   6
ATOM      6  C   UNL     1       6.313   7.922  -0.239  1.00  0.00     0.000 C 
BRANCH   6   7
ATOM      7  C   UNL     1       6.461   6.463  -0.691  1.00  0.00    -0.003 C 
ATOM      8  C   UNL     1       7.418   6.347  -1.874  1.00  0.00     0.004 C 
ENDBRANCH   6   7
ENDBRANCH   1   6
TORSDOF 4
ENDMDL
MODEL 5
REMARK VINA RESULT:    -3.019      2.538      3.916
REMARK INTER + INTRA:          -3.906
REMARK INTER:                  -3.764
REMARK INTRA:                  -0.142
REMARK UNBOUND:                -0.181
REMARK SMILES CCCCCC(=O)[O-]
REMARK SMILES IDX 4 1 5 2 6 3 7 4 8 5 3 6 2 7 1 8
REMARK H PARENT
REMARK Flexibility Score: inf
ROOT
ATOM      1  C   UNL     1      17.933  13.125  -1.728  1.00  0.00     0.006 C 
ENDROOT
BRANCH   1   2
ATOM      2  C   UNL     1      17.372  12.791  -0.337  1.00  0.00     0.053 C 
BRANCH   2   3
ATOM      3  C   UNL     1      18.350  12.011   0.488  1.00  0.00     0.041 C 
ATOM      4  O   UNL     1      17.955  11.048   1.196  1.00  0.00    -0.550 OA
ATOM      5  O   UNL     1      19.692  12.369   0.499  1.00  0.00    -0.550 OA
ENDBRANCH   2   3
ENDBRANCH   1   2
BRANCH   1   6
ATOM      6  C   UNL     1      17.148  12.496  -2.894  1.00  0.00     0.000 C 
BRANCH   6   7
ATOM      7  C   UNL     1      15.972  11.631  -2.421  1.00  0.00    -0.003 C 
ATOM      8  C   UNL     1      14.638  12.228  -2.863  1.00  0.00     0.004 C 
ENDBRANCH   6   7
ENDBRANCH   1   6
TORSDOF 4
ENDMDL
MODEL 6
REMARK VINA RESULT:    -3.004     10.270     11.054
REMARK INTER + INTRA:          -3.887
REMARK INTER:                  -3.657
REMARK INTRA:                  -0.230
REMARK UNBOUND:                -0.181
REMARK SMILES CCCCCC(=O)[O-]
REMARK SMILES IDX 4 1 5 2 6 3 7 4 8 5 3 6 2 7 1 8
REMARK H PARENT
REMARK Flexibility Score: inf
ROOT
ATOM      1  C   UNL     1       5.514   7.800   1.095  1.00  0.00     0.006 C 
ENDROOT
BRANCH   1   2
ATOM      2  C   UNL     1       6.676   8.261   0.202  1.00  0.00     0.053 C 
BRANCH   2   3
ATOM      3  C   UNL     1       7.628   9.154   0.937  1.00  0.00     0.041 C 
ATOM      4  O   UNL     1       8.860   8.895   0.947  1.00  0.00    -0.550 OA
ATOM      5  O   UNL     1       7.149  10.254   1.638  1.00  0.00    -0.550 OA
ENDBRANCH   2   3
ENDBRANCH   1   2
BRANCH   1   6
ATOM      6  C   UNL     1       5.913   6.778   2.175  1.00  0.00     0.000 C 
BRANCH   6   7
ATOM      7  C   UNL     1       5.852   7.359   3.594  1.00  0.00    -0.003 C 
ATOM      8  C   UNL     1       4.620   8.242   3.774  1.00  0.00     0.004 C 
ENDBRANCH   6   7
ENDBRANCH   1   6
TORSDOF 4
ENDMDL
MODEL 7
REMARK VINA RESULT:    -2.982     17.929     18.463
REMARK INTER + INTRA:          -3.860
REMARK INTER:                  -3.657
REMARK INTRA:                  -0.203
REMARK UNBOUND:                -0.181
REMARK SMILES CCCCCC(=O)[O-]
REMARK SMILES IDX 4 1 5 2 6 3 7 4 8 5 3 6 2 7 1 8
REMARK H PARENT
REMARK Flexibility Score: inf
ROOT
ATOM      1  C   UNL     1      12.760  -5.968   2.323  1.00  0.00     0.006 C 
ENDROOT
BRANCH   1   2
ATOM      2  C   UNL     1      14.214  -6.369   2.031  1.00  0.00     0.053 C 
BRANCH   2   3
ATOM      3  C   UNL     1      15.154  -5.883   3.093  1.00  0.00     0.041 C 
ATOM      4  O   UNL     1      15.374  -4.651   3.228  1.00  0.00    -0.550 OA
ATOM      5  O   UNL     1      15.809  -6.795   3.911  1.00  0.00    -0.550 OA
ENDBRANCH   2   3
ENDBRANCH   1   2
BRANCH   1   6
ATOM      6  C   UNL     1      12.310  -6.233   3.772  1.00  0.00     0.000 C 
BRANCH   6   7
ATOM      7  C   UNL     1      11.565  -5.041   4.389  1.00  0.00    -0.003 C 
ATOM      8  C   UNL     1      12.274  -4.538   5.643  1.00  0.00     0.004 C 
ENDBRANCH   6   7
ENDBRANCH   1   6
TORSDOF 4
ENDMDL
MODEL 8
REMARK VINA RESULT:    -2.959     10.867     11.835
REMARK INTER + INTRA:          -3.832
REMARK INTER:                  -3.630
REMARK INTRA:                  -0.202
REMARK UNBOUND:                -0.181
REMARK SMILES CCCCCC(=O)[O-]
REMARK SMILES IDX 4 1 5 2 6 3 7 4 8 5 3 6 2 7 1 8
REMARK H PARENT
REMARK Flexibility Score: inf
ROOT
ATOM      1  C   UNL     1       5.323   7.954   1.245  1.00  0.00     0.006 C 
ENDROOT
BRANCH   1   2
ATOM      2  C   UNL     1       5.907   6.737   1.978  1.00  0.00     0.053 C 
BRANCH   2   3
ATOM      3  C   UNL     1       6.014   6.971   3.454  1.00  0.00     0.041 C 
ATOM      4  O   UNL     1       5.683   8.082   3.945  1.00  0.00    -0.550 OA
ATOM      5  O   UNL     1       6.510   5.971   4.282  1.00  0.00    -0.550 OA
ENDBRANCH   2   3
ENDBRANCH   1   2
BRANCH   1   6
ATOM      6  C   UNL     1       6.311   8.655   0.294  1.00  0.00     0.000 C 
BRANCH   6   7
ATOM      7  C   UNL     1       7.324   9.538   1.036  1.00  0.00    -0.003 C 
ATOM      8  C   UNL     1       8.724   8.931   0.984  1.00  0.00     0.004 C 
ENDBRANCH   6   7
ENDBRANCH   1   6
TORSDOF 4
ENDMDL
MODEL 9
REMARK VINA RESULT:    -2.888     17.709     18.517
REMARK INTER + INTRA:          -3.745
REMARK INTER:                  -3.656
REMARK INTRA:                  -0.089
REMARK UNBOUND:                -0.181
REMARK SMILES CCCCCC(=O)[O-]
REMARK SMILES IDX 4 1 5 2 6 3 7 4 8 5 3 6 2 7 1 8
REMARK H PARENT
REMARK Flexibility Score: inf
ROOT
ATOM      1  C   UNL     1      13.574  -6.179   2.501  1.00  0.00     0.006 C 
ENDROOT
BRANCH   1   2
ATOM      2  C   UNL     1      13.095  -6.275   3.957  1.00  0.00     0.053 C 
BRANCH   2   3
ATOM      3  C   UNL     1      12.450  -5.004   4.420  1.00  0.00     0.041 C 
ATOM      4  O   UNL     1      11.200  -4.939   4.549  1.00  0.00    -0.550 OA
ATOM      5  O   UNL     1      13.229  -3.883   4.678  1.00  0.00    -0.550 OA
ENDBRANCH   2   3
ENDBRANCH   1   2
BRANCH   1   6
ATOM      6  C   UNL     1      12.455  -6.337   1.455  1.00  0.00     0.000 C 
BRANCH   6   7
ATOM      7  C   UNL     1      12.918  -5.991   0.033  1.00  0.00    -0.003 C 
ATOM      8  C   UNL     1      12.129  -4.812  -0.531  1.00  0.00     0.004 C 
ENDBRANCH   6   7
ENDBRANCH   1   6
TORSDOF 4
ENDMDL
