MODEL 1
REMARK VINA RESULT:    -5.573      0.000      0.000
REMARK INTER + INTRA:          -6.328
REMARK INTER:                  -6.225
REMARK INTRA:                  -0.103
REMARK UNBOUND:                -0.103
REMARK SMILES COc1cc(OC)c2ccc(=O)oc2c1
REMARK SMILES IDX 3 1 15 2 14 3 8 4 9 5 10 6 11 7 12 8 13 9 5 10 4 11 2 12
REMARK SMILES IDX 1 13 6 14 7 15
REMARK H PARENT
REMARK Flexibility Score: inf
ROOT
ATOM      1  C   UNL     1      -7.120  -5.820  11.456  1.00  0.00     0.126 A 
ATOM      2  C   UNL     1      -8.033  -5.590  12.500  1.00  0.00     0.094 A 
ATOM      3  C   UNL     1      -8.752  -6.652  13.055  1.00  0.00     0.145 A 
ATOM      4  C   UNL     1      -8.564  -7.966  12.567  1.00  0.00     0.060 A 
ATOM      5  C   UNL     1      -9.309  -8.998  13.155  1.00  0.00     0.023 A 
ATOM      6  C   UNL     1     -10.198  -8.706  14.187  1.00  0.00     0.095 A 
ATOM      7  C   UNL     1     -10.327  -7.382  14.615  1.00  0.00     0.336 A 
ATOM      8  O   UNL     1     -11.125  -7.097  15.546  1.00  0.00    -0.246 OA
ATOM      9  O   UNL     1      -9.612  -6.418  14.044  1.00  0.00    -0.422 OA
ATOM     10  C   UNL     1      -7.653  -8.206  11.521  1.00  0.00     0.133 A 
ATOM     11  C   UNL     1      -6.937  -7.121  10.975  1.00  0.00     0.093 A 
ENDROOT
BRANCH   1  12
ATOM     12  O   UNL     1      -6.377  -4.785  10.869  1.00  0.00    -0.496 OA
ATOM     13  C   UNL     1      -4.982  -4.853  10.588  1.00  0.00     0.278 C 
ENDBRANCH   1  12
BRANCH  10  14
ATOM     14  O   UNL     1      -7.480  -9.519  11.049  1.00  0.00    -0.496 OA
ATOM     15  C   UNL     1      -6.219 -10.122  10.779  1.00  0.00     0.278 C 
ENDBRANCH  10  14
TORSDOF 2
ENDMDL
MODEL 2
REMARK VINA RESULT:    -5.404      2.077      4.508
REMARK INTER + INTRA:          -6.139
REMARK INTER:                  -6.033
REMARK INTRA:                  -0.105
REMARK UNBOUND:                -0.103
REMARK SMILES COc1cc(OC)c2ccc(=O)oc2c1
REMARK SMILES IDX 3 1 15 2 14 3 8 4 9 5 10 6 11 7 12 8 13 9 5 10 4 11 2 12
REMARK SMILES IDX 1 13 6 14 7 15
REMARK H PARENT
REMARK Flexibility Score: inf
ROOT
ATOM      1  C   UNL     1      -9.201  -6.009  13.715  1.00  0.00     0.126 A 
ATOM      2  C   UNL     1      -7.902  -5.932  13.182  1.00  0.00     0.094 A 
ATOM      3  C   UNL     1      -7.180  -7.097  12.910  1.00  0.00     0.145 A 
ATOM      4  C   UNL     1      -7.755  -8.363  13.170  1.00  0.00     0.060 A 
ATOM      5  C   UNL     1      -6.992  -9.503  12.882  1.00  0.00     0.023 A 
ATOM      6  C   UNL     1      -5.710  -9.361  12.355  1.00  0.00     0.095 A 
ATOM      7  C   UNL     1      -5.212  -8.075  12.124  1.00  0.00     0.336 A 
ATOM      8  O   UNL     1      -4.057  -7.925  11.648  1.00  0.00    -0.246 OA
ATOM      9  O   UNL     1      -5.952  -7.007  12.405  1.00  0.00    -0.422 OA
ATOM     10  C   UNL     1      -9.054  -8.451  13.705  1.00  0.00     0.133 A 
ATOM     11  C   UNL     1      -9.766  -7.263  13.972  1.00  0.00     0.093 A 
ENDROOT
BRANCH   1  12
ATOM     12  O   UNL     1      -9.962  -4.866  14.003  1.00  0.00    -0.496 OA
ATOM     13  C   UNL     1     -11.125  -4.858  14.825  1.00  0.00     0.278 C 
ENDBRANCH   1  12
BRANCH  10  14
ATOM     14  O   UNL     1      -9.608  -9.718  13.957  1.00  0.00    -0.496 OA
ATOM     15  C   UNL     1     -10.958 -10.079  13.685  1.00  0.00     0.278 C 
ENDBRANCH  10  14
TORSDOF 2
ENDMDL
MODEL 3
REMARK VINA RESULT:    -5.403      1.086      3.277
REMARK INTER + INTRA:          -6.137
REMARK INTER:                  -6.034
REMARK INTRA:                  -0.103
REMARK UNBOUND:                -0.103
REMARK SMILES COc1cc(OC)c2ccc(=O)oc2c1
REMARK SMILES IDX 3 1 15 2 14 3 8 4 9 5 10 6 11 7 12 8 13 9 5 10 4 11 2 12
REMARK SMILES IDX 1 13 6 14 7 15
REMARK H PARENT
REMARK Flexibility Score: inf
ROOT
ATOM      1  C   UNL     1      -7.111  -9.008  10.999  1.00  0.00     0.126 A 
ATOM      2  C   UNL     1      -8.031  -9.179  12.049  1.00  0.00     0.094 A 
ATOM      3  C   UNL     1      -8.565  -8.069  12.708  1.00  0.00     0.145 A 
ATOM      4  C   UNL     1      -8.182  -6.764  12.321  1.00  0.00     0.060 A 
ATOM      5  C   UNL     1      -8.743  -5.681  13.012  1.00  0.00     0.023 A 
ATOM      6  C   UNL     1      -9.650  -5.917  14.044  1.00  0.00     0.095 A 
ATOM      7  C   UNL     1      -9.979  -7.236  14.368  1.00  0.00     0.336 A 
ATOM      8  O   UNL     1     -10.796  -7.471  15.296  1.00  0.00    -0.246 OA
ATOM      9  O   UNL     1      -9.435  -8.249  13.699  1.00  0.00    -0.422 OA
ATOM     10  C   UNL     1      -7.261  -6.582  11.271  1.00  0.00     0.133 A 
ATOM     11  C   UNL     1      -6.734  -7.715  10.619  1.00  0.00     0.093 A 
ENDROOT
BRANCH   1  12
ATOM     12  O   UNL     1      -6.550 -10.093  10.309  1.00  0.00    -0.496 OA
ATOM     13  C   UNL     1      -6.282 -10.107   8.910  1.00  0.00     0.278 C 
ENDBRANCH   1  12
BRANCH  10  14
ATOM     14  O   UNL     1      -6.892  -5.277  10.901  1.00  0.00    -0.496 OA
ATOM     15  C   UNL     1      -5.571  -4.879  10.549  1.00  0.00     0.278 C 
ENDBRANCH  10  14
TORSDOF 2
ENDMDL
MODEL 4
REMARK VINA RESULT:    -5.290      2.043      2.415
REMARK INTER + INTRA:          -6.011
REMARK INTER:                  -5.914
REMARK INTRA:                  -0.097
REMARK UNBOUND:                -0.103
REMARK SMILES COc1cc(OC)c2ccc(=O)oc2c1
REMARK SMILES IDX 3 1 15 2 14 3 8 4 9 5 10 6 11 7 12 8 13 9 5 10 4 11 2 12
REMARK SMILES IDX 1 13 6 14 7 15
REMARK H PARENT
REMARK Flexibility Score: inf
ROOT
ATOM      1  C   UNL     1      -7.587  -5.257  13.142  1.00  0.00     0.126 A 
ATOM      2  C   UNL     1      -8.770  -5.982  13.370  1.00  0.00     0.094 A 
ATOM      3  C   UNL     1      -8.802  -7.364  13.162  1.00  0.00     0.145 A 
ATOM      4  C   UNL     1      -7.642  -8.040  12.720  1.00  0.00     0.060 A 
ATOM      5  C   UNL     1      -7.723  -9.426  12.524  1.00  0.00     0.023 A 
ATOM      6  C   UNL     1      -8.925 -10.088  12.768  1.00  0.00     0.095 A 
ATOM      7  C   UNL     1     -10.028  -9.349  13.205  1.00  0.00     0.336 A 
ATOM      8  O   UNL     1     -11.122  -9.929  13.431  1.00  0.00    -0.246 OA
ATOM      9  O   UNL     1      -9.930  -8.036  13.384  1.00  0.00    -0.422 OA
ATOM     10  C   UNL     1      -6.453  -7.323  12.487  1.00  0.00     0.133 A 
ATOM     11  C   UNL     1      -6.441  -5.929  12.703  1.00  0.00     0.093 A 
ENDROOT
BRANCH   1  12
ATOM     12  O   UNL     1      -7.509  -3.870  13.338  1.00  0.00    -0.496 OA
ATOM     13  C   UNL     1      -6.311  -3.166  13.652  1.00  0.00     0.278 C 
ENDBRANCH   1  12
BRANCH  10  14
ATOM     14  O   UNL     1      -5.310  -8.012  12.047  1.00  0.00    -0.496 OA
ATOM     15  C   UNL     1      -4.057  -7.401  11.762  1.00  0.00     0.278 C 
ENDBRANCH  10  14
TORSDOF 2
ENDMDL
MODEL 5
REMARK VINA RESULT:    -5.229      7.839     10.969
REMARK INTER + INTRA:          -5.944
REMARK INTER:                  -5.849
REMARK INTRA:                  -0.094
REMARK UNBOUND:                -0.103
REMARK SMILES COc1cc(OC)c2ccc(=O)oc2c1
REMARK SMILES IDX 3 1 15 2 14 3 8 4 9 5 10 6 11 7 12 8 13 9 5 10 4 11 2 12
REMARK SMILES IDX 1 13 6 14 7 15
REMARK H PARENT
REMARK Flexibility Score: inf
ROOT
ATOM      1  C   UNL     1      -0.397  -9.246  11.891  1.00  0.00     0.126 A 
ATOM      2  C   UNL     1       0.478  -9.966  11.059  1.00  0.00     0.094 A 
ATOM      3  C   UNL     1       1.383  -9.292  10.234  1.00  0.00     0.145 A 
ATOM      4  C   UNL     1       1.422  -7.879  10.233  1.00  0.00     0.060 A 
ATOM      5  C   UNL     1       2.346  -7.248   9.388  1.00  0.00     0.023 A 
ATOM      6  C   UNL     1       3.187  -8.018   8.587  1.00  0.00     0.095 A 
ATOM      7  C   UNL     1       3.089  -9.411   8.646  1.00  0.00     0.336 A 
ATOM      8  O   UNL     1       3.839 -10.125   7.931  1.00  0.00    -0.246 OA
ATOM      9  O   UNL     1       2.205  -9.990   9.454  1.00  0.00    -0.422 OA
ATOM     10  C   UNL     1       0.550  -7.148  11.062  1.00  0.00     0.133 A 
ATOM     11  C   UNL     1      -0.356  -7.847  11.886  1.00  0.00     0.093 A 
ENDROOT
BRANCH   1  12
ATOM     12  O   UNL     1      -1.321  -9.880  12.735  1.00  0.00    -0.496 OA
ATOM     13  C   UNL     1      -1.290  -9.815  14.157  1.00  0.00     0.278 C 
ENDBRANCH   1  12
BRANCH  10  14
ATOM     14  O   UNL     1       0.603  -5.744  11.046  1.00  0.00    -0.496 OA
ATOM     15  C   UNL     1       1.224  -4.947  12.049  1.00  0.00     0.278 C 
ENDBRANCH  10  14
TORSDOF 2
ENDMDL
MODEL 6
REMARK VINA RESULT:    -5.216      2.067      4.070
REMARK INTER + INTRA:          -5.929
REMARK INTER:                  -5.832
REMARK INTRA:                  -0.098
REMARK UNBOUND:                -0.103
REMARK SMILES COc1cc(OC)c2ccc(=O)oc2c1
REMARK SMILES IDX 3 1 15 2 14 3 8 4 9 5 10 6 11 7 12 8 13 9 5 10 4 11 2 12
REMARK SMILES IDX 1 13 6 14 7 15
REMARK H PARENT
REMARK Flexibility Score: inf
ROOT
ATOM      1  C   UNL     1      -6.999  -4.282  13.053  1.00  0.00     0.126 A 
ATOM      2  C   UNL     1      -6.369  -5.518  12.820  1.00  0.00     0.094 A 
ATOM      3  C   UNL     1      -7.078  -6.712  12.977  1.00  0.00     0.145 A 
ATOM      4  C   UNL     1      -8.435  -6.683  13.373  1.00  0.00     0.060 A 
ATOM      5  C   UNL     1      -9.104  -7.907  13.519  1.00  0.00     0.023 A 
ATOM      6  C   UNL     1      -8.424  -9.098  13.273  1.00  0.00     0.095 A 
ATOM      7  C   UNL     1      -7.082  -9.044  12.884  1.00  0.00     0.336 A 
ATOM      8  O   UNL     1      -6.450 -10.109  12.657  1.00  0.00    -0.246 OA
ATOM      9  O   UNL     1      -6.467  -7.873  12.752  1.00  0.00    -0.422 OA
ATOM     10  C   UNL     1      -9.075  -5.451  13.609  1.00  0.00     0.133 A 
ATOM     11  C   UNL     1      -8.342  -4.258  13.445  1.00  0.00     0.093 A 
ENDROOT
BRANCH   1  12
ATOM     12  O   UNL     1      -6.328  -3.059  12.906  1.00  0.00    -0.496 OA
ATOM     13  C   UNL     1      -5.631  -2.392  13.954  1.00  0.00     0.278 C 
ENDBRANCH   1  12
BRANCH  10  14
ATOM     14  O   UNL     1     -10.424  -5.443  14.003  1.00  0.00    -0.496 OA
ATOM     15  C   UNL     1     -11.026  -4.434  14.806  1.00  0.00     0.278 C 
ENDBRANCH  10  14
TORSDOF 2
ENDMDL
MODEL 7
REMARK VINA RESULT:    -5.210     12.432     15.784
REMARK INTER + INTRA:          -5.923
REMARK INTER:                  -5.828
REMARK INTRA:                  -0.095
REMARK UNBOUND:                -0.103
REMARK SMILES COc1cc(OC)c2ccc(=O)oc2c1
REMARK SMILES IDX 3 1 15 2 14 3 8 4 9 5 10 6 11 7 12 8 13 9 5 10 4 11 2 12
REMARK SMILES IDX 1 13 6 14 7 15
REMARK H PARENT
REMARK Flexibility Score: inf
ROOT
ATOM      1  C   UNL     1       3.087   1.482  14.303  1.00  0.00     0.126 A 
ATOM      2  C   UNL     1       3.866   2.645  14.173  1.00  0.00     0.094 A 
ATOM      3  C   UNL     1       3.827   3.392  12.992  1.00  0.00     0.145 A 
ATOM      4  C   UNL     1       3.003   2.980  11.921  1.00  0.00     0.060 A 
ATOM      5  C   UNL     1       2.998   3.761  10.756  1.00  0.00     0.023 A 
ATOM      6  C   UNL     1       3.792   4.903  10.689  1.00  0.00     0.095 A 
ATOM      7  C   UNL     1       4.580   5.246  11.791  1.00  0.00     0.336 A 
ATOM      8  O   UNL     1       5.305   6.275  11.751  1.00  0.00    -0.246 OA
ATOM      9  O   UNL     1       4.570   4.491  12.886  1.00  0.00    -0.422 OA
ATOM     10  C   UNL     1       2.220   1.815  12.040  1.00  0.00     0.133 A 
ATOM     11  C   UNL     1       2.273   1.076  13.240  1.00  0.00     0.093 A 
ENDROOT
BRANCH   1  12
ATOM     12  O   UNL     1       3.094   0.701  15.469  1.00  0.00    -0.496 OA
ATOM     13  C   UNL     1       3.250  -0.714  15.491  1.00  0.00     0.278 C 
ENDBRANCH   1  12
BRANCH  10  14
ATOM     14  O   UNL     1       1.407   1.421  10.964  1.00  0.00    -0.496 OA
ATOM     15  C   UNL     1       0.821   0.131  10.822  1.00  0.00     0.278 C 
ENDBRANCH  10  14
TORSDOF 2
ENDMDL
MODEL 8
REMARK VINA RESULT:    -5.198      2.030      5.113
REMARK INTER + INTRA:          -5.909
REMARK INTER:                  -5.796
REMARK INTRA:                  -0.113
REMARK UNBOUND:                -0.103
REMARK SMILES COc1cc(OC)c2ccc(=O)oc2c1
REMARK SMILES IDX 3 1 15 2 14 3 8 4 9 5 10 6 11 7 12 8 13 9 5 10 4 11 2 12
REMARK SMILES IDX 1 13 6 14 7 15
REMARK H PARENT
REMARK Flexibility Score: inf
ROOT
ATOM      1  C   UNL     1      -8.926  -5.193  13.544  1.00  0.00     0.126 A 
ATOM      2  C   UNL     1      -8.550  -6.536  13.365  1.00  0.00     0.094 A 
ATOM      3  C   UNL     1      -7.282  -6.855  12.872  1.00  0.00     0.145 A 
ATOM      4  C   UNL     1      -6.369  -5.825  12.549  1.00  0.00     0.060 A 
ATOM      5  C   UNL     1      -5.109  -6.194  12.057  1.00  0.00     0.023 A 
ATOM      6  C   UNL     1      -4.797  -7.543  11.902  1.00  0.00     0.095 A 
ATOM      7  C   UNL     1      -5.753  -8.503  12.245  1.00  0.00     0.336 A 
ATOM      8  O   UNL     1      -5.491  -9.727  12.113  1.00  0.00    -0.246 OA
ATOM      9  O   UNL     1      -6.942  -8.132  12.710  1.00  0.00    -0.422 OA
ATOM     10  C   UNL     1      -6.735  -4.477  12.723  1.00  0.00     0.133 A 
ATOM     11  C   UNL     1      -8.019  -4.176  13.222  1.00  0.00     0.093 A 
ENDROOT
BRANCH   1  12
ATOM     12  O   UNL     1     -10.187  -4.826  14.036  1.00  0.00    -0.496 OA
ATOM     13  C   UNL     1     -11.013  -5.663  14.841  1.00  0.00     0.278 C 
ENDBRANCH   1  12
BRANCH  10  14
ATOM     14  O   UNL     1      -5.814  -3.467  12.396  1.00  0.00    -0.496 OA
ATOM     15  C   UNL     1      -5.403  -2.430  13.280  1.00  0.00     0.278 C 
ENDBRANCH  10  14
TORSDOF 2
ENDMDL
MODEL 9
REMARK VINA RESULT:    -5.165      7.682      9.719
REMARK INTER + INTRA:          -5.872
REMARK INTER:                  -5.767
REMARK INTRA:                  -0.104
REMARK UNBOUND:                -0.103
REMARK SMILES COc1cc(OC)c2ccc(=O)oc2c1
REMARK SMILES IDX 3 1 15 2 14 3 8 4 9 5 10 6 11 7 12 8 13 9 5 10 4 11 2 12
REMARK SMILES IDX 1 13 6 14 7 15
REMARK H PARENT
REMARK Flexibility Score: inf
ROOT
ATOM      1  C   UNL     1       1.884  -6.276   8.922  1.00  0.00     0.126 A 
ATOM      2  C   UNL     1       0.837  -6.271   9.861  1.00  0.00     0.094 A 
ATOM      3  C   UNL     1       0.507  -7.437  10.556  1.00  0.00     0.145 A 
ATOM      4  C   UNL     1       1.226  -8.631  10.318  1.00  0.00     0.060 A 
ATOM      5  C   UNL     1       0.858  -9.776  11.039  1.00  0.00     0.023 A 
ATOM      6  C   UNL     1      -0.189  -9.706  11.956  1.00  0.00     0.095 A 
ATOM      7  C   UNL     1      -0.852  -8.489  12.136  1.00  0.00     0.336 A 
ATOM      8  O   UNL     1      -1.800  -8.405  12.960  1.00  0.00    -0.246 OA
ATOM      9  O   UNL     1      -0.486  -7.415  11.442  1.00  0.00    -0.422 OA
ATOM     10  C   UNL     1       2.275  -8.647   9.380  1.00  0.00     0.133 A 
ATOM     11  C   UNL     1       2.593  -7.460   8.688  1.00  0.00     0.093 A 
ENDROOT
BRANCH   1  12
ATOM     12  O   UNL     1       2.251  -5.130   8.202  1.00  0.00    -0.496 OA
ATOM     13  C   UNL     1       1.610  -3.863   8.321  1.00  0.00     0.278 C 
ENDBRANCH   1  12
BRANCH  10  14
ATOM     14  O   UNL     1       2.978  -9.844   9.156  1.00  0.00    -0.496 OA
ATOM     15  C   UNL     1       3.747 -10.125   7.991  1.00  0.00     0.278 C 
ENDBRANCH  10  14
TORSDOF 2
ENDMDL
