MODEL 1
REMARK VINA RESULT:    -5.475      0.000      0.000
REMARK INTER + INTRA:          -5.475
REMARK INTER:                  -5.475
REMARK INTRA:                   0.000
REMARK UNBOUND:                 0.000
REMARK SMILES C=C1CCC[C@@]2(C)CC(=O)C(=C(C)C)C[C@H]12
REMARK SMILES IDX 13 1 12 2 11 3 15 4 16 5 2 6 1 7 3 8 4 9 5 10 6 11 8 12 9 13
REMARK SMILES IDX 10 14 7 15 14 16
REMARK H PARENT
REMARK Flexibility Score: inf
ROOT
ATOM      1  C   UNL     1      56.230  69.520  33.908  1.00  0.00     0.039 C 
ATOM      2  C   UNL     1      54.794  69.138  33.624  1.00  0.00    -0.070 C 
ATOM      3  C   UNL     1      54.048  69.817  32.704  1.00  0.00    -0.006 C 
ATOM      4  C   UNL     1      54.640  70.972  31.907  1.00  0.00     0.047 C 
ATOM      5  C   UNL     1      54.009  71.117  30.500  1.00  0.00     0.025 C 
ATOM      6  C   UNL     1      54.536  72.287  29.668  1.00  0.00    -0.073 C 
ATOM      7  C   UNL     1      55.472  73.156  30.097  1.00  0.00     0.008 C 
ATOM      8  C   UNL     1      53.982  72.415  28.270  1.00  0.00     0.031 C 
ATOM      9  C   UNL     1      52.451  72.428  28.302  1.00  0.00     0.005 C 
ATOM     10  C   UNL     1      51.890  71.235  29.096  1.00  0.00     0.008 C 
ATOM     11  C   UNL     1      52.449  71.150  30.548  1.00  0.00    -0.018 C 
ATOM     12  C   UNL     1      51.946  69.831  31.182  1.00  0.00     0.088 C 
ATOM     13  C   UNL     1      52.592  69.557  32.510  1.00  0.00     0.159 C 
ATOM     14  O   UNL     1      51.875  69.120  33.450  1.00  0.00    -0.295 OA
ATOM     15  C   UNL     1      51.923  72.353  31.380  1.00  0.00     0.012 C 
ATOM     16  C   UNL     1      54.240  67.951  34.380  1.00  0.00     0.039 C 
ENDROOT
TORSDOF 0
ENDMDL
MODEL 2
REMARK VINA RESULT:    -5.288     14.309     16.032
REMARK INTER + INTRA:          -5.288
REMARK INTER:                  -5.288
REMARK INTRA:                   0.000
REMARK UNBOUND:                 0.000
REMARK SMILES C=C1CCC[C@@]2(C)CC(=O)C(=C(C)C)C[C@H]12
REMARK SMILES IDX 13 1 12 2 11 3 15 4 16 5 2 6 1 7 3 8 4 9 5 10 6 11 8 12 9 13
REMARK SMILES IDX 10 14 7 15 14 16
REMARK H PARENT
REMARK Flexibility Score: inf
ROOT
ATOM      1  C   UNL     1      70.704  70.975  29.470  1.00  0.00     0.039 C 
ATOM      2  C   UNL     1      69.806  70.039  28.693  1.00  0.00    -0.070 C 
ATOM      3  C   UNL     1      69.237  68.948  29.285  1.00  0.00    -0.006 C 
ATOM      4  C   UNL     1      69.464  68.643  30.760  1.00  0.00     0.047 C 
ATOM      5  C   UNL     1      68.263  67.917  31.414  1.00  0.00     0.025 C 
ATOM      6  C   UNL     1      68.450  67.548  32.887  1.00  0.00    -0.073 C 
ATOM      7  C   UNL     1      69.567  67.809  33.593  1.00  0.00     0.008 C 
ATOM      8  C   UNL     1      67.272  66.892  33.566  1.00  0.00     0.031 C 
ATOM      9  C   UNL     1      66.804  65.675  32.764  1.00  0.00     0.005 C 
ATOM     10  C   UNL     1      66.564  66.026  31.286  1.00  0.00     0.008 C 
ATOM     11  C   UNL     1      67.809  66.665  30.600  1.00  0.00    -0.018 C 
ATOM     12  C   UNL     1      67.395  67.122  29.180  1.00  0.00     0.088 C 
ATOM     13  C   UNL     1      68.468  67.931  28.509  1.00  0.00     0.159 C 
ATOM     14  O   UNL     1      68.709  67.719  27.291  1.00  0.00    -0.295 OA
ATOM     15  C   UNL     1      68.942  65.606  30.488  1.00  0.00     0.012 C 
ATOM     16  C   UNL     1      69.543  70.389  27.246  1.00  0.00     0.039 C 
ENDROOT
TORSDOF 0
ENDMDL
MODEL 3
REMARK VINA RESULT:    -5.102     14.253     16.162
REMARK INTER + INTRA:          -5.102
REMARK INTER:                  -5.102
REMARK INTRA:                   0.000
REMARK UNBOUND:                 0.000
REMARK SMILES C=C1CCC[C@@]2(C)CC(=O)C(=C(C)C)C[C@H]12
REMARK SMILES IDX 13 1 12 2 11 3 15 4 16 5 2 6 1 7 3 8 4 9 5 10 6 11 8 12 9 13
REMARK SMILES IDX 10 14 7 15 14 16
REMARK H PARENT
REMARK Flexibility Score: inf
ROOT
ATOM      1  C   UNL     1      66.518  66.112  31.352  1.00  0.00     0.039 C 
ATOM      2  C   UNL     1      67.500  66.954  32.135  1.00  0.00    -0.070 C 
ATOM      3  C   UNL     1      68.440  67.718  31.504  1.00  0.00    -0.006 C 
ATOM      4  C   UNL     1      68.521  67.773  29.984  1.00  0.00     0.047 C 
ATOM      5  C   UNL     1      69.046  69.131  29.459  1.00  0.00     0.025 C 
ATOM      6  C   UNL     1      69.188  69.230  27.939  1.00  0.00    -0.073 C 
ATOM      7  C   UNL     1      68.897  68.228  27.088  1.00  0.00     0.008 C 
ATOM      8  C   UNL     1      69.641  70.565  27.397  1.00  0.00     0.031 C 
ATOM      9  C   UNL     1      70.934  71.008  28.085  1.00  0.00     0.005 C 
ATOM     10  C   UNL     1      70.808  70.962  29.617  1.00  0.00     0.008 C 
ATOM     11  C   UNL     1      70.377  69.563  30.152  1.00  0.00    -0.018 C 
ATOM     12  C   UNL     1      70.123  69.687  31.675  1.00  0.00     0.088 C 
ATOM     13  C   UNL     1      69.510  68.442  32.250  1.00  0.00     0.159 C 
ATOM     14  O   UNL     1      69.931  68.022  33.362  1.00  0.00    -0.295 OA
ATOM     15  C   UNL     1      71.517  68.537  29.904  1.00  0.00     0.012 C 
ATOM     16  C   UNL     1      67.368  66.936  33.641  1.00  0.00     0.039 C 
ENDROOT
TORSDOF 0
ENDMDL
MODEL 4
REMARK VINA RESULT:    -5.018      2.527      5.235
REMARK INTER + INTRA:          -5.018
REMARK INTER:                  -5.018
REMARK INTRA:                   0.000
REMARK UNBOUND:                 0.000
REMARK SMILES C=C1CCC[C@@]2(C)CC(=O)C(=C(C)C)C[C@H]12
REMARK SMILES IDX 13 1 12 2 11 3 15 4 16 5 2 6 1 7 3 8 4 9 5 10 6 11 8 12 9 13
REMARK SMILES IDX 10 14 7 15 14 16
REMARK H PARENT
REMARK Flexibility Score: inf
ROOT
ATOM      1  C   UNL     1      56.620  75.287  30.009  1.00  0.00     0.039 C 
ATOM      2  C   UNL     1      55.550  74.894  29.015  1.00  0.00    -0.070 C 
ATOM      3  C   UNL     1      54.882  73.708  29.124  1.00  0.00    -0.006 C 
ATOM      4  C   UNL     1      55.170  72.743  30.267  1.00  0.00     0.047 C 
ATOM      5  C   UNL     1      53.931  71.907  30.674  1.00  0.00     0.025 C 
ATOM      6  C   UNL     1      54.172  70.891  31.790  1.00  0.00    -0.073 C 
ATOM      7  C   UNL     1      55.361  70.699  32.393  1.00  0.00     0.008 C 
ATOM      8  C   UNL     1      52.966  70.104  32.248  1.00  0.00     0.031 C 
ATOM      9  C   UNL     1      52.281  69.436  31.053  1.00  0.00     0.005 C 
ATOM     10  C   UNL     1      51.986  70.444  29.930  1.00  0.00     0.008 C 
ATOM     11  C   UNL     1      53.254  71.213  29.450  1.00  0.00    -0.018 C 
ATOM     12  C   UNL     1      52.805  72.304  28.448  1.00  0.00     0.088 C 
ATOM     13  C   UNL     1      53.929  73.232  28.080  1.00  0.00     0.159 C 
ATOM     14  O   UNL     1      54.051  73.581  26.875  1.00  0.00    -0.295 OA
ATOM     15  C   UNL     1      54.222  70.227  28.737  1.00  0.00     0.012 C 
ATOM     16  C   UNL     1      55.234  75.889  27.921  1.00  0.00     0.039 C 
ENDROOT
TORSDOF 0
ENDMDL
MODEL 5
REMARK VINA RESULT:    -5.017     14.798     16.396
REMARK INTER + INTRA:          -5.017
REMARK INTER:                  -5.017
REMARK INTRA:                   0.000
REMARK UNBOUND:                 0.000
REMARK SMILES C=C1CCC[C@@]2(C)CC(=O)C(=C(C)C)C[C@H]12
REMARK SMILES IDX 13 1 12 2 11 3 15 4 16 5 2 6 1 7 3 8 4 9 5 10 6 11 8 12 9 13
REMARK SMILES IDX 10 14 7 15 14 16
REMARK H PARENT
REMARK Flexibility Score: inf
ROOT
ATOM      1  C   UNL     1      67.629  67.823  32.673  1.00  0.00     0.039 C 
ATOM      2  C   UNL     1      68.073  66.891  31.568  1.00  0.00    -0.070 C 
ATOM      3  C   UNL     1      68.621  67.371  30.413  1.00  0.00    -0.006 C 
ATOM      4  C   UNL     1      68.830  68.864  30.201  1.00  0.00     0.047 C 
ATOM      5  C   UNL     1      70.046  69.178  29.295  1.00  0.00     0.025 C 
ATOM      6  C   UNL     1      70.281  70.662  29.012  1.00  0.00    -0.073 C 
ATOM      7  C   UNL     1      69.503  71.653  29.489  1.00  0.00     0.008 C 
ATOM      8  C   UNL     1      71.496  71.000  28.181  1.00  0.00     0.031 C 
ATOM      9  C   UNL     1      71.487  70.201  26.875  1.00  0.00     0.005 C 
ATOM     10  C   UNL     1      71.297  68.696  27.131  1.00  0.00     0.008 C 
ATOM     11  C   UNL     1      70.015  68.374  27.957  1.00  0.00    -0.018 C 
ATOM     12  C   UNL     1      70.023  66.862  28.289  1.00  0.00     0.088 C 
ATOM     13  C   UNL     1      68.933  66.487  29.253  1.00  0.00     0.159 C 
ATOM     14  O   UNL     1      68.287  65.424  29.048  1.00  0.00    -0.295 OA
ATOM     15  C   UNL     1      68.753  68.707  27.112  1.00  0.00     0.012 C 
ATOM     16  C   UNL     1      67.914  65.408  31.820  1.00  0.00     0.039 C 
ENDROOT
TORSDOF 0
ENDMDL
MODEL 6
REMARK VINA RESULT:    -4.976     14.420     15.552
REMARK INTER + INTRA:          -4.976
REMARK INTER:                  -4.976
REMARK INTRA:                   0.000
REMARK UNBOUND:                 0.000
REMARK SMILES C=C1CCC[C@@]2(C)CC(=O)C(=C(C)C)C[C@H]12
REMARK SMILES IDX 13 1 12 2 11 3 15 4 16 5 2 6 1 7 3 8 4 9 5 10 6 11 8 12 9 13
REMARK SMILES IDX 10 14 7 15 14 16
REMARK H PARENT
REMARK Flexibility Score: inf
ROOT
ATOM      1  C   UNL     1      66.380  65.366  32.739  1.00  0.00     0.039 C 
ATOM      2  C   UNL     1      67.362  66.497  32.939  1.00  0.00    -0.070 C 
ATOM      3  C   UNL     1      68.029  67.053  31.884  1.00  0.00    -0.006 C 
ATOM      4  C   UNL     1      67.791  66.570  30.459  1.00  0.00     0.047 C 
ATOM      5  C   UNL     1      67.989  67.688  29.406  1.00  0.00     0.025 C 
ATOM      6  C   UNL     1      67.804  67.251  27.952  1.00  0.00    -0.073 C 
ATOM      7  C   UNL     1      67.501  65.994  27.575  1.00  0.00     0.008 C 
ATOM      8  C   UNL     1      67.932  68.334  26.908  1.00  0.00     0.031 C 
ATOM      9  C   UNL     1      69.257  69.084  27.077  1.00  0.00     0.005 C 
ATOM     10  C   UNL     1      69.451  69.575  28.522  1.00  0.00     0.008 C 
ATOM     11  C   UNL     1      69.353  68.430  29.575  1.00  0.00    -0.018 C 
ATOM     12  C   UNL     1      69.397  69.067  30.985  1.00  0.00     0.088 C 
ATOM     13  C   UNL     1      69.107  68.067  32.068  1.00  0.00     0.159 C 
ATOM     14  O   UNL     1      69.802  68.100  33.119  1.00  0.00    -0.295 OA
ATOM     15  C   UNL     1      70.560  67.465  29.409  1.00  0.00     0.012 C 
ATOM     16  C   UNL     1      67.542  67.005  34.352  1.00  0.00     0.039 C 
ENDROOT
TORSDOF 0
ENDMDL
MODEL 7
REMARK VINA RESULT:    -4.902      3.169      4.906
REMARK INTER + INTRA:          -4.902
REMARK INTER:                  -4.902
REMARK INTRA:                   0.000
REMARK UNBOUND:                 0.000
REMARK SMILES C=C1CCC[C@@]2(C)CC(=O)C(=C(C)C)C[C@H]12
REMARK SMILES IDX 13 1 12 2 11 3 15 4 16 5 2 6 1 7 3 8 4 9 5 10 6 11 8 12 9 13
REMARK SMILES IDX 10 14 7 15 14 16
REMARK H PARENT
REMARK Flexibility Score: inf
ROOT
ATOM      1  C   UNL     1      55.052  64.537  35.097  1.00  0.00     0.039 C 
ATOM      2  C   UNL     1      53.791  65.170  35.642  1.00  0.00    -0.070 C 
ATOM      3  C   UNL     1      53.583  66.517  35.563  1.00  0.00    -0.006 C 
ATOM      4  C   UNL     1      54.601  67.435  34.901  1.00  0.00     0.047 C 
ATOM      5  C   UNL     1      53.952  68.680  34.246  1.00  0.00     0.025 C 
ATOM      6  C   UNL     1      54.931  69.660  33.600  1.00  0.00    -0.073 C 
ATOM      7  C   UNL     1      56.268  69.494  33.589  1.00  0.00     0.008 C 
ATOM      8  C   UNL     1      54.320  70.852  32.902  1.00  0.00     0.031 C 
ATOM      9  C   UNL     1      53.368  71.591  33.846  1.00  0.00     0.005 C 
ATOM     10  C   UNL     1      52.340  70.637  34.478  1.00  0.00     0.008 C 
ATOM     11  C   UNL     1      52.999  69.437  35.224  1.00  0.00    -0.018 C 
ATOM     12  C   UNL     1      51.875  68.470  35.668  1.00  0.00     0.088 C 
ATOM     13  C   UNL     1      52.420  67.183  36.220  1.00  0.00     0.159 C 
ATOM     14  O   UNL     1      51.883  66.695  37.250  1.00  0.00    -0.295 OA
ATOM     15  C   UNL     1      53.755  69.957  36.480  1.00  0.00     0.012 C 
ATOM     16  C   UNL     1      52.763  64.238  36.243  1.00  0.00     0.039 C 
ENDROOT
TORSDOF 0
ENDMDL
MODEL 8
REMARK VINA RESULT:    -4.807      2.109      2.982
REMARK INTER + INTRA:          -4.807
REMARK INTER:                  -4.807
REMARK INTRA:                   0.000
REMARK UNBOUND:                 0.000
REMARK SMILES C=C1CCC[C@@]2(C)CC(=O)C(=C(C)C)C[C@H]12
REMARK SMILES IDX 13 1 12 2 11 3 15 4 16 5 2 6 1 7 3 8 4 9 5 10 6 11 8 12 9 13
REMARK SMILES IDX 10 14 7 15 14 16
REMARK H PARENT
REMARK Flexibility Score: inf
ROOT
ATOM      1  C   UNL     1      52.374  71.752  36.371  1.00  0.00     0.039 C 
ATOM      2  C   UNL     1      53.382  70.835  35.714  1.00  0.00    -0.070 C 
ATOM      3  C   UNL     1      53.637  70.906  34.375  1.00  0.00    -0.006 C 
ATOM      4  C   UNL     1      52.935  71.928  33.491  1.00  0.00     0.047 C 
ATOM      5  C   UNL     1      53.801  72.378  32.289  1.00  0.00     0.025 C 
ATOM      6  C   UNL     1      53.131  73.375  31.342  1.00  0.00    -0.073 C 
ATOM      7  C   UNL     1      51.878  73.841  31.501  1.00  0.00     0.008 C 
ATOM      8  C   UNL     1      53.975  73.876  30.195  1.00  0.00     0.031 C 
ATOM      9  C   UNL     1      54.559  72.700  29.408  1.00  0.00     0.005 C 
ATOM     10  C   UNL     1      55.279  71.701  30.330  1.00  0.00     0.008 C 
ATOM     11  C   UNL     1      54.373  71.170  31.482  1.00  0.00    -0.018 C 
ATOM     12  C   UNL     1      55.249  70.314  32.428  1.00  0.00     0.088 C 
ATOM     13  C   UNL     1      54.515  69.920  33.679  1.00  0.00     0.159 C 
ATOM     14  O   UNL     1      54.649  68.744  34.110  1.00  0.00    -0.295 OA
ATOM     15  C   UNL     1      53.242  70.285  30.888  1.00  0.00     0.012 C 
ATOM     16  C   UNL     1      54.114  69.867  36.616  1.00  0.00     0.039 C 
ENDROOT
TORSDOF 0
ENDMDL
MODEL 9
REMARK VINA RESULT:    -4.697     16.515     19.040
REMARK INTER + INTRA:          -4.697
REMARK INTER:                  -4.697
REMARK INTRA:                   0.000
REMARK UNBOUND:                 0.000
REMARK SMILES C=C1CCC[C@@]2(C)CC(=O)C(=C(C)C)C[C@H]12
REMARK SMILES IDX 13 1 12 2 11 3 15 4 16 5 2 6 1 7 3 8 4 9 5 10 6 11 8 12 9 13
REMARK SMILES IDX 10 14 7 15 14 16
REMARK H PARENT
REMARK Flexibility Score: inf
ROOT
ATOM      1  C   UNL     1      71.350  67.641  44.881  1.00  0.00     0.039 C 
ATOM      2  C   UNL     1      70.195  68.554  44.534  1.00  0.00    -0.070 C 
ATOM      3  C   UNL     1      69.399  68.310  43.452  1.00  0.00    -0.006 C 
ATOM      4  C   UNL     1      69.628  67.095  42.563  1.00  0.00     0.047 C 
ATOM      5  C   UNL     1      68.321  66.566  41.921  1.00  0.00     0.025 C 
ATOM      6  C   UNL     1      68.494  65.370  40.985  1.00  0.00    -0.073 C 
ATOM      7  C   UNL     1      69.680  64.797  40.705  1.00  0.00     0.008 C 
ATOM      8  C   UNL     1      67.229  64.797  40.393  1.00  0.00     0.031 C 
ATOM      9  C   UNL     1      66.414  65.898  39.709  1.00  0.00     0.005 C 
ATOM     10  C   UNL     1      66.184  67.098  40.644  1.00  0.00     0.008 C 
ATOM     11  C   UNL     1      67.509  67.694  41.209  1.00  0.00    -0.018 C 
ATOM     12  C   UNL     1      67.143  68.776  42.255  1.00  0.00     0.088 C 
ATOM     13  C   UNL     1      68.348  69.270  43.004  1.00  0.00     0.159 C 
ATOM     14  O   UNL     1      68.452  70.505  43.229  1.00  0.00    -0.295 OA
ATOM     15  C   UNL     1      68.320  68.349  40.055  1.00  0.00     0.012 C 
ATOM     16  C   UNL     1      69.945  69.723  45.461  1.00  0.00     0.039 C 
ENDROOT
TORSDOF 0
ENDMDL
