MODEL 1
REMARK VINA RESULT:    -3.733      0.000      0.000
REMARK INTER + INTRA:          -6.156
REMARK INTER:                  -5.696
REMARK INTRA:                  -0.460
REMARK UNBOUND:                -0.460
REMARK SMILES O=C([O-])CCCCCCCCC(=O)[O-]
REMARK SMILES IDX 7 1 6 2 5 3 4 4 2 5 1 6 3 7 8 8 9 9 10 10 11 11 12 12 13 13
REMARK SMILES IDX 14 14
REMARK H PARENT
REMARK Flexibility Score: inf
ROOT
ATOM      1  C   UNL     1       9.764   4.844   3.049  1.00  0.00     0.000 C 
ENDROOT
BRANCH   1   2
ATOM      2  C   UNL     1      10.120   3.863   1.918  1.00  0.00     0.000 C 
BRANCH   2   3
ATOM      3  C   UNL     1      10.112   2.398   2.382  1.00  0.00     0.006 C 
BRANCH   3   4
ATOM      4  C   UNL     1      10.125   2.264   3.910  1.00  0.00     0.053 C 
BRANCH   4   5
ATOM      5  C   UNL     1       9.498   0.970   4.326  1.00  0.00     0.041 C 
ATOM      6  O   UNL     1       9.405   0.020   3.506  1.00  0.00    -0.550 OA
ATOM      7  O   UNL     1       9.063   0.797   5.634  1.00  0.00    -0.550 OA
ENDBRANCH   4   5
ENDBRANCH   3   4
ENDBRANCH   2   3
ENDBRANCH   1   2
BRANCH   1   8
ATOM      8  C   UNL     1      10.101   6.300   2.695  1.00  0.00     0.000 C 
BRANCH   8   9
ATOM      9  C   UNL     1       9.931   7.254   3.887  1.00  0.00     0.000 C 
BRANCH   9  10
ATOM     10  C   UNL     1       9.592   6.480   5.166  1.00  0.00     0.006 C 
BRANCH  10  11
ATOM     11  C   UNL     1       8.347   7.057   5.845  1.00  0.00     0.053 C 
BRANCH  11  12
ATOM     12  C   UNL     1       7.275   7.322   4.837  1.00  0.00     0.041 C 
ATOM     13  O   UNL     1       6.858   6.393   4.096  1.00  0.00    -0.550 OA
ATOM     14  O   UNL     1       6.699   8.583   4.748  1.00  0.00    -0.550 OA
ENDBRANCH  11  12
ENDBRANCH  10  11
ENDBRANCH   9  10
ENDBRANCH   8   9
ENDBRANCH   1   8
TORSDOF 9
ENDMDL
MODEL 2
REMARK VINA RESULT:    -3.270      2.662      3.692
REMARK INTER + INTRA:          -5.450
REMARK INTER:                  -5.008
REMARK INTRA:                  -0.442
REMARK UNBOUND:                -0.460
REMARK SMILES O=C([O-])CCCCCCCCC(=O)[O-]
REMARK SMILES IDX 7 1 6 2 5 3 4 4 2 5 1 6 3 7 8 8 9 9 10 10 11 11 12 12 13 13
REMARK SMILES IDX 14 14
REMARK H PARENT
REMARK Flexibility Score: inf
ROOT
ATOM      1  C   UNL     1       9.853   8.209   3.916  1.00  0.00     0.000 C 
ENDROOT
BRANCH   1   2
ATOM      2  C   UNL     1      10.125   7.735   2.477  1.00  0.00     0.000 C 
BRANCH   2   3
ATOM      3  C   UNL     1      10.095   6.203   2.344  1.00  0.00     0.006 C 
BRANCH   3   4
ATOM      4  C   UNL     1       9.176   5.728   1.211  1.00  0.00     0.053 C 
BRANCH   4   5
ATOM      5  C   UNL     1       9.478   4.305   0.857  1.00  0.00     0.041 C 
ATOM      6  O   UNL     1       9.266   3.885  -0.310  1.00  0.00    -0.550 OA
ATOM      7  O   UNL     1      10.041   3.458   1.803  1.00  0.00    -0.550 OA
ENDBRANCH   4   5
ENDBRANCH   3   4
ENDBRANCH   2   3
ENDBRANCH   1   2
BRANCH   1   8
ATOM      8  C   UNL     1       9.771   7.044   4.914  1.00  0.00     0.000 C 
BRANCH   8   9
ATOM      9  C   UNL     1       8.396   6.941   5.591  1.00  0.00     0.000 C 
BRANCH   9  10
ATOM     10  C   UNL     1       7.283   7.413   4.649  1.00  0.00     0.006 C 
BRANCH  10  11
ATOM     11  C   UNL     1       6.722   8.766   5.093  1.00  0.00     0.053 C 
BRANCH  11  12
ATOM     12  C   UNL     1       5.367   8.993   4.503  1.00  0.00     0.041 C 
ATOM     13  O   UNL     1       4.728  10.045   4.768  1.00  0.00    -0.550 OA
ATOM     14  O   UNL     1       4.829   8.066   3.620  1.00  0.00    -0.550 OA
ENDBRANCH  11  12
ENDBRANCH  10  11
ENDBRANCH   9  10
ENDBRANCH   8   9
ENDBRANCH   1   8
TORSDOF 9
ENDMDL
MODEL 3
REMARK VINA RESULT:    -3.262      1.544      6.018
REMARK INTER + INTRA:          -5.438
REMARK INTER:                  -5.456
REMARK INTRA:                   0.018
REMARK UNBOUND:                -0.460
REMARK SMILES O=C([O-])CCCCCCCCC(=O)[O-]
REMARK SMILES IDX 7 1 6 2 5 3 4 4 2 5 1 6 3 7 8 8 9 9 10 10 11 11 12 12 13 13
REMARK SMILES IDX 14 14
REMARK H PARENT
REMARK Flexibility Score: inf
ROOT
ATOM      1  C   UNL     1       9.999   4.791   4.026  1.00  0.00     0.000 C 
ENDROOT
BRANCH   1   2
ATOM      2  C   UNL     1       9.651   6.185   3.475  1.00  0.00     0.000 C 
BRANCH   2   3
ATOM      3  C   UNL     1       8.175   6.305   3.064  1.00  0.00     0.006 C 
BRANCH   3   4
ATOM      4  C   UNL     1       7.253   6.601   4.255  1.00  0.00     0.053 C 
BRANCH   4   5
ATOM      5  C   UNL     1       7.431   8.013   4.715  1.00  0.00     0.041 C 
ATOM      6  O   UNL     1       6.478   8.625   5.264  1.00  0.00    -0.550 OA
ATOM      7  O   UNL     1       8.665   8.638   4.580  1.00  0.00    -0.550 OA
ENDBRANCH   4   5
ENDBRANCH   3   4
ENDBRANCH   2   3
ENDBRANCH   1   2
BRANCH   1   8
ATOM      8  C   UNL     1      10.125   3.734   2.918  1.00  0.00     0.000 C 
BRANCH   8   9
ATOM      9  C   UNL     1      10.063   2.298   3.459  1.00  0.00     0.000 C 
BRANCH   9  10
ATOM     10  C   UNL     1       9.898   2.293   4.983  1.00  0.00     0.006 C 
BRANCH  10  11
ATOM     11  C   UNL     1       9.781   0.863   5.519  1.00  0.00     0.053 C 
BRANCH  11  12
ATOM     12  C   UNL     1       8.624   0.748   6.459  1.00  0.00     0.041 C 
ATOM     13  O   UNL     1       7.504   0.355   6.038  1.00  0.00    -0.550 OA
ATOM     14  O   UNL     1       8.793   1.026   7.809  1.00  0.00    -0.550 OA
ENDBRANCH  11  12
ENDBRANCH  10  11
ENDBRANCH   9  10
ENDBRANCH   8   9
ENDBRANCH   1   8
TORSDOF 9
ENDMDL
MODEL 4
REMARK VINA RESULT:    -3.238     22.005     22.951
REMARK INTER + INTRA:          -5.402
REMARK INTER:                  -4.532
REMARK INTRA:                  -0.870
REMARK UNBOUND:                -0.460
REMARK SMILES O=C([O-])CCCCCCCCC(=O)[O-]
REMARK SMILES IDX 7 1 6 2 5 3 4 4 2 5 1 6 3 7 8 8 9 9 10 10 11 11 12 12 13 13
REMARK SMILES IDX 14 14
REMARK H PARENT
REMARK Flexibility Score: inf
ROOT
ATOM      1  C   UNL     1      -5.660  -5.877  -9.043  1.00  0.00     0.000 C 
ENDROOT
BRANCH   1   2
ATOM      2  C   UNL     1      -4.429  -6.473  -9.749  1.00  0.00     0.000 C 
BRANCH   2   3
ATOM      3  C   UNL     1      -4.249  -7.972  -9.458  1.00  0.00     0.006 C 
BRANCH   3   4
ATOM      4  C   UNL     1      -3.972  -8.255  -7.976  1.00  0.00     0.053 C 
BRANCH   4   5
ATOM      5  C   UNL     1      -4.809  -9.400  -7.498  1.00  0.00     0.041 C 
ATOM      6  O   UNL     1      -4.548  -9.961  -6.402  1.00  0.00    -0.550 OA
ATOM      7  O   UNL     1      -5.907  -9.816  -8.241  1.00  0.00    -0.550 OA
ENDBRANCH   4   5
ENDBRANCH   3   4
ENDBRANCH   2   3
ENDBRANCH   1   2
BRANCH   1   8
ATOM      8  C   UNL     1      -6.944  -6.026  -9.873  1.00  0.00     0.000 C 
BRANCH   8   9
ATOM      9  C   UNL     1      -7.879  -7.115  -9.326  1.00  0.00     0.000 C 
BRANCH   9  10
ATOM     10  C   UNL     1      -8.070  -6.966  -7.813  1.00  0.00     0.006 C 
BRANCH  10  11
ATOM     11  C   UNL     1      -9.232  -6.020  -7.496  1.00  0.00     0.053 C 
BRANCH  11  12
ATOM     12  C   UNL     1      -8.737  -4.801  -6.785  1.00  0.00     0.041 C 
ATOM     13  O   UNL     1      -7.585  -4.789  -6.275  1.00  0.00    -0.550 OA
ATOM     14  O   UNL     1      -9.526  -3.660  -6.729  1.00  0.00    -0.550 OA
ENDBRANCH  11  12
ENDBRANCH  10  11
ENDBRANCH   9  10
ENDBRANCH   8   9
ENDBRANCH   1   8
TORSDOF 9
ENDMDL
MODEL 5
REMARK VINA RESULT:    -3.145     22.017     23.501
REMARK INTER + INTRA:          -5.259
REMARK INTER:                  -4.488
REMARK INTRA:                  -0.771
REMARK UNBOUND:                -0.460
REMARK SMILES O=C([O-])CCCCCCCCC(=O)[O-]
REMARK SMILES IDX 7 1 6 2 5 3 4 4 2 5 1 6 3 7 8 8 9 9 10 10 11 11 12 12 13 13
REMARK SMILES IDX 14 14
REMARK H PARENT
REMARK Flexibility Score: inf
ROOT
ATOM      1  C   UNL     1      -5.708  -6.007  -9.059  1.00  0.00     0.000 C 
ENDROOT
BRANCH   1   2
ATOM      2  C   UNL     1      -6.998  -6.147  -9.886  1.00  0.00     0.000 C 
BRANCH   2   3
ATOM      3  C   UNL     1      -8.257  -6.223  -9.008  1.00  0.00     0.006 C 
BRANCH   3   4
ATOM      4  C   UNL     1      -7.929  -6.448  -7.526  1.00  0.00     0.053 C 
BRANCH   4   5
ATOM      5  C   UNL     1      -8.175  -5.197  -6.742  1.00  0.00     0.041 C 
ATOM      6  O   UNL     1      -9.353  -4.835  -6.482  1.00  0.00    -0.550 OA
ATOM      7  O   UNL     1      -7.104  -4.459  -6.256  1.00  0.00    -0.550 OA
ENDBRANCH   4   5
ENDBRANCH   3   4
ENDBRANCH   2   3
ENDBRANCH   1   2
BRANCH   1   8
ATOM      8  C   UNL     1      -4.467  -6.508  -9.814  1.00  0.00     0.000 C 
BRANCH   8   9
ATOM      9  C   UNL     1      -4.157  -7.985  -9.527  1.00  0.00     0.000 C 
BRANCH   9  10
ATOM     10  C   UNL     1      -4.225  -8.279  -8.024  1.00  0.00     0.006 C 
BRANCH  10  11
ATOM     11  C   UNL     1      -4.711  -9.708  -7.765  1.00  0.00     0.053 C 
BRANCH  11  12
ATOM     12  C   UNL     1      -6.191  -9.729  -7.550  1.00  0.00     0.041 C 
ATOM     13  O   UNL     1      -6.661  -9.726  -6.382  1.00  0.00    -0.550 OA
ATOM     14  O   UNL     1      -7.052  -9.699  -8.639  1.00  0.00    -0.550 OA
ENDBRANCH  11  12
ENDBRANCH  10  11
ENDBRANCH   9  10
ENDBRANCH   8   9
ENDBRANCH   1   8
TORSDOF 9
ENDMDL
MODEL 6
REMARK VINA RESULT:    -3.123     21.945     23.420
REMARK INTER + INTRA:          -5.226
REMARK INTER:                  -4.565
REMARK INTRA:                  -0.661
REMARK UNBOUND:                -0.460
REMARK SMILES O=C([O-])CCCCCCCCC(=O)[O-]
REMARK SMILES IDX 7 1 6 2 5 3 4 4 2 5 1 6 3 7 8 8 9 9 10 10 11 11 12 12 13 13
REMARK SMILES IDX 14 14
REMARK H PARENT
REMARK Flexibility Score: inf
ROOT
ATOM      1  C   UNL     1      -6.970  -6.636  -9.437  1.00  0.00     0.000 C 
ENDROOT
BRANCH   1   2
ATOM      2  C   UNL     1      -8.240  -5.959  -9.983  1.00  0.00     0.000 C 
BRANCH   2   3
ATOM      3  C   UNL     1      -9.355  -5.859  -8.930  1.00  0.00     0.006 C 
BRANCH   3   4
ATOM      4  C   UNL     1      -8.858  -6.173  -7.513  1.00  0.00     0.053 C 
BRANCH   4   5
ATOM      5  C   UNL     1      -8.593  -4.906  -6.761  1.00  0.00     0.041 C 
ATOM      6  O   UNL     1      -7.458  -4.693  -6.260  1.00  0.00    -0.550 OA
ATOM      7  O   UNL     1      -9.585  -3.939  -6.657  1.00  0.00    -0.550 OA
ENDBRANCH   4   5
ENDBRANCH   3   4
ENDBRANCH   2   3
ENDBRANCH   1   2
BRANCH   1   8
ATOM      8  C   UNL     1      -5.755  -5.696  -9.436  1.00  0.00     0.000 C 
BRANCH   8   9
ATOM      9  C   UNL     1      -4.428  -6.444  -9.638  1.00  0.00     0.000 C 
BRANCH   9  10
ATOM     10  C   UNL     1      -4.676  -7.911 -10.009  1.00  0.00     0.006 C 
BRANCH  10  11
ATOM     11  C   UNL     1      -3.735  -8.839  -9.237  1.00  0.00     0.053 C 
BRANCH  11  12
ATOM     12  C   UNL     1      -4.118  -8.893  -7.793  1.00  0.00     0.041 C 
ATOM     13  O   UNL     1      -5.305  -9.153  -7.462  1.00  0.00    -0.550 OA
ATOM     14  O   UNL     1      -3.156  -8.705  -6.809  1.00  0.00    -0.550 OA
ENDBRANCH  11  12
ENDBRANCH  10  11
ENDBRANCH   9  10
ENDBRANCH   8   9
ENDBRANCH   1   8
TORSDOF 9
ENDMDL
MODEL 7
REMARK VINA RESULT:    -2.570     22.063     23.686
REMARK INTER + INTRA:          -4.382
REMARK INTER:                  -3.693
REMARK INTRA:                  -0.689
REMARK UNBOUND:                -0.460
REMARK SMILES O=C([O-])CCCCCCCCC(=O)[O-]
REMARK SMILES IDX 7 1 6 2 5 3 4 4 2 5 1 6 3 7 8 8 9 9 10 10 11 11 12 12 13 13
REMARK SMILES IDX 14 14
REMARK H PARENT
REMARK Flexibility Score: inf
ROOT
ATOM      1  C   UNL     1      -7.111  -6.024  -8.647  1.00  0.00     0.000 C 
ENDROOT
BRANCH   1   2
ATOM      2  C   UNL     1      -8.479  -6.626  -9.018  1.00  0.00     0.000 C 
BRANCH   2   3
ATOM      3  C   UNL     1      -8.829  -7.860  -8.172  1.00  0.00     0.006 C 
BRANCH   3   4
ATOM      4  C   UNL     1      -7.686  -8.883  -8.121  1.00  0.00     0.053 C 
BRANCH   4   5
ATOM      5  C   UNL     1      -7.743  -9.665  -6.846  1.00  0.00     0.041 C 
ATOM      6  O   UNL     1      -6.692  -9.882  -6.189  1.00  0.00    -0.550 OA
ATOM      7  O   UNL     1      -8.965 -10.113  -6.359  1.00  0.00    -0.550 OA
ENDBRANCH   4   5
ENDBRANCH   3   4
ENDBRANCH   2   3
ENDBRANCH   1   2
BRANCH   1   8
ATOM      8  C   UNL     1      -6.139  -5.994  -9.837  1.00  0.00     0.000 C 
BRANCH   8   9
ATOM      9  C   UNL     1      -4.668  -6.072  -9.401  1.00  0.00     0.000 C 
BRANCH   9  10
ATOM     10  C   UNL     1      -4.160  -7.518  -9.442  1.00  0.00     0.006 C 
BRANCH  10  11
ATOM     11  C   UNL     1      -4.148  -8.137  -8.042  1.00  0.00     0.053 C 
BRANCH  11  12
ATOM     12  C   UNL     1      -3.379  -9.419  -8.041  1.00  0.00     0.041 C 
ATOM     13  O   UNL     1      -2.928  -9.887  -6.962  1.00  0.00    -0.550 OA
ATOM     14  O   UNL     1      -3.201 -10.125  -9.224  1.00  0.00    -0.550 OA
ENDBRANCH  11  12
ENDBRANCH  10  11
ENDBRANCH   9  10
ENDBRANCH   8   9
ENDBRANCH   1   8
TORSDOF 9
ENDMDL
MODEL 8
REMARK VINA RESULT:    -2.473      2.379      5.905
REMARK INTER + INTRA:          -4.235
REMARK INTER:                  -3.682
REMARK INTRA:                  -0.553
REMARK UNBOUND:                -0.460
REMARK SMILES O=C([O-])CCCCCCCCC(=O)[O-]
REMARK SMILES IDX 7 1 6 2 5 3 4 4 2 5 1 6 3 7 8 8 9 9 10 10 11 11 12 12 13 13
REMARK SMILES IDX 14 14
REMARK H PARENT
REMARK Flexibility Score: inf
ROOT
ATOM      1  C   UNL     1       6.636   6.000   3.322  1.00  0.00     0.000 C 
ENDROOT
BRANCH   1   2
ATOM      2  C   UNL     1       6.218   7.384   3.851  1.00  0.00     0.000 C 
BRANCH   2   3
ATOM      3  C   UNL     1       7.139   7.890   4.973  1.00  0.00     0.006 C 
BRANCH   3   4
ATOM      4  C   UNL     1       8.144   8.941   4.483  1.00  0.00     0.053 C 
BRANCH   4   5
ATOM      5  C   UNL     1       9.496   8.325   4.300  1.00  0.00     0.041 C 
ATOM      6  O   UNL     1      10.108   7.838   5.286  1.00  0.00    -0.550 OA
ATOM      7  O   UNL     1      10.058   8.246   3.032  1.00  0.00    -0.550 OA
ENDBRANCH   4   5
ENDBRANCH   3   4
ENDBRANCH   2   3
ENDBRANCH   1   2
BRANCH   1   8
ATOM      8  C   UNL     1       6.531   5.898   1.793  1.00  0.00     0.000 C 
BRANCH   8   9
ATOM      9  C   UNL     1       7.901   5.943   1.100  1.00  0.00     0.000 C 
BRANCH   9  10
ATOM     10  C   UNL     1       9.000   5.403   2.023  1.00  0.00     0.006 C 
BRANCH  10  11
ATOM     11  C   UNL     1       9.627   4.131   1.447  1.00  0.00     0.053 C 
BRANCH  11  12
ATOM     12  C   UNL     1       9.956   3.166   2.541  1.00  0.00     0.041 C 
ATOM     13  O   UNL     1      10.125   1.946   2.279  1.00  0.00    -0.550 OA
ATOM     14  O   UNL     1      10.125   3.620   3.842  1.00  0.00    -0.550 OA
ENDBRANCH  11  12
ENDBRANCH  10  11
ENDBRANCH   9  10
ENDBRANCH   8   9
ENDBRANCH   1   8
TORSDOF 9
ENDMDL
MODEL 9
REMARK VINA RESULT:    -2.450      2.602      3.487
REMARK INTER + INTRA:          -4.200
REMARK INTER:                  -3.624
REMARK INTRA:                  -0.575
REMARK UNBOUND:                -0.460
REMARK SMILES O=C([O-])CCCCCCCCC(=O)[O-]
REMARK SMILES IDX 7 1 6 2 5 3 4 4 2 5 1 6 3 7 8 8 9 9 10 10 11 11 12 12 13 13
REMARK SMILES IDX 14 14
REMARK H PARENT
REMARK Flexibility Score: inf
ROOT
ATOM      1  C   UNL     1       6.353   5.992   2.099  1.00  0.00     0.000 C 
ENDROOT
BRANCH   1   2
ATOM      2  C   UNL     1       7.612   5.252   1.612  1.00  0.00     0.000 C 
BRANCH   2   3
ATOM      3  C   UNL     1       8.710   6.213   1.128  1.00  0.00     0.006 C 
BRANCH   3   4
ATOM      4  C   UNL     1      10.113   5.772   1.565  1.00  0.00     0.053 C 
BRANCH   4   5
ATOM      5  C   UNL     1      10.092   4.350   2.031  1.00  0.00     0.041 C 
ATOM      6  O   UNL     1      10.089   3.410   1.194  1.00  0.00    -0.550 OA
ATOM      7  O   UNL     1      10.125   4.063   3.390  1.00  0.00    -0.550 OA
ENDBRANCH   4   5
ENDBRANCH   3   4
ENDBRANCH   2   3
ENDBRANCH   1   2
BRANCH   1   8
ATOM      8  C   UNL     1       6.608   6.812   3.372  1.00  0.00     0.000 C 
BRANCH   8   9
ATOM      9  C   UNL     1       7.581   6.119   4.338  1.00  0.00     0.000 C 
BRANCH   9  10
ATOM     10  C   UNL     1       8.250   7.137   5.269  1.00  0.00     0.006 C 
BRANCH  10  11
ATOM     11  C   UNL     1       9.679   7.443   4.813  1.00  0.00     0.053 C 
BRANCH  11  12
ATOM     12  C   UNL     1       9.747   8.791   4.169  1.00  0.00     0.041 C 
ATOM     13  O   UNL     1      10.118   8.903   2.970  1.00  0.00    -0.550 OA
ATOM     14  O   UNL     1       9.354   9.921   4.874  1.00  0.00    -0.550 OA
ENDBRANCH  11  12
ENDBRANCH  10  11
ENDBRANCH   9  10
ENDBRANCH   8   9
ENDBRANCH   1   8
TORSDOF 9
ENDMDL
