MODEL 1
REMARK VINA RESULT:    -4.826      0.000      0.000
REMARK INTER + INTRA:         -10.143
REMARK INTER:                  -8.776
REMARK INTRA:                  -1.366
REMARK UNBOUND:                -1.366
REMARK SMILES CCCCCCCCCCCCCC[C@@H](C)C(=O)[O-]
REMARK SMILES IDX 9 1 10 2 11 3 12 4 13 5 14 6 15 7 16 8 17 9 18 10 19 11 8 12
REMARK SMILES IDX 7 13 6 14 5 15 4 16 3 17 2 18 1 19
REMARK H PARENT
REMARK Flexibility Score: inf
ROOT
ATOM      1  C   UNL     1      45.705   2.774  22.675  1.00  0.00     0.000 C 
ENDROOT
BRANCH   1   2
ATOM      2  C   UNL     1      44.494   2.287  23.496  1.00  0.00     0.000 C 
BRANCH   2   3
ATOM      3  C   UNL     1      44.799   1.171  24.511  1.00  0.00     0.000 C 
BRANCH   3   4
ATOM      4  C   UNL     1      44.531  -0.236  23.952  1.00  0.00     0.000 C 
BRANCH   4   5
ATOM      5  C   UNL     1      43.137  -0.365  23.315  1.00  0.00     0.001 C 
BRANCH   5   6
ATOM      6  C   UNL     1      43.175  -0.618  21.790  1.00  0.00     0.009 C 
BRANCH   6   7
ATOM      7  C   UNL     1      42.032   0.091  21.027  1.00  0.00     0.032 C 
ATOM      8  C   UNL     1      42.491   1.426  20.424  1.00  0.00     0.014 C 
BRANCH   7   9
ATOM      9  C   UNL     1      41.500  -0.801  19.938  1.00  0.00     0.044 C 
ATOM     10  O   UNL     1      40.771  -1.789  20.217  1.00  0.00    -0.550 OA
ATOM     11  O   UNL     1      41.816  -0.537  18.611  1.00  0.00    -0.550 OA
ENDBRANCH   7   9
ENDBRANCH   6   7
ENDBRANCH   5   6
ENDBRANCH   4   5
ENDBRANCH   3   4
ENDBRANCH   2   3
ENDBRANCH   1   2
BRANCH   1  12
ATOM     12  C   UNL     1      46.006   1.961  21.401  1.00  0.00     0.000 C 
BRANCH  12  13
ATOM     13  C   UNL     1      47.058   0.848  21.567  1.00  0.00    -0.000 C 
BRANCH  13  14
ATOM     14  C   UNL     1      48.190   0.937  20.531  1.00  0.00    -0.000 C 
BRANCH  14  15
ATOM     15  C   UNL     1      49.556   0.512  21.099  1.00  0.00    -0.000 C 
BRANCH  15  16
ATOM     16  C   UNL     1      50.253  -0.641  20.347  1.00  0.00    -0.000 C 
BRANCH  16  17
ATOM     17  C   UNL     1      51.783  -0.690  20.499  1.00  0.00    -0.000 C 
BRANCH  17  18
ATOM     18  C   UNL     1      52.514  -0.714  19.150  1.00  0.00    -0.003 C 
ATOM     19  C   UNL     1      51.548  -1.014  18.008  1.00  0.00     0.004 C 
ENDBRANCH  17  18
ENDBRANCH  16  17
ENDBRANCH  15  16
ENDBRANCH  14  15
ENDBRANCH  13  14
ENDBRANCH  12  13
ENDBRANCH   1  12
TORSDOF 14
ENDMDL
MODEL 2
REMARK VINA RESULT:    -4.749      4.109      8.646
REMARK INTER + INTRA:         -10.002
REMARK INTER:                  -9.012
REMARK INTRA:                  -0.990
REMARK UNBOUND:                -1.366
REMARK SMILES CCCCCCCCCCCCCC[C@@H](C)C(=O)[O-]
REMARK SMILES IDX 9 1 10 2 11 3 12 4 13 5 14 6 15 7 16 8 17 9 18 10 19 11 8 12
REMARK SMILES IDX 7 13 6 14 5 15 4 16 3 17 2 18 1 19
REMARK H PARENT
REMARK Flexibility Score: inf
ROOT
ATOM      1  C   UNL     1      47.259   1.549  21.183  1.00  0.00     0.000 C 
ENDROOT
BRANCH   1   2
ATOM      2  C   UNL     1      48.227   0.889  20.181  1.00  0.00     0.000 C 
BRANCH   2   3
ATOM      3  C   UNL     1      49.710   0.911  20.594  1.00  0.00     0.000 C 
BRANCH   3   4
ATOM      4  C   UNL     1      50.157  -0.387  21.287  1.00  0.00     0.000 C 
BRANCH   4   5
ATOM      5  C   UNL     1      51.102  -1.230  20.414  1.00  0.00     0.001 C 
BRANCH   5   6
ATOM      6  C   UNL     1      52.521  -0.629  20.279  1.00  0.00     0.009 C 
BRANCH   6   7
ATOM      7  C   UNL     1      52.929  -0.358  18.811  1.00  0.00     0.032 C 
ATOM      8  C   UNL     1      51.946  -0.997  17.819  1.00  0.00     0.014 C 
BRANCH   7   9
ATOM      9  C   UNL     1      53.013   1.122  18.558  1.00  0.00     0.044 C 
ATOM     10  O   UNL     1      53.032   1.572  17.381  1.00  0.00    -0.550 OA
ATOM     11  O   UNL     1      53.072   2.006  19.629  1.00  0.00    -0.550 OA
ENDBRANCH   7   9
ENDBRANCH   6   7
ENDBRANCH   5   6
ENDBRANCH   4   5
ENDBRANCH   3   4
ENDBRANCH   2   3
ENDBRANCH   1   2
BRANCH   1  12
ATOM     12  C   UNL     1      46.643   0.597  22.228  1.00  0.00     0.000 C 
BRANCH  12  13
ATOM     13  C   UNL     1      45.206   0.942  22.660  1.00  0.00    -0.000 C 
BRANCH  13  14
ATOM     14  C   UNL     1      44.217  -0.209  22.413  1.00  0.00    -0.000 C 
BRANCH  14  15
ATOM     15  C   UNL     1      42.804   0.284  22.051  1.00  0.00    -0.000 C 
BRANCH  15  16
ATOM     16  C   UNL     1      42.683   0.993  20.686  1.00  0.00    -0.000 C 
BRANCH  16  17
ATOM     17  C   UNL     1      41.821   0.259  19.642  1.00  0.00    -0.000 C 
BRANCH  17  18
ATOM     18  C   UNL     1      41.840  -1.265  19.821  1.00  0.00    -0.003 C 
ATOM     19  C   UNL     1      40.428  -1.813  20.010  1.00  0.00     0.004 C 
ENDBRANCH  17  18
ENDBRANCH  16  17
ENDBRANCH  15  16
ENDBRANCH  14  15
ENDBRANCH  13  14
ENDBRANCH  12  13
ENDBRANCH   1  12
TORSDOF 14
ENDMDL
MODEL 3
REMARK VINA RESULT:    -4.749      2.271      4.033
REMARK INTER + INTRA:         -10.002
REMARK INTER:                  -8.078
REMARK INTRA:                  -1.924
REMARK UNBOUND:                -1.366
REMARK SMILES CCCCCCCCCCCCCC[C@@H](C)C(=O)[O-]
REMARK SMILES IDX 9 1 10 2 11 3 12 4 13 5 14 6 15 7 16 8 17 9 18 10 19 11 8 12
REMARK SMILES IDX 7 13 6 14 5 15 4 16 3 17 2 18 1 19
REMARK H PARENT
REMARK Flexibility Score: inf
ROOT
ATOM      1  C   UNL     1      43.194   2.081  18.907  1.00  0.00     0.000 C 
ENDROOT
BRANCH   1   2
ATOM      2  C   UNL     1      41.910   1.421  19.447  1.00  0.00     0.000 C 
BRANCH   2   3
ATOM      3  C   UNL     1      41.707  -0.048  19.035  1.00  0.00     0.000 C 
BRANCH   3   4
ATOM      4  C   UNL     1      41.956  -1.033  20.189  1.00  0.00     0.000 C 
BRANCH   4   5
ATOM      5  C   UNL     1      42.334  -0.324  21.501  1.00  0.00     0.001 C 
BRANCH   5   6
ATOM      6  C   UNL     1      43.788  -0.596  21.954  1.00  0.00     0.009 C 
BRANCH   6   7
ATOM      7  C   UNL     1      44.212   0.253  23.176  1.00  0.00     0.032 C 
ATOM      8  C   UNL     1      43.237   1.411  23.433  1.00  0.00     0.014 C 
BRANCH   7   9
ATOM      9  C   UNL     1      44.305  -0.612  24.404  1.00  0.00     0.044 C 
ATOM     10  O   UNL     1      45.405  -0.763  25.000  1.00  0.00    -0.550 OA
ATOM     11  O   UNL     1      43.171  -1.253  24.887  1.00  0.00    -0.550 OA
ENDBRANCH   7   9
ENDBRANCH   6   7
ENDBRANCH   5   6
ENDBRANCH   4   5
ENDBRANCH   3   4
ENDBRANCH   2   3
ENDBRANCH   1   2
BRANCH   1  12
ATOM     12  C   UNL     1      44.125   2.683  19.978  1.00  0.00     0.000 C 
BRANCH  12  13
ATOM     13  C   UNL     1      45.602   2.259  19.875  1.00  0.00    -0.000 C 
BRANCH  13  14
ATOM     14  C   UNL     1      46.463   2.814  21.022  1.00  0.00    -0.000 C 
BRANCH  14  15
ATOM     15  C   UNL     1      47.141   1.706  21.849  1.00  0.00    -0.000 C 
BRANCH  15  16
ATOM     16  C   UNL     1      47.585   0.464  21.050  1.00  0.00    -0.000 C 
BRANCH  16  17
ATOM     17  C   UNL     1      49.017   0.525  20.489  1.00  0.00    -0.000 C 
BRANCH  17  18
ATOM     18  C   UNL     1      50.031  -0.223  21.366  1.00  0.00    -0.003 C 
ATOM     19  C   UNL     1      51.047  -0.974  20.510  1.00  0.00     0.004 C 
ENDBRANCH  17  18
ENDBRANCH  16  17
ENDBRANCH  15  16
ENDBRANCH  14  15
ENDBRANCH  13  14
ENDBRANCH  12  13
ENDBRANCH   1  12
TORSDOF 14
ENDMDL
MODEL 4
REMARK VINA RESULT:    -4.685      4.380      6.489
REMARK INTER + INTRA:          -9.886
REMARK INTER:                  -7.855
REMARK INTRA:                  -2.031
REMARK UNBOUND:                -1.366
REMARK SMILES CCCCCCCCCCCCCC[C@@H](C)C(=O)[O-]
REMARK SMILES IDX 9 1 10 2 11 3 12 4 13 5 14 6 15 7 16 8 17 9 18 10 19 11 8 12
REMARK SMILES IDX 7 13 6 14 5 15 4 16 3 17 2 18 1 19
REMARK H PARENT
REMARK Flexibility Score: inf
ROOT
ATOM      1  C   UNL     1      44.436   2.386  20.036  1.00  0.00     0.000 C 
ENDROOT
BRANCH   1   2
ATOM      2  C   UNL     1      43.626   3.234  21.037  1.00  0.00     0.000 C 
BRANCH   2   3
ATOM      3  C   UNL     1      42.232   2.680  21.384  1.00  0.00     0.000 C 
BRANCH   3   4
ATOM      4  C   UNL     1      41.913   2.762  22.885  1.00  0.00     0.000 C 
BRANCH   4   5
ATOM      5  C   UNL     1      42.753   1.783  23.723  1.00  0.00     0.001 C 
BRANCH   5   6
ATOM      6  C   UNL     1      42.660   0.317  23.240  1.00  0.00     0.009 C 
BRANCH   6   7
ATOM      7  C   UNL     1      44.018  -0.424  23.279  1.00  0.00     0.032 C 
ATOM      8  C   UNL     1      45.197   0.535  23.058  1.00  0.00     0.014 C 
BRANCH   7   9
ATOM      9  C   UNL     1      44.185  -1.137  24.593  1.00  0.00     0.044 C 
ATOM     10  O   UNL     1      43.255  -1.850  25.058  1.00  0.00    -0.550 OA
ATOM     11  O   UNL     1      45.371  -1.011  25.304  1.00  0.00    -0.550 OA
ENDBRANCH   7   9
ENDBRANCH   6   7
ENDBRANCH   5   6
ENDBRANCH   4   5
ENDBRANCH   3   4
ENDBRANCH   2   3
ENDBRANCH   1   2
BRANCH   1  12
ATOM     12  C   UNL     1      44.640   3.023  18.647  1.00  0.00     0.000 C 
BRANCH  12  13
ATOM     13  C   UNL     1      44.191   2.156  17.456  1.00  0.00    -0.000 C 
BRANCH  13  14
ATOM     14  C   UNL     1      42.927   2.697  16.767  1.00  0.00    -0.000 C 
BRANCH  14  15
ATOM     15  C   UNL     1      41.757   1.697  16.794  1.00  0.00    -0.000 C 
BRANCH  15  16
ATOM     16  C   UNL     1      41.360   1.184  18.193  1.00  0.00    -0.000 C 
BRANCH  16  17
ATOM     17  C   UNL     1      41.844  -0.238  18.529  1.00  0.00    -0.000 C 
BRANCH  17  18
ATOM     18  C   UNL     1      41.569  -0.631  19.987  1.00  0.00    -0.003 C 
ATOM     19  C   UNL     1      40.562  -1.775  20.067  1.00  0.00     0.004 C 
ENDBRANCH  17  18
ENDBRANCH  16  17
ENDBRANCH  15  16
ENDBRANCH  14  15
ENDBRANCH  13  14
ENDBRANCH  12  13
ENDBRANCH   1  12
TORSDOF 14
ENDMDL
MODEL 5
REMARK VINA RESULT:    -4.679      3.078      5.307
REMARK INTER + INTRA:          -9.875
REMARK INTER:                  -7.694
REMARK INTRA:                  -2.181
REMARK UNBOUND:                -1.366
REMARK SMILES CCCCCCCCCCCCCC[C@@H](C)C(=O)[O-]
REMARK SMILES IDX 9 1 10 2 11 3 12 4 13 5 14 6 15 7 16 8 17 9 18 10 19 11 8 12
REMARK SMILES IDX 7 13 6 14 5 15 4 16 3 17 2 18 1 19
REMARK H PARENT
REMARK Flexibility Score: inf
ROOT
ATOM      1  C   UNL     1      41.732   1.970  18.432  1.00  0.00     0.000 C 
ENDROOT
BRANCH   1   2
ATOM      2  C   UNL     1      42.215   0.516  18.256  1.00  0.00     0.000 C 
BRANCH   2   3
ATOM      3  C   UNL     1      41.306  -0.555  18.885  1.00  0.00     0.000 C 
BRANCH   3   4
ATOM      4  C   UNL     1      41.994  -1.333  20.018  1.00  0.00     0.000 C 
BRANCH   4   5
ATOM      5  C   UNL     1      42.163  -0.492  21.296  1.00  0.00     0.001 C 
BRANCH   5   6
ATOM      6  C   UNL     1      43.563  -0.623  21.941  1.00  0.00     0.009 C 
BRANCH   6   7
ATOM      7  C   UNL     1      43.703   0.182  23.255  1.00  0.00     0.032 C 
ATOM      8  C   UNL     1      42.362   0.778  23.706  1.00  0.00     0.014 C 
BRANCH   7   9
ATOM      9  C   UNL     1      44.260  -0.694  24.345  1.00  0.00     0.044 C 
ATOM     10  O   UNL     1      43.617  -1.698  24.752  1.00  0.00    -0.550 OA
ATOM     11  O   UNL     1      45.492  -0.395  24.912  1.00  0.00    -0.550 OA
ENDBRANCH   7   9
ENDBRANCH   6   7
ENDBRANCH   5   6
ENDBRANCH   4   5
ENDBRANCH   3   4
ENDBRANCH   2   3
ENDBRANCH   1   2
BRANCH   1  12
ATOM     12  C   UNL     1      42.184   2.660  19.734  1.00  0.00     0.000 C 
BRANCH  12  13
ATOM     13  C   UNL     1      43.693   2.571  20.033  1.00  0.00    -0.000 C 
BRANCH  13  14
ATOM     14  C   UNL     1      44.220   3.789  20.809  1.00  0.00    -0.000 C 
BRANCH  14  15
ATOM     15  C   UNL     1      44.179   3.589  22.335  1.00  0.00    -0.000 C 
BRANCH  15  16
ATOM     16  C   UNL     1      45.556   3.517  23.027  1.00  0.00    -0.000 C 
BRANCH  16  17
ATOM     17  C   UNL     1      46.705   2.995  22.146  1.00  0.00    -0.000 C 
BRANCH  17  18
ATOM     18  C   UNL     1      46.804   1.464  22.143  1.00  0.00    -0.003 C 
ATOM     19  C   UNL     1      47.529   0.963  20.897  1.00  0.00     0.004 C 
ENDBRANCH  17  18
ENDBRANCH  16  17
ENDBRANCH  15  16
ENDBRANCH  14  15
ENDBRANCH  13  14
ENDBRANCH  12  13
ENDBRANCH   1  12
TORSDOF 14
ENDMDL
MODEL 6
REMARK VINA RESULT:    -4.676      3.368      7.858
REMARK INTER + INTRA:          -9.868
REMARK INTER:                  -8.289
REMARK INTRA:                  -1.580
REMARK UNBOUND:                -1.366
REMARK SMILES CCCCCCCCCCCCCC[C@@H](C)C(=O)[O-]
REMARK SMILES IDX 9 1 10 2 11 3 12 4 13 5 14 6 15 7 16 8 17 9 18 10 19 11 8 12
REMARK SMILES IDX 7 13 6 14 5 15 4 16 3 17 2 18 1 19
REMARK H PARENT
REMARK Flexibility Score: inf
ROOT
ATOM      1  C   UNL     1      46.257   1.295  22.496  1.00  0.00     0.000 C 
ENDROOT
BRANCH   1   2
ATOM      2  C   UNL     1      46.839   1.946  21.224  1.00  0.00     0.000 C 
BRANCH   2   3
ATOM      3  C   UNL     1      47.888   1.101  20.479  1.00  0.00     0.000 C 
BRANCH   3   4
ATOM      4  C   UNL     1      49.282   1.177  21.121  1.00  0.00     0.000 C 
BRANCH   4   5
ATOM      5  C   UNL     1      49.760  -0.181  21.664  1.00  0.00     0.001 C 
BRANCH   5   6
ATOM      6  C   UNL     1      50.611  -0.986  20.654  1.00  0.00     0.009 C 
BRANCH   6   7
ATOM      7  C   UNL     1      51.675  -0.123  19.933  1.00  0.00     0.032 C 
ATOM      8  C   UNL     1      53.102  -0.570  20.281  1.00  0.00     0.014 C 
BRANCH   7   9
ATOM      9  C   UNL     1      51.473  -0.186  18.444  1.00  0.00     0.044 C 
ATOM     10  O   UNL     1      50.818   0.710  17.847  1.00  0.00    -0.550 OA
ATOM     11  O   UNL     1      52.011  -1.240  17.716  1.00  0.00    -0.550 OA
ENDBRANCH   7   9
ENDBRANCH   6   7
ENDBRANCH   5   6
ENDBRANCH   4   5
ENDBRANCH   3   4
ENDBRANCH   2   3
ENDBRANCH   1   2
BRANCH   1  12
ATOM     12  C   UNL     1      45.521   2.257  23.449  1.00  0.00     0.000 C 
BRANCH  12  13
ATOM     13  C   UNL     1      44.875   1.593  24.679  1.00  0.00    -0.000 C 
BRANCH  13  14
ATOM     14  C   UNL     1      45.215   0.098  24.796  1.00  0.00    -0.000 C 
BRANCH  14  15
ATOM     15  C   UNL     1      44.013  -0.813  24.486  1.00  0.00    -0.000 C 
BRANCH  15  16
ATOM     16  C   UNL     1      42.836  -0.129  23.760  1.00  0.00    -0.000 C 
BRANCH  16  17
ATOM     17  C   UNL     1      42.800  -0.333  22.235  1.00  0.00    -0.000 C 
BRANCH  17  18
ATOM     18  C   UNL     1      42.646   0.984  21.462  1.00  0.00    -0.003 C 
ATOM     19  C   UNL     1      41.982   2.053  22.326  1.00  0.00     0.004 C 
ENDBRANCH  17  18
ENDBRANCH  16  17
ENDBRANCH  15  16
ENDBRANCH  14  15
ENDBRANCH  13  14
ENDBRANCH  12  13
ENDBRANCH   1  12
TORSDOF 14
ENDMDL
MODEL 7
REMARK VINA RESULT:    -4.653      3.961      8.326
REMARK INTER + INTRA:          -9.828
REMARK INTER:                  -8.621
REMARK INTRA:                  -1.207
REMARK UNBOUND:                -1.366
REMARK SMILES CCCCCCCCCCCCCC[C@@H](C)C(=O)[O-]
REMARK SMILES IDX 9 1 10 2 11 3 12 4 13 5 14 6 15 7 16 8 17 9 18 10 19 11 8 12
REMARK SMILES IDX 7 13 6 14 5 15 4 16 3 17 2 18 1 19
REMARK H PARENT
REMARK Flexibility Score: inf
ROOT
ATOM      1  C   UNL     1      47.479   1.883  19.390  1.00  0.00     0.000 C 
ENDROOT
BRANCH   1   2
ATOM      2  C   UNL     1      48.804   1.273  19.891  1.00  0.00     0.000 C 
BRANCH   2   3
ATOM      3  C   UNL     1      48.652   0.110  20.887  1.00  0.00     0.000 C 
BRANCH   3   4
ATOM      4  C   UNL     1      49.994  -0.339  21.490  1.00  0.00     0.000 C 
BRANCH   4   5
ATOM      5  C   UNL     1      50.828  -1.185  20.513  1.00  0.00     0.001 C 
BRANCH   5   6
ATOM      6  C   UNL     1      52.293  -0.707  20.376  1.00  0.00     0.009 C 
BRANCH   6   7
ATOM      7  C   UNL     1      52.689  -0.371  18.918  1.00  0.00     0.032 C 
ATOM      8  C   UNL     1      51.758  -1.051  17.904  1.00  0.00     0.014 C 
BRANCH   7   9
ATOM      9  C   UNL     1      52.671   1.118  18.703  1.00  0.00     0.044 C 
ATOM     10  O   UNL     1      52.985   1.608  17.586  1.00  0.00    -0.550 OA
ATOM     11  O   UNL     1      52.307   1.963  19.744  1.00  0.00    -0.550 OA
ENDBRANCH   7   9
ENDBRANCH   6   7
ENDBRANCH   5   6
ENDBRANCH   4   5
ENDBRANCH   3   4
ENDBRANCH   2   3
ENDBRANCH   1   2
BRANCH   1  12
ATOM     12  C   UNL     1      46.590   2.511  20.481  1.00  0.00     0.000 C 
BRANCH  12  13
ATOM     13  C   UNL     1      45.073   2.360  20.258  1.00  0.00    -0.000 C 
BRANCH  13  14
ATOM     14  C   UNL     1      44.324   1.930  21.529  1.00  0.00    -0.000 C 
BRANCH  14  15
ATOM     15  C   UNL     1      44.749   0.538  22.032  1.00  0.00    -0.000 C 
BRANCH  15  16
ATOM     16  C   UNL     1      43.672  -0.560  21.922  1.00  0.00    -0.000 C 
BRANCH  16  17
ATOM     17  C   UNL     1      42.322  -0.097  21.347  1.00  0.00    -0.000 C 
BRANCH  17  18
ATOM     18  C   UNL     1      41.987  -0.762  20.004  1.00  0.00    -0.003 C 
ATOM     19  C   UNL     1      40.731  -1.621  20.116  1.00  0.00     0.004 C 
ENDBRANCH  17  18
ENDBRANCH  16  17
ENDBRANCH  15  16
ENDBRANCH  14  15
ENDBRANCH  13  14
ENDBRANCH  12  13
ENDBRANCH   1  12
TORSDOF 14
ENDMDL
MODEL 8
REMARK VINA RESULT:    -4.617      2.419      3.416
REMARK INTER + INTRA:          -9.761
REMARK INTER:                  -8.122
REMARK INTRA:                  -1.639
REMARK UNBOUND:                -1.366
REMARK SMILES CCCCCCCCCCCCCC[C@@H](C)C(=O)[O-]
REMARK SMILES IDX 9 1 10 2 11 3 12 4 13 5 14 6 15 7 16 8 17 9 18 10 19 11 8 12
REMARK SMILES IDX 7 13 6 14 5 15 4 16 3 17 2 18 1 19
REMARK H PARENT
REMARK Flexibility Score: inf
ROOT
ATOM      1  C   UNL     1      48.607   2.991  21.501  1.00  0.00     0.000 C 
ENDROOT
BRANCH   1   2
ATOM      2  C   UNL     1      47.284   3.605  22.002  1.00  0.00     0.000 C 
BRANCH   2   3
ATOM      3  C   UNL     1      46.040   3.247  21.169  1.00  0.00     0.000 C 
BRANCH   3   4
ATOM      4  C   UNL     1      45.353   1.957  21.647  1.00  0.00     0.000 C 
BRANCH   4   5
ATOM      5  C   UNL     1      45.445   1.765  23.170  1.00  0.00     0.001 C 
BRANCH   5   6
ATOM      6  C   UNL     1      45.639   0.291  23.598  1.00  0.00     0.009 C 
BRANCH   6   7
ATOM      7  C   UNL     1      44.826  -0.087  24.859  1.00  0.00     0.032 C 
ATOM      8  C   UNL     1      44.288   1.154  25.584  1.00  0.00     0.014 C 
BRANCH   7   9
ATOM      9  C   UNL     1      43.683  -0.993  24.490  1.00  0.00     0.044 C 
ATOM     10  O   UNL     1      43.427  -2.016  25.180  1.00  0.00    -0.550 OA
ATOM     11  O   UNL     1      42.901  -0.704  23.379  1.00  0.00    -0.550 OA
ENDBRANCH   7   9
ENDBRANCH   6   7
ENDBRANCH   5   6
ENDBRANCH   4   5
ENDBRANCH   3   4
ENDBRANCH   2   3
ENDBRANCH   1   2
BRANCH   1  12
ATOM     12  C   UNL     1      48.591   2.499  20.039  1.00  0.00     0.000 C 
BRANCH  12  13
ATOM     13  C   UNL     1      48.828   0.988  19.854  1.00  0.00    -0.000 C 
BRANCH  13  14
ATOM     14  C   UNL     1      48.680   0.197  21.165  1.00  0.00    -0.000 C 
BRANCH  14  15
ATOM     15  C   UNL     1      50.010  -0.405  21.652  1.00  0.00    -0.000 C 
BRANCH  15  16
ATOM     16  C   UNL     1      50.883  -1.050  20.556  1.00  0.00    -0.000 C 
BRANCH  16  17
ATOM     17  C   UNL     1      52.214  -0.332  20.273  1.00  0.00    -0.000 C 
BRANCH  17  18
ATOM     18  C   UNL     1      52.749  -0.606  18.860  1.00  0.00    -0.003 C 
ATOM     19  C   UNL     1      51.614  -0.949  17.900  1.00  0.00     0.004 C 
ENDBRANCH  17  18
ENDBRANCH  16  17
ENDBRANCH  15  16
ENDBRANCH  14  15
ENDBRANCH  13  14
ENDBRANCH  12  13
ENDBRANCH   1  12
TORSDOF 14
ENDMDL
MODEL 9
REMARK VINA RESULT:    -4.616      1.443      2.536
REMARK INTER + INTRA:          -9.759
REMARK INTER:                  -8.533
REMARK INTRA:                  -1.227
REMARK UNBOUND:                -1.366
REMARK SMILES CCCCCCCCCCCCCC[C@@H](C)C(=O)[O-]
REMARK SMILES IDX 9 1 10 2 11 3 12 4 13 5 14 6 15 7 16 8 17 9 18 10 19 11 8 12
REMARK SMILES IDX 7 13 6 14 5 15 4 16 3 17 2 18 1 19
REMARK H PARENT
REMARK Flexibility Score: inf
ROOT
ATOM      1  C   UNL     1      47.523   1.735  20.427  1.00  0.00     0.000 C 
ENDROOT
BRANCH   1   2
ATOM      2  C   UNL     1      46.743   1.663  21.755  1.00  0.00     0.000 C 
BRANCH   2   3
ATOM      3  C   UNL     1      45.254   1.296  21.619  1.00  0.00     0.000 C 
BRANCH   3   4
ATOM      4  C   UNL     1      44.789   0.284  22.680  1.00  0.00     0.000 C 
BRANCH   4   5
ATOM      5  C   UNL     1      43.614  -0.583  22.197  1.00  0.00     0.001 C 
BRANCH   5   6
ATOM      6  C   UNL     1      42.514   0.220  21.463  1.00  0.00     0.009 C 
BRANCH   6   7
ATOM      7  C   UNL     1      42.171  -0.356  20.069  1.00  0.00     0.032 C 
ATOM      8  C   UNL     1      41.003  -1.351  20.134  1.00  0.00     0.014 C 
BRANCH   7   9
ATOM      9  C   UNL     1      41.834   0.757  19.114  1.00  0.00     0.044 C 
ATOM     10  O   UNL     1      41.285   0.509  18.008  1.00  0.00    -0.550 OA
ATOM     11  O   UNL     1      42.131   2.072  19.451  1.00  0.00    -0.550 OA
ENDBRANCH   7   9
ENDBRANCH   6   7
ENDBRANCH   5   6
ENDBRANCH   4   5
ENDBRANCH   3   4
ENDBRANCH   2   3
ENDBRANCH   1   2
BRANCH   1  12
ATOM     12  C   UNL     1      48.649   0.693  20.268  1.00  0.00     0.000 C 
BRANCH  12  13
ATOM     13  C   UNL     1      49.050  -0.040  21.561  1.00  0.00    -0.000 C 
BRANCH  13  14
ATOM     14  C   UNL     1      50.484  -0.593  21.513  1.00  0.00    -0.000 C 
BRANCH  14  15
ATOM     15  C   UNL     1      50.815  -1.276  20.173  1.00  0.00    -0.000 C 
BRANCH  15  16
ATOM     16  C   UNL     1      52.176  -0.894  19.557  1.00  0.00    -0.000 C 
BRANCH  16  17
ATOM     17  C   UNL     1      52.137   0.279  18.561  1.00  0.00    -0.000 C 
BRANCH  17  18
ATOM     18  C   UNL     1      52.833   1.537  19.097  1.00  0.00    -0.003 C 
ATOM     19  C   UNL     1      51.836   2.464  19.787  1.00  0.00     0.004 C 
ENDBRANCH  17  18
ENDBRANCH  16  17
ENDBRANCH  15  16
ENDBRANCH  14  15
ENDBRANCH  13  14
ENDBRANCH  12  13
ENDBRANCH   1  12
TORSDOF 14
ENDMDL
