MODEL 1
REMARK VINA RESULT:    -4.080      0.000      0.000
REMARK INTER + INTRA:          -5.088
REMARK INTER:                  -5.034
REMARK INTRA:                  -0.054
REMARK UNBOUND:                -0.054
REMARK SMILES CCCCCC(=O)[O-]
REMARK SMILES IDX 4 1 5 2 6 3 7 4 8 5 3 6 2 7 1 8
REMARK H PARENT
REMARK Flexibility Score: inf
ROOT
ATOM      1  C   UNL     1      35.888  52.207  57.906  1.00  0.00     0.006 C 
ENDROOT
BRANCH   1   2
ATOM      2  C   UNL     1      35.117  53.456  58.348  1.00  0.00     0.053 C 
BRANCH   2   3
ATOM      3  C   UNL     1      35.994  54.416  59.093  1.00  0.00     0.041 C 
ATOM      4  O   UNL     1      36.858  53.988  59.904  1.00  0.00    -0.550 OA
ATOM      5  O   UNL     1      35.837  55.784  58.913  1.00  0.00    -0.550 OA
ENDBRANCH   2   3
ENDBRANCH   1   2
BRANCH   1   6
ATOM      6  C   UNL     1      35.003  50.947  57.907  1.00  0.00     0.000 C 
BRANCH   6   7
ATOM      7  C   UNL     1      35.627  49.788  57.116  1.00  0.00    -0.003 C 
ATOM      8  C   UNL     1      34.618  48.693  56.773  1.00  0.00     0.004 C 
ENDBRANCH   6   7
ENDBRANCH   1   6
TORSDOF 4
ENDMDL
MODEL 2
REMARK VINA RESULT:    -4.023      4.026      5.549
REMARK INTER + INTRA:          -5.017
REMARK INTER:                  -4.900
REMARK INTRA:                  -0.117
REMARK UNBOUND:                -0.054
REMARK SMILES CCCCCC(=O)[O-]
REMARK SMILES IDX 4 1 5 2 6 3 7 4 8 5 3 6 2 7 1 8
REMARK H PARENT
REMARK Flexibility Score: inf
ROOT
ATOM      1  C   UNL     1      38.316  55.595  60.643  1.00  0.00     0.006 C 
ENDROOT
BRANCH   1   2
ATOM      2  C   UNL     1      39.824  55.590  60.365  1.00  0.00     0.053 C 
BRANCH   2   3
ATOM      3  C   UNL     1      40.455  54.285  60.746  1.00  0.00     0.041 C 
ATOM      4  O   UNL     1      41.593  53.977  60.302  1.00  0.00    -0.550 OA
ATOM      5  O   UNL     1      39.772  53.397  61.567  1.00  0.00    -0.550 OA
ENDBRANCH   2   3
ENDBRANCH   1   2
BRANCH   1   6
ATOM      6  C   UNL     1      37.531  56.378  59.575  1.00  0.00     0.000 C 
BRANCH   6   7
ATOM      7  C   UNL     1      36.274  55.632  59.103  1.00  0.00    -0.003 C 
ATOM      8  C   UNL     1      36.272  54.159  59.508  1.00  0.00     0.004 C 
ENDBRANCH   6   7
ENDBRANCH   1   6
TORSDOF 4
ENDMDL
MODEL 3
REMARK VINA RESULT:    -3.951      5.282      7.153
REMARK INTER + INTRA:          -4.929
REMARK INTER:                  -4.735
REMARK INTRA:                  -0.194
REMARK UNBOUND:                -0.054
REMARK SMILES CCCCCC(=O)[O-]
REMARK SMILES IDX 4 1 5 2 6 3 7 4 8 5 3 6 2 7 1 8
REMARK H PARENT
REMARK Flexibility Score: inf
ROOT
ATOM      1  C   UNL     1      41.387  54.203  59.965  1.00  0.00     0.006 C 
ENDROOT
BRANCH   1   2
ATOM      2  C   UNL     1      40.244  54.010  60.969  1.00  0.00     0.053 C 
BRANCH   2   3
ATOM      3  C   UNL     1      39.017  54.771  60.568  1.00  0.00     0.041 C 
ATOM      4  O   UNL     1      39.015  56.030  60.592  1.00  0.00    -0.550 OA
ATOM      5  O   UNL     1      37.866  54.087  60.195  1.00  0.00    -0.550 OA
ENDBRANCH   2   3
ENDBRANCH   1   2
BRANCH   1   6
ATOM      6  C   UNL     1      42.618  54.868  60.606  1.00  0.00     0.000 C 
BRANCH   6   7
ATOM      7  C   UNL     1      43.186  56.006  59.747  1.00  0.00    -0.003 C 
ATOM      8  C   UNL     1      42.124  56.683  58.881  1.00  0.00     0.004 C 
ENDBRANCH   6   7
ENDBRANCH   1   6
TORSDOF 4
ENDMDL
MODEL 4
REMARK VINA RESULT:    -3.947      5.933      7.395
REMARK INTER + INTRA:          -4.923
REMARK INTER:                  -4.737
REMARK INTRA:                  -0.186
REMARK UNBOUND:                -0.054
REMARK SMILES CCCCCC(=O)[O-]
REMARK SMILES IDX 4 1 5 2 6 3 7 4 8 5 3 6 2 7 1 8
REMARK H PARENT
REMARK Flexibility Score: inf
ROOT
ATOM      1  C   UNL     1      41.368  54.218  59.962  1.00  0.00     0.006 C 
ENDROOT
BRANCH   1   2
ATOM      2  C   UNL     1      42.626  54.833  60.588  1.00  0.00     0.053 C 
BRANCH   2   3
ATOM      3  C   UNL     1      43.025  56.103  59.899  1.00  0.00     0.041 C 
ATOM      4  O   UNL     1      44.111  56.670  60.193  1.00  0.00    -0.550 OA
ATOM      5  O   UNL     1      42.183  56.676  58.954  1.00  0.00    -0.550 OA
ENDBRANCH   2   3
ENDBRANCH   1   2
BRANCH   1   6
ATOM      6  C   UNL     1      40.244  54.018  60.994  1.00  0.00     0.000 C 
BRANCH   6   7
ATOM      7  C   UNL     1      38.917  54.651  60.549  1.00  0.00    -0.003 C 
ATOM      8  C   UNL     1      38.946  56.179  60.590  1.00  0.00     0.004 C 
ENDBRANCH   6   7
ENDBRANCH   1   6
TORSDOF 4
ENDMDL
MODEL 5
REMARK VINA RESULT:    -3.942      2.947      4.337
REMARK INTER + INTRA:          -4.918
REMARK INTER:                  -4.814
REMARK INTRA:                  -0.104
REMARK UNBOUND:                -0.054
REMARK SMILES CCCCCC(=O)[O-]
REMARK SMILES IDX 4 1 5 2 6 3 7 4 8 5 3 6 2 7 1 8
REMARK H PARENT
REMARK Flexibility Score: inf
ROOT
ATOM      1  C   UNL     1      37.038  56.043  59.538  1.00  0.00     0.006 C 
ENDROOT
BRANCH   1   2
ATOM      2  C   UNL     1      38.055  55.123  60.224  1.00  0.00     0.053 C 
BRANCH   2   3
ATOM      3  C   UNL     1      39.363  55.816  60.456  1.00  0.00     0.041 C 
ATOM      4  O   UNL     1      39.406  57.069  60.577  1.00  0.00    -0.550 OA
ATOM      5  O   UNL     1      40.540  55.078  60.510  1.00  0.00    -0.550 OA
ENDBRANCH   2   3
ENDBRANCH   1   2
BRANCH   1   6
ATOM      6  C   UNL     1      35.914  55.253  58.845  1.00  0.00     0.000 C 
BRANCH   6   7
ATOM      7  C   UNL     1      36.010  53.742  59.104  1.00  0.00    -0.003 C 
ATOM      8  C   UNL     1      35.118  52.923  58.172  1.00  0.00     0.004 C 
ENDBRANCH   6   7
ENDBRANCH   1   6
TORSDOF 4
ENDMDL
MODEL 6
REMARK VINA RESULT:    -3.919      6.067      7.389
REMARK INTER + INTRA:          -4.890
REMARK INTER:                  -4.651
REMARK INTRA:                  -0.239
REMARK UNBOUND:                -0.054
REMARK SMILES CCCCCC(=O)[O-]
REMARK SMILES IDX 4 1 5 2 6 3 7 4 8 5 3 6 2 7 1 8
REMARK H PARENT
REMARK Flexibility Score: inf
ROOT
ATOM      1  C   UNL     1      42.621  54.855  60.615  1.00  0.00     0.006 C 
ENDROOT
BRANCH   1   2
ATOM      2  C   UNL     1      43.203  55.935  59.694  1.00  0.00     0.053 C 
BRANCH   2   3
ATOM      3  C   UNL     1      42.163  56.929  59.277  1.00  0.00     0.041 C 
ATOM      4  O   UNL     1      41.962  57.163  58.055  1.00  0.00    -0.550 OA
ATOM      5  O   UNL     1      41.436  57.619  60.239  1.00  0.00    -0.550 OA
ENDBRANCH   2   3
ENDBRANCH   1   2
BRANCH   1   6
ATOM      6  C   UNL     1      41.396  54.160  59.996  1.00  0.00     0.000 C 
BRANCH   6   7
ATOM      7  C   UNL     1      40.224  54.043  60.981  1.00  0.00    -0.003 C 
ATOM      8  C   UNL     1      39.050  54.952  60.618  1.00  0.00     0.004 C 
ENDBRANCH   6   7
ENDBRANCH   1   6
TORSDOF 4
ENDMDL
MODEL 7
REMARK VINA RESULT:    -3.876      4.026      5.824
REMARK INTER + INTRA:          -4.837
REMARK INTER:                  -4.713
REMARK INTRA:                  -0.124
REMARK UNBOUND:                -0.054
REMARK SMILES CCCCCC(=O)[O-]
REMARK SMILES IDX 4 1 5 2 6 3 7 4 8 5 3 6 2 7 1 8
REMARK H PARENT
REMARK Flexibility Score: inf
ROOT
ATOM      1  C   UNL     1      38.459  55.985  60.874  1.00  0.00     0.006 C 
ENDROOT
BRANCH   1   2
ATOM      2  C   UNL     1      37.414  56.359  59.816  1.00  0.00     0.053 C 
BRANCH   2   3
ATOM      3  C   UNL     1      36.602  55.172  59.393  1.00  0.00     0.041 C 
ATOM      4  O   UNL     1      35.663  55.308  58.564  1.00  0.00    -0.550 OA
ATOM      5  O   UNL     1      36.866  53.921  59.935  1.00  0.00    -0.550 OA
ENDBRANCH   2   3
ENDBRANCH   1   2
BRANCH   1   6
ATOM      6  C   UNL     1      39.876  55.882  60.281  1.00  0.00     0.000 C 
BRANCH   6   7
ATOM      7  C   UNL     1      40.520  54.511  60.530  1.00  0.00    -0.003 C 
ATOM      8  C   UNL     1      42.044  54.542  60.418  1.00  0.00     0.004 C 
ENDBRANCH   6   7
ENDBRANCH   1   6
TORSDOF 4
ENDMDL
MODEL 8
REMARK VINA RESULT:    -3.868      6.037      7.909
REMARK INTER + INTRA:          -4.826
REMARK INTER:                  -4.635
REMARK INTRA:                  -0.191
REMARK UNBOUND:                -0.054
REMARK SMILES CCCCCC(=O)[O-]
REMARK SMILES IDX 4 1 5 2 6 3 7 4 8 5 3 6 2 7 1 8
REMARK H PARENT
REMARK Flexibility Score: inf
ROOT
ATOM      1  C   UNL     1      42.722  54.860  60.616  1.00  0.00     0.006 C 
ENDROOT
BRANCH   1   2
ATOM      2  C   UNL     1      41.526  54.266  59.861  1.00  0.00     0.053 C 
BRANCH   2   3
ATOM      3  C   UNL     1      40.251  54.411  60.635  1.00  0.00     0.041 C 
ATOM      4  O   UNL     1      39.529  55.432  60.481  1.00  0.00    -0.550 OA
ATOM      5  O   UNL     1      39.876  53.433  61.547  1.00  0.00    -0.550 OA
ENDBRANCH   2   3
ENDBRANCH   1   2
BRANCH   1   6
ATOM      6  C   UNL     1      42.974  56.331  60.239  1.00  0.00     0.000 C 
BRANCH   6   7
ATOM      7  C   UNL     1      43.029  56.548  58.720  1.00  0.00    -0.003 C 
ATOM      8  C   UNL     1      42.003  57.569  58.230  1.00  0.00     0.004 C 
ENDBRANCH   6   7
ENDBRANCH   1   6
TORSDOF 4
ENDMDL
MODEL 9
REMARK VINA RESULT:    -3.841      4.219      5.452
REMARK INTER + INTRA:          -4.794
REMARK INTER:                  -4.706
REMARK INTRA:                  -0.087
REMARK UNBOUND:                -0.054
REMARK SMILES CCCCCC(=O)[O-]
REMARK SMILES IDX 4 1 5 2 6 3 7 4 8 5 3 6 2 7 1 8
REMARK H PARENT
REMARK Flexibility Score: inf
ROOT
ATOM      1  C   UNL     1      38.513  54.684  60.744  1.00  0.00     0.006 C 
ENDROOT
BRANCH   1   2
ATOM      2  C   UNL     1      39.904  54.070  60.946  1.00  0.00     0.053 C 
BRANCH   2   3
ATOM      3  C   UNL     1      40.973  54.885  60.284  1.00  0.00     0.041 C 
ATOM      4  O   UNL     1      42.030  54.334  59.877  1.00  0.00    -0.550 OA
ATOM      5  O   UNL     1      40.814  56.257  60.144  1.00  0.00    -0.550 OA
ENDBRANCH   2   3
ENDBRANCH   1   2
BRANCH   1   6
ATOM      6  C   UNL     1      37.489  53.651  60.240  1.00  0.00     0.000 C 
BRANCH   6   7
ATOM      7  C   UNL     1      36.298  54.304  59.524  1.00  0.00    -0.003 C 
ATOM      8  C   UNL     1      36.415  55.826  59.446  1.00  0.00     0.004 C 
ENDBRANCH   6   7
ENDBRANCH   1   6
TORSDOF 4
ENDMDL
