MODEL 1
REMARK VINA RESULT:    -6.255      0.000      0.000
REMARK INTER + INTRA:          -7.027
REMARK INTER:                  -6.987
REMARK INTRA:                  -0.040
REMARK UNBOUND:                -0.040
REMARK SMILES O=C([O-])c1ccc(O)c(O)c1
REMARK SMILES IDX 4 1 11 2 5 3 9 4 6 5 7 6 2 7 1 8 3 9 10 10 8 12
REMARK H PARENT 10 11 8 13
REMARK Flexibility Score: inf
ROOT
ATOM      1  C   UNL     1      12.666 -12.249  28.334  1.00  0.00     0.001 A 
ATOM      2  C   UNL     1      11.364 -11.954  28.775  1.00  0.00     0.060 A 
ATOM      3  C   UNL     1      13.720 -11.407  28.717  1.00  0.00     0.014 A 
ATOM      4  C   UNL     1      11.112 -10.839  29.584  1.00  0.00     0.158 A 
ATOM      5  C   UNL     1      13.478 -10.294  29.525  1.00  0.00     0.051 A 
ATOM      6  C   UNL     1      12.183  -9.997  29.965  1.00  0.00     0.157 A 
ENDROOT
BRANCH   1   7
ATOM      7  C   UNL     1      12.925 -13.429  27.478  1.00  0.00     0.072 C 
ATOM      8  O   UNL     1      12.137 -13.725  26.541  1.00  0.00    -0.545 OA
ATOM      9  O   UNL     1      14.041 -14.227  27.698  1.00  0.00    -0.545 OA
ENDBRANCH   1   7
BRANCH   4  10
ATOM     10  O   UNL     1       9.794 -10.608  29.984  1.00  0.00    -0.504 OA
ATOM     11  H   UNL     1       9.531 -10.279  30.902  1.00  0.00     0.293 HD
ENDBRANCH   4  10
BRANCH   6  12
ATOM     12  O   UNL     1      12.009  -8.870  30.769  1.00  0.00    -0.504 OA
ATOM     13  H   UNL     1      11.407  -8.841  31.579  1.00  0.00     0.293 HD
ENDBRANCH   6  12
TORSDOF 3
ENDMDL
MODEL 2
REMARK VINA RESULT:    -6.229      1.726      2.597
REMARK INTER + INTRA:          -6.997
REMARK INTER:                  -6.961
REMARK INTRA:                  -0.036
REMARK UNBOUND:                -0.040
REMARK SMILES O=C([O-])c1ccc(O)c(O)c1
REMARK SMILES IDX 4 1 11 2 5 3 9 4 6 5 7 6 2 7 1 8 3 9 10 10 8 12
REMARK H PARENT 10 11 8 13
REMARK Flexibility Score: inf
ROOT
ATOM      1  C   UNL     1      13.558 -13.326  28.050  1.00  0.00     0.001 A 
ATOM      2  C   UNL     1      13.549 -12.564  29.232  1.00  0.00     0.060 A 
ATOM      3  C   UNL     1      12.427 -13.308  27.221  1.00  0.00     0.014 A 
ATOM      4  C   UNL     1      12.433 -11.794  29.584  1.00  0.00     0.158 A 
ATOM      5  C   UNL     1      11.311 -12.542  27.564  1.00  0.00     0.051 A 
ATOM      6  C   UNL     1      11.299 -11.782  28.739  1.00  0.00     0.157 A 
ENDROOT
BRANCH   1   7
ATOM      7  C   UNL     1      14.740 -14.139  27.685  1.00  0.00     0.072 C 
ATOM      8  O   UNL     1      15.574 -13.713  26.842  1.00  0.00    -0.545 OA
ATOM      9  O   UNL     1      14.946 -15.385  28.266  1.00  0.00    -0.545 OA
ENDBRANCH   1   7
BRANCH   4  10
ATOM     10  O   UNL     1      12.495 -11.062  30.772  1.00  0.00    -0.504 OA
ATOM     11  H   UNL     1      11.714 -10.557  31.165  1.00  0.00     0.293 HD
ENDBRANCH   4  10
BRANCH   6  12
ATOM     12  O   UNL     1      10.152 -11.040  29.024  1.00  0.00    -0.504 OA
ATOM     13  H   UNL     1       9.473 -11.295  29.727  1.00  0.00     0.293 HD
ENDBRANCH   6  12
TORSDOF 3
ENDMDL
MODEL 3
REMARK VINA RESULT:    -6.076     11.033     12.518
REMARK INTER + INTRA:          -6.827
REMARK INTER:                  -6.791
REMARK INTRA:                  -0.036
REMARK UNBOUND:                -0.040
REMARK SMILES O=C([O-])c1ccc(O)c(O)c1
REMARK SMILES IDX 4 1 11 2 5 3 9 4 6 5 7 6 2 7 1 8 3 9 10 10 8 12
REMARK H PARENT 10 11 8 13
REMARK Flexibility Score: inf
ROOT
ATOM      1  C   UNL     1      16.592  -0.911  26.405  1.00  0.00     0.001 A 
ATOM      2  C   UNL     1      17.828  -0.458  25.913  1.00  0.00     0.060 A 
ATOM      3  C   UNL     1      16.544  -2.124  27.108  1.00  0.00     0.014 A 
ATOM      4  C   UNL     1      19.000  -1.198  26.117  1.00  0.00     0.158 A 
ATOM      5  C   UNL     1      17.707  -2.866  27.317  1.00  0.00     0.051 A 
ATOM      6  C   UNL     1      18.939  -2.419  26.829  1.00  0.00     0.157 A 
ENDROOT
BRANCH   1   7
ATOM      7  C   UNL     1      15.357  -0.125  26.185  1.00  0.00     0.072 C 
ATOM      8  O   UNL     1      14.967   0.709  27.044  1.00  0.00    -0.545 OA
ATOM      9  O   UNL     1      14.609  -0.297  25.026  1.00  0.00    -0.545 OA
ENDBRANCH   1   7
BRANCH   4  10
ATOM     10  O   UNL     1      20.192  -0.686  25.600  1.00  0.00    -0.504 OA
ATOM     11  H   UNL     1      21.110  -1.010  25.869  1.00  0.00     0.293 HD
ENDBRANCH   4  10
BRANCH   6  12
ATOM     12  O   UNL     1      20.064  -3.209  27.071  1.00  0.00    -0.504 OA
ATOM     13  H   UNL     1      20.150  -3.846  27.849  1.00  0.00     0.293 HD
ENDBRANCH   6  12
TORSDOF 3
ENDMDL
MODEL 4
REMARK VINA RESULT:    -5.971     10.765     12.278
REMARK INTER + INTRA:          -6.710
REMARK INTER:                  -6.672
REMARK INTRA:                  -0.038
REMARK UNBOUND:                -0.040
REMARK SMILES O=C([O-])c1ccc(O)c(O)c1
REMARK SMILES IDX 4 1 11 2 5 3 9 4 6 5 7 6 2 7 1 8 3 9 10 10 8 12
REMARK H PARENT 10 11 8 13
REMARK Flexibility Score: inf
ROOT
ATOM      1  C   UNL     1      15.663  -1.014  26.987  1.00  0.00     0.001 A 
ATOM      2  C   UNL     1      15.731  -0.103  28.056  1.00  0.00     0.060 A 
ATOM      3  C   UNL     1      15.519  -0.519  25.682  1.00  0.00     0.014 A 
ATOM      4  C   UNL     1      15.657   1.277  27.833  1.00  0.00     0.158 A 
ATOM      5  C   UNL     1      15.446   0.855  25.451  1.00  0.00     0.051 A 
ATOM      6  C   UNL     1      15.512   1.764  26.513  1.00  0.00     0.157 A 
ENDROOT
BRANCH   1   7
ATOM      7  C   UNL     1      15.741  -2.472  27.230  1.00  0.00     0.072 C 
ATOM      8  O   UNL     1      14.804  -3.232  26.869  1.00  0.00    -0.545 OA
ATOM      9  O   UNL     1      16.850  -3.023  27.860  1.00  0.00    -0.545 OA
ENDBRANCH   1   7
BRANCH   4  10
ATOM     10  O   UNL     1      15.731   2.122  28.943  1.00  0.00    -0.504 OA
ATOM     11  H   UNL     1      14.930   2.416  29.484  1.00  0.00     0.293 HD
ENDBRANCH   4  10
BRANCH   6  12
ATOM     12  O   UNL     1      15.432   3.125  26.214  1.00  0.00    -0.504 OA
ATOM     13  H   UNL     1      14.858   3.782  26.721  1.00  0.00     0.293 HD
ENDBRANCH   6  12
TORSDOF 3
ENDMDL
MODEL 5
REMARK VINA RESULT:    -5.952      1.178      4.327
REMARK INTER + INTRA:          -6.688
REMARK INTER:                  -6.646
REMARK INTRA:                  -0.042
REMARK UNBOUND:                -0.040
REMARK SMILES O=C([O-])c1ccc(O)c(O)c1
REMARK SMILES IDX 4 1 11 2 5 3 9 4 6 5 7 6 2 7 1 8 3 9 10 10 8 12
REMARK H PARENT 10 11 8 13
REMARK Flexibility Score: inf
ROOT
ATOM      1  C   UNL     1      12.695 -11.377  29.455  1.00  0.00     0.001 A 
ATOM      2  C   UNL     1      12.373 -12.216  28.373  1.00  0.00     0.060 A 
ATOM      3  C   UNL     1      13.919 -11.559  30.114  1.00  0.00     0.014 A 
ATOM      4  C   UNL     1      13.254 -13.220  27.952  1.00  0.00     0.158 A 
ATOM      5  C   UNL     1      14.804 -12.557  29.700  1.00  0.00     0.051 A 
ATOM      6  C   UNL     1      14.486 -13.393  28.625  1.00  0.00     0.157 A 
ENDROOT
BRANCH   1   7
ATOM      7  C   UNL     1      11.759 -10.318  29.895  1.00  0.00     0.072 C 
ATOM      8  O   UNL     1      12.193  -9.241  30.381  1.00  0.00    -0.545 OA
ATOM      9  O   UNL     1      10.385 -10.499  29.779  1.00  0.00    -0.545 OA
ENDBRANCH   1   7
BRANCH   4  10
ATOM     10  O   UNL     1      12.867 -14.015  26.871  1.00  0.00    -0.504 OA
ATOM     11  H   UNL     1      11.956 -13.974  26.437  1.00  0.00     0.293 HD
ENDBRANCH   4  10
BRANCH   6  12
ATOM     12  O   UNL     1      15.413 -14.372  28.262  1.00  0.00    -0.504 OA
ATOM     13  H   UNL     1      16.411 -14.276  28.381  1.00  0.00     0.293 HD
ENDBRANCH   6  12
TORSDOF 3
ENDMDL
MODEL 6
REMARK VINA RESULT:    -5.936      1.688      2.388
REMARK INTER + INTRA:          -6.671
REMARK INTER:                  -6.635
REMARK INTRA:                  -0.036
REMARK UNBOUND:                -0.040
REMARK SMILES O=C([O-])c1ccc(O)c(O)c1
REMARK SMILES IDX 4 1 11 2 5 3 9 4 6 5 7 6 2 7 1 8 3 9 10 10 8 12
REMARK H PARENT 10 11 8 13
REMARK Flexibility Score: inf
ROOT
ATOM      1  C   UNL     1      13.953 -13.378  28.290  1.00  0.00     0.001 A 
ATOM      2  C   UNL     1      12.678 -13.375  27.697  1.00  0.00     0.060 A 
ATOM      3  C   UNL     1      14.148 -12.668  29.484  1.00  0.00     0.014 A 
ATOM      4  C   UNL     1      11.613 -12.678  28.282  1.00  0.00     0.158 A 
ATOM      5  C   UNL     1      13.091 -11.972  30.074  1.00  0.00     0.051 A 
ATOM      6  C   UNL     1      11.822 -11.967  29.487  1.00  0.00     0.157 A 
ENDROOT
BRANCH   1   7
ATOM      7  C   UNL     1      15.075 -14.115  27.667  1.00  0.00     0.072 C 
ATOM      8  O   UNL     1      15.794 -13.566  26.790  1.00  0.00    -0.545 OA
ATOM      9  O   UNL     1      15.351 -15.425  28.040  1.00  0.00    -0.545 OA
ENDBRANCH   1   7
BRANCH   4  10
ATOM     10  O   UNL     1      10.375 -12.720  27.637  1.00  0.00    -0.504 OA
ATOM     11  H   UNL     1       9.554 -13.170  28.017  1.00  0.00     0.293 HD
ENDBRANCH   4  10
BRANCH   6  12
ATOM     12  O   UNL     1      10.809 -11.251  30.126  1.00  0.00    -0.504 OA
ATOM     13  H   UNL     1      10.916 -10.311  30.478  1.00  0.00     0.293 HD
ENDBRANCH   6  12
TORSDOF 3
ENDMDL
MODEL 7
REMARK VINA RESULT:    -5.892      2.232      4.716
REMARK INTER + INTRA:          -6.621
REMARK INTER:                  -6.578
REMARK INTRA:                  -0.043
REMARK UNBOUND:                -0.040
REMARK SMILES O=C([O-])c1ccc(O)c(O)c1
REMARK SMILES IDX 4 1 11 2 5 3 9 4 6 5 7 6 2 7 1 8 3 9 10 10 8 12
REMARK H PARENT 10 11 8 13
REMARK Flexibility Score: inf
ROOT
ATOM      1  C   UNL     1      13.788 -11.779  29.082  1.00  0.00     0.001 A 
ATOM      2  C   UNL     1      14.106 -12.542  30.219  1.00  0.00     0.060 A 
ATOM      3  C   UNL     1      14.145 -12.267  27.816  1.00  0.00     0.014 A 
ATOM      4  C   UNL     1      14.768 -13.770  30.102  1.00  0.00     0.158 A 
ATOM      5  C   UNL     1      14.803 -13.491  27.690  1.00  0.00     0.051 A 
ATOM      6  C   UNL     1      15.122 -14.252  28.820  1.00  0.00     0.157 A 
ENDROOT
BRANCH   1   7
ATOM      7  C   UNL     1      13.089 -10.481  29.213  1.00  0.00     0.072 C 
ATOM      8  O   UNL     1      13.122  -9.638  28.278  1.00  0.00    -0.545 OA
ATOM      9  O   UNL     1      12.386 -10.174  30.372  1.00  0.00    -0.545 OA
ENDBRANCH   1   7
BRANCH   4  10
ATOM     10  O   UNL     1      15.052 -14.473  31.275  1.00  0.00    -0.504 OA
ATOM     11  H   UNL     1      15.549 -14.080  32.062  1.00  0.00     0.293 HD
ENDBRANCH   4  10
BRANCH   6  12
ATOM     12  O   UNL     1      15.782 -15.466  28.625  1.00  0.00    -0.504 OA
ATOM     13  H   UNL     1      15.362 -16.370  28.786  1.00  0.00     0.293 HD
ENDBRANCH   6  12
TORSDOF 3
ENDMDL
MODEL 8
REMARK VINA RESULT:    -5.854     10.602     12.314
REMARK INTER + INTRA:          -6.579
REMARK INTER:                  -6.543
REMARK INTRA:                  -0.036
REMARK UNBOUND:                -0.040
REMARK SMILES O=C([O-])c1ccc(O)c(O)c1
REMARK SMILES IDX 4 1 11 2 5 3 9 4 6 5 7 6 2 7 1 8 3 9 10 10 8 12
REMARK H PARENT 10 11 8 13
REMARK Flexibility Score: inf
ROOT
ATOM      1  C   UNL     1      16.669  -0.587  25.987  1.00  0.00     0.001 A 
ATOM      2  C   UNL     1      16.493  -1.493  27.048  1.00  0.00     0.060 A 
ATOM      3  C   UNL     1      17.893  -0.574  25.301  1.00  0.00     0.014 A 
ATOM      4  C   UNL     1      17.516  -2.375  27.420  1.00  0.00     0.158 A 
ATOM      5  C   UNL     1      18.916  -1.450  25.665  1.00  0.00     0.051 A 
ATOM      6  C   UNL     1      18.744  -2.354  26.719  1.00  0.00     0.157 A 
ENDROOT
BRANCH   1   7
ATOM      7  C   UNL     1      15.585   0.343  25.600  1.00  0.00     0.072 C 
ATOM      8  O   UNL     1      14.645  -0.043  24.856  1.00  0.00    -0.545 OA
ATOM      9  O   UNL     1      15.589   1.658  26.052  1.00  0.00    -0.545 OA
ENDBRANCH   1   7
BRANCH   4  10
ATOM     10  O   UNL     1      17.270  -3.247  28.482  1.00  0.00    -0.504 OA
ATOM     11  H   UNL     1      16.440  -3.217  29.058  1.00  0.00     0.293 HD
ENDBRANCH   4  10
BRANCH   6  12
ATOM     12  O   UNL     1      19.808  -3.202  27.033  1.00  0.00    -0.504 OA
ATOM     13  H   UNL     1      20.707  -3.174  26.575  1.00  0.00     0.293 HD
ENDBRANCH   6  12
TORSDOF 3
ENDMDL
MODEL 9
REMARK VINA RESULT:    -5.490     10.237     11.638
REMARK INTER + INTRA:          -6.173
REMARK INTER:                  -6.137
REMARK INTRA:                  -0.036
REMARK UNBOUND:                -0.040
REMARK SMILES O=C([O-])c1ccc(O)c(O)c1
REMARK SMILES IDX 4 1 11 2 5 3 9 4 6 5 7 6 2 7 1 8 3 9 10 10 8 12
REMARK H PARENT 10 11 8 13
REMARK Flexibility Score: inf
ROOT
ATOM      1  C   UNL     1      16.189  -1.038  26.822  1.00  0.00     0.001 A 
ATOM      2  C   UNL     1      17.359  -1.773  26.561  1.00  0.00     0.060 A 
ATOM      3  C   UNL     1      15.561  -1.181  28.068  1.00  0.00     0.014 A 
ATOM      4  C   UNL     1      17.897  -2.637  27.523  1.00  0.00     0.158 A 
ATOM      5  C   UNL     1      16.092  -2.038  29.033  1.00  0.00     0.051 A 
ATOM      6  C   UNL     1      17.256  -2.772  28.776  1.00  0.00     0.157 A 
ENDROOT
BRANCH   1   7
ATOM      7  C   UNL     1      15.625  -0.127  25.800  1.00  0.00     0.072 C 
ATOM      8  O   UNL     1      15.000  -0.587  24.808  1.00  0.00    -0.545 OA
ATOM      9  O   UNL     1      15.778   1.249  25.921  1.00  0.00    -0.545 OA
ENDBRANCH   1   7
BRANCH   4  10
ATOM     10  O   UNL     1      19.061  -3.335  27.193  1.00  0.00    -0.504 OA
ATOM     11  H   UNL     1      19.249  -4.285  27.478  1.00  0.00     0.293 HD
ENDBRANCH   4  10
BRANCH   6  12
ATOM     12  O   UNL     1      17.733  -3.612  29.783  1.00  0.00    -0.504 OA
ATOM     13  H   UNL     1      18.487  -4.272  29.658  1.00  0.00     0.293 HD
ENDBRANCH   6  12
TORSDOF 3
ENDMDL
