MODEL 1
REMARK VINA RESULT:    -2.412      0.000      0.000
REMARK INTER + INTRA:          -2.412
REMARK INTER:                  -2.412
REMARK INTRA:                   0.000
REMARK UNBOUND:                 0.000
REMARK SMILES CC(=O)[O-]
REMARK SMILES IDX 1 1 2 2 3 3 4 4
REMARK H PARENT
REMARK Flexibility Score: inf
ROOT
ATOM      1  C   UNL     1       0.389 -19.596  24.590  1.00  0.00     0.063 C 
ATOM      2  C   UNL     1       1.767 -19.098  24.869  1.00  0.00     0.038 C 
ATOM      3  O   UNL     1       2.025 -17.870  24.779  1.00  0.00    -0.550 OA
ATOM      4  O   UNL     1       2.781 -19.995  25.177  1.00  0.00    -0.550 OA
ENDROOT
TORSDOF 0
ENDMDL
MODEL 2
REMARK VINA RESULT:    -2.344     11.893     12.551
REMARK INTER + INTRA:          -2.344
REMARK INTER:                  -2.344
REMARK INTRA:                   0.000
REMARK UNBOUND:                 0.000
REMARK SMILES CC(=O)[O-]
REMARK SMILES IDX 1 1 2 2 3 3 4 4
REMARK H PARENT
REMARK Flexibility Score: inf
ROOT
ATOM      1  C   UNL     1      -3.422  -9.960  20.076  1.00  0.00     0.063 C 
ATOM      2  C   UNL     1      -4.783  -9.559  20.535  1.00  0.00     0.038 C 
ATOM      3  O   UNL     1      -5.153  -9.809  21.711  1.00  0.00    -0.550 OA
ATOM      4  O   UNL     1      -5.666  -8.956  19.648  1.00  0.00    -0.550 OA
ENDROOT
TORSDOF 0
ENDMDL
MODEL 3
REMARK VINA RESULT:    -2.147     12.009     12.450
REMARK INTER + INTRA:          -2.147
REMARK INTER:                  -2.147
REMARK INTRA:                   0.000
REMARK UNBOUND:                 0.000
REMARK SMILES CC(=O)[O-]
REMARK SMILES IDX 1 1 2 2 3 3 4 4
REMARK H PARENT
REMARK Flexibility Score: inf
ROOT
ATOM      1  C   UNL     1      -5.724  -8.832  19.722  1.00  0.00     0.063 C 
ATOM      2  C   UNL     1      -4.805  -9.574  20.634  1.00  0.00     0.038 C 
ATOM      3  O   UNL     1      -5.184  -9.889  21.791  1.00  0.00    -0.550 OA
ATOM      4  O   UNL     1      -3.512  -9.872  20.225  1.00  0.00    -0.550 OA
ENDROOT
TORSDOF 0
ENDMDL
MODEL 4
REMARK VINA RESULT:    -2.099     16.229     16.443
REMARK INTER + INTRA:          -2.099
REMARK INTER:                  -2.099
REMARK INTRA:                   0.000
REMARK UNBOUND:                 0.000
REMARK SMILES CC(=O)[O-]
REMARK SMILES IDX 1 1 2 2 3 3 4 4
REMARK H PARENT
REMARK Flexibility Score: inf
ROOT
ATOM      1  C   UNL     1       4.473  -3.207  20.385  1.00  0.00     0.063 C 
ATOM      2  C   UNL     1       4.132  -3.265  21.836  1.00  0.00     0.038 C 
ATOM      3  O   UNL     1       2.937  -3.423  22.199  1.00  0.00    -0.550 OA
ATOM      4  O   UNL     1       5.125  -3.091  22.791  1.00  0.00    -0.550 OA
ENDROOT
TORSDOF 0
ENDMDL
MODEL 5
REMARK VINA RESULT:    -2.054      6.975      7.418
REMARK INTER + INTRA:          -2.054
REMARK INTER:                  -2.054
REMARK INTRA:                   0.000
REMARK UNBOUND:                 0.000
REMARK SMILES CC(=O)[O-]
REMARK SMILES IDX 1 1 2 2 3 3 4 4
REMARK H PARENT
REMARK Flexibility Score: inf
ROOT
ATOM      1  C   UNL     1       9.138 -20.511  26.103  1.00  0.00     0.063 C 
ATOM      2  C   UNL     1       8.868 -19.580  24.970  1.00  0.00     0.038 C 
ATOM      3  O   UNL     1       8.121 -19.937  24.022  1.00  0.00    -0.550 OA
ATOM      4  O   UNL     1       9.483 -18.335  24.931  1.00  0.00    -0.550 OA
ENDROOT
TORSDOF 0
ENDMDL
MODEL 6
REMARK VINA RESULT:    -2.028     16.487     16.956
REMARK INTER + INTRA:          -2.028
REMARK INTER:                  -2.028
REMARK INTRA:                   0.000
REMARK UNBOUND:                 0.000
REMARK SMILES CC(=O)[O-]
REMARK SMILES IDX 1 1 2 2 3 3 4 4
REMARK H PARENT
REMARK Flexibility Score: inf
ROOT
ATOM      1  C   UNL     1       5.120  -1.822  21.089  1.00  0.00     0.063 C 
ATOM      2  C   UNL     1       4.304  -3.039  20.812  1.00  0.00     0.038 C 
ATOM      3  O   UNL     1       4.418  -3.639  19.712  1.00  0.00    -0.550 OA
ATOM      4  O   UNL     1       3.378  -3.483  21.747  1.00  0.00    -0.550 OA
ENDROOT
TORSDOF 0
ENDMDL
MODEL 7
REMARK VINA RESULT:    -2.024     22.171     22.601
REMARK INTER + INTRA:          -2.024
REMARK INTER:                  -2.024
REMARK INTRA:                   0.000
REMARK UNBOUND:                 0.000
REMARK SMILES CC(=O)[O-]
REMARK SMILES IDX 1 1 2 2 3 3 4 4
REMARK H PARENT
REMARK Flexibility Score: inf
ROOT
ATOM      1  C   UNL     1       5.601  -2.495  12.271  1.00  0.00     0.063 C 
ATOM      2  C   UNL     1       5.335  -1.560  11.139  1.00  0.00     0.038 C 
ATOM      3  O   UNL     1       4.279  -0.876  11.119  1.00  0.00    -0.550 OA
ATOM      4  O   UNL     1       6.228  -1.482  10.078  1.00  0.00    -0.550 OA
ENDROOT
TORSDOF 0
ENDMDL
MODEL 8
REMARK VINA RESULT:    -2.020     20.931     21.485
REMARK INTER + INTRA:          -2.020
REMARK INTER:                  -2.020
REMARK INTRA:                   0.000
REMARK UNBOUND:                 0.000
REMARK SMILES CC(=O)[O-]
REMARK SMILES IDX 1 1 2 2 3 3 4 4
REMARK H PARENT
REMARK Flexibility Score: inf
ROOT
ATOM      1  C   UNL     1       5.308  -1.095  12.964  1.00  0.00     0.063 C 
ATOM      2  C   UNL     1       5.761  -2.297  12.207  1.00  0.00     0.038 C 
ATOM      3  O   UNL     1       6.485  -2.165  11.186  1.00  0.00    -0.550 OA
ATOM      4  O   UNL     1       5.342  -3.563  12.596  1.00  0.00    -0.550 OA
ENDROOT
TORSDOF 0
ENDMDL
