MODEL 1
REMARK VINA RESULT:    -4.310      0.000      0.000
REMARK INTER + INTRA:          -5.385
REMARK INTER:                  -5.318
REMARK INTRA:                  -0.067
REMARK UNBOUND:                -0.067
REMARK SMILES Oc1cc(O)c2cc(O)c(-c3cc(O)c(O)c(O)c3)[o+]c2c1
REMARK SMILES IDX 10 1 20 2 21 3 22 4 2 5 3 6 4 7 6 8 7 9 8 10 11 11 12 12
REMARK SMILES IDX 13 13 19 14 15 15 17 16 14 17 16 19 18 21 9 23 1 25 5 27
REMARK H PARENT 14 18 16 20 18 22 9 24 1 26 5 28
REMARK Flexibility Score: inf
ROOT
ATOM      1  C   UNL     1      27.422   4.725 -13.288  1.00  0.00     0.402 A 
ATOM      2  O   UNL     1      28.163   5.632 -13.919  1.00  0.00    -0.202 OA
ATOM      3  C   UNL     1      29.015   5.328 -14.894  1.00  0.00     0.368 A 
ATOM      4  C   UNL     1      29.753   6.351 -15.495  1.00  0.00     0.162 A 
ATOM      5  C   UNL     1      30.657   6.059 -16.521  1.00  0.00     0.128 A 
ATOM      6  C   UNL     1      30.824   4.740 -16.945  1.00  0.00     0.093 A 
ATOM      7  C   UNL     1      30.096   3.697 -16.359  1.00  0.00     0.136 A 
ATOM      8  C   UNL     1      29.175   3.988 -15.319  1.00  0.00     0.125 A 
ATOM      9  C   UNL     1      28.395   3.009 -14.683  1.00  0.00     0.078 A 
ATOM     10  C   UNL     1      27.504   3.373 -13.669  1.00  0.00     0.223 A 
ENDROOT
BRANCH   1  11
ATOM     11  C   UNL     1      26.518   5.187 -12.211  1.00  0.00     0.091 A 
ATOM     12  C   UNL     1      25.154   4.845 -12.202  1.00  0.00     0.068 A 
ATOM     13  C   UNL     1      24.318   5.274 -11.161  1.00  0.00     0.162 A 
ATOM     14  C   UNL     1      27.040   5.936 -11.145  1.00  0.00     0.068 A 
ATOM     15  C   UNL     1      24.846   6.042 -10.112  1.00  0.00     0.200 A 
ATOM     16  C   UNL     1      26.208   6.369 -10.103  1.00  0.00     0.162 A 
BRANCH  13  17
ATOM     17  O   UNL     1      22.967   4.934 -11.166  1.00  0.00    -0.504 OA
ATOM     18  H   UNL     1      22.381   5.071 -10.350  1.00  0.00     0.293 HD
ENDBRANCH  13  17
BRANCH  15  19
ATOM     19  O   UNL     1      24.034   6.484  -9.066  1.00  0.00    -0.502 OA
ATOM     20  H   UNL     1      24.417   6.880  -8.217  1.00  0.00     0.293 HD
ENDBRANCH  15  19
BRANCH  16  21
ATOM     21  O   UNL     1      26.730   7.125  -9.055  1.00  0.00    -0.504 OA
ATOM     22  H   UNL     1      26.296   7.992  -8.760  1.00  0.00     0.293 HD
ENDBRANCH  16  21
ENDBRANCH   1  11
BRANCH  10  23
ATOM     23  O   UNL     1      26.692   2.409 -13.072  1.00  0.00    -0.500 OA
ATOM     24  H   UNL     1      25.930   1.969 -13.575  1.00  0.00     0.294 HD
ENDBRANCH  10  23
BRANCH   5  25
ATOM     25  O   UNL     1      31.396   7.074 -17.125  1.00  0.00    -0.507 OA
ATOM     26  H   UNL     1      31.577   7.952 -16.651  1.00  0.00     0.293 HD
ENDBRANCH   5  25
BRANCH   7  27
ATOM     27  O   UNL     1      30.325   2.403 -16.839  1.00  0.00    -0.507 OA
ATOM     28  H   UNL     1      29.781   1.594 -16.578  1.00  0.00     0.293 HD
ENDBRANCH   7  27
TORSDOF 7
ENDMDL
MODEL 2
REMARK VINA RESULT:    -4.242      0.169      1.796
REMARK INTER + INTRA:          -5.302
REMARK INTER:                  -5.248
REMARK INTRA:                  -0.054
REMARK UNBOUND:                -0.067
REMARK SMILES Oc1cc(O)c2cc(O)c(-c3cc(O)c(O)c(O)c3)[o+]c2c1
REMARK SMILES IDX 10 1 20 2 21 3 22 4 2 5 3 6 4 7 6 8 7 9 8 10 11 11 12 12
REMARK SMILES IDX 13 13 19 14 15 15 17 16 14 17 16 19 18 21 9 23 1 25 5 27
REMARK H PARENT 14 18 16 20 18 22 9 24 1 26 5 28
REMARK Flexibility Score: inf
ROOT
ATOM      1  C   UNL     1      27.601   4.691 -13.310  1.00  0.00     0.402 A 
ATOM      2  O   UNL     1      28.351   5.602 -13.924  1.00  0.00    -0.202 OA
ATOM      3  C   UNL     1      29.188   5.310 -14.917  1.00  0.00     0.368 A 
ATOM      4  C   UNL     1      29.937   6.337 -15.498  1.00  0.00     0.162 A 
ATOM      5  C   UNL     1      30.825   6.058 -16.540  1.00  0.00     0.128 A 
ATOM      6  C   UNL     1      30.966   4.748 -17.002  1.00  0.00     0.093 A 
ATOM      7  C   UNL     1      30.227   3.702 -16.436  1.00  0.00     0.136 A 
ATOM      8  C   UNL     1      29.322   3.980 -15.379  1.00  0.00     0.125 A 
ATOM      9  C   UNL     1      28.531   2.997 -14.762  1.00  0.00     0.078 A 
ATOM     10  C   UNL     1      27.657   3.349 -13.728  1.00  0.00     0.223 A 
ENDROOT
BRANCH   1  11
ATOM     11  C   UNL     1      26.716   5.139 -12.212  1.00  0.00     0.091 A 
ATOM     12  C   UNL     1      27.204   5.921 -11.150  1.00  0.00     0.068 A 
ATOM     13  C   UNL     1      26.345   6.355 -10.131  1.00  0.00     0.162 A 
ATOM     14  C   UNL     1      25.349   4.824 -12.255  1.00  0.00     0.068 A 
ATOM     15  C   UNL     1      24.984   6.015 -10.172  1.00  0.00     0.200 A 
ATOM     16  C   UNL     1      24.487   5.253 -11.237  1.00  0.00     0.162 A 
BRANCH  13  17
ATOM     17  O   UNL     1      26.841   7.125  -9.080  1.00  0.00    -0.504 OA
ATOM     18  H   UNL     1      26.419   7.103  -8.159  1.00  0.00     0.293 HD
ENDBRANCH  13  17
BRANCH  15  19
ATOM     19  O   UNL     1      24.110   6.431  -9.166  1.00  0.00    -0.502 OA
ATOM     20  H   UNL     1      24.166   7.353  -8.751  1.00  0.00     0.293 HD
ENDBRANCH  15  19
BRANCH  16  21
ATOM     21  O   UNL     1      23.132   4.926 -11.278  1.00  0.00    -0.504 OA
ATOM     22  H   UNL     1      22.743   4.371 -12.031  1.00  0.00     0.293 HD
ENDBRANCH  16  21
ENDBRANCH   1  11
BRANCH  10  23
ATOM     23  O   UNL     1      26.834   2.382 -13.149  1.00  0.00    -0.500 OA
ATOM     24  H   UNL     1      25.830   2.385 -13.286  1.00  0.00     0.294 HD
ENDBRANCH  10  23
BRANCH   5  25
ATOM     25  O   UNL     1      31.575   7.076 -17.125  1.00  0.00    -0.507 OA
ATOM     26  H   UNL     1      32.281   6.879 -17.827  1.00  0.00     0.293 HD
ENDBRANCH   5  25
BRANCH   7  27
ATOM     27  O   UNL     1      30.428   2.418 -16.953  1.00  0.00    -0.507 OA
ATOM     28  H   UNL     1      30.184   2.136 -17.891  1.00  0.00     0.293 HD
ENDBRANCH   7  27
TORSDOF 7
ENDMDL
MODEL 3
REMARK VINA RESULT:    -4.173      1.334      3.232
REMARK INTER + INTRA:          -5.216
REMARK INTER:                  -5.508
REMARK INTRA:                   0.292
REMARK UNBOUND:                -0.067
REMARK SMILES Oc1cc(O)c2cc(O)c(-c3cc(O)c(O)c(O)c3)[o+]c2c1
REMARK SMILES IDX 10 1 20 2 21 3 22 4 2 5 3 6 4 7 6 8 7 9 8 10 11 11 12 12
REMARK SMILES IDX 13 13 19 14 15 15 17 16 14 17 16 19 18 21 9 23 1 25 5 27
REMARK H PARENT 14 18 16 20 18 22 9 24 1 26 5 28
REMARK Flexibility Score: inf
ROOT
ATOM      1  C   UNL     1      27.433   4.753 -13.916  1.00  0.00     0.402 A 
ATOM      2  O   UNL     1      27.729   3.556 -14.414  1.00  0.00    -0.202 OA
ATOM      3  C   UNL     1      28.722   3.349 -15.274  1.00  0.00     0.368 A 
ATOM      4  C   UNL     1      28.954   2.053 -15.745  1.00  0.00     0.162 A 
ATOM      5  C   UNL     1      29.989   1.808 -16.652  1.00  0.00     0.128 A 
ATOM      6  C   UNL     1      30.793   2.861 -17.091  1.00  0.00     0.093 A 
ATOM      7  C   UNL     1      30.581   4.168 -16.635  1.00  0.00     0.136 A 
ATOM      8  C   UNL     1      29.533   4.422 -15.712  1.00  0.00     0.125 A 
ATOM      9  C   UNL     1      29.255   5.697 -15.192  1.00  0.00     0.078 A 
ATOM     10  C   UNL     1      28.208   5.869 -14.281  1.00  0.00     0.223 A 
ENDROOT
BRANCH   1  11
ATOM     11  C   UNL     1      26.296   4.857 -12.973  1.00  0.00     0.091 A 
ATOM     12  C   UNL     1      26.195   5.923 -12.062  1.00  0.00     0.068 A 
ATOM     13  C   UNL     1      25.100   6.016 -11.192  1.00  0.00     0.162 A 
ATOM     14  C   UNL     1      25.267   3.904 -13.024  1.00  0.00     0.068 A 
ATOM     15  C   UNL     1      24.087   5.044 -11.236  1.00  0.00     0.200 A 
ATOM     16  C   UNL     1      24.171   3.991 -12.156  1.00  0.00     0.162 A 
BRANCH  13  17
ATOM     17  O   UNL     1      25.013   7.074 -10.289  1.00  0.00    -0.504 OA
ATOM     18  H   UNL     1      24.274   7.766 -10.350  1.00  0.00     0.293 HD
ENDBRANCH  13  17
BRANCH  15  19
ATOM     19  O   UNL     1      22.989   5.113 -10.378  1.00  0.00    -0.502 OA
ATOM     20  H   UNL     1      23.018   4.744  -9.435  1.00  0.00     0.293 HD
ENDBRANCH  15  19
BRANCH  16  21
ATOM     21  O   UNL     1      23.159   3.033 -12.201  1.00  0.00    -0.504 OA
ATOM     22  H   UNL     1      22.331   3.109 -11.622  1.00  0.00     0.293 HD
ENDBRANCH  16  21
ENDBRANCH   1  11
BRANCH  10  23
ATOM     23  O   UNL     1      27.964   7.125 -13.725  1.00  0.00    -0.500 OA
ATOM     24  H   UNL     1      27.923   7.265 -12.722  1.00  0.00     0.294 HD
ENDBRANCH  10  23
BRANCH   5  25
ATOM     25  O   UNL     1      30.227   0.519 -17.125  1.00  0.00    -0.507 OA
ATOM     26  H   UNL     1      30.303  -0.272 -16.494  1.00  0.00     0.293 HD
ENDBRANCH   5  25
BRANCH   7  27
ATOM     27  O   UNL     1      31.427   5.166 -17.125  1.00  0.00    -0.507 OA
ATOM     28  H   UNL     1      31.583   5.352 -18.105  1.00  0.00     0.293 HD
ENDBRANCH   7  27
TORSDOF 7
ENDMDL
MODEL 4
REMARK VINA RESULT:    -3.929      1.314      2.764
REMARK INTER + INTRA:          -4.915
REMARK INTER:                  -5.208
REMARK INTRA:                   0.294
REMARK UNBOUND:                -0.067
REMARK SMILES Oc1cc(O)c2cc(O)c(-c3cc(O)c(O)c(O)c3)[o+]c2c1
REMARK SMILES IDX 10 1 20 2 21 3 22 4 2 5 3 6 4 7 6 8 7 9 8 10 11 11 12 12
REMARK SMILES IDX 13 13 19 14 15 15 17 16 14 17 16 19 18 21 9 23 1 25 5 27
REMARK H PARENT 14 18 16 20 18 22 9 24 1 26 5 28
REMARK Flexibility Score: inf
ROOT
ATOM      1  C   UNL     1      27.313   4.755 -13.906  1.00  0.00     0.402 A 
ATOM      2  O   UNL     1      27.628   3.569 -14.419  1.00  0.00    -0.202 OA
ATOM      3  C   UNL     1      28.644   3.382 -15.256  1.00  0.00     0.368 A 
ATOM      4  C   UNL     1      28.895   2.097 -15.745  1.00  0.00     0.162 A 
ATOM      5  C   UNL     1      29.955   1.873 -16.628  1.00  0.00     0.128 A 
ATOM      6  C   UNL     1      30.765   2.938 -17.026  1.00  0.00     0.093 A 
ATOM      7  C   UNL     1      30.534   4.235 -16.551  1.00  0.00     0.136 A 
ATOM      8  C   UNL     1      29.461   4.467 -15.651  1.00  0.00     0.125 A 
ATOM      9  C   UNL     1      29.164   5.731 -15.115  1.00  0.00     0.078 A 
ATOM     10  C   UNL     1      28.092   5.881 -14.229  1.00  0.00     0.223 A 
ENDROOT
BRANCH   1  11
ATOM     11  C   UNL     1      26.151   4.836 -12.992  1.00  0.00     0.091 A 
ATOM     12  C   UNL     1      25.104   3.900 -13.053  1.00  0.00     0.068 A 
ATOM     13  C   UNL     1      24.023   3.980 -12.164  1.00  0.00     0.162 A 
ATOM     14  C   UNL     1      26.117   5.834 -12.006  1.00  0.00     0.068 A 
ATOM     15  C   UNL     1      23.988   4.996 -11.195  1.00  0.00     0.200 A 
ATOM     16  C   UNL     1      25.038   5.919 -11.116  1.00  0.00     0.162 A 
BRANCH  13  17
ATOM     17  O   UNL     1      22.988   3.049 -12.237  1.00  0.00    -0.504 OA
ATOM     18  H   UNL     1      22.137   3.157 -11.697  1.00  0.00     0.293 HD
ENDBRANCH  13  17
BRANCH  15  19
ATOM     19  O   UNL     1      22.921   5.099 -10.302  1.00  0.00    -0.502 OA
ATOM     20  H   UNL     1      22.073   5.602 -10.531  1.00  0.00     0.293 HD
ENDBRANCH  15  19
BRANCH  16  21
ATOM     21  O   UNL     1      25.003   6.922 -10.147  1.00  0.00    -0.504 OA
ATOM     22  H   UNL     1      25.791   7.541  -9.995  1.00  0.00     0.293 HD
ENDBRANCH  16  21
ENDBRANCH   1  11
BRANCH  10  23
ATOM     23  O   UNL     1      27.827   7.125 -13.657  1.00  0.00    -0.500 OA
ATOM     24  H   UNL     1      26.997   7.656 -13.896  1.00  0.00     0.294 HD
ENDBRANCH  10  23
BRANCH   5  25
ATOM     25  O   UNL     1      30.211   0.595 -17.119  1.00  0.00    -0.507 OA
ATOM     26  H   UNL     1      29.611  -0.191 -16.892  1.00  0.00     0.293 HD
ENDBRANCH   5  25
BRANCH   7  27
ATOM     27  O   UNL     1      31.389   5.246 -17.000  1.00  0.00    -0.507 OA
ATOM     28  H   UNL     1      31.923   5.852 -16.394  1.00  0.00     0.293 HD
ENDBRANCH   7  27
TORSDOF 7
ENDMDL
MODEL 5
REMARK VINA RESULT:    -3.774      1.286      7.356
REMARK INTER + INTRA:          -4.724
REMARK INTER:                  -4.505
REMARK INTRA:                  -0.220
REMARK UNBOUND:                -0.067
REMARK SMILES Oc1cc(O)c2cc(O)c(-c3cc(O)c(O)c(O)c3)[o+]c2c1
REMARK SMILES IDX 10 1 20 2 21 3 22 4 2 5 3 6 4 7 6 8 7 9 8 10 11 11 12 12
REMARK SMILES IDX 13 13 19 14 15 15 17 16 14 17 16 19 18 21 9 23 1 25 5 27
REMARK H PARENT 14 18 16 20 18 22 9 24 1 26 5 28
REMARK Flexibility Score: inf
ROOT
ATOM      1  C   UNL     1      28.126   5.257 -12.648  1.00  0.00     0.402 A 
ATOM      2  O   UNL     1      26.802   5.133 -12.649  1.00  0.00    -0.202 OA
ATOM      3  C   UNL     1      26.031   5.529 -11.640  1.00  0.00     0.368 A 
ATOM      4  C   UNL     1      24.647   5.353 -11.733  1.00  0.00     0.162 A 
ATOM      5  C   UNL     1      23.814   5.758 -10.686  1.00  0.00     0.128 A 
ATOM      6  C   UNL     1      24.366   6.338  -9.543  1.00  0.00     0.093 A 
ATOM      7  C   UNL     1      25.749   6.524  -9.425  1.00  0.00     0.136 A 
ATOM      8  C   UNL     1      26.599   6.118 -10.486  1.00  0.00     0.125 A 
ATOM      9  C   UNL     1      27.995   6.278 -10.461  1.00  0.00     0.078 A 
ATOM     10  C   UNL     1      28.767   5.857 -11.548  1.00  0.00     0.223 A 
ENDROOT
BRANCH   1  11
ATOM     11  C   UNL     1      28.876   4.769 -13.827  1.00  0.00     0.091 A 
ATOM     12  C   UNL     1      29.595   5.650 -14.654  1.00  0.00     0.068 A 
ATOM     13  C   UNL     1      30.318   5.165 -15.754  1.00  0.00     0.162 A 
ATOM     14  C   UNL     1      28.919   3.392 -14.097  1.00  0.00     0.068 A 
ATOM     15  C   UNL     1      30.334   3.788 -16.028  1.00  0.00     0.200 A 
ATOM     16  C   UNL     1      29.638   2.903 -15.195  1.00  0.00     0.162 A 
BRANCH  13  17
ATOM     17  O   UNL     1      31.022   6.048 -16.570  1.00  0.00    -0.504 OA
ATOM     18  H   UNL     1      30.625   6.408 -17.431  1.00  0.00     0.293 HD
ENDBRANCH  13  17
BRANCH  15  19
ATOM     19  O   UNL     1      31.043   3.282 -17.119  1.00  0.00    -0.502 OA
ATOM     20  H   UNL     1      32.052   3.195 -17.112  1.00  0.00     0.293 HD
ENDBRANCH  15  19
BRANCH  16  21
ATOM     21  O   UNL     1      29.664   1.536 -15.467  1.00  0.00    -0.504 OA
ATOM     22  H   UNL     1      30.467   1.097 -15.904  1.00  0.00     0.293 HD
ENDBRANCH  16  21
ENDBRANCH   1  11
BRANCH  10  23
ATOM     23  O   UNL     1      30.147   6.061 -11.545  1.00  0.00    -0.500 OA
ATOM     24  H   UNL     1      30.611   6.574 -12.286  1.00  0.00     0.294 HD
ENDBRANCH  10  23
BRANCH   5  25
ATOM     25  O   UNL     1      22.434   5.586 -10.771  1.00  0.00    -0.507 OA
ATOM     26  H   UNL     1      22.014   4.663 -10.788  1.00  0.00     0.293 HD
ENDBRANCH   5  25
BRANCH   7  27
ATOM     27  O   UNL     1      26.222   7.109  -8.247  1.00  0.00    -0.507 OA
ATOM     28  H   UNL     1      26.979   6.740  -7.690  1.00  0.00     0.293 HD
ENDBRANCH   7  27
TORSDOF 7
ENDMDL
MODEL 6
REMARK VINA RESULT:    -3.369      1.284      7.277
REMARK INTER + INTRA:          -4.224
REMARK INTER:                  -4.396
REMARK INTRA:                   0.172
REMARK UNBOUND:                -0.067
REMARK SMILES Oc1cc(O)c2cc(O)c(-c3cc(O)c(O)c(O)c3)[o+]c2c1
REMARK SMILES IDX 10 1 20 2 21 3 22 4 2 5 3 6 4 7 6 8 7 9 8 10 11 11 12 12
REMARK SMILES IDX 13 13 19 14 15 15 17 16 14 17 16 19 18 21 9 23 1 25 5 27
REMARK H PARENT 14 18 16 20 18 22 9 24 1 26 5 28
REMARK Flexibility Score: inf
ROOT
ATOM      1  C   UNL     1      27.375   5.093 -13.246  1.00  0.00     0.402 A 
ATOM      2  O   UNL     1      26.206   4.459 -13.222  1.00  0.00    -0.202 OA
ATOM      3  C   UNL     1      25.226   4.766 -12.376  1.00  0.00     0.368 A 
ATOM      4  C   UNL     1      24.034   4.039 -12.425  1.00  0.00     0.162 A 
ATOM      5  C   UNL     1      22.989   4.340 -11.546  1.00  0.00     0.128 A 
ATOM      6  C   UNL     1      23.137   5.369 -10.616  1.00  0.00     0.093 A 
ATOM      7  C   UNL     1      24.323   6.113 -10.547  1.00  0.00     0.136 A 
ATOM      8  C   UNL     1      25.386   5.813 -11.439  1.00  0.00     0.125 A 
ATOM      9  C   UNL     1      26.603   6.513 -11.450  1.00  0.00     0.078 A 
ATOM     10  C   UNL     1      27.603   6.164 -12.363  1.00  0.00     0.223 A 
ENDROOT
BRANCH   1  11
ATOM     11  C   UNL     1      28.391   4.650 -14.228  1.00  0.00     0.091 A 
ATOM     12  C   UNL     1      28.521   3.298 -14.588  1.00  0.00     0.068 A 
ATOM     13  C   UNL     1      29.474   2.901 -15.537  1.00  0.00     0.162 A 
ATOM     14  C   UNL     1      29.206   5.605 -14.856  1.00  0.00     0.068 A 
ATOM     15  C   UNL     1      30.300   3.862 -16.142  1.00  0.00     0.200 A 
ATOM     16  C   UNL     1      30.161   5.214 -15.804  1.00  0.00     0.162 A 
BRANCH  13  17
ATOM     17  O   UNL     1      29.599   1.556 -15.882  1.00  0.00    -0.504 OA
ATOM     18  H   UNL     1      30.268   0.949 -15.423  1.00  0.00     0.293 HD
ENDBRANCH  13  17
BRANCH  15  19
ATOM     19  O   UNL     1      31.259   3.491 -17.086  1.00  0.00    -0.502 OA
ATOM     20  H   UNL     1      32.162   3.946 -17.144  1.00  0.00     0.293 HD
ENDBRANCH  15  19
BRANCH  16  21
ATOM     21  O   UNL     1      30.978   6.164 -16.414  1.00  0.00    -0.504 OA
ATOM     22  H   UNL     1      31.004   7.126 -16.093  1.00  0.00     0.293 HD
ENDBRANCH  16  21
ENDBRANCH   1  11
BRANCH  10  23
ATOM     23  O   UNL     1      28.793   6.891 -12.409  1.00  0.00    -0.500 OA
ATOM     24  H   UNL     1      28.798   7.904 -12.426  1.00  0.00     0.294 HD
ENDBRANCH  10  23
BRANCH   5  25
ATOM     25  O   UNL     1      21.797   3.619 -11.589  1.00  0.00    -0.507 OA
ATOM     26  H   UNL     1      20.897   4.085 -11.621  1.00  0.00     0.293 HD
ENDBRANCH   5  25
BRANCH   7  27
ATOM     27  O   UNL     1      24.393   7.125  -9.585  1.00  0.00    -0.507 OA
ATOM     28  H   UNL     1      24.463   8.109  -9.797  1.00  0.00     0.293 HD
ENDBRANCH   7  27
TORSDOF 7
ENDMDL
MODEL 7
REMARK VINA RESULT:    -2.986      1.402      7.215
REMARK INTER + INTRA:          -3.752
REMARK INTER:                  -3.371
REMARK INTRA:                  -0.381
REMARK UNBOUND:                -0.067
REMARK SMILES Oc1cc(O)c2cc(O)c(-c3cc(O)c(O)c(O)c3)[o+]c2c1
REMARK SMILES IDX 10 1 20 2 21 3 22 4 2 5 3 6 4 7 6 8 7 9 8 10 11 11 12 12
REMARK SMILES IDX 13 13 19 14 15 15 17 16 14 17 16 19 18 21 9 23 1 25 5 27
REMARK H PARENT 14 18 16 20 18 22 9 24 1 26 5 28
REMARK Flexibility Score: inf
ROOT
ATOM      1  C   UNL     1      27.376   5.269 -13.726  1.00  0.00     0.402 A 
ATOM      2  O   UNL     1      27.646   5.364 -12.427  1.00  0.00    -0.202 OA
ATOM      3  C   UNL     1      26.772   5.812 -11.531  1.00  0.00     0.368 A 
ATOM      4  C   UNL     1      27.151   5.879 -10.187  1.00  0.00     0.162 A 
ATOM      5  C   UNL     1      26.253   6.348  -9.224  1.00  0.00     0.128 A 
ATOM      6  C   UNL     1      24.973   6.754  -9.606  1.00  0.00     0.093 A 
ATOM      7  C   UNL     1      24.570   6.697 -10.946  1.00  0.00     0.136 A 
ATOM      8  C   UNL     1      25.477   6.219 -11.927  1.00  0.00     0.125 A 
ATOM      9  C   UNL     1      25.154   6.115 -13.290  1.00  0.00     0.078 A 
ATOM     10  C   UNL     1      26.100   5.629 -14.198  1.00  0.00     0.223 A 
ENDROOT
BRANCH   1  11
ATOM     11  C   UNL     1      28.436   4.764 -14.627  1.00  0.00     0.091 A 
ATOM     12  C   UNL     1      29.381   5.630 -15.203  1.00  0.00     0.068 A 
ATOM     13  C   UNL     1      30.393   5.130 -16.036  1.00  0.00     0.162 A 
ATOM     14  C   UNL     1      28.538   3.385 -14.869  1.00  0.00     0.068 A 
ATOM     15  C   UNL     1      30.471   3.751 -16.289  1.00  0.00     0.200 A 
ATOM     16  C   UNL     1      29.546   2.880 -15.701  1.00  0.00     0.162 A 
BRANCH  13  17
ATOM     17  O   UNL     1      31.321   5.999 -16.606  1.00  0.00    -0.504 OA
ATOM     18  H   UNL     1      31.918   5.711 -17.373  1.00  0.00     0.293 HD
ENDBRANCH  13  17
BRANCH  15  19
ATOM     19  O   UNL     1      31.466   3.230 -17.118  1.00  0.00    -0.502 OA
ATOM     20  H   UNL     1      32.302   2.795 -16.747  1.00  0.00     0.293 HD
ENDBRANCH  15  19
BRANCH  16  21
ATOM     21  O   UNL     1      29.633   1.511 -15.950  1.00  0.00    -0.504 OA
ATOM     22  H   UNL     1      30.085   1.151 -16.783  1.00  0.00     0.293 HD
ENDBRANCH  16  21
ENDBRANCH   1  11
BRANCH  10  23
ATOM     23  O   UNL     1      25.765   5.478 -15.544  1.00  0.00    -0.500 OA
ATOM     24  H   UNL     1      24.932   5.903 -15.936  1.00  0.00     0.294 HD
ENDBRANCH  10  23
BRANCH   5  25
ATOM     25  O   UNL     1      26.623   6.417  -7.883  1.00  0.00    -0.507 OA
ATOM     26  H   UNL     1      27.425   5.908  -7.527  1.00  0.00     0.293 HD
ENDBRANCH   5  25
BRANCH   7  27
ATOM     27  O   UNL     1      23.273   7.125 -11.247  1.00  0.00    -0.507 OA
ATOM     28  H   UNL     1      22.990   8.092 -11.305  1.00  0.00     0.293 HD
ENDBRANCH   7  27
TORSDOF 7
ENDMDL
MODEL 8
REMARK VINA RESULT:    -2.640      2.851      7.324
REMARK INTER + INTRA:          -3.325
REMARK INTER:                  -3.126
REMARK INTRA:                  -0.199
REMARK UNBOUND:                -0.067
REMARK SMILES Oc1cc(O)c2cc(O)c(-c3cc(O)c(O)c(O)c3)[o+]c2c1
REMARK SMILES IDX 10 1 20 2 21 3 22 4 2 5 3 6 4 7 6 8 7 9 8 10 11 11 12 12
REMARK SMILES IDX 13 13 19 14 15 15 17 16 14 17 16 19 18 21 9 23 1 25 5 27
REMARK H PARENT 14 18 16 20 18 22 9 24 1 26 5 28
REMARK Flexibility Score: inf
ROOT
ATOM      1  C   UNL     1      27.655   3.841 -14.788  1.00  0.00     0.402 A 
ATOM      2  O   UNL     1      27.641   2.928 -13.821  1.00  0.00    -0.202 OA
ATOM      3  C   UNL     1      26.533   2.546 -13.193  1.00  0.00     0.368 A 
ATOM      4  C   UNL     1      26.621   1.580 -12.186  1.00  0.00     0.162 A 
ATOM      5  C   UNL     1      25.472   1.163 -11.508  1.00  0.00     0.128 A 
ATOM      6  C   UNL     1      24.232   1.712 -11.837  1.00  0.00     0.093 A 
ATOM      7  C   UNL     1      24.118   2.681 -12.842  1.00  0.00     0.136 A 
ATOM      8  C   UNL     1      25.281   3.107 -13.535  1.00  0.00     0.125 A 
ATOM      9  C   UNL     1      25.259   4.063 -14.564  1.00  0.00     0.078 A 
ATOM     10  C   UNL     1      26.446   4.429 -15.205  1.00  0.00     0.223 A 
ENDROOT
BRANCH   1  11
ATOM     11  C   UNL     1      28.955   4.190 -15.404  1.00  0.00     0.091 A 
ATOM     12  C   UNL     1      29.446   5.507 -15.381  1.00  0.00     0.068 A 
ATOM     13  C   UNL     1      30.691   5.813 -15.950  1.00  0.00     0.162 A 
ATOM     14  C   UNL     1      29.742   3.178 -15.974  1.00  0.00     0.068 A 
ATOM     15  C   UNL     1      31.460   4.796 -16.538  1.00  0.00     0.200 A 
ATOM     16  C   UNL     1      30.986   3.479 -16.545  1.00  0.00     0.162 A 
BRANCH  13  17
ATOM     17  O   UNL     1      31.165   7.123 -15.927  1.00  0.00    -0.504 OA
ATOM     18  H   UNL     1      30.924   7.789 -16.652  1.00  0.00     0.293 HD
ENDBRANCH  13  17
BRANCH  15  19
ATOM     19  O   UNL     1      32.700   5.077 -17.114  1.00  0.00    -0.502 OA
ATOM     20  H   UNL     1      32.785   5.574 -17.993  1.00  0.00     0.293 HD
ENDBRANCH  15  19
BRANCH  16  21
ATOM     21  O   UNL     1      31.757   2.471 -17.123  1.00  0.00    -0.504 OA
ATOM     22  H   UNL     1      32.299   2.635 -17.964  1.00  0.00     0.293 HD
ENDBRANCH  16  21
ENDBRANCH   1  11
BRANCH  10  23
ATOM     23  O   UNL     1      26.419   5.341 -16.261  1.00  0.00    -0.500 OA
ATOM     24  H   UNL     1      27.250   5.842 -16.554  1.00  0.00     0.294 HD
ENDBRANCH  10  23
BRANCH   5  25
ATOM     25  O   UNL     1      25.552   0.200 -10.504  1.00  0.00    -0.507 OA
ATOM     26  H   UNL     1      24.719  -0.196 -10.081  1.00  0.00     0.293 HD
ENDBRANCH   5  25
BRANCH   7  27
ATOM     27  O   UNL     1      22.841   3.184 -13.108  1.00  0.00    -0.507 OA
ATOM     28  H   UNL     1      22.378   3.122 -14.003  1.00  0.00     0.293 HD
ENDBRANCH   7  27
TORSDOF 7
ENDMDL
