MODEL 1
REMARK VINA RESULT:    -4.114      0.000      0.000
REMARK INTER + INTRA:          -6.205
REMARK INTER:                  -5.798
REMARK INTRA:                  -0.407
REMARK UNBOUND:                -0.407
REMARK SMILES C=CCCCCCCC(=O)[O-]
REMARK SMILES IDX 6 1 7 2 8 3 9 4 10 5 11 6 5 7 4 8 3 9 2 10 1 11
REMARK H PARENT
REMARK Flexibility Score: inf
ROOT
ATOM      1  C   UNL     1     147.548 147.091 144.270  1.00  0.00     0.000 C 
ENDROOT
BRANCH   1   2
ATOM      2  C   UNL     1     146.048 147.015 143.945  1.00  0.00     0.006 C 
BRANCH   2   3
ATOM      3  C   UNL     1     145.201 146.625 145.163  1.00  0.00     0.053 C 
BRANCH   3   4
ATOM      4  C   UNL     1     144.312 147.760 145.566  1.00  0.00     0.041 C 
ATOM      5  O   UNL     1     144.216 148.780 144.832  1.00  0.00    -0.550 OA
ATOM      6  O   UNL     1     143.553 147.671 146.725  1.00  0.00    -0.550 OA
ENDBRANCH   3   4
ENDBRANCH   2   3
ENDBRANCH   1   2
BRANCH   1   7
ATOM      7  C   UNL     1     148.058 145.839 145.003  1.00  0.00     0.000 C 
BRANCH   7   8
ATOM      8  C   UNL     1     148.686 146.154 146.372  1.00  0.00     0.004 C 
BRANCH   8   9
ATOM      9  C   UNL     1     148.302 147.537 146.931  1.00  0.00     0.027 C 
BRANCH   9  10
ATOM     10  C   UNL     1     149.149 147.952 148.104  1.00  0.00    -0.035 C 
ATOM     11  C   UNL     1     149.106 149.190 148.603  1.00  0.00     0.004 C 
ENDBRANCH   9  10
ENDBRANCH   8   9
ENDBRANCH   7   8
ENDBRANCH   1   7
TORSDOF 7
ENDMDL
MODEL 2
REMARK VINA RESULT:    -3.937      9.221     10.407
REMARK INTER + INTRA:          -5.955
REMARK INTER:                  -5.392
REMARK INTRA:                  -0.563
REMARK UNBOUND:                -0.407
REMARK SMILES C=CCCCCCCC(=O)[O-]
REMARK SMILES IDX 6 1 7 2 8 3 9 4 10 5 11 6 5 7 4 8 3 9 2 10 1 11
REMARK H PARENT
REMARK Flexibility Score: inf
ROOT
ATOM      1  C   UNL     1     152.837 140.850 148.228  1.00  0.00     0.000 C 
ENDROOT
BRANCH   1   2
ATOM      2  C   UNL     1     153.773 141.920 147.645  1.00  0.00     0.006 C 
BRANCH   2   3
ATOM      3  C   UNL     1     155.048 142.105 148.478  1.00  0.00     0.053 C 
BRANCH   3   4
ATOM      4  C   UNL     1     156.260 141.858 147.637  1.00  0.00     0.041 C 
ATOM      5  O   UNL     1     157.204 141.150 148.078  1.00  0.00    -0.550 OA
ATOM      6  O   UNL     1     156.329 142.370 146.348  1.00  0.00    -0.550 OA
ENDBRANCH   3   4
ENDBRANCH   2   3
ENDBRANCH   1   2
BRANCH   1   7
ATOM      7  C   UNL     1     151.351 141.201 148.047  1.00  0.00     0.000 C 
BRANCH   7   8
ATOM      8  C   UNL     1     150.580 141.269 149.377  1.00  0.00     0.004 C 
BRANCH   8   9
ATOM      9  C   UNL     1     151.366 140.720 150.582  1.00  0.00     0.027 C 
BRANCH   9  10
ATOM     10  C   UNL     1     151.746 141.788 151.572  1.00  0.00    -0.035 C 
ATOM     11  C   UNL     1     152.841 142.537 151.418  1.00  0.00     0.004 C 
ENDBRANCH   9  10
ENDBRANCH   8   9
ENDBRANCH   7   8
ENDBRANCH   1   7
TORSDOF 7
ENDMDL
MODEL 3
REMARK VINA RESULT:    -3.904      2.829      4.697
REMARK INTER + INTRA:          -5.908
REMARK INTER:                  -5.406
REMARK INTRA:                  -0.502
REMARK UNBOUND:                -0.407
REMARK SMILES C=CCCCCCCC(=O)[O-]
REMARK SMILES IDX 6 1 7 2 8 3 9 4 10 5 11 6 5 7 4 8 3 9 2 10 1 11
REMARK H PARENT
REMARK Flexibility Score: inf
ROOT
ATOM      1  C   UNL     1     148.380 145.884 145.757  1.00  0.00     0.000 C 
ENDROOT
BRANCH   1   2
ATOM      2  C   UNL     1     148.763 146.549 147.088  1.00  0.00     0.006 C 
BRANCH   2   3
ATOM      3  C   UNL     1     148.315 148.014 147.164  1.00  0.00     0.053 C 
BRANCH   3   4
ATOM      4  C   UNL     1     149.113 148.751 148.193  1.00  0.00     0.041 C 
ATOM      5  O   UNL     1     150.364 148.609 148.246  1.00  0.00    -0.550 OA
ATOM      6  O   UNL     1     148.483 149.631 149.064  1.00  0.00    -0.550 OA
ENDBRANCH   3   4
ENDBRANCH   2   3
ENDBRANCH   1   2
BRANCH   1   7
ATOM      7  C   UNL     1     147.923 146.901 144.697  1.00  0.00     0.000 C 
BRANCH   7   8
ATOM      8  C   UNL     1     146.580 146.528 144.043  1.00  0.00     0.004 C 
BRANCH   8   9
ATOM      9  C   UNL     1     145.425 147.479 144.405  1.00  0.00     0.027 C 
BRANCH   9  10
ATOM     10  C   UNL     1     144.549 146.945 145.507  1.00  0.00    -0.035 C 
ATOM     11  C   UNL     1     143.752 147.742 146.225  1.00  0.00     0.004 C 
ENDBRANCH   9  10
ENDBRANCH   8   9
ENDBRANCH   7   8
ENDBRANCH   1   7
TORSDOF 7
ENDMDL
MODEL 4
REMARK VINA RESULT:    -3.608      1.600      2.701
REMARK INTER + INTRA:          -5.491
REMARK INTER:                  -4.845
REMARK INTRA:                  -0.646
REMARK UNBOUND:                -0.407
REMARK SMILES C=CCCCCCCC(=O)[O-]
REMARK SMILES IDX 6 1 7 2 8 3 9 4 10 5 11 6 5 7 4 8 3 9 2 10 1 11
REMARK H PARENT
REMARK Flexibility Score: inf
ROOT
ATOM      1  C   UNL     1     146.154 146.705 142.943  1.00  0.00     0.000 C 
ENDROOT
BRANCH   1   2
ATOM      2  C   UNL     1     145.977 147.552 144.213  1.00  0.00     0.006 C 
BRANCH   2   3
ATOM      3  C   UNL     1     145.058 146.882 145.243  1.00  0.00     0.053 C 
BRANCH   3   4
ATOM      4  C   UNL     1     144.066 147.869 145.776  1.00  0.00     0.041 C 
ATOM      5  O   UNL     1     143.481 147.650 146.869  1.00  0.00    -0.550 OA
ATOM      6  O   UNL     1     143.825 149.052 145.090  1.00  0.00    -0.550 OA
ENDBRANCH   3   4
ENDBRANCH   2   3
ENDBRANCH   1   2
BRANCH   1   7
ATOM      7  C   UNL     1     146.378 145.215 143.252  1.00  0.00     0.000 C 
BRANCH   7   8
ATOM      8  C   UNL     1     147.813 144.745 142.954  1.00  0.00     0.004 C 
BRANCH   8   9
ATOM      9  C   UNL     1     148.868 145.308 143.925  1.00  0.00     0.027 C 
BRANCH   9  10
ATOM     10  C   UNL     1     148.446 145.218 145.367  1.00  0.00    -0.035 C 
ATOM     11  C   UNL     1     148.696 146.199 146.239  1.00  0.00     0.004 C 
ENDBRANCH   9  10
ENDBRANCH   8   9
ENDBRANCH   7   8
ENDBRANCH   1   7
TORSDOF 7
ENDMDL
MODEL 5
REMARK VINA RESULT:    -3.567      2.396      4.296
REMARK INTER + INTRA:          -5.433
REMARK INTER:                  -5.162
REMARK INTRA:                  -0.271
REMARK UNBOUND:                -0.407
REMARK SMILES C=CCCCCCCC(=O)[O-]
REMARK SMILES IDX 6 1 7 2 8 3 9 4 10 5 11 6 5 7 4 8 3 9 2 10 1 11
REMARK H PARENT
REMARK Flexibility Score: inf
ROOT
ATOM      1  C   UNL     1     147.399 144.939 143.222  1.00  0.00     0.000 C 
ENDROOT
BRANCH   1   2
ATOM      2  C   UNL     1     148.603 145.522 143.979  1.00  0.00     0.006 C 
BRANCH   2   3
ATOM      3  C   UNL     1     148.511 145.297 145.493  1.00  0.00     0.053 C 
BRANCH   3   4
ATOM      4  C   UNL     1     148.583 146.603 146.220  1.00  0.00     0.041 C 
ATOM      5  O   UNL     1     147.961 147.607 145.782  1.00  0.00    -0.550 OA
ATOM      6  O   UNL     1     149.298 146.700 147.407  1.00  0.00    -0.550 OA
ENDBRANCH   3   4
ENDBRANCH   2   3
ENDBRANCH   1   2
BRANCH   1   7
ATOM      7  C   UNL     1     146.071 145.605 143.620  1.00  0.00     0.000 C 
BRANCH   7   8
ATOM      8  C   UNL     1     146.031 147.110 143.300  1.00  0.00     0.004 C 
BRANCH   8   9
ATOM      9  C   UNL     1     145.239 147.945 144.323  1.00  0.00     0.027 C 
BRANCH   9  10
ATOM     10  C   UNL     1     144.635 147.109 145.420  1.00  0.00    -0.035 C 
ATOM     11  C   UNL     1     143.722 147.602 146.262  1.00  0.00     0.004 C 
ENDBRANCH   9  10
ENDBRANCH   8   9
ENDBRANCH   7   8
ENDBRANCH   1   7
TORSDOF 7
ENDMDL
MODEL 6
REMARK VINA RESULT:    -3.519      0.814      1.310
REMARK INTER + INTRA:          -5.366
REMARK INTER:                  -5.102
REMARK INTRA:                  -0.264
REMARK UNBOUND:                -0.407
REMARK SMILES C=CCCCCCCC(=O)[O-]
REMARK SMILES IDX 6 1 7 2 8 3 9 4 10 5 11 6 5 7 4 8 3 9 2 10 1 11
REMARK H PARENT
REMARK Flexibility Score: inf
ROOT
ATOM      1  C   UNL     1     148.349 145.498 144.794  1.00  0.00     0.000 C 
ENDROOT
BRANCH   1   2
ATOM      2  C   UNL     1     147.402 146.539 144.175  1.00  0.00     0.006 C 
BRANCH   2   3
ATOM      3  C   UNL     1     145.926 146.142 144.304  1.00  0.00     0.053 C 
BRANCH   3   4
ATOM      4  C   UNL     1     145.111 147.311 144.760  1.00  0.00     0.041 C 
ATOM      5  O   UNL     1     145.149 148.398 144.123  1.00  0.00    -0.550 OA
ATOM      6  O   UNL     1     144.271 147.188 145.859  1.00  0.00    -0.550 OA
ENDBRANCH   3   4
ENDBRANCH   2   3
ENDBRANCH   1   2
BRANCH   1   7
ATOM      7  C   UNL     1     148.733 145.837 146.244  1.00  0.00     0.000 C 
BRANCH   7   8
ATOM      8  C   UNL     1     148.393 147.286 146.636  1.00  0.00     0.004 C 
BRANCH   8   9
ATOM      9  C   UNL     1     148.788 147.651 148.078  1.00  0.00     0.027 C 
BRANCH   9  10
ATOM     10  C   UNL     1     149.185 149.095 148.230  1.00  0.00    -0.035 C 
ATOM     11  C   UNL     1     148.711 149.858 149.219  1.00  0.00     0.004 C 
ENDBRANCH   9  10
ENDBRANCH   8   9
ENDBRANCH   7   8
ENDBRANCH   1   7
TORSDOF 7
ENDMDL
MODEL 7
REMARK VINA RESULT:    -3.361      8.779      9.908
REMARK INTER + INTRA:          -5.143
REMARK INTER:                  -4.702
REMARK INTRA:                  -0.441
REMARK UNBOUND:                -0.407
REMARK SMILES C=CCCCCCCC(=O)[O-]
REMARK SMILES IDX 6 1 7 2 8 3 9 4 10 5 11 6 5 7 4 8 3 9 2 10 1 11
REMARK H PARENT
REMARK Flexibility Score: inf
ROOT
ATOM      1  C   UNL     1     151.317 141.168 148.124  1.00  0.00     0.000 C 
ENDROOT
BRANCH   1   2
ATOM      2  C   UNL     1     150.750 141.294 149.547  1.00  0.00     0.006 C 
BRANCH   2   3
ATOM      3  C   UNL     1     151.704 140.738 150.612  1.00  0.00     0.053 C 
BRANCH   3   4
ATOM      4  C   UNL     1     151.977 141.773 151.658  1.00  0.00     0.041 C 
ATOM      5  O   UNL     1     151.429 141.690 152.789  1.00  0.00    -0.550 OA
ATOM      6  O   UNL     1     152.872 142.803 151.401  1.00  0.00    -0.550 OA
ENDBRANCH   3   4
ENDBRANCH   2   3
ENDBRANCH   1   2
BRANCH   1   7
ATOM      7  C   UNL     1     152.819 140.837 148.114  1.00  0.00     0.000 C 
BRANCH   7   8
ATOM      8  C   UNL     1     153.699 142.035 147.714  1.00  0.00     0.004 C 
BRANCH   8   9
ATOM      9  C   UNL     1     155.001 142.152 148.528  1.00  0.00     0.027 C 
BRANCH   9  10
ATOM     10  C   UNL     1     156.234 141.911 147.700  1.00  0.00    -0.035 C 
ATOM     11  C   UNL     1     157.356 141.415 148.230  1.00  0.00     0.004 C 
ENDBRANCH   9  10
ENDBRANCH   8   9
ENDBRANCH   7   8
ENDBRANCH   1   7
TORSDOF 7
ENDMDL
MODEL 8
REMARK VINA RESULT:    -3.207      9.417     10.069
REMARK INTER + INTRA:          -4.926
REMARK INTER:                  -4.663
REMARK INTRA:                  -0.264
REMARK UNBOUND:                -0.407
REMARK SMILES C=CCCCCCCC(=O)[O-]
REMARK SMILES IDX 6 1 7 2 8 3 9 4 10 5 11 6 5 7 4 8 3 9 2 10 1 11
REMARK H PARENT
REMARK Flexibility Score: inf
ROOT
ATOM      1  C   UNL     1     154.053 141.691 147.565  1.00  0.00     0.000 C 
ENDROOT
BRANCH   1   2
ATOM      2  C   UNL     1     154.382 142.568 146.347  1.00  0.00     0.006 C 
BRANCH   2   3
ATOM      3  C   UNL     1     155.882 142.588 146.024  1.00  0.00     0.053 C 
BRANCH   3   4
ATOM      4  C   UNL     1     156.103 142.982 144.597  1.00  0.00     0.041 C 
ATOM      5  O   UNL     1     155.709 142.233 143.665  1.00  0.00    -0.550 OA
ATOM      6  O   UNL     1     156.700 144.199 144.297  1.00  0.00    -0.550 OA
ENDBRANCH   3   4
ENDBRANCH   2   3
ENDBRANCH   1   2
BRANCH   1   7
ATOM      7  C   UNL     1     152.552 141.372 147.676  1.00  0.00     0.000 C 
BRANCH   7   8
ATOM      8  C   UNL     1     152.199 140.560 148.934  1.00  0.00     0.004 C 
BRANCH   8   9
ATOM      9  C   UNL     1     151.053 141.165 149.766  1.00  0.00     0.027 C 
BRANCH   9  10
ATOM     10  C   UNL     1     151.485 141.574 151.149  1.00  0.00    -0.035 C 
ATOM     11  C   UNL     1     152.602 142.275 151.362  1.00  0.00     0.004 C 
ENDBRANCH   9  10
ENDBRANCH   8   9
ENDBRANCH   7   8
ENDBRANCH   1   7
TORSDOF 7
ENDMDL
