MODEL 1
REMARK VINA RESULT:    -3.184      0.000      0.000
REMARK INTER + INTRA:          -3.467
REMARK INTER:                  -3.371
REMARK INTRA:                  -0.096
REMARK UNBOUND:                -0.096
REMARK SMILES C=C(C)[C@@H]1CC=C(C)C(=O)C1
REMARK SMILES IDX 8 1 7 2 6 3 5 4 4 5 11 6 9 7 10 8 2 9 1 10 3 11
REMARK H PARENT
REMARK Flexibility Score: inf
ROOT
ATOM      1  C   UNL     1      78.466   1.889  69.125  1.00  0.00     0.048 C 
ATOM      2  C   UNL     1      78.779   2.438  67.761  1.00  0.00    -0.012 C 
ATOM      3  C   UNL     1      77.779   2.774  66.929  1.00  0.00    -0.019 C 
ATOM      4  C   UNL     1      78.036   3.345  65.559  1.00  0.00     0.036 C 
ATOM      5  C   UNL     1      79.332   2.773  64.955  1.00  0.00     0.025 C 
ATOM      6  C   UNL     1      80.516   3.000  65.913  1.00  0.00     0.089 C 
ATOM      7  C   UNL     1      80.187   2.490  67.290  1.00  0.00     0.158 C 
ATOM      8  O   UNL     1      81.125   2.142  68.056  1.00  0.00    -0.295 OA
ENDROOT
BRANCH   5   9
ATOM      9  C   UNL     1      79.611   3.359  63.578  1.00  0.00    -0.077 C 
ATOM     10  C   UNL     1      79.895   4.664  63.446  1.00  0.00     0.008 C 
ATOM     11  C   UNL     1      79.575   2.502  62.336  1.00  0.00     0.039 C 
ENDBRANCH   5   9
TORSDOF 1
ENDMDL
MODEL 2
REMARK VINA RESULT:    -3.087     18.512     20.598
REMARK INTER + INTRA:          -3.364
REMARK INTER:                  -3.268
REMARK INTRA:                  -0.096
REMARK UNBOUND:                -0.096
REMARK SMILES C=C(C)[C@@H]1CC=C(C)C(=O)C1
REMARK SMILES IDX 8 1 7 2 6 3 5 4 4 5 11 6 9 7 10 8 2 9 1 10 3 11
REMARK H PARENT
REMARK Flexibility Score: inf
ROOT
ATOM      1  C   UNL     1      71.996  -8.016  48.974  1.00  0.00     0.048 C 
ATOM      2  C   UNL     1      71.559  -8.584  50.296  1.00  0.00    -0.012 C 
ATOM      3  C   UNL     1      70.786  -7.852  51.116  1.00  0.00    -0.019 C 
ATOM      4  C   UNL     1      70.305  -8.378  52.442  1.00  0.00     0.036 C 
ATOM      5  C   UNL     1      71.338  -9.334  53.067  1.00  0.00     0.025 C 
ATOM      6  C   UNL     1      71.685 -10.466  52.081  1.00  0.00     0.089 C 
ATOM      7  C   UNL     1      72.081  -9.900  50.745  1.00  0.00     0.158 C 
ATOM      8  O   UNL     1      72.834 -10.573  49.992  1.00  0.00    -0.295 OA
ENDROOT
BRANCH   5   9
ATOM      9  C   UNL     1      70.852  -9.888  54.399  1.00  0.00    -0.077 C 
ATOM     10  C   UNL     1      69.724 -10.613  54.456  1.00  0.00     0.008 C 
ATOM     11  C   UNL     1      71.612  -9.638  55.679  1.00  0.00     0.039 C 
ENDBRANCH   5   9
TORSDOF 1
ENDMDL
MODEL 3
REMARK VINA RESULT:    -3.072      1.994      4.277
REMARK INTER + INTRA:          -3.348
REMARK INTER:                  -3.251
REMARK INTRA:                  -0.097
REMARK UNBOUND:                -0.096
REMARK SMILES C=C(C)[C@@H]1CC=C(C)C(=O)C1
REMARK SMILES IDX 8 1 7 2 6 3 5 4 4 5 11 6 9 7 10 8 2 9 1 10 3 11
REMARK H PARENT
REMARK Flexibility Score: inf
ROOT
ATOM      1  C   UNL     1      77.295   3.742  63.695  1.00  0.00     0.048 C 
ATOM      2  C   UNL     1      78.216   3.428  64.841  1.00  0.00    -0.012 C 
ATOM      3  C   UNL     1      79.540   3.337  64.630  1.00  0.00    -0.019 C 
ATOM      4  C   UNL     1      80.509   3.043  65.744  1.00  0.00     0.036 C 
ATOM      5  C   UNL     1      79.872   2.128  66.806  1.00  0.00     0.025 C 
ATOM      6  C   UNL     1      78.558   2.742  67.322  1.00  0.00     0.089 C 
ATOM      7  C   UNL     1      77.653   3.097  66.175  1.00  0.00     0.158 C 
ATOM      8  O   UNL     1      76.409   3.147  66.367  1.00  0.00    -0.295 OA
ENDROOT
BRANCH   5   9
ATOM      9  C   UNL     1      80.838   1.840  67.947  1.00  0.00    -0.077 C 
ATOM     10  C   UNL     1      81.011   2.741  68.926  1.00  0.00     0.008 C 
ATOM     11  C   UNL     1      81.621   0.551  68.008  1.00  0.00     0.039 C 
ENDBRANCH   5   9
TORSDOF 1
ENDMDL
MODEL 4
REMARK VINA RESULT:    -3.032     17.737     19.586
REMARK INTER + INTRA:          -3.305
REMARK INTER:                  -3.208
REMARK INTRA:                  -0.097
REMARK UNBOUND:                -0.096
REMARK SMILES C=C(C)[C@@H]1CC=C(C)C(=O)C1
REMARK SMILES IDX 8 1 7 2 6 3 5 4 4 5 11 6 9 7 10 8 2 9 1 10 3 11
REMARK H PARENT
REMARK Flexibility Score: inf
ROOT
ATOM      1  C   UNL     1      64.369   4.055  49.803  1.00  0.00     0.048 C 
ATOM      2  C   UNL     1      65.270   4.721  50.805  1.00  0.00    -0.012 C 
ATOM      3  C   UNL     1      64.738   5.408  51.831  1.00  0.00    -0.019 C 
ATOM      4  C   UNL     1      65.593   6.079  52.873  1.00  0.00     0.036 C 
ATOM      5  C   UNL     1      66.918   6.576  52.266  1.00  0.00     0.025 C 
ATOM      6  C   UNL     1      67.653   5.419  51.564  1.00  0.00     0.089 C 
ATOM      7  C   UNL     1      66.740   4.724  50.592  1.00  0.00     0.158 C 
ATOM      8  O   UNL     1      67.239   4.110  49.612  1.00  0.00    -0.295 OA
ENDROOT
BRANCH   5   9
ATOM      9  C   UNL     1      67.799   7.239  53.316  1.00  0.00    -0.077 C 
ATOM     10  C   UNL     1      67.915   6.695  54.538  1.00  0.00     0.008 C 
ATOM     11  C   UNL     1      68.555   8.511  53.020  1.00  0.00     0.039 C 
ENDBRANCH   5   9
TORSDOF 1
ENDMDL
MODEL 5
REMARK VINA RESULT:    -3.027     19.331     20.440
REMARK INTER + INTRA:          -3.300
REMARK INTER:                  -3.202
REMARK INTRA:                  -0.098
REMARK UNBOUND:                -0.096
REMARK SMILES C=C(C)[C@@H]1CC=C(C)C(=O)C1
REMARK SMILES IDX 8 1 7 2 6 3 5 4 4 5 11 6 9 7 10 8 2 9 1 10 3 11
REMARK H PARENT
REMARK Flexibility Score: inf
ROOT
ATOM      1  C   UNL     1      72.618 -10.005  51.112  1.00  0.00     0.048 C 
ATOM      2  C   UNL     1      71.497  -9.563  52.011  1.00  0.00    -0.012 C 
ATOM      3  C   UNL     1      71.127 -10.334  53.048  1.00  0.00    -0.019 C 
ATOM      4  C   UNL     1      70.024  -9.931  53.990  1.00  0.00     0.036 C 
ATOM      5  C   UNL     1      68.941  -9.117  53.259  1.00  0.00     0.025 C 
ATOM      6  C   UNL     1      69.572  -7.905  52.548  1.00  0.00     0.089 C 
ATOM      7  C   UNL     1      70.722  -8.341  51.681  1.00  0.00     0.158 C 
ATOM      8  O   UNL     1      71.044  -7.635  50.689  1.00  0.00    -0.295 OA
ENDROOT
BRANCH   5   9
ATOM      9  C   UNL     1      67.830  -8.688  54.208  1.00  0.00    -0.077 C 
ATOM     10  C   UNL     1      68.111  -8.407  55.490  1.00  0.00     0.008 C 
ATOM     11  C   UNL     1      66.400  -8.569  53.742  1.00  0.00     0.039 C 
ENDBRANCH   5   9
TORSDOF 1
ENDMDL
MODEL 6
REMARK VINA RESULT:    -3.021     19.719     20.452
REMARK INTER + INTRA:          -3.294
REMARK INTER:                  -3.198
REMARK INTRA:                  -0.096
REMARK UNBOUND:                -0.096
REMARK SMILES C=C(C)[C@@H]1CC=C(C)C(=O)C1
REMARK SMILES IDX 8 1 7 2 6 3 5 4 4 5 11 6 9 7 10 8 2 9 1 10 3 11
REMARK H PARENT
REMARK Flexibility Score: inf
ROOT
ATOM      1  C   UNL     1      68.475  -8.299  54.089  1.00  0.00     0.048 C 
ATOM      2  C   UNL     1      69.654  -8.668  53.232  1.00  0.00    -0.012 C 
ATOM      3  C   UNL     1      70.008  -7.878  52.205  1.00  0.00    -0.019 C 
ATOM      4  C   UNL     1      71.191  -8.191  51.326  1.00  0.00     0.036 C 
ATOM      5  C   UNL     1      71.388  -9.712  51.184  1.00  0.00     0.025 C 
ATOM      6  C   UNL     1      71.503 -10.368  52.572  1.00  0.00     0.089 C 
ATOM      7  C   UNL     1      70.346  -9.965  53.445  1.00  0.00     0.158 C 
ATOM      8  O   UNL     1      69.993 -10.724  54.387  1.00  0.00    -0.295 OA
ENDROOT
BRANCH   5   9
ATOM      9  C   UNL     1      72.594 -10.038  50.314  1.00  0.00    -0.077 C 
ATOM     10  C   UNL     1      73.813  -9.596  50.658  1.00  0.00     0.008 C 
ATOM     11  C   UNL     1      72.455 -10.856  49.053  1.00  0.00     0.039 C 
ENDBRANCH   5   9
TORSDOF 1
ENDMDL
MODEL 7
REMARK VINA RESULT:    -3.012      1.821      2.504
REMARK INTER + INTRA:          -3.285
REMARK INTER:                  -3.187
REMARK INTRA:                  -0.098
REMARK UNBOUND:                -0.096
REMARK SMILES C=C(C)[C@@H]1CC=C(C)C(=O)C1
REMARK SMILES IDX 8 1 7 2 6 3 5 4 4 5 11 6 9 7 10 8 2 9 1 10 3 11
REMARK H PARENT
REMARK Flexibility Score: inf
ROOT
ATOM      1  C   UNL     1      79.017   2.347  68.348  1.00  0.00     0.048 C 
ATOM      2  C   UNL     1      78.995   2.754  66.901  1.00  0.00    -0.012 C 
ATOM      3  C   UNL     1      80.148   2.858  66.217  1.00  0.00    -0.019 C 
ATOM      4  C   UNL     1      80.183   3.244  64.762  1.00  0.00     0.036 C 
ATOM      5  C   UNL     1      79.036   4.213  64.419  1.00  0.00     0.025 C 
ATOM      6  C   UNL     1      77.682   3.606  64.829  1.00  0.00     0.089 C 
ATOM      7  C   UNL     1      77.716   3.159  66.265  1.00  0.00     0.158 C 
ATOM      8  O   UNL     1      76.638   3.096  66.914  1.00  0.00    -0.295 OA
ENDROOT
BRANCH   5   9
ATOM      9  C   UNL     1      79.051   4.594  62.945  1.00  0.00    -0.077 C 
ATOM     10  C   UNL     1      80.187   4.500  62.236  1.00  0.00     0.008 C 
ATOM     11  C   UNL     1      77.806   5.084  62.246  1.00  0.00     0.039 C 
ENDBRANCH   5   9
TORSDOF 1
ENDMDL
MODEL 8
REMARK VINA RESULT:    -3.011      1.737      2.609
REMARK INTER + INTRA:          -3.284
REMARK INTER:                  -3.187
REMARK INTRA:                  -0.096
REMARK UNBOUND:                -0.096
REMARK SMILES C=C(C)[C@@H]1CC=C(C)C(=O)C1
REMARK SMILES IDX 8 1 7 2 6 3 5 4 4 5 11 6 9 7 10 8 2 9 1 10 3 11
REMARK H PARENT
REMARK Flexibility Score: inf
ROOT
ATOM      1  C   UNL     1      81.939  -0.609  68.118  1.00  0.00     0.048 C 
ATOM      2  C   UNL     1      81.099   0.392  67.373  1.00  0.00    -0.012 C 
ATOM      3  C   UNL     1      80.665   0.110  66.132  1.00  0.00    -0.019 C 
ATOM      4  C   UNL     1      79.807   1.068  65.349  1.00  0.00     0.036 C 
ATOM      5  C   UNL     1      80.153   2.529  65.691  1.00  0.00     0.025 C 
ATOM      6  C   UNL     1      80.050   2.762  67.210  1.00  0.00     0.089 C 
ATOM      7  C   UNL     1      80.855   1.735  67.958  1.00  0.00     0.158 C 
ATOM      8  O   UNL     1      81.291   2.014  69.107  1.00  0.00    -0.295 OA
ENDROOT
BRANCH   5   9
ATOM      9  C   UNL     1      79.276   3.505  64.919  1.00  0.00    -0.077 C 
ATOM     10  C   UNL     1      77.970   3.611  65.207  1.00  0.00     0.008 C 
ATOM     11  C   UNL     1      79.842   4.370  63.819  1.00  0.00     0.039 C 
ENDBRANCH   5   9
TORSDOF 1
ENDMDL
MODEL 9
REMARK VINA RESULT:    -3.008      2.088      4.260
REMARK INTER + INTRA:          -3.280
REMARK INTER:                  -3.184
REMARK INTRA:                  -0.096
REMARK UNBOUND:                -0.096
REMARK SMILES C=C(C)[C@@H]1CC=C(C)C(=O)C1
REMARK SMILES IDX 8 1 7 2 6 3 5 4 4 5 11 6 9 7 10 8 2 9 1 10 3 11
REMARK H PARENT
REMARK Flexibility Score: inf
ROOT
ATOM      1  C   UNL     1      77.320   5.070  63.361  1.00  0.00     0.048 C 
ATOM      2  C   UNL     1      78.037   4.167  64.326  1.00  0.00    -0.012 C 
ATOM      3  C   UNL     1      77.368   3.621  65.355  1.00  0.00    -0.019 C 
ATOM      4  C   UNL     1      78.033   2.696  66.341  1.00  0.00     0.036 C 
ATOM      5  C   UNL     1      79.511   3.076  66.546  1.00  0.00     0.025 C 
ATOM      6  C   UNL     1      80.247   3.114  65.194  1.00  0.00     0.089 C 
ATOM      7  C   UNL     1      79.507   3.982  64.213  1.00  0.00     0.158 C 
ATOM      8  O   UNL     1      80.142   4.522  63.269  1.00  0.00    -0.295 OA
ENDROOT
BRANCH   5   9
ATOM      9  C   UNL     1      80.198   2.135  67.526  1.00  0.00    -0.077 C 
ATOM     10  C   UNL     1      80.452   0.865  67.174  1.00  0.00     0.008 C 
ATOM     11  C   UNL     1      80.604   2.595  68.905  1.00  0.00     0.039 C 
ENDBRANCH   5   9
TORSDOF 1
ENDMDL
