MODEL 1
REMARK VINA RESULT:    -5.661      0.000      0.000
REMARK INTER + INTRA:          -6.191
REMARK INTER:                  -6.157
REMARK INTRA:                  -0.034
REMARK UNBOUND:                -0.034
REMARK SMILES O=C([O-])c1ccc(O)cc1
REMARK SMILES IDX 4 1 5 2 10 3 6 4 9 5 7 6 2 7 1 8 3 9 8 10
REMARK H PARENT 8 11
REMARK Flexibility Score: inf
ROOT
ATOM      1  C   UNL     1      13.653  -4.653 -13.563  1.00  0.00    -0.003 A 
ATOM      2  C   UNL     1      13.478  -3.445 -12.866  1.00  0.00     0.014 A 
ATOM      3  C   UNL     1      12.769  -5.719 -13.313  1.00  0.00     0.014 A 
ATOM      4  C   UNL     1      12.440  -3.306 -11.939  1.00  0.00     0.047 A 
ATOM      5  C   UNL     1      11.734  -5.576 -12.384  1.00  0.00     0.047 A 
ATOM      6  C   UNL     1      11.566  -4.369 -11.695  1.00  0.00     0.115 A 
ENDROOT
BRANCH   1   7
ATOM      7  C   UNL     1      14.752  -4.797 -14.543  1.00  0.00     0.071 C 
ATOM      8  O   UNL     1      15.810  -4.124 -14.423  1.00  0.00    -0.545 OA
ATOM      9  O   UNL     1      14.631  -5.679 -15.611  1.00  0.00    -0.545 OA
ENDBRANCH   1   7
BRANCH   6  10
ATOM     10  O   UNL     1      10.538  -4.216 -10.768  1.00  0.00    -0.508 OA
ATOM     11  H   UNL     1      10.566  -4.675  -9.865  1.00  0.00     0.293 HD
ENDBRANCH   6  10
TORSDOF 2
ENDMDL
MODEL 2
REMARK VINA RESULT:    -5.654      0.029      1.532
REMARK INTER + INTRA:          -6.184
REMARK INTER:                  -6.150
REMARK INTRA:                  -0.034
REMARK UNBOUND:                -0.034
REMARK SMILES O=C([O-])c1ccc(O)cc1
REMARK SMILES IDX 4 1 5 2 10 3 6 4 9 5 7 6 2 7 1 8 3 9 8 10
REMARK H PARENT 8 11
REMARK Flexibility Score: inf
ROOT
ATOM      1  C   UNL     1      13.653  -4.641 -13.549  1.00  0.00    -0.003 A 
ATOM      2  C   UNL     1      12.783  -5.716 -13.300  1.00  0.00     0.014 A 
ATOM      3  C   UNL     1      13.457  -3.430 -12.859  1.00  0.00     0.014 A 
ATOM      4  C   UNL     1      11.738  -5.583 -12.379  1.00  0.00     0.047 A 
ATOM      5  C   UNL     1      12.411  -3.302 -11.939  1.00  0.00     0.047 A 
ATOM      6  C   UNL     1      11.549  -4.379 -11.697  1.00  0.00     0.115 A 
ENDROOT
BRANCH   1   7
ATOM      7  C   UNL     1      14.757  -4.783 -14.524  1.00  0.00     0.071 C 
ATOM      8  O   UNL     1      15.815  -4.110 -14.396  1.00  0.00    -0.545 OA
ATOM      9  O   UNL     1      14.643  -5.663 -15.594  1.00  0.00    -0.545 OA
ENDBRANCH   1   7
BRANCH   6  10
ATOM     10  O   UNL     1      10.504  -4.261 -10.783  1.00  0.00    -0.508 OA
ATOM     11  H   UNL     1       9.966  -3.407 -10.702  1.00  0.00     0.293 HD
ENDBRANCH   6  10
TORSDOF 2
ENDMDL
MODEL 3
REMARK VINA RESULT:    -5.497     17.725     18.458
REMARK INTER + INTRA:          -6.012
REMARK INTER:                  -5.984
REMARK INTRA:                  -0.028
REMARK UNBOUND:                -0.034
REMARK SMILES O=C([O-])c1ccc(O)cc1
REMARK SMILES IDX 4 1 5 2 10 3 6 4 9 5 7 6 2 7 1 8 3 9 8 10
REMARK H PARENT 8 11
REMARK Flexibility Score: inf
ROOT
ATOM      1  C   UNL     1      -1.975   5.255 -10.329  1.00  0.00    -0.003 A 
ATOM      2  C   UNL     1      -2.593   4.948  -9.105  1.00  0.00     0.014 A 
ATOM      3  C   UNL     1      -0.758   5.963 -10.320  1.00  0.00     0.014 A 
ATOM      4  C   UNL     1      -2.006   5.339  -7.897  1.00  0.00     0.047 A 
ATOM      5  C   UNL     1      -0.175   6.352  -9.110  1.00  0.00     0.047 A 
ATOM      6  C   UNL     1      -0.798   6.040  -7.895  1.00  0.00     0.115 A 
ENDROOT
BRANCH   1   7
ATOM      7  C   UNL     1      -2.598   4.841 -11.606  1.00  0.00     0.071 C 
ATOM      8  O   UNL     1      -2.034   3.992 -12.348  1.00  0.00    -0.545 OA
ATOM      9  O   UNL     1      -3.814   5.383 -12.004  1.00  0.00    -0.545 OA
ENDBRANCH   1   7
BRANCH   6  10
ATOM     10  O   UNL     1      -0.226   6.423  -6.684  1.00  0.00    -0.508 OA
ATOM     11  H   UNL     1       0.770   6.339  -6.519  1.00  0.00     0.293 HD
ENDBRANCH   6  10
TORSDOF 2
ENDMDL
MODEL 4
REMARK VINA RESULT:    -5.466      7.093      8.936
REMARK INTER + INTRA:          -5.979
REMARK INTER:                  -5.951
REMARK INTRA:                  -0.028
REMARK UNBOUND:                -0.034
REMARK SMILES O=C([O-])c1ccc(O)cc1
REMARK SMILES IDX 4 1 5 2 10 3 6 4 9 5 7 6 2 7 1 8 3 9 8 10
REMARK H PARENT 8 11
REMARK Flexibility Score: inf
ROOT
ATOM      1  C   UNL     1       6.088  -6.955  -9.547  1.00  0.00    -0.003 A 
ATOM      2  C   UNL     1       5.918  -6.533  -8.216  1.00  0.00     0.014 A 
ATOM      3  C   UNL     1       4.952  -7.108 -10.364  1.00  0.00     0.014 A 
ATOM      4  C   UNL     1       4.639  -6.269  -7.715  1.00  0.00     0.047 A 
ATOM      5  C   UNL     1       3.676  -6.844  -9.859  1.00  0.00     0.047 A 
ATOM      6  C   UNL     1       3.516  -6.423  -8.532  1.00  0.00     0.115 A 
ENDROOT
BRANCH   1   7
ATOM      7  C   UNL     1       7.441  -7.234 -10.075  1.00  0.00     0.071 C 
ATOM      8  O   UNL     1       8.247  -6.291 -10.302  1.00  0.00    -0.545 OA
ATOM      9  O   UNL     1       7.844  -8.540 -10.326  1.00  0.00    -0.545 OA
ENDBRANCH   1   7
BRANCH   6  10
ATOM     10  O   UNL     1       2.249  -6.157  -8.019  1.00  0.00    -0.508 OA
ATOM     11  H   UNL     1       2.095  -5.416  -7.346  1.00  0.00     0.293 HD
ENDBRANCH   6  10
TORSDOF 2
ENDMDL
MODEL 5
REMARK VINA RESULT:    -5.444     18.324     19.416
REMARK INTER + INTRA:          -5.955
REMARK INTER:                  -5.923
REMARK INTRA:                  -0.032
REMARK UNBOUND:                -0.034
REMARK SMILES O=C([O-])c1ccc(O)cc1
REMARK SMILES IDX 4 1 5 2 10 3 6 4 9 5 7 6 2 7 1 8 3 9 8 10
REMARK H PARENT 8 11
REMARK Flexibility Score: inf
ROOT
ATOM      1  C   UNL     1      -2.134   6.738 -10.276  1.00  0.00    -0.003 A 
ATOM      2  C   UNL     1      -3.533   6.604 -10.323  1.00  0.00     0.014 A 
ATOM      3  C   UNL     1      -1.340   5.875 -11.054  1.00  0.00     0.014 A 
ATOM      4  C   UNL     1      -4.125   5.628 -11.132  1.00  0.00     0.047 A 
ATOM      5  C   UNL     1      -1.936   4.900 -11.860  1.00  0.00     0.047 A 
ATOM      6  C   UNL     1      -3.330   4.774 -11.902  1.00  0.00     0.115 A 
ENDROOT
BRANCH   1   7
ATOM      7  C   UNL     1      -1.511   7.770  -9.419  1.00  0.00     0.071 C 
ATOM      8  O   UNL     1      -1.985   8.031  -8.281  1.00  0.00    -0.545 OA
ATOM      9  O   UNL     1      -0.392   8.468  -9.859  1.00  0.00    -0.545 OA
ENDBRANCH   1   7
BRANCH   6  10
ATOM     10  O   UNL     1      -3.933   3.807 -12.701  1.00  0.00    -0.508 OA
ATOM     11  H   UNL     1      -3.385   3.173 -13.270  1.00  0.00     0.293 HD
ENDBRANCH   6  10
TORSDOF 2
ENDMDL
MODEL 6
REMARK VINA RESULT:    -5.285      2.788      4.178
REMARK INTER + INTRA:          -5.783
REMARK INTER:                  -5.747
REMARK INTRA:                  -0.036
REMARK UNBOUND:                -0.034
REMARK SMILES O=C([O-])c1ccc(O)cc1
REMARK SMILES IDX 4 1 5 2 10 3 6 4 9 5 7 6 2 7 1 8 3 9 8 10
REMARK H PARENT 8 11
REMARK Flexibility Score: inf
ROOT
ATOM      1  C   UNL     1      11.267  -7.141 -12.020  1.00  0.00    -0.003 A 
ATOM      2  C   UNL     1      11.979  -6.343 -12.933  1.00  0.00     0.014 A 
ATOM      3  C   UNL     1      10.801  -6.561 -10.825  1.00  0.00     0.014 A 
ATOM      4  C   UNL     1      12.218  -4.993 -12.657  1.00  0.00     0.047 A 
ATOM      5  C   UNL     1      11.043  -5.211 -10.554  1.00  0.00     0.047 A 
ATOM      6  C   UNL     1      11.752  -4.423 -11.469  1.00  0.00     0.115 A 
ENDROOT
BRANCH   1   7
ATOM      7  C   UNL     1      11.016  -8.569 -12.313  1.00  0.00     0.071 C 
ATOM      8  O   UNL     1      11.468  -9.097 -13.365  1.00  0.00    -0.545 OA
ATOM      9  O   UNL     1      10.278  -9.350 -11.432  1.00  0.00    -0.545 OA
ENDBRANCH   1   7
BRANCH   6  10
ATOM     10  O   UNL     1      11.998  -3.077 -11.208  1.00  0.00    -0.508 OA
ATOM     11  H   UNL     1      12.649  -2.540 -11.769  1.00  0.00     0.293 HD
ENDBRANCH   6  10
TORSDOF 2
ENDMDL
MODEL 7
REMARK VINA RESULT:    -5.252      7.975     10.796
REMARK INTER + INTRA:          -5.746
REMARK INTER:                  -5.719
REMARK INTRA:                  -0.027
REMARK UNBOUND:                -0.034
REMARK SMILES O=C([O-])c1ccc(O)cc1
REMARK SMILES IDX 4 1 5 2 10 3 6 4 9 5 7 6 2 7 1 8 3 9 8 10
REMARK H PARENT 8 11
REMARK Flexibility Score: inf
ROOT
ATOM      1  C   UNL     1       3.648  -6.562  -8.969  1.00  0.00    -0.003 A 
ATOM      2  C   UNL     1       3.875  -6.893 -10.316  1.00  0.00     0.014 A 
ATOM      3  C   UNL     1       4.751  -6.412  -8.108  1.00  0.00     0.014 A 
ATOM      4  C   UNL     1       5.179  -7.069 -10.792  1.00  0.00     0.047 A 
ATOM      5  C   UNL     1       6.052  -6.590  -8.588  1.00  0.00     0.047 A 
ATOM      6  C   UNL     1       6.269  -6.919  -9.932  1.00  0.00     0.115 A 
ENDROOT
BRANCH   1   7
ATOM      7  C   UNL     1       2.268  -6.376  -8.467  1.00  0.00     0.071 C 
ATOM      8  O   UNL     1       1.608  -7.356  -8.030  1.00  0.00    -0.545 OA
ATOM      9  O   UNL     1       1.682  -5.116  -8.471  1.00  0.00    -0.545 OA
ENDBRANCH   1   7
BRANCH   6  10
ATOM     10  O   UNL     1       7.561  -7.098 -10.420  1.00  0.00    -0.508 OA
ATOM     11  H   UNL     1       8.366  -7.086  -9.806  1.00  0.00     0.293 HD
ENDBRANCH   6  10
TORSDOF 2
ENDMDL
MODEL 8
REMARK VINA RESULT:    -5.203      1.615      4.237
REMARK INTER + INTRA:          -5.693
REMARK INTER:                  -5.659
REMARK INTRA:                  -0.033
REMARK UNBOUND:                -0.034
REMARK SMILES O=C([O-])c1ccc(O)cc1
REMARK SMILES IDX 4 1 5 2 10 3 6 4 9 5 7 6 2 7 1 8 3 9 8 10
REMARK H PARENT 8 11
REMARK Flexibility Score: inf
ROOT
ATOM      1  C   UNL     1      11.431  -5.379 -11.775  1.00  0.00    -0.003 A 
ATOM      2  C   UNL     1      11.627  -4.071 -11.299  1.00  0.00     0.014 A 
ATOM      3  C   UNL     1      12.256  -5.861 -12.808  1.00  0.00     0.014 A 
ATOM      4  C   UNL     1      12.629  -3.262 -11.846  1.00  0.00     0.047 A 
ATOM      5  C   UNL     1      13.256  -5.048 -13.352  1.00  0.00     0.047 A 
ATOM      6  C   UNL     1      13.445  -3.746 -12.871  1.00  0.00     0.115 A 
ENDROOT
BRANCH   1   7
ATOM      7  C   UNL     1      10.370  -6.233 -11.196  1.00  0.00     0.071 C 
ATOM      8  O   UNL     1       9.316  -5.720 -10.734  1.00  0.00    -0.545 OA
ATOM      9  O   UNL     1      10.522  -7.614 -11.155  1.00  0.00    -0.545 OA
ENDBRANCH   1   7
BRANCH   6  10
ATOM     10  O   UNL     1      14.438  -2.929 -13.406  1.00  0.00    -0.508 OA
ATOM     11  H   UNL     1      15.420  -3.155 -13.306  1.00  0.00     0.293 HD
ENDBRANCH   6  10
TORSDOF 2
ENDMDL
MODEL 9
REMARK VINA RESULT:    -5.107     16.475     18.615
REMARK INTER + INTRA:          -5.588
REMARK INTER:                  -5.560
REMARK INTRA:                  -0.028
REMARK UNBOUND:                -0.034
REMARK SMILES O=C([O-])c1ccc(O)cc1
REMARK SMILES IDX 4 1 5 2 10 3 6 4 9 5 7 6 2 7 1 8 3 9 8 10
REMARK H PARENT 8 11
REMARK Flexibility Score: inf
ROOT
ATOM      1  C   UNL     1      -1.955   6.267  -9.819  1.00  0.00    -0.003 A 
ATOM      2  C   UNL     1      -0.763   6.359  -9.080  1.00  0.00     0.014 A 
ATOM      3  C   UNL     1      -2.097   5.229 -10.759  1.00  0.00     0.014 A 
ATOM      4  C   UNL     1       0.266   5.431  -9.276  1.00  0.00     0.047 A 
ATOM      5  C   UNL     1      -1.066   4.305 -10.952  1.00  0.00     0.047 A 
ATOM      6  C   UNL     1       0.118   4.403 -10.210  1.00  0.00     0.115 A 
ENDROOT
BRANCH   1   7
ATOM      7  C   UNL     1      -3.041   7.250  -9.610  1.00  0.00     0.071 C 
ATOM      8  O   UNL     1      -4.125   6.902  -9.069  1.00  0.00    -0.545 OA
ATOM      9  O   UNL     1      -2.881   8.572 -10.008  1.00  0.00    -0.545 OA
ENDBRANCH   1   7
BRANCH   6  10
ATOM     10  O   UNL     1       1.151   3.487 -10.395  1.00  0.00    -0.508 OA
ATOM     11  H   UNL     1       2.122   3.757 -10.293  1.00  0.00     0.293 HD
ENDBRANCH   6  10
TORSDOF 2
ENDMDL
