MODEL 1
REMARK VINA RESULT:    -3.279      0.000      0.000
REMARK INTER + INTRA:          -3.667
REMARK INTER:                  -3.662
REMARK INTRA:                  -0.005
REMARK UNBOUND:                -0.005
REMARK SMILES CCCC(=O)[O-]
REMARK SMILES IDX 3 1 4 2 5 3 6 4 2 5 1 6
REMARK H PARENT
REMARK Flexibility Score: inf
ROOT
ATOM      1  C   UNL     1      11.915   3.964  -5.859  1.00  0.00     0.052 C 
ENDROOT
BRANCH   1   2
ATOM      2  C   UNL     1      12.326   4.138  -7.289  1.00  0.00     0.041 C 
ATOM      3  O   UNL     1      12.937   3.215  -7.888  1.00  0.00    -0.550 OA
ATOM      4  O   UNL     1      12.065   5.333  -7.948  1.00  0.00    -0.550 OA
ENDBRANCH   1   2
BRANCH   1   5
ATOM      5  C   UNL     1      13.125   3.944  -4.917  1.00  0.00     0.003 C 
ATOM      6  C   UNL     1      12.753   4.322  -3.484  1.00  0.00     0.004 C 
ENDBRANCH   1   5
TORSDOF 2
ENDMDL
MODEL 2
REMARK VINA RESULT:    -3.141     15.675     16.270
REMARK INTER + INTRA:          -3.513
REMARK INTER:                  -3.445
REMARK INTRA:                  -0.068
REMARK UNBOUND:                -0.005
REMARK SMILES CCCC(=O)[O-]
REMARK SMILES IDX 3 1 4 2 5 3 6 4 2 5 1 6
REMARK H PARENT
REMARK Flexibility Score: inf
ROOT
ATOM      1  C   UNL     1       4.959   1.241   8.774  1.00  0.00     0.052 C 
ENDROOT
BRANCH   1   2
ATOM      2  C   UNL     1       4.663   1.364   7.311  1.00  0.00     0.041 C 
ATOM      3  O   UNL     1       5.363   0.742   6.469  1.00  0.00    -0.550 OA
ATOM      4  O   UNL     1       3.637   2.192   6.875  1.00  0.00    -0.550 OA
ENDBRANCH   1   2
BRANCH   1   5
ATOM      5  C   UNL     1       5.135   2.612   9.437  1.00  0.00     0.003 C 
ATOM      6  C   UNL     1       6.424   3.308   8.999  1.00  0.00     0.004 C 
ENDBRANCH   1   5
TORSDOF 2
ENDMDL
MODEL 3
REMARK VINA RESULT:    -3.065     15.686     16.631
REMARK INTER + INTRA:          -3.429
REMARK INTER:                  -3.420
REMARK INTRA:                  -0.009
REMARK UNBOUND:                -0.005
REMARK SMILES CCCC(=O)[O-]
REMARK SMILES IDX 3 1 4 2 5 3 6 4 2 5 1 6
REMARK H PARENT
REMARK Flexibility Score: inf
ROOT
ATOM      1  C   UNL     1       3.867   1.779   8.182  1.00  0.00     0.052 C 
ENDROOT
BRANCH   1   2
ATOM      2  C   UNL     1       5.204   1.386   7.634  1.00  0.00     0.041 C 
ATOM      3  O   UNL     1       6.255   1.661   8.271  1.00  0.00    -0.550 OA
ATOM      4  O   UNL     1       5.293   0.747   6.404  1.00  0.00    -0.550 OA
ENDBRANCH   1   2
BRANCH   1   5
ATOM      5  C   UNL     1       3.745   3.298   8.351  1.00  0.00     0.003 C 
ATOM      6  C   UNL     1       2.590   3.690   9.271  1.00  0.00     0.004 C 
ENDBRANCH   1   5
TORSDOF 2
ENDMDL
MODEL 4
REMARK VINA RESULT:    -2.814      3.129      3.950
REMARK INTER + INTRA:          -3.148
REMARK INTER:                  -3.137
REMARK INTRA:                  -0.012
REMARK UNBOUND:                -0.005
REMARK SMILES CCCC(=O)[O-]
REMARK SMILES IDX 3 1 4 2 5 3 6 4 2 5 1 6
REMARK H PARENT
REMARK Flexibility Score: inf
ROOT
ATOM      1  C   UNL     1      12.245   5.515  -3.048  1.00  0.00     0.052 C 
ENDROOT
BRANCH   1   2
ATOM      2  C   UNL     1      12.844   4.221  -3.506  1.00  0.00     0.041 C 
ATOM      3  O   UNL     1      13.125   3.322  -2.671  1.00  0.00    -0.550 OA
ATOM      4  O   UNL     1      13.125   4.022  -4.852  1.00  0.00    -0.550 OA
ENDBRANCH   1   2
BRANCH   1   5
ATOM      5  C   UNL     1      12.380   5.699  -1.531  1.00  0.00     0.003 C 
ATOM      6  C   UNL     1      12.401   7.172  -1.124  1.00  0.00     0.004 C 
ENDBRANCH   1   5
TORSDOF 2
ENDMDL
MODEL 5
REMARK VINA RESULT:    -2.770      4.007      4.966
REMARK INTER + INTRA:          -3.099
REMARK INTER:                  -3.071
REMARK INTRA:                  -0.028
REMARK UNBOUND:                -0.005
REMARK SMILES CCCC(=O)[O-]
REMARK SMILES IDX 3 1 4 2 5 3 6 4 2 5 1 6
REMARK H PARENT
REMARK Flexibility Score: inf
ROOT
ATOM      1  C   UNL     1      12.502   4.553  -2.287  1.00  0.00     0.052 C 
ENDROOT
BRANCH   1   2
ATOM      2  C   UNL     1      12.378   5.944  -1.745  1.00  0.00     0.041 C 
ATOM      3  O   UNL     1      11.578   6.187  -0.804  1.00  0.00    -0.550 OA
ATOM      4  O   UNL     1      13.121   6.977  -2.302  1.00  0.00    -0.550 OA
ENDBRANCH   1   2
BRANCH   1   5
ATOM      5  C   UNL     1      13.121   4.542  -3.690  1.00  0.00     0.003 C 
ATOM      6  C   UNL     1      12.122   4.112  -4.764  1.00  0.00     0.004 C 
ENDBRANCH   1   5
TORSDOF 2
ENDMDL
MODEL 6
REMARK VINA RESULT:    -2.707      3.301      4.075
REMARK INTER + INTRA:          -3.029
REMARK INTER:                  -3.022
REMARK INTRA:                  -0.007
REMARK UNBOUND:                -0.005
REMARK SMILES CCCC(=O)[O-]
REMARK SMILES IDX 3 1 4 2 5 3 6 4 2 5 1 6
REMARK H PARENT
REMARK Flexibility Score: inf
ROOT
ATOM      1  C   UNL     1      13.125   3.864  -4.308  1.00  0.00     0.052 C 
ENDROOT
BRANCH   1   2
ATOM      2  C   UNL     1      12.759   4.161  -2.886  1.00  0.00     0.041 C 
ATOM      3  O   UNL     1      12.875   3.271  -2.004  1.00  0.00    -0.550 OA
ATOM      4  O   UNL     1      12.256   5.410  -2.543  1.00  0.00    -0.550 OA
ENDBRANCH   1   2
BRANCH   1   5
ATOM      5  C   UNL     1      11.915   3.978  -5.243  1.00  0.00     0.003 C 
ATOM      6  C   UNL     1      12.320   4.039  -6.715  1.00  0.00     0.004 C 
ENDBRANCH   1   5
TORSDOF 2
ENDMDL
MODEL 7
REMARK VINA RESULT:    -2.680      1.884      2.513
REMARK INTER + INTRA:          -2.999
REMARK INTER:                  -2.993
REMARK INTRA:                  -0.006
REMARK UNBOUND:                -0.005
REMARK SMILES CCCC(=O)[O-]
REMARK SMILES IDX 3 1 4 2 5 3 6 4 2 5 1 6
REMARK H PARENT
REMARK Flexibility Score: inf
ROOT
ATOM      1  C   UNL     1      12.907   4.204  -3.776  1.00  0.00     0.052 C 
ENDROOT
BRANCH   1   2
ATOM      2  C   UNL     1      12.318   3.955  -5.130  1.00  0.00     0.041 C 
ATOM      3  O   UNL     1      11.096   3.673  -5.247  1.00  0.00    -0.550 OA
ATOM      4  O   UNL     1      13.125   4.000  -6.260  1.00  0.00    -0.550 OA
ENDBRANCH   1   2
BRANCH   1   5
ATOM      5  C   UNL     1      12.136   5.285  -3.009  1.00  0.00     0.003 C 
ATOM      6  C   UNL     1      12.935   5.846  -1.833  1.00  0.00     0.004 C 
ENDBRANCH   1   5
TORSDOF 2
ENDMDL
MODEL 8
REMARK VINA RESULT:    -2.570     14.818     15.543
REMARK INTER + INTRA:          -2.876
REMARK INTER:                  -2.866
REMARK INTRA:                  -0.009
REMARK UNBOUND:                -0.005
REMARK SMILES CCCC(=O)[O-]
REMARK SMILES IDX 3 1 4 2 5 3 6 4 2 5 1 6
REMARK H PARENT
REMARK Flexibility Score: inf
ROOT
ATOM      1  C   UNL     1       5.503  -5.404   2.981  1.00  0.00     0.052 C 
ENDROOT
BRANCH   1   2
ATOM      2  C   UNL     1       6.861  -5.434   3.611  1.00  0.00     0.041 C 
ATOM      3  O   UNL     1       7.847  -5.883   2.970  1.00  0.00    -0.550 OA
ATOM      4  O   UNL     1       7.032  -4.997   4.919  1.00  0.00    -0.550 OA
ENDBRANCH   1   2
BRANCH   1   5
ATOM      5  C   UNL     1       4.387  -5.471   4.030  1.00  0.00     0.003 C 
ATOM      6  C   UNL     1       3.011  -5.174   3.435  1.00  0.00     0.004 C 
ENDBRANCH   1   5
TORSDOF 2
ENDMDL
MODEL 9
REMARK VINA RESULT:    -2.524     20.629     21.284
REMARK INTER + INTRA:          -2.824
REMARK INTER:                  -2.814
REMARK INTRA:                  -0.010
REMARK UNBOUND:                -0.005
REMARK SMILES CCCC(=O)[O-]
REMARK SMILES IDX 3 1 4 2 5 3 6 4 2 5 1 6
REMARK H PARENT
REMARK Flexibility Score: inf
ROOT
ATOM      1  C   UNL     1      -1.935   4.380   8.612  1.00  0.00     0.052 C 
ENDROOT
BRANCH   1   2
ATOM      2  C   UNL     1      -2.007   5.668   9.374  1.00  0.00     0.041 C 
ATOM      3  O   UNL     1      -1.005   6.427   9.430  1.00  0.00    -0.550 OA
ATOM      4  O   UNL     1      -3.170   6.012  10.051  1.00  0.00    -0.550 OA
ENDBRANCH   1   2
BRANCH   1   5
ATOM      5  C   UNL     1      -0.855   3.447   9.172  1.00  0.00     0.003 C 
ATOM      6  C   UNL     1      -1.413   2.077   9.558  1.00  0.00     0.004 C 
ENDBRANCH   1   5
TORSDOF 2
ENDMDL
