MODEL 1
REMARK VINA RESULT:    -4.688      0.000      0.000
REMARK INTER + INTRA:          -7.125
REMARK INTER:                  -6.332
REMARK INTRA:                  -0.793
REMARK UNBOUND:                -0.793
REMARK SMILES CC(=O)CCC=C(C)CCC=C(C)C
REMARK SMILES IDX 7 1 6 2 8 3 9 4 10 5 11 6 13 7 12 8 14 9 5 10 4 11 2 12 3 13
REMARK SMILES IDX 1 14
REMARK H PARENT
REMARK Flexibility Score: inf
ROOT
ATOM      1  C   UNL     1       1.971   0.853  55.729  1.00  0.00    -0.077 C 
ATOM      2  C   UNL     1       0.869   1.481  56.197  1.00  0.00    -0.028 C 
ATOM      3  C   UNL     1       2.721  -0.168  56.554  1.00  0.00     0.039 C 
ENDROOT
BRANCH   1   4
ATOM      4  C   UNL     1       2.457   1.166  54.328  1.00  0.00     0.034 C 
BRANCH   4   5
ATOM      5  C   UNL     1       2.892  -0.100  53.576  1.00  0.00     0.032 C 
BRANCH   5   6
ATOM      6  C   UNL     1       1.710  -0.966  53.208  1.00  0.00    -0.028 C 
ATOM      7  C   UNL     1       2.669  -3.024  54.265  1.00  0.00     0.039 C 
ATOM      8  C   UNL     1       1.582  -2.270  53.536  1.00  0.00    -0.080 C 
ATOM      9  C   UNL     1       0.318  -2.988  53.139  1.00  0.00     0.039 C 
ENDBRANCH   5   6
ENDBRANCH   4   5
ENDBRANCH   1   4
BRANCH   2  10
ATOM     10  C   UNL     1       0.301   1.296  57.585  1.00  0.00     0.035 C 
BRANCH  10  11
ATOM     11  C   UNL     1       0.846   2.344  58.565  1.00  0.00     0.079 C 
BRANCH  11  12
ATOM     12  C   UNL     1       1.136   1.741  59.917  1.00  0.00     0.130 C 
ATOM     13  O   UNL     1       1.980   0.862  60.016  1.00  0.00    -0.300 OA
ATOM     14  C   UNL     1       0.411   2.199  61.147  1.00  0.00     0.087 C 
ENDBRANCH  11  12
ENDBRANCH  10  11
ENDBRANCH   2  10
TORSDOF 6
ENDMDL
MODEL 2
REMARK VINA RESULT:    -4.679      1.044      1.613
REMARK INTER + INTRA:          -7.114
REMARK INTER:                  -5.980
REMARK INTRA:                  -1.134
REMARK UNBOUND:                -0.793
REMARK SMILES CC(=O)CCC=C(C)CCC=C(C)C
REMARK SMILES IDX 7 1 6 2 8 3 9 4 10 5 11 6 13 7 12 8 14 9 5 10 4 11 2 12 3 13
REMARK SMILES IDX 1 14
REMARK H PARENT
REMARK Flexibility Score: inf
ROOT
ATOM      1  C   UNL     1       1.578   0.749  56.072  1.00  0.00    -0.077 C 
ATOM      2  C   UNL     1       2.430   0.096  56.893  1.00  0.00    -0.028 C 
ATOM      3  C   UNL     1       0.107   0.886  56.389  1.00  0.00     0.039 C 
ENDROOT
BRANCH   1   4
ATOM      4  C   UNL     1       2.118   1.383  54.805  1.00  0.00     0.034 C 
BRANCH   4   5
ATOM      5  C   UNL     1       2.774   0.348  53.881  1.00  0.00     0.032 C 
BRANCH   5   6
ATOM      6  C   UNL     1       1.803  -0.735  53.474  1.00  0.00    -0.028 C 
ATOM      7  C   UNL     1       3.236  -2.590  54.356  1.00  0.00     0.039 C 
ATOM      8  C   UNL     1       1.981  -2.054  53.708  1.00  0.00    -0.080 C 
ATOM      9  C   UNL     1       0.896  -3.010  53.286  1.00  0.00     0.039 C 
ENDBRANCH   5   6
ENDBRANCH   4   5
ENDBRANCH   1   4
BRANCH   2  10
ATOM     10  C   UNL     1       2.022  -0.615  58.163  1.00  0.00     0.035 C 
BRANCH  10  11
ATOM     11  C   UNL     1       2.477   0.150  59.413  1.00  0.00     0.079 C 
BRANCH  11  12
ATOM     12  C   UNL     1       1.354   0.963  60.006  1.00  0.00     0.130 C 
ATOM     13  O   UNL     1       0.572   0.434  60.782  1.00  0.00    -0.300 OA
ATOM     14  C   UNL     1       1.177   2.412  59.664  1.00  0.00     0.087 C 
ENDBRANCH  11  12
ENDBRANCH  10  11
ENDBRANCH   2  10
TORSDOF 6
ENDMDL
MODEL 3
REMARK VINA RESULT:    -4.609      3.192      6.048
REMARK INTER + INTRA:          -7.019
REMARK INTER:                  -6.066
REMARK INTRA:                  -0.953
REMARK UNBOUND:                -0.793
REMARK SMILES CC(=O)CCC=C(C)CCC=C(C)C
REMARK SMILES IDX 7 1 6 2 8 3 9 4 10 5 11 6 13 7 12 8 14 9 5 10 4 11 2 12 3 13
REMARK SMILES IDX 1 14
REMARK H PARENT
REMARK Flexibility Score: inf
ROOT
ATOM      1  C   UNL     1       2.403  -1.512  53.636  1.00  0.00    -0.077 C 
ATOM      2  C   UNL     1       1.155  -1.799  53.201  1.00  0.00    -0.028 C 
ATOM      3  C   UNL     1       3.296  -2.562  54.254  1.00  0.00     0.039 C 
ENDROOT
BRANCH   1   4
ATOM      4  C   UNL     1       2.929  -0.099  53.479  1.00  0.00     0.034 C 
BRANCH   4   5
ATOM      5  C   UNL     1       3.040   0.625  54.828  1.00  0.00     0.032 C 
BRANCH   5   6
ATOM      6  C   UNL     1       1.701   1.139  55.299  1.00  0.00    -0.028 C 
ATOM      7  C   UNL     1       1.571  -0.461  57.223  1.00  0.00     0.039 C 
ATOM      8  C   UNL     1       1.044   0.684  56.389  1.00  0.00    -0.080 C 
ATOM      9  C   UNL     1      -0.264   1.333  56.761  1.00  0.00     0.039 C 
ENDBRANCH   5   6
ENDBRANCH   4   5
ENDBRANCH   1   4
BRANCH   2  10
ATOM     10  C   UNL     1       0.491  -3.150  53.331  1.00  0.00     0.035 C 
BRANCH  10  11
ATOM     11  C   UNL     1      -0.453  -3.434  52.155  1.00  0.00     0.079 C 
BRANCH  11  12
ATOM     12  C   UNL     1      -1.668  -2.541  52.191  1.00  0.00     0.130 C 
ATOM     13  O   UNL     1      -1.854  -1.741  51.286  1.00  0.00    -0.300 OA
ATOM     14  C   UNL     1      -2.656  -2.616  53.316  1.00  0.00     0.087 C 
ENDBRANCH  11  12
ENDBRANCH  10  11
ENDBRANCH   2  10
TORSDOF 6
ENDMDL
MODEL 4
REMARK VINA RESULT:    -4.568      2.264      6.484
REMARK INTER + INTRA:          -6.964
REMARK INTER:                  -6.226
REMARK INTRA:                  -0.738
REMARK UNBOUND:                -0.793
REMARK SMILES CC(=O)CCC=C(C)CCC=C(C)C
REMARK SMILES IDX 7 1 6 2 8 3 9 4 10 5 11 6 13 7 12 8 14 9 5 10 4 11 2 12 3 13
REMARK SMILES IDX 1 14
REMARK H PARENT
REMARK Flexibility Score: inf
ROOT
ATOM      1  C   UNL     1       1.577   0.854  56.344  1.00  0.00    -0.077 C 
ATOM      2  C   UNL     1       1.885   1.164  55.064  1.00  0.00    -0.028 C 
ATOM      3  C   UNL     1       2.299  -0.239  57.099  1.00  0.00     0.039 C 
ENDROOT
BRANCH   1   4
ATOM      4  C   UNL     1       0.491   1.640  57.051  1.00  0.00     0.034 C 
BRANCH   4   5
ATOM      5  C   UNL     1      -0.037   0.903  58.289  1.00  0.00     0.032 C 
BRANCH   5   6
ATOM      6  C   UNL     1      -0.705   1.847  59.260  1.00  0.00    -0.028 C 
ATOM      7  C   UNL     1       1.376   2.203  60.609  1.00  0.00     0.039 C 
ATOM      8  C   UNL     1      -0.077   2.462  60.287  1.00  0.00    -0.080 C 
ATOM      9  C   UNL     1      -0.869   3.418  61.141  1.00  0.00     0.039 C 
ENDBRANCH   5   6
ENDBRANCH   4   5
ENDBRANCH   1   4
BRANCH   2  10
ATOM     10  C   UNL     1       2.913   0.436  54.229  1.00  0.00     0.035 C 
BRANCH  10  11
ATOM     11  C   UNL     1       2.255  -0.489  53.197  1.00  0.00     0.079 C 
BRANCH  11  12
ATOM     12  C   UNL     1       2.270  -1.927  53.652  1.00  0.00     0.130 C 
ATOM     13  O   UNL     1       1.300  -2.638  53.435  1.00  0.00    -0.300 OA
ATOM     14  C   UNL     1       3.455  -2.505  54.367  1.00  0.00     0.087 C 
ENDBRANCH  11  12
ENDBRANCH  10  11
ENDBRANCH   2  10
TORSDOF 6
ENDMDL
MODEL 5
REMARK VINA RESULT:    -4.560     10.794     12.362
REMARK INTER + INTRA:          -6.953
REMARK INTER:                  -5.537
REMARK INTRA:                  -1.416
REMARK UNBOUND:                -0.793
REMARK SMILES CC(=O)CCC=C(C)CCC=C(C)C
REMARK SMILES IDX 7 1 6 2 8 3 9 4 10 5 11 6 13 7 12 8 14 9 5 10 4 11 2 12 3 13
REMARK SMILES IDX 1 14
REMARK H PARENT
REMARK Flexibility Score: inf
ROOT
ATOM      1  C   UNL     1      -7.052   3.838  51.967  1.00  0.00    -0.077 C 
ATOM      2  C   UNL     1      -8.189   3.112  52.056  1.00  0.00    -0.028 C 
ATOM      3  C   UNL     1      -6.906   4.979  50.987  1.00  0.00     0.039 C 
ENDROOT
BRANCH   1   4
ATOM      4  C   UNL     1      -5.897   3.513  52.893  1.00  0.00     0.034 C 
BRANCH   4   5
ATOM      5  C   UNL     1      -6.343   3.431  54.359  1.00  0.00     0.032 C 
BRANCH   5   6
ATOM      6  C   UNL     1      -6.553   4.801  54.958  1.00  0.00    -0.028 C 
ATOM      7  C   UNL     1      -8.951   4.367  55.539  1.00  0.00     0.039 C 
ATOM      8  C   UNL     1      -7.708   5.225  55.519  1.00  0.00    -0.080 C 
ATOM      9  C   UNL     1      -7.748   6.605  56.121  1.00  0.00     0.039 C 
ENDBRANCH   5   6
ENDBRANCH   4   5
ENDBRANCH   1   4
BRANCH   2  10
ATOM     10  C   UNL     1      -9.399   3.301  51.171  1.00  0.00     0.035 C 
BRANCH  10  11
ATOM     11  C   UNL     1     -10.505   4.093  51.882  1.00  0.00     0.079 C 
BRANCH  11  12
ATOM     12  C   UNL     1     -10.345   5.578  51.671  1.00  0.00     0.130 C 
ATOM     13  O   UNL     1     -10.473   6.045  50.549  1.00  0.00    -0.300 OA
ATOM     14  C   UNL     1     -10.035   6.498  52.814  1.00  0.00     0.087 C 
ENDBRANCH  11  12
ENDBRANCH  10  11
ENDBRANCH   2  10
TORSDOF 6
ENDMDL
MODEL 6
REMARK VINA RESULT:    -4.458     10.153     11.389
REMARK INTER + INTRA:          -6.815
REMARK INTER:                  -5.788
REMARK INTRA:                  -1.027
REMARK UNBOUND:                -0.793
REMARK SMILES CC(=O)CCC=C(C)CCC=C(C)C
REMARK SMILES IDX 7 1 6 2 8 3 9 4 10 5 11 6 13 7 12 8 14 9 5 10 4 11 2 12 3 13
REMARK SMILES IDX 1 14
REMARK H PARENT
REMARK Flexibility Score: inf
ROOT
ATOM      1  C   UNL     1      -7.267   3.173  52.342  1.00  0.00    -0.077 C 
ATOM      2  C   UNL     1      -6.207   3.479  53.124  1.00  0.00    -0.028 C 
ATOM      3  C   UNL     1      -8.338   2.205  52.789  1.00  0.00     0.039 C 
ENDROOT
BRANCH   1   4
ATOM      4  C   UNL     1      -7.396   3.837  50.986  1.00  0.00     0.034 C 
BRANCH   4   5
ATOM      5  C   UNL     1      -7.464   5.366  51.101  1.00  0.00     0.032 C 
BRANCH   5   6
ATOM      6  C   UNL     1      -8.348   5.803  52.244  1.00  0.00    -0.028 C 
ATOM      7  C   UNL     1     -10.400   5.974  50.818  1.00  0.00     0.039 C 
ATOM      8  C   UNL     1      -9.673   6.049  52.140  1.00  0.00    -0.080 C 
ATOM      9  C   UNL     1     -10.432   6.429  53.385  1.00  0.00     0.039 C 
ENDBRANCH   5   6
ENDBRANCH   4   5
ENDBRANCH   1   4
BRANCH   2  10
ATOM     10  C   UNL     1      -5.933   2.862  54.477  1.00  0.00     0.035 C 
BRANCH  10  11
ATOM     11  C   UNL     1      -5.869   3.925  55.582  1.00  0.00     0.079 C 
BRANCH  11  12
ATOM     12  C   UNL     1      -7.205   4.596  55.784  1.00  0.00     0.130 C 
ATOM     13  O   UNL     1      -8.198   3.913  55.983  1.00  0.00    -0.300 OA
ATOM     14  C   UNL     1      -7.340   6.089  55.748  1.00  0.00     0.087 C 
ENDBRANCH  11  12
ENDBRANCH  10  11
ENDBRANCH   2  10
TORSDOF 6
ENDMDL
MODEL 7
REMARK VINA RESULT:    -4.434      1.342      2.057
REMARK INTER + INTRA:          -6.783
REMARK INTER:                  -5.741
REMARK INTRA:                  -1.042
REMARK UNBOUND:                -0.793
REMARK SMILES CC(=O)CCC=C(C)CCC=C(C)C
REMARK SMILES IDX 7 1 6 2 8 3 9 4 10 5 11 6 13 7 12 8 14 9 5 10 4 11 2 12 3 13
REMARK SMILES IDX 1 14
REMARK H PARENT
REMARK Flexibility Score: inf
ROOT
ATOM      1  C   UNL     1       2.521   0.781  54.799  1.00  0.00    -0.077 C 
ATOM      2  C   UNL     1       1.948   0.813  56.023  1.00  0.00    -0.028 C 
ATOM      3  C   UNL     1       2.249   1.843  53.759  1.00  0.00     0.039 C 
ENDROOT
BRANCH   1   4
ATOM      4  C   UNL     1       3.484  -0.341  54.467  1.00  0.00     0.034 C 
BRANCH   4   5
ATOM      5  C   UNL     1       2.841  -1.722  54.653  1.00  0.00     0.032 C 
BRANCH   5   6
ATOM      6  C   UNL     1       1.877  -2.046  53.536  1.00  0.00    -0.028 C 
ATOM      7  C   UNL     1      -0.126  -2.068  55.040  1.00  0.00     0.039 C 
ATOM      8  C   UNL     1       0.540  -2.174  53.688  1.00  0.00    -0.080 C 
ATOM      9  C   UNL     1      -0.297  -2.449  52.466  1.00  0.00     0.039 C 
ENDBRANCH   5   6
ENDBRANCH   4   5
ENDBRANCH   1   4
BRANCH   2  10
ATOM     10  C   UNL     1       0.941   1.848  56.471  1.00  0.00     0.035 C 
BRANCH  10  11
ATOM     11  C   UNL     1      -0.197   1.216  57.284  1.00  0.00     0.079 C 
BRANCH  11  12
ATOM     12  C   UNL     1      -0.221   1.736  58.700  1.00  0.00     0.130 C 
ATOM     13  O   UNL     1      -1.231   1.600  59.375  1.00  0.00    -0.300 OA
ATOM     14  C   UNL     1       0.972   2.417  59.300  1.00  0.00     0.087 C 
ENDBRANCH  11  12
ENDBRANCH  10  11
ENDBRANCH   2  10
TORSDOF 6
ENDMDL
MODEL 8
REMARK VINA RESULT:    -4.416      2.200      6.073
REMARK INTER + INTRA:          -6.758
REMARK INTER:                  -6.070
REMARK INTRA:                  -0.688
REMARK UNBOUND:                -0.793
REMARK SMILES CC(=O)CCC=C(C)CCC=C(C)C
REMARK SMILES IDX 7 1 6 2 8 3 9 4 10 5 11 6 13 7 12 8 14 9 5 10 4 11 2 12 3 13
REMARK SMILES IDX 1 14
REMARK H PARENT
REMARK Flexibility Score: inf
ROOT
ATOM      1  C   UNL     1       2.057   1.243  55.190  1.00  0.00    -0.077 C 
ATOM      2  C   UNL     1       2.595   0.068  55.588  1.00  0.00    -0.028 C 
ATOM      3  C   UNL     1       2.291   1.803  53.806  1.00  0.00     0.039 C 
ENDROOT
BRANCH   1   4
ATOM      4  C   UNL     1       1.175   2.012  56.154  1.00  0.00     0.034 C 
BRANCH   4   5
ATOM      5  C   UNL     1       0.423   1.079  57.112  1.00  0.00     0.032 C 
BRANCH   5   6
ATOM      6  C   UNL     1       0.262   1.694  58.482  1.00  0.00    -0.028 C 
ATOM      7  C   UNL     1       2.208   0.453  59.456  1.00  0.00     0.039 C 
ATOM      8  C   UNL     1       1.073   1.447  59.535  1.00  0.00    -0.080 C 
ATOM      9  C   UNL     1       0.813   2.179  60.826  1.00  0.00     0.039 C 
ENDBRANCH   5   6
ENDBRANCH   4   5
ENDBRANCH   1   4
BRANCH   2  10
ATOM     10  C   UNL     1       3.522  -0.779  54.747  1.00  0.00     0.035 C 
BRANCH  10  11
ATOM     11  C   UNL     1       2.744  -1.724  53.822  1.00  0.00     0.079 C 
BRANCH  11  12
ATOM     12  C   UNL     1       2.648  -3.113  54.402  1.00  0.00     0.130 C 
ATOM     13  O   UNL     1       1.552  -3.641  54.523  1.00  0.00    -0.300 OA
ATOM     14  C   UNL     1       3.873  -3.863  54.834  1.00  0.00     0.087 C 
ENDBRANCH  11  12
ENDBRANCH  10  11
ENDBRANCH   2  10
TORSDOF 6
ENDMDL
MODEL 9
REMARK VINA RESULT:    -4.293      1.989      2.891
REMARK INTER + INTRA:          -6.592
REMARK INTER:                  -5.094
REMARK INTRA:                  -1.498
REMARK UNBOUND:                -0.793
REMARK SMILES CC(=O)CCC=C(C)CCC=C(C)C
REMARK SMILES IDX 7 1 6 2 8 3 9 4 10 5 11 6 13 7 12 8 14 9 5 10 4 11 2 12 3 13
REMARK SMILES IDX 1 14
REMARK H PARENT
REMARK Flexibility Score: inf
ROOT
ATOM      1  C   UNL     1       1.885   0.819  55.788  1.00  0.00    -0.077 C 
ATOM      2  C   UNL     1       2.704   0.059  56.548  1.00  0.00    -0.028 C 
ATOM      3  C   UNL     1       0.513   1.239  56.262  1.00  0.00     0.039 C 
ENDROOT
BRANCH   1   4
ATOM      4  C   UNL     1       2.365   1.283  54.427  1.00  0.00     0.034 C 
BRANCH   4   5
ATOM      5  C   UNL     1       2.876   0.116  53.571  1.00  0.00     0.032 C 
BRANCH   5   6
ATOM      6  C   UNL     1       1.767  -0.844  53.215  1.00  0.00    -0.028 C 
ATOM      7  C   UNL     1       2.902  -2.814  54.267  1.00  0.00     0.039 C 
ATOM      8  C   UNL     1       1.750  -2.154  53.547  1.00  0.00    -0.080 C 
ATOM      9  C   UNL     1       0.546  -2.975  53.163  1.00  0.00     0.039 C 
ENDBRANCH   5   6
ENDBRANCH   4   5
ENDBRANCH   1   4
BRANCH   2  10
ATOM     10  C   UNL     1       2.338  -0.505  57.902  1.00  0.00     0.035 C 
BRANCH  10  11
ATOM     11  C   UNL     1       1.936  -1.983  57.811  1.00  0.00     0.079 C 
BRANCH  11  12
ATOM     12  C   UNL     1       0.440  -2.156  57.877  1.00  0.00     0.130 C 
ATOM     13  O   UNL     1      -0.127  -2.092  58.958  1.00  0.00    -0.300 OA
ATOM     14  C   UNL     1      -0.371  -2.405  56.640  1.00  0.00     0.087 C 
ENDBRANCH  11  12
ENDBRANCH  10  11
ENDBRANCH   2  10
TORSDOF 6
ENDMDL
