MODEL 1
REMARK VINA RESULT:    -5.326      0.000      0.000
REMARK INTER + INTRA:         -13.577
REMARK INTER:                 -11.553
REMARK INTRA:                  -2.024
REMARK UNBOUND:                -2.024
REMARK SMILES CCCCCCCCCCCCCCCCCCCCCC(=O)[O-]
REMARK SMILES IDX 12 1 11 2 10 3 9 4 8 5 7 6 6 7 5 8 4 9 3 10 2 11 1 12 13 13
REMARK SMILES IDX 14 14 15 15 16 16 17 17 18 18 19 19 20 20 21 21 22 22 23 23
REMARK SMILES IDX 24 24
REMARK H PARENT
REMARK Flexibility Score: inf
ROOT
ATOM      1  C   UNL     1      16.653  -5.492  32.240  1.00  0.00     0.000 C 
ENDROOT
BRANCH   1   2
ATOM      2  C   UNL     1      15.898  -5.427  30.903  1.00  0.00     0.000 C 
BRANCH   2   3
ATOM      3  C   UNL     1      16.091  -4.087  30.174  1.00  0.00     0.000 C 
BRANCH   3   4
ATOM      4  C   UNL     1      15.339  -4.028  28.834  1.00  0.00    -0.000 C 
BRANCH   4   5
ATOM      5  C   UNL     1      15.217  -2.597  28.283  1.00  0.00    -0.000 C 
BRANCH   5   6
ATOM      6  C   UNL     1      16.049  -2.355  27.005  1.00  0.00    -0.000 C 
BRANCH   6   7
ATOM      7  C   UNL     1      15.205  -1.743  25.873  1.00  0.00    -0.000 C 
BRANCH   7   8
ATOM      8  C   UNL     1      13.744  -1.492  26.288  1.00  0.00    -0.000 C 
BRANCH   8   9
ATOM      9  C   UNL     1      13.296  -0.018  26.226  1.00  0.00    -0.000 C 
BRANCH   9  10
ATOM     10  C   UNL     1      14.395   1.014  26.549  1.00  0.00    -0.000 C 
BRANCH  10  11
ATOM     11  C   UNL     1      14.741   1.145  28.042  1.00  0.00    -0.003 C 
ATOM     12  C   UNL     1      13.575   0.777  28.959  1.00  0.00     0.004 C 
ENDBRANCH  10  11
ENDBRANCH   9  10
ENDBRANCH   8   9
ENDBRANCH   7   8
ENDBRANCH   6   7
ENDBRANCH   5   6
ENDBRANCH   4   5
ENDBRANCH   3   4
ENDBRANCH   2   3
ENDBRANCH   1   2
BRANCH   1  13
ATOM     13  C   UNL     1      16.248  -6.720  33.084  1.00  0.00     0.000 C 
BRANCH  13  14
ATOM     14  C   UNL     1      17.356  -7.783  33.201  1.00  0.00     0.000 C 
BRANCH  14  15
ATOM     15  C   UNL     1      18.785  -7.218  33.303  1.00  0.00     0.000 C 
BRANCH  15  16
ATOM     16  C   UNL     1      19.406  -7.269  34.714  1.00  0.00     0.000 C 
BRANCH  16  17
ATOM     17  C   UNL     1      18.411  -7.542  35.859  1.00  0.00     0.000 C 
BRANCH  17  18
ATOM     18  C   UNL     1      18.118  -6.337  36.770  1.00  0.00     0.000 C 
BRANCH  18  19
ATOM     19  C   UNL     1      17.116  -5.350  36.151  1.00  0.00     0.000 C 
BRANCH  19  20
ATOM     20  C   UNL     1      17.658  -3.916  36.198  1.00  0.00     0.006 C 
BRANCH  20  21
ATOM     21  C   UNL     1      18.183  -3.480  34.828  1.00  0.00     0.053 C 
BRANCH  21  22
ATOM     22  C   UNL     1      19.217  -2.410  34.979  1.00  0.00     0.041 C 
ATOM     23  O   UNL     1      20.422  -2.649  34.703  1.00  0.00    -0.550 OA
ATOM     24  O   UNL     1      18.857  -1.161  35.469  1.00  0.00    -0.550 OA
ENDBRANCH  21  22
ENDBRANCH  20  21
ENDBRANCH  19  20
ENDBRANCH  18  19
ENDBRANCH  17  18
ENDBRANCH  16  17
ENDBRANCH  15  16
ENDBRANCH  14  15
ENDBRANCH  13  14
ENDBRANCH   1  13
TORSDOF 20
ENDMDL
MODEL 2
REMARK VINA RESULT:    -5.318      3.067      8.809
REMARK INTER + INTRA:         -13.560
REMARK INTER:                 -11.306
REMARK INTRA:                  -2.254
REMARK UNBOUND:                -2.024
REMARK SMILES CCCCCCCCCCCCCCCCCCCCCC(=O)[O-]
REMARK SMILES IDX 12 1 11 2 10 3 9 4 8 5 7 6 6 7 5 8 4 9 3 10 2 11 1 12 13 13
REMARK SMILES IDX 14 14 15 15 16 16 17 17 18 18 19 19 20 20 21 21 22 22 23 23
REMARK SMILES IDX 24 24
REMARK H PARENT
REMARK Flexibility Score: inf
ROOT
ATOM      1  C   UNL     1      15.539  -6.073  33.528  1.00  0.00     0.000 C 
ENDROOT
BRANCH   1   2
ATOM      2  C   UNL     1      16.276  -4.877  34.155  1.00  0.00     0.000 C 
BRANCH   2   3
ATOM      3  C   UNL     1      16.509  -5.047  35.666  1.00  0.00     0.000 C 
BRANCH   3   4
ATOM      4  C   UNL     1      17.826  -4.411  36.136  1.00  0.00    -0.000 C 
BRANCH   4   5
ATOM      5  C   UNL     1      17.884  -2.897  35.870  1.00  0.00    -0.000 C 
BRANCH   5   6
ATOM      6  C   UNL     1      18.991  -2.486  34.875  1.00  0.00    -0.000 C 
BRANCH   6   7
ATOM      7  C   UNL     1      20.179  -3.464  34.896  1.00  0.00    -0.000 C 
BRANCH   7   8
ATOM      8  C   UNL     1      20.595  -3.927  33.488  1.00  0.00    -0.000 C 
BRANCH   8   9
ATOM      9  C   UNL     1      19.584  -4.854  32.784  1.00  0.00    -0.000 C 
BRANCH   9  10
ATOM     10  C   UNL     1      19.995  -6.339  32.718  1.00  0.00    -0.000 C 
BRANCH  10  11
ATOM     11  C   UNL     1      19.076  -7.300  33.491  1.00  0.00    -0.003 C 
ATOM     12  C   UNL     1      19.385  -7.346  34.987  1.00  0.00     0.004 C 
ENDBRANCH  10  11
ENDBRANCH   9  10
ENDBRANCH   8   9
ENDBRANCH   7   8
ENDBRANCH   6   7
ENDBRANCH   5   6
ENDBRANCH   4   5
ENDBRANCH   3   4
ENDBRANCH   2   3
ENDBRANCH   1   2
BRANCH   1  13
ATOM     13  C   UNL     1      16.009  -6.359  32.085  1.00  0.00     0.000 C 
BRANCH  13  14
ATOM     14  C   UNL     1      16.256  -5.089  31.251  1.00  0.00     0.000 C 
BRANCH  14  15
ATOM     15  C   UNL     1      15.664  -5.124  29.830  1.00  0.00     0.000 C 
BRANCH  15  16
ATOM     16  C   UNL     1      15.462  -3.742  29.175  1.00  0.00     0.000 C 
BRANCH  16  17
ATOM     17  C   UNL     1      15.941  -3.632  27.713  1.00  0.00     0.000 C 
BRANCH  17  18
ATOM     18  C   UNL     1      16.149  -2.197  27.201  1.00  0.00     0.000 C 
BRANCH  18  19
ATOM     19  C   UNL     1      14.863  -1.569  26.642  1.00  0.00     0.000 C 
BRANCH  19  20
ATOM     20  C   UNL     1      15.127  -0.155  26.112  1.00  0.00     0.006 C 
BRANCH  20  21
ATOM     21  C   UNL     1      14.707   0.904  27.135  1.00  0.00     0.053 C 
BRANCH  21  22
ATOM     22  C   UNL     1      13.418   0.519  27.788  1.00  0.00     0.041 C 
ATOM     23  O   UNL     1      13.371   0.314  29.029  1.00  0.00    -0.550 OA
ATOM     24  O   UNL     1      12.275   0.341  27.017  1.00  0.00    -0.550 OA
ENDBRANCH  21  22
ENDBRANCH  20  21
ENDBRANCH  19  20
ENDBRANCH  18  19
ENDBRANCH  17  18
ENDBRANCH  16  17
ENDBRANCH  15  16
ENDBRANCH  14  15
ENDBRANCH  13  14
ENDBRANCH   1  13
TORSDOF 20
ENDMDL
MODEL 3
REMARK VINA RESULT:    -5.208      0.918      1.630
REMARK INTER + INTRA:         -13.321
REMARK INTER:                 -11.118
REMARK INTRA:                  -2.204
REMARK UNBOUND:                -2.024
REMARK SMILES CCCCCCCCCCCCCCCCCCCCCC(=O)[O-]
REMARK SMILES IDX 12 1 11 2 10 3 9 4 8 5 7 6 6 7 5 8 4 9 3 10 2 11 1 12 13 13
REMARK SMILES IDX 14 14 15 15 16 16 17 17 18 18 19 19 20 20 21 21 22 22 23 23
REMARK SMILES IDX 24 24
REMARK H PARENT
REMARK Flexibility Score: inf
ROOT
ATOM      1  C   UNL     1      15.866  -5.625  30.910  1.00  0.00     0.000 C 
ENDROOT
BRANCH   1   2
ATOM      2  C   UNL     1      16.006  -4.226  30.287  1.00  0.00     0.000 C 
BRANCH   2   3
ATOM      3  C   UNL     1      15.379  -4.132  28.885  1.00  0.00     0.000 C 
BRANCH   3   4
ATOM      4  C   UNL     1      15.308  -2.688  28.364  1.00  0.00    -0.000 C 
BRANCH   4   5
ATOM      5  C   UNL     1      16.072  -2.494  27.043  1.00  0.00    -0.000 C 
BRANCH   5   6
ATOM      6  C   UNL     1      15.329  -1.603  26.024  1.00  0.00    -0.000 C 
BRANCH   6   7
ATOM      7  C   UNL     1      13.801  -1.744  26.141  1.00  0.00    -0.000 C 
BRANCH   7   8
ATOM      8  C   UNL     1      13.113  -0.435  26.567  1.00  0.00    -0.000 C 
BRANCH   8   9
ATOM      9  C   UNL     1      14.026   0.807  26.571  1.00  0.00    -0.000 C 
BRANCH   9  10
ATOM     10  C   UNL     1      14.477   1.283  27.968  1.00  0.00    -0.000 C 
BRANCH  10  11
ATOM     11  C   UNL     1      13.512   0.935  29.113  1.00  0.00    -0.003 C 
ATOM     12  C   UNL     1      14.171   0.110  30.218  1.00  0.00     0.004 C 
ENDBRANCH  10  11
ENDBRANCH   9  10
ENDBRANCH   8   9
ENDBRANCH   7   8
ENDBRANCH   6   7
ENDBRANCH   5   6
ENDBRANCH   4   5
ENDBRANCH   3   4
ENDBRANCH   2   3
ENDBRANCH   1   2
BRANCH   1  13
ATOM     13  C   UNL     1      16.551  -5.723  32.290  1.00  0.00     0.000 C 
BRANCH  13  14
ATOM     14  C   UNL     1      15.872  -6.720  33.247  1.00  0.00     0.000 C 
BRANCH  14  15
ATOM     15  C   UNL     1      16.842  -7.607  34.050  1.00  0.00     0.000 C 
BRANCH  15  16
ATOM     16  C   UNL     1      18.337  -7.281  33.854  1.00  0.00     0.000 C 
BRANCH  16  17
ATOM     17  C   UNL     1      19.113  -6.959  35.147  1.00  0.00     0.000 C 
BRANCH  17  18
ATOM     18  C   UNL     1      18.244  -6.789  36.405  1.00  0.00     0.000 C 
BRANCH  18  19
ATOM     19  C   UNL     1      18.223  -5.344  36.926  1.00  0.00     0.000 C 
BRANCH  19  20
ATOM     20  C   UNL     1      17.511  -4.414  35.937  1.00  0.00     0.006 C 
BRANCH  20  21
ATOM     21  C   UNL     1      18.415  -3.246  35.531  1.00  0.00     0.053 C 
BRANCH  21  22
ATOM     22  C   UNL     1      18.609  -3.225  34.048  1.00  0.00     0.041 C 
ATOM     23  O   UNL     1      17.784  -2.626  33.308  1.00  0.00    -0.550 OA
ATOM     24  O   UNL     1      19.678  -3.906  33.478  1.00  0.00    -0.550 OA
ENDBRANCH  21  22
ENDBRANCH  20  21
ENDBRANCH  19  20
ENDBRANCH  18  19
ENDBRANCH  17  18
ENDBRANCH  16  17
ENDBRANCH  15  16
ENDBRANCH  14  15
ENDBRANCH  13  14
ENDBRANCH   1  13
TORSDOF 20
ENDMDL
MODEL 4
REMARK VINA RESULT:    -5.190      9.003     16.202
REMARK INTER + INTRA:         -13.281
REMARK INTER:                 -11.071
REMARK INTRA:                  -2.210
REMARK UNBOUND:                -2.024
REMARK SMILES CCCCCCCCCCCCCCCCCCCCCC(=O)[O-]
REMARK SMILES IDX 12 1 11 2 10 3 9 4 8 5 7 6 6 7 5 8 4 9 3 10 2 11 1 12 13 13
REMARK SMILES IDX 14 14 15 15 16 16 17 17 18 18 19 19 20 20 21 21 22 22 23 23
REMARK SMILES IDX 24 24
REMARK H PARENT
REMARK Flexibility Score: inf
ROOT
ATOM      1  C   UNL     1      12.150   6.433  21.508  1.00  0.00     0.000 C 
ENDROOT
BRANCH   1   2
ATOM      2  C   UNL     1      12.299   5.017  22.088  1.00  0.00     0.000 C 
BRANCH   2   3
ATOM      3  C   UNL     1      13.349   4.940  23.209  1.00  0.00     0.000 C 
BRANCH   3   4
ATOM      4  C   UNL     1      13.168   3.704  24.105  1.00  0.00    -0.000 C 
BRANCH   4   5
ATOM      5  C   UNL     1      14.507   3.110  24.575  1.00  0.00    -0.000 C 
BRANCH   5   6
ATOM      6  C   UNL     1      14.418   1.618  24.964  1.00  0.00    -0.000 C 
BRANCH   6   7
ATOM      7  C   UNL     1      12.961   1.151  25.132  1.00  0.00    -0.000 C 
BRANCH   7   8
ATOM      8  C   UNL     1      12.819  -0.008  26.136  1.00  0.00    -0.000 C 
BRANCH   8   9
ATOM      9  C   UNL     1      14.121  -0.781  26.423  1.00  0.00    -0.000 C 
BRANCH   9  10
ATOM     10  C   UNL     1      14.699  -0.587  27.840  1.00  0.00    -0.000 C 
BRANCH  10  11
ATOM     11  C   UNL     1      14.314   0.738  28.520  1.00  0.00    -0.003 C 
ATOM     12  C   UNL     1      13.403   0.543  29.732  1.00  0.00     0.004 C 
ENDBRANCH  10  11
ENDBRANCH   9  10
ENDBRANCH   8   9
ENDBRANCH   7   8
ENDBRANCH   6   7
ENDBRANCH   5   6
ENDBRANCH   4   5
ENDBRANCH   3   4
ENDBRANCH   2   3
ENDBRANCH   1   2
BRANCH   1  13
ATOM     13  C   UNL     1      10.672   6.851  21.353  1.00  0.00     0.000 C 
BRANCH  13  14
ATOM     14  C   UNL     1      10.403   7.727  20.116  1.00  0.00     0.000 C 
BRANCH  14  15
ATOM     15  C   UNL     1      11.274   7.396  18.889  1.00  0.00     0.000 C 
BRANCH  15  16
ATOM     16  C   UNL     1      10.494   6.923  17.645  1.00  0.00     0.000 C 
BRANCH  16  17
ATOM     17  C   UNL     1       8.961   7.063  17.740  1.00  0.00     0.000 C 
BRANCH  17  18
ATOM     18  C   UNL     1       8.185   5.735  17.762  1.00  0.00     0.000 C 
BRANCH  18  19
ATOM     19  C   UNL     1       8.252   5.026  19.124  1.00  0.00     0.000 C 
BRANCH  19  20
ATOM     20  C   UNL     1       8.866   3.628  18.986  1.00  0.00     0.006 C 
BRANCH  20  21
ATOM     21  C   UNL     1      10.306   3.605  19.506  1.00  0.00     0.053 C 
BRANCH  21  22
ATOM     22  C   UNL     1      11.272   3.499  18.369  1.00  0.00     0.041 C 
ATOM     23  O   UNL     1      11.000   2.783  17.370  1.00  0.00    -0.550 OA
ATOM     24  O   UNL     1      12.495   4.157  18.433  1.00  0.00    -0.550 OA
ENDBRANCH  21  22
ENDBRANCH  20  21
ENDBRANCH  19  20
ENDBRANCH  18  19
ENDBRANCH  17  18
ENDBRANCH  16  17
ENDBRANCH  15  16
ENDBRANCH  14  15
ENDBRANCH  13  14
ENDBRANCH   1  13
TORSDOF 20
ENDMDL
MODEL 5
REMARK VINA RESULT:    -5.183      9.438     16.649
REMARK INTER + INTRA:         -13.268
REMARK INTER:                 -11.243
REMARK INTRA:                  -2.025
REMARK UNBOUND:                -2.024
REMARK SMILES CCCCCCCCCCCCCCCCCCCCCC(=O)[O-]
REMARK SMILES IDX 12 1 11 2 10 3 9 4 8 5 7 6 6 7 5 8 4 9 3 10 2 11 1 12 13 13
REMARK SMILES IDX 14 14 15 15 16 16 17 17 18 18 19 19 20 20 21 21 22 22 23 23
REMARK SMILES IDX 24 24
REMARK H PARENT
REMARK Flexibility Score: inf
ROOT
ATOM      1  C   UNL     1      11.727   4.689  20.346  1.00  0.00     0.000 C 
ENDROOT
BRANCH   1   2
ATOM      2  C   UNL     1      11.717   5.944  21.234  1.00  0.00     0.000 C 
BRANCH   2   3
ATOM      3  C   UNL     1      12.633   5.813  22.463  1.00  0.00     0.000 C 
BRANCH   3   4
ATOM      4  C   UNL     1      12.918   4.349  22.833  1.00  0.00    -0.000 C 
BRANCH   4   5
ATOM      5  C   UNL     1      13.677   4.210  24.164  1.00  0.00    -0.000 C 
BRANCH   5   6
ATOM      6  C   UNL     1      13.751   2.758  24.685  1.00  0.00    -0.000 C 
BRANCH   6   7
ATOM      7  C   UNL     1      15.200   2.251  24.782  1.00  0.00    -0.000 C 
BRANCH   7   8
ATOM      8  C   UNL     1      15.325   0.956  25.604  1.00  0.00    -0.000 C 
BRANCH   8   9
ATOM      9  C   UNL     1      14.958   1.095  27.094  1.00  0.00    -0.000 C 
BRANCH   9  10
ATOM     10  C   UNL     1      13.987   0.024  27.633  1.00  0.00    -0.000 C 
BRANCH  10  11
ATOM     11  C   UNL     1      13.096  -0.636  26.567  1.00  0.00    -0.003 C 
ATOM     12  C   UNL     1      11.762   0.085  26.376  1.00  0.00     0.004 C 
ENDBRANCH  10  11
ENDBRANCH   9  10
ENDBRANCH   8   9
ENDBRANCH   7   8
ENDBRANCH   6   7
ENDBRANCH   5   6
ENDBRANCH   4   5
ENDBRANCH   3   4
ENDBRANCH   2   3
ENDBRANCH   1   2
BRANCH   1  13
ATOM     13  C   UNL     1      12.100   5.008  18.882  1.00  0.00     0.000 C 
BRANCH  13  14
ATOM     14  C   UNL     1      12.368   6.502  18.625  1.00  0.00     0.000 C 
BRANCH  14  15
ATOM     15  C   UNL     1      11.299   7.212  17.772  1.00  0.00     0.000 C 
BRANCH  15  16
ATOM     16  C   UNL     1       9.961   7.475  18.492  1.00  0.00     0.000 C 
BRANCH  16  17
ATOM     17  C   UNL     1       8.702   7.321  17.615  1.00  0.00     0.000 C 
BRANCH  17  18
ATOM     18  C   UNL     1       8.072   5.918  17.618  1.00  0.00     0.000 C 
BRANCH  18  19
ATOM     19  C   UNL     1       8.436   5.102  18.868  1.00  0.00     0.000 C 
BRANCH  19  20
ATOM     20  C   UNL     1       8.010   3.638  18.711  1.00  0.00     0.006 C 
BRANCH  20  21
ATOM     21  C   UNL     1       9.228   2.724  18.553  1.00  0.00     0.053 C 
BRANCH  21  22
ATOM     22  C   UNL     1       8.799   1.338  18.187  1.00  0.00     0.041 C 
ATOM     23  O   UNL     1       9.172   0.824  17.100  1.00  0.00    -0.550 OA
ATOM     24  O   UNL     1       7.949   0.630  19.028  1.00  0.00    -0.550 OA
ENDBRANCH  21  22
ENDBRANCH  20  21
ENDBRANCH  19  20
ENDBRANCH  18  19
ENDBRANCH  17  18
ENDBRANCH  16  17
ENDBRANCH  15  16
ENDBRANCH  14  15
ENDBRANCH  13  14
ENDBRANCH   1  13
TORSDOF 20
ENDMDL
MODEL 6
REMARK VINA RESULT:    -5.148      3.525      9.176
REMARK INTER + INTRA:         -13.192
REMARK INTER:                 -11.084
REMARK INTRA:                  -2.108
REMARK UNBOUND:                -2.024
REMARK SMILES CCCCCCCCCCCCCCCCCCCCCC(=O)[O-]
REMARK SMILES IDX 12 1 11 2 10 3 9 4 8 5 7 6 6 7 5 8 4 9 3 10 2 11 1 12 13 13
REMARK SMILES IDX 14 14 15 15 16 16 17 17 18 18 19 19 20 20 21 21 22 22 23 23
REMARK SMILES IDX 24 24
REMARK H PARENT
REMARK Flexibility Score: inf
ROOT
ATOM      1  C   UNL     1      15.861  -6.303  32.900  1.00  0.00     0.000 C 
ENDROOT
BRANCH   1   2
ATOM      2  C   UNL     1      16.554  -7.493  33.584  1.00  0.00     0.000 C 
BRANCH   2   3
ATOM      3  C   UNL     1      17.888  -7.868  32.917  1.00  0.00     0.000 C 
BRANCH   3   4
ATOM      4  C   UNL     1      19.083  -7.109  33.515  1.00  0.00    -0.000 C 
BRANCH   4   5
ATOM      5  C   UNL     1      19.283  -7.400  35.012  1.00  0.00    -0.000 C 
BRANCH   5   6
ATOM      6  C   UNL     1      19.307  -6.130  35.890  1.00  0.00    -0.000 C 
BRANCH   6   7
ATOM      7  C   UNL     1      17.935  -5.838  36.522  1.00  0.00    -0.000 C 
BRANCH   7   8
ATOM      8  C   UNL     1      17.317  -4.520  36.021  1.00  0.00    -0.000 C 
BRANCH   8   9
ATOM      9  C   UNL     1      17.975  -3.934  34.756  1.00  0.00    -0.000 C 
BRANCH   9  10
ATOM     10  C   UNL     1      18.690  -2.582  34.957  1.00  0.00    -0.000 C 
BRANCH  10  11
ATOM     11  C   UNL     1      20.224  -2.642  34.870  1.00  0.00    -0.003 C 
ATOM     12  C   UNL     1      20.722  -3.502  33.708  1.00  0.00     0.004 C 
ENDBRANCH  10  11
ENDBRANCH   9  10
ENDBRANCH   8   9
ENDBRANCH   7   8
ENDBRANCH   6   7
ENDBRANCH   5   6
ENDBRANCH   4   5
ENDBRANCH   3   4
ENDBRANCH   2   3
ENDBRANCH   1   2
BRANCH   1  13
ATOM     13  C   UNL     1      16.101  -6.281  31.375  1.00  0.00     0.000 C 
BRANCH  13  14
ATOM     14  C   UNL     1      16.158  -4.863  30.778  1.00  0.00     0.000 C 
BRANCH  14  15
ATOM     15  C   UNL     1      15.390  -4.687  29.455  1.00  0.00     0.000 C 
BRANCH  15  16
ATOM     16  C   UNL     1      16.014  -3.678  28.469  1.00  0.00     0.000 C 
BRANCH  16  17
ATOM     17  C   UNL     1      15.195  -2.392  28.241  1.00  0.00     0.000 C 
BRANCH  17  18
ATOM     18  C   UNL     1      15.277  -1.810  26.819  1.00  0.00     0.000 C 
BRANCH  18  19
ATOM     19  C   UNL     1      13.915  -1.339  26.286  1.00  0.00     0.000 C 
BRANCH  19  20
ATOM     20  C   UNL     1      13.493  -0.022  26.947  1.00  0.00     0.006 C 
BRANCH  20  21
ATOM     21  C   UNL     1      14.606   1.025  26.849  1.00  0.00     0.053 C 
BRANCH  21  22
ATOM     22  C   UNL     1      14.646   1.619  25.477  1.00  0.00     0.041 C 
ATOM     23  O   UNL     1      13.577   1.923  24.885  1.00  0.00    -0.550 OA
ATOM     24  O   UNL     1      15.864   1.796  24.832  1.00  0.00    -0.550 OA
ENDBRANCH  21  22
ENDBRANCH  20  21
ENDBRANCH  19  20
ENDBRANCH  18  19
ENDBRANCH  17  18
ENDBRANCH  16  17
ENDBRANCH  15  16
ENDBRANCH  14  15
ENDBRANCH  13  14
ENDBRANCH   1  13
TORSDOF 20
ENDMDL
MODEL 7
REMARK VINA RESULT:    -5.130      3.780      9.183
REMARK INTER + INTRA:         -13.151
REMARK INTER:                 -10.986
REMARK INTRA:                  -2.166
REMARK UNBOUND:                -2.024
REMARK SMILES CCCCCCCCCCCCCCCCCCCCCC(=O)[O-]
REMARK SMILES IDX 12 1 11 2 10 3 9 4 8 5 7 6 6 7 5 8 4 9 3 10 2 11 1 12 13 13
REMARK SMILES IDX 14 14 15 15 16 16 17 17 18 18 19 19 20 20 21 21 22 22 23 23
REMARK SMILES IDX 24 24
REMARK H PARENT
REMARK Flexibility Score: inf
ROOT
ATOM      1  C   UNL     1      16.173  -6.571  32.324  1.00  0.00     0.000 C 
ENDROOT
BRANCH   1   2
ATOM      2  C   UNL     1      15.532  -6.363  33.706  1.00  0.00     0.000 C 
BRANCH   2   3
ATOM      3  C   UNL     1      15.945  -5.035  34.362  1.00  0.00     0.000 C 
BRANCH   3   4
ATOM      4  C   UNL     1      16.194  -5.173  35.872  1.00  0.00    -0.000 C 
BRANCH   4   5
ATOM      5  C   UNL     1      17.667  -5.466  36.207  1.00  0.00    -0.000 C 
BRANCH   5   6
ATOM      6  C   UNL     1      18.163  -6.826  35.670  1.00  0.00    -0.000 C 
BRANCH   6   7
ATOM      7  C   UNL     1      19.556  -6.719  35.024  1.00  0.00    -0.000 C 
BRANCH   7   8
ATOM      8  C   UNL     1      19.491  -6.439  33.511  1.00  0.00    -0.000 C 
BRANCH   8   9
ATOM      9  C   UNL     1      20.068  -5.077  33.078  1.00  0.00    -0.000 C 
BRANCH   9  10
ATOM     10  C   UNL     1      19.293  -3.845  33.590  1.00  0.00    -0.000 C 
BRANCH  10  11
ATOM     11  C   UNL     1      20.005  -3.045  34.694  1.00  0.00    -0.003 C 
ATOM     12  C   UNL     1      19.200  -1.834  35.165  1.00  0.00     0.004 C 
ENDBRANCH  10  11
ENDBRANCH   9  10
ENDBRANCH   8   9
ENDBRANCH   7   8
ENDBRANCH   6   7
ENDBRANCH   5   6
ENDBRANCH   4   5
ENDBRANCH   3   4
ENDBRANCH   2   3
ENDBRANCH   1   2
BRANCH   1  13
ATOM     13  C   UNL     1      16.450  -5.235  31.599  1.00  0.00     0.000 C 
BRANCH  13  14
ATOM     14  C   UNL     1      15.849  -5.165  30.183  1.00  0.00     0.000 C 
BRANCH  14  15
ATOM     15  C   UNL     1      15.727  -3.744  29.603  1.00  0.00     0.000 C 
BRANCH  15  16
ATOM     16  C   UNL     1      15.381  -3.681  28.101  1.00  0.00     0.000 C 
BRANCH  16  17
ATOM     17  C   UNL     1      16.065  -2.543  27.317  1.00  0.00     0.000 C 
BRANCH  17  18
ATOM     18  C   UNL     1      15.136  -1.394  26.891  1.00  0.00     0.000 C 
BRANCH  18  19
ATOM     19  C   UNL     1      14.755  -0.469  28.057  1.00  0.00     0.000 C 
BRANCH  19  20
ATOM     20  C   UNL     1      13.413   0.223  27.793  1.00  0.00     0.006 C 
BRANCH  20  21
ATOM     21  C   UNL     1      12.701  -0.397  26.587  1.00  0.00     0.053 C 
BRANCH  21  22
ATOM     22  C   UNL     1      12.488   0.629  25.520  1.00  0.00     0.041 C 
ATOM     23  O   UNL     1      11.362   0.748  24.969  1.00  0.00    -0.550 OA
ATOM     24  O   UNL     1      13.547   1.425  25.101  1.00  0.00    -0.550 OA
ENDBRANCH  21  22
ENDBRANCH  20  21
ENDBRANCH  19  20
ENDBRANCH  18  19
ENDBRANCH  17  18
ENDBRANCH  16  17
ENDBRANCH  15  16
ENDBRANCH  14  15
ENDBRANCH  13  14
ENDBRANCH   1  13
TORSDOF 20
ENDMDL
MODEL 8
REMARK VINA RESULT:    -5.094      9.252     16.072
REMARK INTER + INTRA:         -13.074
REMARK INTER:                 -11.029
REMARK INTRA:                  -2.045
REMARK UNBOUND:                -2.024
REMARK SMILES CCCCCCCCCCCCCCCCCCCCCC(=O)[O-]
REMARK SMILES IDX 12 1 11 2 10 3 9 4 8 5 7 6 6 7 5 8 4 9 3 10 2 11 1 12 13 13
REMARK SMILES IDX 14 14 15 15 16 16 17 17 18 18 19 19 20 20 21 21 22 22 23 23
REMARK SMILES IDX 24 24
REMARK H PARENT
REMARK Flexibility Score: inf
ROOT
ATOM      1  C   UNL     1      12.535   5.890  22.390  1.00  0.00     0.000 C 
ENDROOT
BRANCH   1   2
ATOM      2  C   UNL     1      12.886   4.452  22.808  1.00  0.00     0.000 C 
BRANCH   2   3
ATOM      3  C   UNL     1      13.665   4.391  24.133  1.00  0.00     0.000 C 
BRANCH   3   4
ATOM      4  C   UNL     1      13.695   2.978  24.736  1.00  0.00    -0.000 C 
BRANCH   4   5
ATOM      5  C   UNL     1      15.026   2.250  24.479  1.00  0.00    -0.000 C 
BRANCH   5   6
ATOM      6  C   UNL     1      15.550   1.470  25.705  1.00  0.00    -0.000 C 
BRANCH   6   7
ATOM      7  C   UNL     1      14.812   1.860  26.997  1.00  0.00    -0.000 C 
BRANCH   7   8
ATOM      8  C   UNL     1      14.123   0.662  27.675  1.00  0.00    -0.000 C 
BRANCH   8   9
ATOM      9  C   UNL     1      13.179  -0.146  26.762  1.00  0.00    -0.000 C 
BRANCH   9  10
ATOM     10  C   UNL     1      13.749  -1.486  26.253  1.00  0.00    -0.000 C 
BRANCH  10  11
ATOM     11  C   UNL     1      14.862  -2.089  27.126  1.00  0.00    -0.003 C 
ATOM     12  C   UNL     1      16.186  -2.247  26.380  1.00  0.00     0.004 C 
ENDBRANCH  10  11
ENDBRANCH   9  10
ENDBRANCH   8   9
ENDBRANCH   7   8
ENDBRANCH   6   7
ENDBRANCH   5   6
ENDBRANCH   4   5
ENDBRANCH   3   4
ENDBRANCH   2   3
ENDBRANCH   1   2
BRANCH   1  13
ATOM     13  C   UNL     1      11.580   5.931  21.177  1.00  0.00     0.000 C 
BRANCH  13  14
ATOM     14  C   UNL     1      11.392   4.566  20.491  1.00  0.00     0.000 C 
BRANCH  14  15
ATOM     15  C   UNL     1      11.811   4.524  19.010  1.00  0.00     0.000 C 
BRANCH  15  16
ATOM     16  C   UNL     1      11.315   3.290  18.228  1.00  0.00     0.000 C 
BRANCH  16  17
ATOM     17  C   UNL     1       9.937   2.750  18.661  1.00  0.00     0.000 C 
BRANCH  17  18
ATOM     18  C   UNL     1       8.729   3.518  18.099  1.00  0.00     0.000 C 
BRANCH  18  19
ATOM     19  C   UNL     1       8.007   4.358  19.164  1.00  0.00     0.000 C 
BRANCH  19  20
ATOM     20  C   UNL     1       8.338   5.846  19.008  1.00  0.00     0.006 C 
BRANCH  20  21
ATOM     21  C   UNL     1       8.573   6.207  17.539  1.00  0.00     0.053 C 
BRANCH  21  22
ATOM     22  C   UNL     1       9.292   7.514  17.429  1.00  0.00     0.041 C 
ATOM     23  O   UNL     1      10.548   7.555  17.501  1.00  0.00    -0.550 OA
ATOM     24  O   UNL     1       8.571   8.694  17.291  1.00  0.00    -0.550 OA
ENDBRANCH  21  22
ENDBRANCH  20  21
ENDBRANCH  19  20
ENDBRANCH  18  19
ENDBRANCH  17  18
ENDBRANCH  16  17
ENDBRANCH  15  16
ENDBRANCH  14  15
ENDBRANCH  13  14
ENDBRANCH   1  13
TORSDOF 20
ENDMDL
MODEL 9
REMARK VINA RESULT:    -5.068      7.498     12.957
REMARK INTER + INTRA:         -13.017
REMARK INTER:                 -10.763
REMARK INTRA:                  -2.254
REMARK UNBOUND:                -2.024
REMARK SMILES CCCCCCCCCCCCCCCCCCCCCC(=O)[O-]
REMARK SMILES IDX 12 1 11 2 10 3 9 4 8 5 7 6 6 7 5 8 4 9 3 10 2 11 1 12 13 13
REMARK SMILES IDX 14 14 15 15 16 16 17 17 18 18 19 19 20 20 21 21 22 22 23 23
REMARK SMILES IDX 24 24
REMARK H PARENT
REMARK Flexibility Score: inf
ROOT
ATOM      1  C   UNL     1      12.150   6.055  21.674  1.00  0.00     0.000 C 
ENDROOT
BRANCH   1   2
ATOM      2  C   UNL     1      10.636   6.195  21.444  1.00  0.00     0.000 C 
BRANCH   2   3
ATOM      3  C   UNL     1      10.281   7.360  20.504  1.00  0.00     0.000 C 
BRANCH   3   4
ATOM      4  C   UNL     1      11.216   7.444  19.287  1.00  0.00    -0.000 C 
BRANCH   4   5
ATOM      5  C   UNL     1      10.490   7.169  17.959  1.00  0.00    -0.000 C 
BRANCH   5   6
ATOM      6  C   UNL     1       8.951   7.193  18.080  1.00  0.00    -0.000 C 
BRANCH   6   7
ATOM      7  C   UNL     1       8.322   5.838  17.714  1.00  0.00    -0.000 C 
BRANCH   7   8
ATOM      8  C   UNL     1       8.087   4.939  18.941  1.00  0.00    -0.000 C 
BRANCH   8   9
ATOM      9  C   UNL     1       8.675   3.518  18.827  1.00  0.00    -0.000 C 
BRANCH   9  10
ATOM     10  C   UNL     1      10.147   3.382  19.266  1.00  0.00    -0.000 C 
BRANCH  10  11
ATOM     11  C   UNL     1      11.172   3.430  18.121  1.00  0.00    -0.003 C 
ATOM     12  C   UNL     1      12.422   4.236  18.472  1.00  0.00     0.004 C 
ENDBRANCH  10  11
ENDBRANCH   9  10
ENDBRANCH   8   9
ENDBRANCH   7   8
ENDBRANCH   6   7
ENDBRANCH   5   6
ENDBRANCH   4   5
ENDBRANCH   3   4
ENDBRANCH   2   3
ENDBRANCH   1   2
BRANCH   1  13
ATOM     13  C   UNL     1      12.519   4.720  22.357  1.00  0.00     0.000 C 
BRANCH  13  14
ATOM     14  C   UNL     1      13.450   4.884  23.571  1.00  0.00     0.000 C 
BRANCH  14  15
ATOM     15  C   UNL     1      13.709   3.590  24.366  1.00  0.00     0.000 C 
BRANCH  15  16
ATOM     16  C   UNL     1      15.076   2.926  24.102  1.00  0.00     0.000 C 
BRANCH  16  17
ATOM     17  C   UNL     1      15.538   1.924  25.180  1.00  0.00     0.000 C 
BRANCH  17  18
ATOM     18  C   UNL     1      14.510   0.840  25.546  1.00  0.00     0.000 C 
BRANCH  18  19
ATOM     19  C   UNL     1      15.144  -0.375  26.240  1.00  0.00     0.000 C 
BRANCH  19  20
ATOM     20  C   UNL     1      14.210  -0.941  27.316  1.00  0.00     0.006 C 
BRANCH  20  21
ATOM     21  C   UNL     1      14.879  -0.920  28.693  1.00  0.00     0.053 C 
BRANCH  21  22
ATOM     22  C   UNL     1      14.234   0.104  29.573  1.00  0.00     0.041 C 
ATOM     23  O   UNL     1      13.502   0.999  29.074  1.00  0.00    -0.550 OA
ATOM     24  O   UNL     1      14.479   0.097  30.941  1.00  0.00    -0.550 OA
ENDBRANCH  21  22
ENDBRANCH  20  21
ENDBRANCH  19  20
ENDBRANCH  18  19
ENDBRANCH  17  18
ENDBRANCH  16  17
ENDBRANCH  15  16
ENDBRANCH  14  15
ENDBRANCH  13  14
ENDBRANCH   1  13
TORSDOF 20
ENDMDL
