MODEL 1
REMARK VINA RESULT:    -2.394      0.000      0.000
REMARK INTER + INTRA:          -6.328
REMARK INTER:                  -4.494
REMARK INTRA:                  -1.835
REMARK UNBOUND:                -1.835
REMARK SMILES CCCCCC=CCC=CCCCCCCCC(=O)OC
REMARK SMILES IDX 11 1 10 2 9 3 8 4 7 5 6 6 5 7 4 8 3 9 2 10 1 11 12 12 13 13
REMARK SMILES IDX 14 14 15 15 16 16 17 17 18 18 19 19 20 20 21 21
REMARK H PARENT
REMARK Flexibility Score: inf
ROOT
ATOM      1  C   UNL     1      21.226  55.216  52.465  1.00  0.00     0.027 C 
ENDROOT
BRANCH   1   2
ATOM      2  C   UNL     1      20.615  54.773  53.767  1.00  0.00    -0.031 C 
ATOM      3  C   UNL     1      19.844  53.677  53.850  1.00  0.00    -0.027 C 
BRANCH   3   4
ATOM      4  C   UNL     1      19.282  53.215  55.165  1.00  0.00     0.054 C 
BRANCH   4   5
ATOM      5  C   UNL     1      20.309  52.456  55.960  1.00  0.00    -0.027 C 
ATOM      6  C   UNL     1      21.152  51.609  55.353  1.00  0.00    -0.031 C 
BRANCH   6   7
ATOM      7  C   UNL     1      22.193  50.841  56.125  1.00  0.00     0.027 C 
BRANCH   7   8
ATOM      8  C   UNL     1      23.624  51.237  55.733  1.00  0.00     0.004 C 
BRANCH   8   9
ATOM      9  C   UNL     1      23.727  52.714  55.325  1.00  0.00     0.000 C 
BRANCH   9  10
ATOM     10  C   UNL     1      24.125  52.849  53.851  1.00  0.00    -0.003 C 
ATOM     11  C   UNL     1      23.854  51.557  53.086  1.00  0.00     0.004 C 
ENDBRANCH   9  10
ENDBRANCH   8   9
ENDBRANCH   7   8
ENDBRANCH   6   7
ENDBRANCH   4   5
ENDBRANCH   3   4
ENDBRANCH   1   2
BRANCH   1  12
ATOM     12  C   UNL     1      22.564  55.933  52.688  1.00  0.00     0.004 C 
BRANCH  12  13
ATOM     13  C   UNL     1      23.486  55.829  51.464  1.00  0.00     0.000 C 
BRANCH  13  14
ATOM     14  C   UNL     1      22.692  55.458  50.206  1.00  0.00     0.000 C 
BRANCH  14  15
ATOM     15  C   UNL     1      23.555  54.642  49.232  1.00  0.00     0.001 C 
BRANCH  15  16
ATOM     16  C   UNL     1      22.781  53.489  48.574  1.00  0.00     0.012 C 
BRANCH  16  17
ATOM     17  C   UNL     1      23.505  52.143  48.698  1.00  0.00     0.123 C 
BRANCH  17  18
ATOM     18  C   UNL     1      22.679  51.179  49.489  1.00  0.00     0.305 C 
ATOM     19  O   UNL     1      23.147  50.043  49.778  1.00  0.00    -0.252 OA
BRANCH  18  20
ATOM     20  O   UNL     1      21.378  51.530  49.859  1.00  0.00    -0.469 OA
ATOM     21  C   UNL     1      20.986  51.704  51.216  1.00  0.00     0.282 C 
ENDBRANCH  18  20
ENDBRANCH  17  18
ENDBRANCH  16  17
ENDBRANCH  15  16
ENDBRANCH  14  15
ENDBRANCH  13  14
ENDBRANCH  12  13
ENDBRANCH   1  12
TORSDOF 15
ENDMDL
MODEL 2
REMARK VINA RESULT:    -2.373      1.677      3.672
REMARK INTER + INTRA:          -6.288
REMARK INTER:                  -4.709
REMARK INTRA:                  -1.579
REMARK UNBOUND:                -1.835
REMARK SMILES CCCCCC=CCC=CCCCCCCCC(=O)OC
REMARK SMILES IDX 11 1 10 2 9 3 8 4 7 5 6 6 5 7 4 8 3 9 2 10 1 11 12 12 13 13
REMARK SMILES IDX 14 14 15 15 16 16 17 17 18 18 19 19 20 20 21 21
REMARK H PARENT
REMARK Flexibility Score: inf
ROOT
ATOM      1  C   UNL     1      22.027  51.237  52.047  1.00  0.00     0.027 C 
ENDROOT
BRANCH   1   2
ATOM      2  C   UNL     1      21.565  51.496  53.455  1.00  0.00    -0.031 C 
ATOM      3  C   UNL     1      22.139  50.899  54.510  1.00  0.00    -0.027 C 
BRANCH   3   4
ATOM      4  C   UNL     1      21.703  51.206  55.916  1.00  0.00     0.054 C 
BRANCH   4   5
ATOM      5  C   UNL     1      21.542  52.686  56.125  1.00  0.00    -0.027 C 
ATOM      6  C   UNL     1      22.543  53.530  55.837  1.00  0.00    -0.031 C 
BRANCH   6   7
ATOM      7  C   UNL     1      22.405  55.016  56.033  1.00  0.00     0.027 C 
BRANCH   7   8
ATOM      8  C   UNL     1      21.636  55.690  54.886  1.00  0.00     0.004 C 
BRANCH   8   9
ATOM      9  C   UNL     1      20.125  55.751  55.156  1.00  0.00     0.000 C 
BRANCH   9  10
ATOM     10  C   UNL     1      19.362  54.811  54.217  1.00  0.00    -0.003 C 
ATOM     11  C   UNL     1      18.524  53.806  55.003  1.00  0.00     0.004 C 
ENDBRANCH   9  10
ENDBRANCH   8   9
ENDBRANCH   7   8
ENDBRANCH   6   7
ENDBRANCH   4   5
ENDBRANCH   3   4
ENDBRANCH   1   2
BRANCH   1  12
ATOM     12  C   UNL     1      23.495  51.641  51.854  1.00  0.00     0.004 C 
BRANCH  12  13
ATOM     13  C   UNL     1      23.871  52.871  52.694  1.00  0.00     0.000 C 
BRANCH  13  14
ATOM     14  C   UNL     1      23.910  54.136  51.830  1.00  0.00     0.000 C 
BRANCH  14  15
ATOM     15  C   UNL     1      22.491  54.589  51.452  1.00  0.00     0.001 C 
BRANCH  15  16
ATOM     16  C   UNL     1      22.309  54.773  49.938  1.00  0.00     0.012 C 
BRANCH  16  17
ATOM     17  C   UNL     1      22.952  53.644  49.122  1.00  0.00     0.123 C 
BRANCH  17  18
ATOM     18  C   UNL     1      21.898  52.762  48.533  1.00  0.00     0.305 C 
ATOM     19  O   UNL     1      21.024  52.245  49.282  1.00  0.00    -0.252 OA
BRANCH  18  20
ATOM     20  O   UNL     1      21.920  52.482  47.163  1.00  0.00    -0.469 OA
ATOM     21  C   UNL     1      20.758  52.553  46.346  1.00  0.00     0.282 C 
ENDBRANCH  18  20
ENDBRANCH  17  18
ENDBRANCH  16  17
ENDBRANCH  15  16
ENDBRANCH  14  15
ENDBRANCH  13  14
ENDBRANCH  12  13
ENDBRANCH   1  12
TORSDOF 15
ENDMDL
MODEL 3
REMARK VINA RESULT:    -2.250      1.395      3.512
REMARK INTER + INTRA:          -6.058
REMARK INTER:                  -5.062
REMARK INTRA:                  -0.996
REMARK UNBOUND:                -1.835
REMARK SMILES CCCCCC=CCC=CCCCCCCCC(=O)OC
REMARK SMILES IDX 11 1 10 2 9 3 8 4 7 5 6 6 5 7 4 8 3 9 2 10 1 11 12 12 13 13
REMARK SMILES IDX 14 14 15 15 16 16 17 17 18 18 19 19 20 20 21 21
REMARK H PARENT
REMARK Flexibility Score: inf
ROOT
ATOM      1  C   UNL     1      23.799  50.971  52.471  1.00  0.00     0.027 C 
ENDROOT
BRANCH   1   2
ATOM      2  C   UNL     1      22.925  50.891  53.693  1.00  0.00    -0.031 C 
ATOM      3  C   UNL     1      23.421  50.571  54.898  1.00  0.00    -0.027 C 
BRANCH   3   4
ATOM      4  C   UNL     1      22.547  50.545  56.121  1.00  0.00     0.054 C 
BRANCH   4   5
ATOM      5  C   UNL     1      21.573  51.690  56.119  1.00  0.00    -0.027 C 
ATOM      6  C   UNL     1      20.447  51.627  55.393  1.00  0.00    -0.031 C 
BRANCH   6   7
ATOM      7  C   UNL     1      19.452  52.758  55.377  1.00  0.00     0.027 C 
BRANCH   7   8
ATOM      8  C   UNL     1      20.022  54.048  55.987  1.00  0.00     0.004 C 
BRANCH   8   9
ATOM      9  C   UNL     1      20.244  55.141  54.931  1.00  0.00     0.000 C 
BRANCH   9  10
ATOM     10  C   UNL     1      21.387  56.076  55.342  1.00  0.00    -0.003 C 
ATOM     11  C   UNL     1      22.461  55.324  56.124  1.00  0.00     0.004 C 
ENDBRANCH   9  10
ENDBRANCH   8   9
ENDBRANCH   7   8
ENDBRANCH   6   7
ENDBRANCH   4   5
ENDBRANCH   3   4
ENDBRANCH   1   2
BRANCH   1  12
ATOM     12  C   UNL     1      23.830  52.392  51.894  1.00  0.00     0.004 C 
BRANCH  12  13
ATOM     13  C   UNL     1      23.545  53.456  52.964  1.00  0.00     0.000 C 
BRANCH  13  14
ATOM     14  C   UNL     1      22.823  54.666  52.358  1.00  0.00     0.000 C 
BRANCH  14  15
ATOM     15  C   UNL     1      22.074  54.274  51.076  1.00  0.00     0.001 C 
BRANCH  15  16
ATOM     16  C   UNL     1      22.478  55.130  49.866  1.00  0.00     0.012 C 
BRANCH  16  17
ATOM     17  C   UNL     1      22.869  54.286  48.647  1.00  0.00     0.123 C 
BRANCH  17  18
ATOM     18  C   UNL     1      22.383  52.881  48.810  1.00  0.00     0.305 C 
ATOM     19  O   UNL     1      21.143  52.650  48.872  1.00  0.00    -0.252 OA
BRANCH  18  20
ATOM     20  O   UNL     1      23.309  51.842  48.941  1.00  0.00    -0.469 OA
ATOM     21  C   UNL     1      22.922  50.479  49.066  1.00  0.00     0.282 C 
ENDBRANCH  18  20
ENDBRANCH  17  18
ENDBRANCH  16  17
ENDBRANCH  15  16
ENDBRANCH  14  15
ENDBRANCH  13  14
ENDBRANCH  12  13
ENDBRANCH   1  12
TORSDOF 15
ENDMDL
MODEL 4
REMARK VINA RESULT:    -1.845      1.967      5.098
REMARK INTER + INTRA:          -5.297
REMARK INTER:                  -4.836
REMARK INTRA:                  -0.461
REMARK UNBOUND:                -1.835
REMARK SMILES CCCCCC=CCC=CCCCCCCCC(=O)OC
REMARK SMILES IDX 11 1 10 2 9 3 8 4 7 5 6 6 5 7 4 8 3 9 2 10 1 11 12 12 13 13
REMARK SMILES IDX 14 14 15 15 16 16 17 17 18 18 19 19 20 20 21 21
REMARK H PARENT
REMARK Flexibility Score: inf
ROOT
ATOM      1  C   UNL     1      19.699  51.981  55.053  1.00  0.00     0.027 C 
ENDROOT
BRANCH   1   2
ATOM      2  C   UNL     1      20.967  51.252  54.700  1.00  0.00    -0.031 C 
ATOM      3  C   UNL     1      22.065  51.331  55.467  1.00  0.00    -0.027 C 
BRANCH   3   4
ATOM      4  C   UNL     1      23.310  50.556  55.132  1.00  0.00     0.054 C 
BRANCH   4   5
ATOM      5  C   UNL     1      23.938  51.059  53.861  1.00  0.00    -0.027 C 
ATOM      6  C   UNL     1      23.392  50.775  52.670  1.00  0.00    -0.031 C 
BRANCH   6   7
ATOM      7  C   UNL     1      23.999  51.270  51.384  1.00  0.00     0.027 C 
BRANCH   7   8
ATOM      8  C   UNL     1      23.065  51.072  50.181  1.00  0.00     0.004 C 
BRANCH   8   9
ATOM      9  C   UNL     1      21.623  51.503  50.487  1.00  0.00     0.000 C 
BRANCH   9  10
ATOM     10  C   UNL     1      21.088  52.439  49.398  1.00  0.00    -0.003 C 
ATOM     11  C   UNL     1      22.124  52.657  48.299  1.00  0.00     0.004 C 
ENDBRANCH   9  10
ENDBRANCH   8   9
ENDBRANCH   7   8
ENDBRANCH   6   7
ENDBRANCH   4   5
ENDBRANCH   3   4
ENDBRANCH   1   2
BRANCH   1  12
ATOM     12  C   UNL     1      19.945  53.051  56.125  1.00  0.00     0.004 C 
BRANCH  12  13
ATOM     13  C   UNL     1      21.325  53.711  55.976  1.00  0.00     0.000 C 
BRANCH  13  14
ATOM     14  C   UNL     1      21.191  55.221  55.751  1.00  0.00     0.000 C 
BRANCH  14  15
ATOM     15  C   UNL     1      20.128  55.527  54.685  1.00  0.00     0.001 C 
BRANCH  15  16
ATOM     16  C   UNL     1      20.740  55.958  53.343  1.00  0.00     0.012 C 
BRANCH  16  17
ATOM     17  C   UNL     1      21.433  54.803  52.609  1.00  0.00     0.123 C 
BRANCH  17  18
ATOM     18  C   UNL     1      22.562  55.320  51.775  1.00  0.00     0.305 C 
ATOM     19  O   UNL     1      22.448  55.352  50.518  1.00  0.00    -0.252 OA
BRANCH  18  20
ATOM     20  O   UNL     1      23.750  55.718  52.394  1.00  0.00    -0.469 OA
ATOM     21  C   UNL     1      24.125  55.273  53.693  1.00  0.00     0.282 C 
ENDBRANCH  18  20
ENDBRANCH  17  18
ENDBRANCH  16  17
ENDBRANCH  15  16
ENDBRANCH  14  15
ENDBRANCH  13  14
ENDBRANCH  12  13
ENDBRANCH   1  12
TORSDOF 15
ENDMDL
MODEL 5
REMARK VINA RESULT:    -1.439      1.852      3.596
REMARK INTER + INTRA:          -4.536
REMARK INTER:                  -4.146
REMARK INTRA:                  -0.390
REMARK UNBOUND:                -1.835
REMARK SMILES CCCCCC=CCC=CCCCCCCCC(=O)OC
REMARK SMILES IDX 11 1 10 2 9 3 8 4 7 5 6 6 5 7 4 8 3 9 2 10 1 11 12 12 13 13
REMARK SMILES IDX 14 14 15 15 16 16 17 17 18 18 19 19 20 20 21 21
REMARK H PARENT
REMARK Flexibility Score: inf
ROOT
ATOM      1  C   UNL     1      21.419  51.022  53.754  1.00  0.00     0.027 C 
ENDROOT
BRANCH   1   2
ATOM      2  C   UNL     1      20.666  52.049  54.555  1.00  0.00    -0.031 C 
ATOM      3  C   UNL     1      20.180  53.167  53.995  1.00  0.00    -0.027 C 
BRANCH   3   4
ATOM      4  C   UNL     1      19.384  54.160  54.795  1.00  0.00     0.054 C 
BRANCH   4   5
ATOM      5  C   UNL     1      20.283  55.043  55.616  1.00  0.00    -0.027 C 
ATOM      6  C   UNL     1      21.580  55.177  55.303  1.00  0.00    -0.031 C 
BRANCH   6   7
ATOM      7  C   UNL     1      22.500  56.058  56.107  1.00  0.00     0.027 C 
BRANCH   7   8
ATOM      8  C   UNL     1      23.944  56.028  55.584  1.00  0.00     0.004 C 
BRANCH   8   9
ATOM      9  C   UNL     1      24.007  55.998  54.050  1.00  0.00     0.000 C 
BRANCH   9  10
ATOM     10  C   UNL     1      23.874  54.565  53.523  1.00  0.00    -0.003 C 
ATOM     11  C   UNL     1      24.119  54.504  52.018  1.00  0.00     0.004 C 
ENDBRANCH   9  10
ENDBRANCH   8   9
ENDBRANCH   7   8
ENDBRANCH   6   7
ENDBRANCH   4   5
ENDBRANCH   3   4
ENDBRANCH   1   2
BRANCH   1  12
ATOM     12  C   UNL     1      22.884  51.433  53.549  1.00  0.00     0.004 C 
BRANCH  12  13
ATOM     13  C   UNL     1      23.584  50.567  52.490  1.00  0.00     0.000 C 
BRANCH  13  14
ATOM     14  C   UNL     1      24.125  51.430  51.344  1.00  0.00     0.000 C 
BRANCH  14  15
ATOM     15  C   UNL     1      23.978  50.708  49.996  1.00  0.00     0.001 C 
BRANCH  15  16
ATOM     16  C   UNL     1      22.522  50.648  49.509  1.00  0.00     0.012 C 
BRANCH  16  17
ATOM     17  C   UNL     1      22.195  51.744  48.487  1.00  0.00     0.123 C 
BRANCH  17  18
ATOM     18  C   UNL     1      22.088  53.073  49.166  1.00  0.00     0.305 C 
ATOM     19  O   UNL     1      21.602  53.144  50.329  1.00  0.00    -0.252 OA
BRANCH  18  20
ATOM     20  O   UNL     1      22.483  54.228  48.486  1.00  0.00    -0.469 OA
ATOM     21  C   UNL     1      23.755  54.837  48.681  1.00  0.00     0.282 C 
ENDBRANCH  18  20
ENDBRANCH  17  18
ENDBRANCH  16  17
ENDBRANCH  15  16
ENDBRANCH  14  15
ENDBRANCH  13  14
ENDBRANCH  12  13
ENDBRANCH   1  12
TORSDOF 15
ENDMDL
MODEL 6
REMARK VINA RESULT:    -1.309      1.505      2.055
REMARK INTER + INTRA:          -4.292
REMARK INTER:                  -2.696
REMARK INTRA:                  -1.595
REMARK UNBOUND:                -1.835
REMARK SMILES CCCCCC=CCC=CCCCCCCCC(=O)OC
REMARK SMILES IDX 11 1 10 2 9 3 8 4 7 5 6 6 5 7 4 8 3 9 2 10 1 11 12 12 13 13
REMARK SMILES IDX 14 14 15 15 16 16 17 17 18 18 19 19 20 20 21 21
REMARK H PARENT
REMARK Flexibility Score: inf
ROOT
ATOM      1  C   UNL     1      22.186  56.124  54.878  1.00  0.00     0.027 C 
ENDROOT
BRANCH   1   2
ATOM      2  C   UNL     1      21.411  55.004  55.517  1.00  0.00    -0.031 C 
ATOM      3  C   UNL     1      20.152  54.716  55.152  1.00  0.00    -0.027 C 
BRANCH   3   4
ATOM      4  C   UNL     1      19.406  53.562  55.760  1.00  0.00     0.054 C 
BRANCH   4   5
ATOM      5  C   UNL     1      20.324  52.404  56.035  1.00  0.00    -0.027 C 
ATOM      6  C   UNL     1      20.522  51.454  55.110  1.00  0.00    -0.031 C 
BRANCH   6   7
ATOM      7  C   UNL     1      21.441  50.287  55.359  1.00  0.00     0.027 C 
BRANCH   7   8
ATOM      8  C   UNL     1      22.788  50.719  55.957  1.00  0.00     0.004 C 
BRANCH   8   9
ATOM      9  C   UNL     1      23.974  49.992  55.304  1.00  0.00     0.000 C 
BRANCH   9  10
ATOM     10  C   UNL     1      23.978  50.204  53.786  1.00  0.00    -0.003 C 
ATOM     11  C   UNL     1      24.023  51.689  53.436  1.00  0.00     0.004 C 
ENDBRANCH   9  10
ENDBRANCH   8   9
ENDBRANCH   7   8
ENDBRANCH   6   7
ENDBRANCH   4   5
ENDBRANCH   3   4
ENDBRANCH   1   2
BRANCH   1  12
ATOM     12  C   UNL     1      23.647  55.727  54.631  1.00  0.00     0.004 C 
BRANCH  12  13
ATOM     13  C   UNL     1      24.124  56.123  53.226  1.00  0.00     0.000 C 
BRANCH  13  14
ATOM     14  C   UNL     1      23.756  55.049  52.196  1.00  0.00     0.000 C 
BRANCH  14  15
ATOM     15  C   UNL     1      22.576  55.503  51.325  1.00  0.00     0.001 C 
BRANCH  15  16
ATOM     16  C   UNL     1      22.432  54.677  50.038  1.00  0.00     0.012 C 
BRANCH  16  17
ATOM     17  C   UNL     1      22.651  53.176  50.270  1.00  0.00     0.123 C 
BRANCH  17  18
ATOM     18  C   UNL     1      22.270  52.400  49.050  1.00  0.00     0.305 C 
ATOM     19  O   UNL     1      22.902  51.348  48.754  1.00  0.00    -0.252 OA
BRANCH  18  20
ATOM     20  O   UNL     1      21.248  52.875  48.223  1.00  0.00    -0.469 OA
ATOM     21  C   UNL     1      21.075  52.428  46.883  1.00  0.00     0.282 C 
ENDBRANCH  18  20
ENDBRANCH  17  18
ENDBRANCH  16  17
ENDBRANCH  15  16
ENDBRANCH  14  15
ENDBRANCH  13  14
ENDBRANCH  12  13
ENDBRANCH   1  12
TORSDOF 15
ENDMDL
MODEL 7
REMARK VINA RESULT:    -1.108      6.176     10.649
REMARK INTER + INTRA:          -3.914
REMARK INTER:                  -3.000
REMARK INTRA:                  -0.915
REMARK UNBOUND:                -1.835
REMARK SMILES CCCCCC=CCC=CCCCCCCCC(=O)OC
REMARK SMILES IDX 11 1 10 2 9 3 8 4 7 5 6 6 5 7 4 8 3 9 2 10 1 11 12 12 13 13
REMARK SMILES IDX 14 14 15 15 16 16 17 17 18 18 19 19 20 20 21 21
REMARK H PARENT
REMARK Flexibility Score: inf
ROOT
ATOM      1  C   UNL     1      20.917  52.403  46.498  1.00  0.00     0.027 C 
ENDROOT
BRANCH   1   2
ATOM      2  C   UNL     1      21.456  52.465  45.095  1.00  0.00    -0.031 C 
ATOM      3  C   UNL     1      20.682  52.803  44.053  1.00  0.00    -0.027 C 
BRANCH   3   4
ATOM      4  C   UNL     1      21.244  52.912  42.663  1.00  0.00     0.054 C 
BRANCH   4   5
ATOM      5  C   UNL     1      20.147  52.964  41.635  1.00  0.00    -0.027 C 
ATOM      6  C   UNL     1      20.014  54.029  40.832  1.00  0.00    -0.031 C 
BRANCH   6   7
ATOM      7  C   UNL     1      18.928  54.103  39.791  1.00  0.00     0.027 C 
BRANCH   7   8
ATOM      8  C   UNL     1      19.289  53.334  38.511  1.00  0.00     0.004 C 
BRANCH   8   9
ATOM      9  C   UNL     1      20.781  53.448  38.166  1.00  0.00     0.000 C 
BRANCH   9  10
ATOM     10  C   UNL     1      21.447  52.067  38.148  1.00  0.00    -0.003 C 
ATOM     11  C   UNL     1      22.758  52.076  38.929  1.00  0.00     0.004 C 
ENDBRANCH   9  10
ENDBRANCH   8   9
ENDBRANCH   7   8
ENDBRANCH   6   7
ENDBRANCH   4   5
ENDBRANCH   3   4
ENDBRANCH   1   2
BRANCH   1  12
ATOM     12  C   UNL     1      21.888  53.038  47.502  1.00  0.00     0.004 C 
BRANCH  12  13
ATOM     13  C   UNL     1      22.267  52.069  48.632  1.00  0.00     0.000 C 
BRANCH  13  14
ATOM     14  C   UNL     1      21.243  52.125  49.771  1.00  0.00     0.000 C 
BRANCH  14  15
ATOM     15  C   UNL     1      21.448  53.379  50.634  1.00  0.00     0.001 C 
BRANCH  15  16
ATOM     16  C   UNL     1      21.769  53.046  52.100  1.00  0.00     0.012 C 
BRANCH  16  17
ATOM     17  C   UNL     1      21.343  51.626  52.492  1.00  0.00     0.123 C 
BRANCH  17  18
ATOM     18  C   UNL     1      21.436  51.446  53.974  1.00  0.00     0.305 C 
ATOM     19  O   UNL     1      22.179  50.543  54.449  1.00  0.00    -0.252 OA
BRANCH  18  20
ATOM     20  O   UNL     1      20.661  52.249  54.816  1.00  0.00    -0.469 OA
ATOM     21  C   UNL     1      20.038  51.749  55.994  1.00  0.00     0.282 C 
ENDBRANCH  18  20
ENDBRANCH  17  18
ENDBRANCH  16  17
ENDBRANCH  15  16
ENDBRANCH  14  15
ENDBRANCH  13  14
ENDBRANCH  12  13
ENDBRANCH   1  12
TORSDOF 15
ENDMDL
MODEL 8
REMARK VINA RESULT:    -1.107      5.566     10.056
REMARK INTER + INTRA:          -3.912
REMARK INTER:                  -2.967
REMARK INTRA:                  -0.945
REMARK UNBOUND:                -1.835
REMARK SMILES CCCCCC=CCC=CCCCCCCCC(=O)OC
REMARK SMILES IDX 11 1 10 2 9 3 8 4 7 5 6 6 5 7 4 8 3 9 2 10 1 11 12 12 13 13
REMARK SMILES IDX 14 14 15 15 16 16 17 17 18 18 19 19 20 20 21 21
REMARK H PARENT
REMARK Flexibility Score: inf
ROOT
ATOM      1  C   UNL     1      21.950  52.250  48.081  1.00  0.00     0.027 C 
ENDROOT
BRANCH   1   2
ATOM      2  C   UNL     1      21.153  52.639  46.866  1.00  0.00    -0.031 C 
ATOM      3  C   UNL     1      21.571  52.352  45.624  1.00  0.00    -0.027 C 
BRANCH   3   4
ATOM      4  C   UNL     1      20.741  52.699  44.419  1.00  0.00     0.054 C 
BRANCH   4   5
ATOM      5  C   UNL     1      21.599  52.864  43.196  1.00  0.00    -0.027 C 
ATOM      6  C   UNL     1      21.053  52.852  41.971  1.00  0.00    -0.031 C 
BRANCH   6   7
ATOM      7  C   UNL     1      21.890  53.020  40.731  1.00  0.00     0.027 C 
BRANCH   7   8
ATOM      8  C   UNL     1      21.156  53.801  39.630  1.00  0.00     0.004 C 
BRANCH   8   9
ATOM      9  C   UNL     1      20.134  54.794  40.204  1.00  0.00     0.000 C 
BRANCH   9  10
ATOM     10  C   UNL     1      18.773  54.641  39.517  1.00  0.00    -0.003 C 
ATOM     11  C   UNL     1      18.840  53.622  38.382  1.00  0.00     0.004 C 
ENDBRANCH   9  10
ENDBRANCH   8   9
ENDBRANCH   7   8
ENDBRANCH   6   7
ENDBRANCH   4   5
ENDBRANCH   3   4
ENDBRANCH   1   2
BRANCH   1  12
ATOM     12  C   UNL     1      21.243  52.671  49.376  1.00  0.00     0.004 C 
BRANCH  12  13
ATOM     13  C   UNL     1      22.141  53.541  50.269  1.00  0.00     0.000 C 
BRANCH  13  14
ATOM     14  C   UNL     1      21.848  53.292  51.753  1.00  0.00     0.000 C 
BRANCH  14  15
ATOM     15  C   UNL     1      21.300  51.874  51.975  1.00  0.00     0.001 C 
BRANCH  15  16
ATOM     16  C   UNL     1      21.692  51.293  53.343  1.00  0.00     0.012 C 
BRANCH  16  17
ATOM     17  C   UNL     1      21.598  52.325  54.473  1.00  0.00     0.123 C 
BRANCH  17  18
ATOM     18  C   UNL     1      20.220  52.337  55.054  1.00  0.00     0.305 C 
ATOM     19  O   UNL     1      19.941  51.574  56.019  1.00  0.00    -0.252 OA
BRANCH  18  20
ATOM     20  O   UNL     1      19.242  53.161  54.489  1.00  0.00    -0.469 OA
ATOM     21  C   UNL     1      19.423  54.562  54.318  1.00  0.00     0.282 C 
ENDBRANCH  18  20
ENDBRANCH  17  18
ENDBRANCH  16  17
ENDBRANCH  15  16
ENDBRANCH  14  15
ENDBRANCH  13  14
ENDBRANCH  12  13
ENDBRANCH   1  12
TORSDOF 15
ENDMDL
