MODEL 1
REMARK VINA RESULT:    -4.531      0.000      0.000
REMARK INTER + INTRA:          -4.815
REMARK INTER:                  -4.796
REMARK INTRA:                  -0.019
REMARK UNBOUND:                -0.019
REMARK SMILES O=C([O-])c1cccnc1
REMARK SMILES IDX 4 1 5 2 9 3 6 4 8 5 7 6 2 7 1 8 3 9
REMARK H PARENT
REMARK Flexibility Score: inf
ROOT
ATOM      1  C   UNL     1      -5.007   9.050 -27.897  1.00  0.00     0.016 A 
ATOM      2  C   UNL     1      -6.145   8.916 -27.084  1.00  0.00     0.013 A 
ATOM      3  C   UNL     1      -4.383  10.308 -27.969  1.00  0.00     0.120 A 
ATOM      4  C   UNL     1      -6.631  10.014 -26.371  1.00  0.00     0.021 A 
ATOM      5  N   UNL     1      -4.877  11.360 -27.264  1.00  0.00    -0.264 NA
ATOM      6  C   UNL     1      -5.976  11.241 -26.474  1.00  0.00     0.111 A 
ENDROOT
BRANCH   1   7
ATOM      7  C   UNL     1      -4.477   7.900 -28.659  1.00  0.00     0.073 C 
ATOM      8  O   UNL     1      -4.179   8.022 -29.878  1.00  0.00    -0.545 OA
ATOM      9  O   UNL     1      -4.300   6.667 -28.042  1.00  0.00    -0.545 OA
ENDBRANCH   1   7
TORSDOF 1
ENDMDL
MODEL 2
REMARK VINA RESULT:    -4.307      2.837      3.988
REMARK INTER + INTRA:          -4.578
REMARK INTER:                  -4.559
REMARK INTRA:                  -0.019
REMARK UNBOUND:                -0.019
REMARK SMILES O=C([O-])c1cccnc1
REMARK SMILES IDX 4 1 5 2 9 3 6 4 8 5 7 6 2 7 1 8 3 9
REMARK H PARENT
REMARK Flexibility Score: inf
ROOT
ATOM      1  C   UNL     1      -5.212   9.058 -27.631  1.00  0.00     0.016 A 
ATOM      2  C   UNL     1      -4.574   9.315 -28.856  1.00  0.00     0.013 A 
ATOM      3  C   UNL     1      -5.218   7.739 -27.144  1.00  0.00     0.120 A 
ATOM      4  C   UNL     1      -3.965   8.274 -29.561  1.00  0.00     0.021 A 
ATOM      5  N   UNL     1      -4.617   6.745 -27.851  1.00  0.00    -0.264 NA
ATOM      6  C   UNL     1      -3.997   6.982 -29.037  1.00  0.00     0.111 A 
ENDROOT
BRANCH   1   7
ATOM      7  C   UNL     1      -5.862  10.145 -26.870  1.00  0.00     0.073 C 
ATOM      8  O   UNL     1      -7.042  10.015 -26.447  1.00  0.00    -0.545 OA
ATOM      9  O   UNL     1      -5.181  11.329 -26.610  1.00  0.00    -0.545 OA
ENDBRANCH   1   7
TORSDOF 1
ENDMDL
MODEL 3
REMARK VINA RESULT:    -4.165      0.911      1.606
REMARK INTER + INTRA:          -4.427
REMARK INTER:                  -4.408
REMARK INTRA:                  -0.019
REMARK UNBOUND:                -0.019
REMARK SMILES O=C([O-])c1cccnc1
REMARK SMILES IDX 4 1 5 2 9 3 6 4 8 5 7 6 2 7 1 8 3 9
REMARK H PARENT
REMARK Flexibility Score: inf
ROOT
ATOM      1  C   UNL     1      -5.052   9.158 -27.817  1.00  0.00     0.016 A 
ATOM      2  C   UNL     1      -4.397  10.400 -27.857  1.00  0.00     0.013 A 
ATOM      3  C   UNL     1      -6.215   9.041 -27.037  1.00  0.00     0.120 A 
ATOM      4  C   UNL     1      -4.903  11.483 -27.135  1.00  0.00     0.021 A 
ATOM      5  N   UNL     1      -6.686  10.112 -26.343  1.00  0.00    -0.264 NA
ATOM      6  C   UNL     1      -6.061  11.318 -26.376  1.00  0.00     0.111 A 
ENDROOT
BRANCH   1   7
ATOM      7  C   UNL     1      -4.532   7.999 -28.574  1.00  0.00     0.073 C 
ATOM      8  O   UNL     1      -4.214   8.117 -29.787  1.00  0.00    -0.545 OA
ATOM      9  O   UNL     1      -4.389   6.762 -27.957  1.00  0.00    -0.545 OA
ENDBRANCH   1   7
TORSDOF 1
ENDMDL
MODEL 4
REMARK VINA RESULT:    -4.054      1.793      2.808
REMARK INTER + INTRA:          -4.311
REMARK INTER:                  -4.292
REMARK INTRA:                  -0.018
REMARK UNBOUND:                -0.019
REMARK SMILES O=C([O-])c1cccnc1
REMARK SMILES IDX 4 1 5 2 9 3 6 4 8 5 7 6 2 7 1 8 3 9
REMARK H PARENT
REMARK Flexibility Score: inf
ROOT
ATOM      1  C   UNL     1      -4.813   9.575 -28.003  1.00  0.00     0.016 A 
ATOM      2  C   UNL     1      -4.341   9.311 -29.300  1.00  0.00     0.013 A 
ATOM      3  C   UNL     1      -4.550  10.836 -27.440  1.00  0.00     0.120 A 
ATOM      4  C   UNL     1      -3.630  10.288 -30.000  1.00  0.00     0.021 A 
ATOM      5  N   UNL     1      -3.855  11.769 -28.145  1.00  0.00    -0.264 NA
ATOM      6  C   UNL     1      -3.395  11.524 -29.399  1.00  0.00     0.111 A 
ENDROOT
BRANCH   1   7
ATOM      7  C   UNL     1      -5.567   8.554 -27.246  1.00  0.00     0.073 C 
ATOM      8  O   UNL     1      -6.703   8.818 -26.769  1.00  0.00    -0.545 OA
ATOM      9  O   UNL     1      -5.032   7.286 -27.048  1.00  0.00    -0.545 OA
ENDBRANCH   1   7
TORSDOF 1
ENDMDL
MODEL 5
REMARK VINA RESULT:    -3.956      3.021      3.717
REMARK INTER + INTRA:          -4.206
REMARK INTER:                  -4.188
REMARK INTRA:                  -0.018
REMARK UNBOUND:                -0.019
REMARK SMILES O=C([O-])c1cccnc1
REMARK SMILES IDX 4 1 5 2 9 3 6 4 8 5 7 6 2 7 1 8 3 9
REMARK H PARENT
REMARK Flexibility Score: inf
ROOT
ATOM      1  C   UNL     1      -5.457  10.147 -27.068  1.00  0.00     0.016 A 
ATOM      2  C   UNL     1      -6.033   8.901 -26.769  1.00  0.00     0.013 A 
ATOM      3  C   UNL     1      -4.470  10.204 -28.068  1.00  0.00     0.120 A 
ATOM      4  C   UNL     1      -5.625   7.757 -27.457  1.00  0.00     0.021 A 
ATOM      5  N   UNL     1      -4.091   9.073 -28.722  1.00  0.00    -0.264 NA
ATOM      6  C   UNL     1      -4.643   7.864 -28.441  1.00  0.00     0.111 A 
ENDROOT
BRANCH   1   7
ATOM      7  C   UNL     1      -5.874  11.371 -26.352  1.00  0.00     0.073 C 
ATOM      8  O   UNL     1      -7.077  11.746 -26.372  1.00  0.00    -0.545 OA
ATOM      9  O   UNL     1      -4.945  12.125 -25.645  1.00  0.00    -0.545 OA
ENDBRANCH   1   7
TORSDOF 1
ENDMDL
MODEL 6
REMARK VINA RESULT:    -3.813      2.609      3.550
REMARK INTER + INTRA:          -4.055
REMARK INTER:                  -4.032
REMARK INTRA:                  -0.024
REMARK UNBOUND:                -0.019
REMARK SMILES O=C([O-])c1cccnc1
REMARK SMILES IDX 4 1 5 2 9 3 6 4 8 5 7 6 2 7 1 8 3 9
REMARK H PARENT
REMARK Flexibility Score: inf
ROOT
ATOM      1  C   UNL     1      -4.860  10.097 -27.663  1.00  0.00     0.016 A 
ATOM      2  C   UNL     1      -4.839   9.098 -28.650  1.00  0.00     0.013 A 
ATOM      3  C   UNL     1      -3.780  10.994 -27.597  1.00  0.00     0.120 A 
ATOM      4  C   UNL     1      -3.764   9.011 -29.537  1.00  0.00     0.021 A 
ATOM      5  N   UNL     1      -2.746  10.887 -28.474  1.00  0.00    -0.264 NA
ATOM      6  C   UNL     1      -2.716   9.924 -29.433  1.00  0.00     0.111 A 
ENDROOT
BRANCH   1   7
ATOM      7  C   UNL     1      -5.989  10.206 -26.714  1.00  0.00     0.073 C 
ATOM      8  O   UNL     1      -6.808   9.258 -26.582  1.00  0.00    -0.545 OA
ATOM      9  O   UNL     1      -6.162  11.357 -25.955  1.00  0.00    -0.545 OA
ENDBRANCH   1   7
TORSDOF 1
ENDMDL
MODEL 7
REMARK VINA RESULT:    -3.652     10.556     11.342
REMARK INTER + INTRA:          -3.884
REMARK INTER:                  -3.863
REMARK INTRA:                  -0.022
REMARK UNBOUND:                -0.019
REMARK SMILES O=C([O-])c1cccnc1
REMARK SMILES IDX 4 1 5 2 9 3 6 4 8 5 7 6 2 7 1 8 3 9
REMARK H PARENT
REMARK Flexibility Score: inf
ROOT
ATOM      1  C   UNL     1     -11.453   7.304 -18.812  1.00  0.00     0.016 A 
ATOM      2  C   UNL     1     -11.803   8.010 -19.975  1.00  0.00     0.013 A 
ATOM      3  C   UNL     1     -11.965   7.749 -17.581  1.00  0.00     0.120 A 
ATOM      4  C   UNL     1     -12.641   9.124 -19.894  1.00  0.00     0.021 A 
ATOM      5  N   UNL     1     -12.780   8.837 -17.530  1.00  0.00    -0.264 NA
ATOM      6  C   UNL     1     -13.125   9.527 -18.650  1.00  0.00     0.111 A 
ENDROOT
BRANCH   1   7
ATOM      7  C   UNL     1     -10.567   6.123 -18.877  1.00  0.00     0.073 C 
ATOM      8  O   UNL     1      -9.667   6.044 -19.755  1.00  0.00    -0.545 OA
ATOM      9  O   UNL     1     -10.716   5.080 -17.970  1.00  0.00    -0.545 OA
ENDBRANCH   1   7
TORSDOF 1
ENDMDL
MODEL 8
REMARK VINA RESULT:    -3.542      1.652      2.232
REMARK INTER + INTRA:          -3.768
REMARK INTER:                  -3.746
REMARK INTRA:                  -0.022
REMARK UNBOUND:                -0.019
REMARK SMILES O=C([O-])c1cccnc1
REMARK SMILES IDX 4 1 5 2 9 3 6 4 8 5 7 6 2 7 1 8 3 9
REMARK H PARENT
REMARK Flexibility Score: inf
ROOT
ATOM      1  C   UNL     1      -4.170  10.250 -28.221  1.00  0.00     0.016 A 
ATOM      2  C   UNL     1      -4.958   9.092 -28.116  1.00  0.00     0.013 A 
ATOM      3  C   UNL     1      -4.482  11.347 -27.399  1.00  0.00     0.120 A 
ATOM      4  C   UNL     1      -6.021   9.047 -27.212  1.00  0.00     0.021 A 
ATOM      5  N   UNL     1      -5.523  11.276 -26.527  1.00  0.00    -0.264 NA
ATOM      6  C   UNL     1      -6.291  10.160 -26.417  1.00  0.00     0.111 A 
ENDROOT
BRANCH   1   7
ATOM      7  C   UNL     1      -3.040  10.319 -29.172  1.00  0.00     0.073 C 
ATOM      8  O   UNL     1      -2.641  11.428 -29.615  1.00  0.00    -0.545 OA
ATOM      9  O   UNL     1      -2.403   9.157 -29.592  1.00  0.00    -0.545 OA
ENDBRANCH   1   7
TORSDOF 1
ENDMDL
MODEL 9
REMARK VINA RESULT:    -3.480      2.987      3.840
REMARK INTER + INTRA:          -3.703
REMARK INTER:                  -3.683
REMARK INTRA:                  -0.020
REMARK UNBOUND:                -0.019
REMARK SMILES O=C([O-])c1cccnc1
REMARK SMILES IDX 4 1 5 2 9 3 6 4 8 5 7 6 2 7 1 8 3 9
REMARK H PARENT
REMARK Flexibility Score: inf
ROOT
ATOM      1  C   UNL     1      -4.827  10.904 -26.787  1.00  0.00     0.016 A 
ATOM      2  C   UNL     1      -3.910  11.584 -25.969  1.00  0.00     0.013 A 
ATOM      3  C   UNL     1      -4.382  10.415 -28.027  1.00  0.00     0.120 A 
ATOM      4  C   UNL     1      -2.590  11.760 -26.391  1.00  0.00     0.021 A 
ATOM      5  N   UNL     1      -3.091  10.600 -28.414  1.00  0.00    -0.264 NA
ATOM      6  C   UNL     1      -2.195  11.256 -27.630  1.00  0.00     0.111 A 
ENDROOT
BRANCH   1   7
ATOM      7  C   UNL     1      -6.228  10.708 -26.358  1.00  0.00     0.073 C 
ATOM      8  O   UNL     1      -6.818   9.616 -26.576  1.00  0.00    -0.545 OA
ATOM      9  O   UNL     1      -6.916  11.727 -25.709  1.00  0.00    -0.545 OA
ENDBRANCH   1   7
TORSDOF 1
ENDMDL
