MODEL 1
REMARK VINA RESULT:    20.370      0.000      0.000
REMARK INTER + INTRA:          38.801
REMARK INTER:                  39.422
REMARK INTRA:                  -0.621
REMARK UNBOUND:                -0.621
REMARK SMILES CCCCCCCCCCCCCCCCCC(=O)[O-]
REMARK SMILES IDX 10 1 11 2 12 3 13 4 14 5 15 6 16 7 17 8 18 9 19 10 20 11
REMARK SMILES IDX 9 12 8 13 7 14 6 15 5 16 4 17 3 18 2 19 1 20
REMARK H PARENT
REMARK Flexibility Score: inf
ROOT
ATOM      1  C   UNL     1     -36.983  25.218 -20.898  1.00  0.00     0.000 C 
ENDROOT
BRANCH   1   2
ATOM      2  C   UNL     1     -37.061  26.760 -20.901  1.00  0.00     0.000 C 
BRANCH   2   3
ATOM      3  C   UNL     1     -37.960  27.334 -22.018  1.00  0.00     0.000 C 
BRANCH   3   4
ATOM      4  C   UNL     1     -37.935  28.873 -22.042  1.00  0.00     0.000 C 
BRANCH   4   5
ATOM      5  C   UNL     1     -39.049  29.498 -21.183  1.00  0.00     0.000 C 
BRANCH   5   6
ATOM      6  C   UNL     1     -40.454  29.190 -21.735  1.00  0.00     0.000 C 
BRANCH   6   7
ATOM      7  C   UNL     1     -41.480  30.237 -21.254  1.00  0.00     0.006 C 
BRANCH   7   8
ATOM      8  C   UNL     1     -42.546  30.540 -22.327  1.00  0.00     0.053 C 
BRANCH   8   9
ATOM      9  C   UNL     1     -43.660  31.387 -21.783  1.00  0.00     0.041 C 
ATOM     10  O   UNL     1     -44.222  32.248 -22.514  1.00  0.00    -0.550 OA
ATOM     11  O   UNL     1     -44.080  31.217 -20.466  1.00  0.00    -0.550 OA
ENDBRANCH   8   9
ENDBRANCH   7   8
ENDBRANCH   6   7
ENDBRANCH   5   6
ENDBRANCH   4   5
ENDBRANCH   3   4
ENDBRANCH   2   3
ENDBRANCH   1   2
BRANCH   1  12
ATOM     12  C   UNL     1     -38.259  24.500 -20.415  1.00  0.00     0.000 C 
BRANCH  12  13
ATOM     13  C   UNL     1     -37.996  23.052 -19.960  1.00  0.00    -0.000 C 
BRANCH  13  14
ATOM     14  C   UNL     1     -38.501  22.792 -18.531  1.00  0.00    -0.000 C 
BRANCH  14  15
ATOM     15  C   UNL     1     -39.877  22.108 -18.507  1.00  0.00    -0.000 C 
BRANCH  15  16
ATOM     16  C   UNL     1     -41.038  23.106 -18.338  1.00  0.00    -0.000 C 
BRANCH  16  17
ATOM     17  C   UNL     1     -41.931  22.862 -17.103  1.00  0.00    -0.000 C 
BRANCH  17  18
ATOM     18  C   UNL     1     -41.727  23.912 -15.994  1.00  0.00    -0.000 C 
BRANCH  18  19
ATOM     19  C   UNL     1     -42.731  23.764 -14.838  1.00  0.00    -0.003 C 
ATOM     20  C   UNL     1     -42.086  23.952 -13.463  1.00  0.00     0.004 C 
ENDBRANCH  18  19
ENDBRANCH  17  18
ENDBRANCH  16  17
ENDBRANCH  15  16
ENDBRANCH  14  15
ENDBRANCH  13  14
ENDBRANCH  12  13
ENDBRANCH   1  12
TORSDOF 16
ENDMDL
MODEL 2
REMARK VINA RESULT:    20.415      0.945      1.379
REMARK INTER + INTRA:          38.889
REMARK INTER:                  39.684
REMARK INTRA:                  -0.795
REMARK UNBOUND:                -0.621
REMARK SMILES CCCCCCCCCCCCCCCCCC(=O)[O-]
REMARK SMILES IDX 10 1 11 2 12 3 13 4 14 5 15 6 16 7 17 8 18 9 19 10 20 11
REMARK SMILES IDX 9 12 8 13 7 14 6 15 5 16 4 17 3 18 2 19 1 20
REMARK H PARENT
REMARK Flexibility Score: inf
ROOT
ATOM      1  C   UNL     1     -38.040  26.056 -21.674  1.00  0.00     0.000 C 
ENDROOT
BRANCH   1   2
ATOM      2  C   UNL     1     -37.520  27.510 -21.663  1.00  0.00     0.000 C 
BRANCH   2   3
ATOM      3  C   UNL     1     -38.592  28.555 -22.038  1.00  0.00     0.000 C 
BRANCH   3   4
ATOM      4  C   UNL     1     -38.819  29.577 -20.910  1.00  0.00     0.000 C 
BRANCH   4   5
ATOM      5  C   UNL     1     -40.237  30.178 -20.930  1.00  0.00     0.000 C 
BRANCH   5   6
ATOM      6  C   UNL     1     -41.163  29.454 -21.926  1.00  0.00     0.000 C 
BRANCH   6   7
ATOM      7  C   UNL     1     -41.889  30.462 -22.840  1.00  0.00     0.006 C 
BRANCH   7   8
ATOM      8  C   UNL     1     -43.416  30.447 -22.625  1.00  0.00     0.053 C 
BRANCH   8   9
ATOM      9  C   UNL     1     -43.877  31.622 -21.812  1.00  0.00     0.041 C 
ATOM     10  O   UNL     1     -44.677  32.463 -22.306  1.00  0.00    -0.550 OA
ATOM     11  O   UNL     1     -43.425  31.781 -20.505  1.00  0.00    -0.550 OA
ENDBRANCH   8   9
ENDBRANCH   7   8
ENDBRANCH   6   7
ENDBRANCH   5   6
ENDBRANCH   4   5
ENDBRANCH   3   4
ENDBRANCH   2   3
ENDBRANCH   1   2
BRANCH   1  12
ATOM     12  C   UNL     1     -37.435  25.137 -20.595  1.00  0.00     0.000 C 
BRANCH  12  13
ATOM     13  C   UNL     1     -38.154  23.778 -20.493  1.00  0.00    -0.000 C 
BRANCH  13  14
ATOM     14  C   UNL     1     -37.953  23.116 -19.120  1.00  0.00    -0.000 C 
BRANCH  14  15
ATOM     15  C   UNL     1     -38.534  21.695 -19.059  1.00  0.00    -0.000 C 
BRANCH  15  16
ATOM     16  C   UNL     1     -40.028  21.676 -18.683  1.00  0.00    -0.000 C 
BRANCH  16  17
ATOM     17  C   UNL     1     -40.520  22.918 -17.910  1.00  0.00    -0.000 C 
BRANCH  17  18
ATOM     18  C   UNL     1     -42.018  22.855 -17.559  1.00  0.00    -0.000 C 
BRANCH  18  19
ATOM     19  C   UNL     1     -42.327  23.392 -16.152  1.00  0.00    -0.003 C 
ATOM     20  C   UNL     1     -41.416  24.551 -15.744  1.00  0.00     0.004 C 
ENDBRANCH  18  19
ENDBRANCH  17  18
ENDBRANCH  16  17
ENDBRANCH  15  16
ENDBRANCH  14  15
ENDBRANCH  13  14
ENDBRANCH  12  13
ENDBRANCH   1  12
TORSDOF 16
ENDMDL
MODEL 3
REMARK VINA RESULT:    20.467      3.910      8.284
REMARK INTER + INTRA:          38.990
REMARK INTER:                  39.683
REMARK INTRA:                  -0.693
REMARK UNBOUND:                -0.621
REMARK SMILES CCCCCCCCCCCCCCCCCC(=O)[O-]
REMARK SMILES IDX 10 1 11 2 12 3 13 4 14 5 15 6 16 7 17 8 18 9 19 10 20 11
REMARK SMILES IDX 9 12 8 13 7 14 6 15 5 16 4 17 3 18 2 19 1 20
REMARK H PARENT
REMARK Flexibility Score: inf
ROOT
ATOM      1  C   UNL     1     -38.502  23.756 -20.195  1.00  0.00     0.000 C 
ENDROOT
BRANCH   1   2
ATOM      2  C   UNL     1     -38.176  22.828 -19.005  1.00  0.00     0.000 C 
BRANCH   2   3
ATOM      3  C   UNL     1     -39.411  22.102 -18.427  1.00  0.00     0.000 C 
BRANCH   3   4
ATOM      4  C   UNL     1     -40.677  22.975 -18.499  1.00  0.00     0.000 C 
BRANCH   4   5
ATOM      5  C   UNL     1     -41.644  22.716 -17.329  1.00  0.00     0.000 C 
BRANCH   5   6
ATOM      6  C   UNL     1     -42.109  24.023 -16.658  1.00  0.00     0.000 C 
BRANCH   6   7
ATOM      7  C   UNL     1     -41.388  24.241 -15.311  1.00  0.00     0.006 C 
BRANCH   7   8
ATOM      8  C   UNL     1     -42.308  23.951 -14.107  1.00  0.00     0.053 C 
BRANCH   8   9
ATOM      9  C   UNL     1     -41.615  24.211 -12.801  1.00  0.00     0.041 C 
ATOM     10  O   UNL     1     -42.284  24.332 -11.738  1.00  0.00    -0.550 OA
ATOM     11  O   UNL     1     -40.227  24.313 -12.760  1.00  0.00    -0.550 OA
ENDBRANCH   8   9
ENDBRANCH   7   8
ENDBRANCH   6   7
ENDBRANCH   5   6
ENDBRANCH   4   5
ENDBRANCH   3   4
ENDBRANCH   2   3
ENDBRANCH   1   2
BRANCH   1  12
ATOM     12  C   UNL     1     -37.419  24.802 -20.524  1.00  0.00     0.000 C 
BRANCH  12  13
ATOM     13  C   UNL     1     -37.834  25.759 -21.657  1.00  0.00    -0.000 C 
BRANCH  13  14
ATOM     14  C   UNL     1     -37.499  27.224 -21.332  1.00  0.00    -0.000 C 
BRANCH  14  15
ATOM     15  C   UNL     1     -38.468  28.213 -21.999  1.00  0.00    -0.000 C 
BRANCH  15  16
ATOM     16  C   UNL     1     -38.679  29.494 -21.171  1.00  0.00    -0.000 C 
BRANCH  16  17
ATOM     17  C   UNL     1     -40.155  29.856 -20.898  1.00  0.00    -0.000 C 
BRANCH  17  18
ATOM     18  C   UNL     1     -41.108  29.377 -22.009  1.00  0.00    -0.000 C 
BRANCH  18  19
ATOM     19  C   UNL     1     -41.924  30.521 -22.633  1.00  0.00    -0.003 C 
ATOM     20  C   UNL     1     -43.136  30.917 -21.787  1.00  0.00     0.004 C 
ENDBRANCH  18  19
ENDBRANCH  17  18
ENDBRANCH  16  17
ENDBRANCH  15  16
ENDBRANCH  14  15
ENDBRANCH  13  14
ENDBRANCH  12  13
ENDBRANCH   1  12
TORSDOF 16
ENDMDL
MODEL 4
REMARK VINA RESULT:    20.484      4.188      8.417
REMARK INTER + INTRA:          39.023
REMARK INTER:                  39.856
REMARK INTRA:                  -0.833
REMARK UNBOUND:                -0.621
REMARK SMILES CCCCCCCCCCCCCCCCCC(=O)[O-]
REMARK SMILES IDX 10 1 11 2 12 3 13 4 14 5 15 6 16 7 17 8 18 9 19 10 20 11
REMARK SMILES IDX 9 12 8 13 7 14 6 15 5 16 4 17 3 18 2 19 1 20
REMARK H PARENT
REMARK Flexibility Score: inf
ROOT
ATOM      1  C   UNL     1     -38.658  22.114 -18.647  1.00  0.00     0.000 C 
ENDROOT
BRANCH   1   2
ATOM      2  C   UNL     1     -39.813  22.950 -18.055  1.00  0.00     0.000 C 
BRANCH   2   3
ATOM      3  C   UNL     1     -41.199  22.283 -18.197  1.00  0.00     0.000 C 
BRANCH   3   4
ATOM      4  C   UNL     1     -42.299  23.083 -17.478  1.00  0.00     0.000 C 
BRANCH   4   5
ATOM      5  C   UNL     1     -41.800  23.745 -16.181  1.00  0.00     0.000 C 
BRANCH   5   6
ATOM      6  C   UNL     1     -42.741  23.478 -14.990  1.00  0.00     0.000 C 
BRANCH   6   7
ATOM      7  C   UNL     1     -42.061  23.843 -13.654  1.00  0.00     0.006 C 
BRANCH   7   8
ATOM      8  C   UNL     1     -40.700  24.536 -13.865  1.00  0.00     0.053 C 
BRANCH   8   9
ATOM      9  C   UNL     1     -39.798  24.367 -12.678  1.00  0.00     0.041 C 
ATOM     10  O   UNL     1     -38.694  23.767 -12.796  1.00  0.00    -0.550 OA
ATOM     11  O   UNL     1     -40.176  24.882 -11.440  1.00  0.00    -0.550 OA
ENDBRANCH   8   9
ENDBRANCH   7   8
ENDBRANCH   6   7
ENDBRANCH   5   6
ENDBRANCH   4   5
ENDBRANCH   3   4
ENDBRANCH   2   3
ENDBRANCH   1   2
BRANCH   1  12
ATOM     12  C   UNL     1     -37.605  22.919 -19.434  1.00  0.00     0.000 C 
BRANCH  12  13
ATOM     13  C   UNL     1     -38.231  23.889 -20.453  1.00  0.00    -0.000 C 
BRANCH  13  14
ATOM     14  C   UNL     1     -37.362  25.137 -20.677  1.00  0.00    -0.000 C 
BRANCH  14  15
ATOM     15  C   UNL     1     -37.942  26.077 -21.745  1.00  0.00    -0.000 C 
BRANCH  15  16
ATOM     16  C   UNL     1     -37.427  27.522 -21.614  1.00  0.00    -0.000 C 
BRANCH  16  17
ATOM     17  C   UNL     1     -38.430  28.612 -22.048  1.00  0.00    -0.000 C 
BRANCH  17  18
ATOM     18  C   UNL     1     -38.626  29.709 -20.984  1.00  0.00    -0.000 C 
BRANCH  18  19
ATOM     19  C   UNL     1     -40.096  29.879 -20.564  1.00  0.00    -0.003 C 
ATOM     20  C   UNL     1     -41.078  29.582 -21.699  1.00  0.00     0.004 C 
ENDBRANCH  18  19
ENDBRANCH  17  18
ENDBRANCH  16  17
ENDBRANCH  15  16
ENDBRANCH  14  15
ENDBRANCH  13  14
ENDBRANCH  12  13
ENDBRANCH   1  12
TORSDOF 16
ENDMDL
MODEL 5
REMARK VINA RESULT:    20.499      3.521      8.035
REMARK INTER + INTRA:          39.051
REMARK INTER:                  39.782
REMARK INTRA:                  -0.731
REMARK UNBOUND:                -0.621
REMARK SMILES CCCCCCCCCCCCCCCCCC(=O)[O-]
REMARK SMILES IDX 10 1 11 2 12 3 13 4 14 5 15 6 16 7 17 8 18 9 19 10 20 11
REMARK SMILES IDX 9 12 8 13 7 14 6 15 5 16 4 17 3 18 2 19 1 20
REMARK H PARENT
REMARK Flexibility Score: inf
ROOT
ATOM      1  C   UNL     1     -37.248  25.235 -20.573  1.00  0.00     0.000 C 
ENDROOT
BRANCH   1   2
ATOM      2  C   UNL     1     -37.851  23.815 -20.506  1.00  0.00     0.000 C 
BRANCH   2   3
ATOM      3  C   UNL     1     -38.121  23.323 -19.067  1.00  0.00     0.000 C 
BRANCH   3   4
ATOM      4  C   UNL     1     -38.537  21.842 -19.035  1.00  0.00     0.000 C 
BRANCH   4   5
ATOM      5  C   UNL     1     -39.971  21.639 -18.513  1.00  0.00     0.000 C 
BRANCH   5   6
ATOM      6  C   UNL     1     -40.735  22.970 -18.377  1.00  0.00     0.000 C 
BRANCH   6   7
ATOM      7  C   UNL     1     -41.914  22.835 -17.390  1.00  0.00     0.006 C 
BRANCH   7   8
ATOM      8  C   UNL     1     -41.851  23.885 -16.262  1.00  0.00     0.053 C 
BRANCH   8   9
ATOM      9  C   UNL     1     -42.658  23.470 -15.067  1.00  0.00     0.041 C 
ATOM     10  O   UNL     1     -43.409  22.457 -15.126  1.00  0.00    -0.550 OA
ATOM     11  O   UNL     1     -42.574  24.201 -13.885  1.00  0.00    -0.550 OA
ENDBRANCH   8   9
ENDBRANCH   7   8
ENDBRANCH   6   7
ENDBRANCH   5   6
ENDBRANCH   4   5
ENDBRANCH   3   4
ENDBRANCH   2   3
ENDBRANCH   1   2
BRANCH   1  12
ATOM     12  C   UNL     1     -37.854  26.152 -21.654  1.00  0.00     0.000 C 
BRANCH  12  13
ATOM     13  C   UNL     1     -37.349  27.604 -21.560  1.00  0.00    -0.000 C 
BRANCH  13  14
ATOM     14  C   UNL     1     -38.395  28.616 -22.055  1.00  0.00    -0.000 C 
BRANCH  14  15
ATOM     15  C   UNL     1     -38.736  29.677 -20.996  1.00  0.00    -0.000 C 
BRANCH  15  16
ATOM     16  C   UNL     1     -40.252  29.899 -20.838  1.00  0.00    -0.000 C 
BRANCH  16  17
ATOM     17  C   UNL     1     -41.107  29.422 -22.032  1.00  0.00    -0.000 C 
BRANCH  17  18
ATOM     18  C   UNL     1     -42.074  30.503 -22.550  1.00  0.00    -0.000 C 
BRANCH  18  19
ATOM     19  C   UNL     1     -43.443  30.467 -21.850  1.00  0.00    -0.003 C 
ATOM     20  C   UNL     1     -43.963  31.859 -21.488  1.00  0.00     0.004 C 
ENDBRANCH  18  19
ENDBRANCH  17  18
ENDBRANCH  16  17
ENDBRANCH  15  16
ENDBRANCH  14  15
ENDBRANCH  13  14
ENDBRANCH  12  13
ENDBRANCH   1  12
TORSDOF 16
ENDMDL
MODEL 6
REMARK VINA RESULT:    20.607      2.034      4.312
REMARK INTER + INTRA:          39.260
REMARK INTER:                  40.002
REMARK INTRA:                  -0.741
REMARK UNBOUND:                -0.621
REMARK SMILES CCCCCCCCCCCCCCCCCC(=O)[O-]
REMARK SMILES IDX 10 1 11 2 12 3 13 4 14 5 15 6 16 7 17 8 18 9 19 10 20 11
REMARK SMILES IDX 9 12 8 13 7 14 6 15 5 16 4 17 3 18 2 19 1 20
REMARK H PARENT
REMARK Flexibility Score: inf
ROOT
ATOM      1  C   UNL     1     -39.347  22.912 -18.255  1.00  0.00     0.000 C 
ENDROOT
BRANCH   1   2
ATOM      2  C   UNL     1     -38.136  22.329 -19.015  1.00  0.00     0.000 C 
BRANCH   2   3
ATOM      3  C   UNL     1     -37.853  23.029 -20.362  1.00  0.00     0.000 C 
BRANCH   3   4
ATOM      4  C   UNL     1     -37.652  24.545 -20.190  1.00  0.00     0.000 C 
BRANCH   4   5
ATOM      5  C   UNL     1     -38.160  25.352 -21.399  1.00  0.00     0.000 C 
BRANCH   5   6
ATOM      6  C   UNL     1     -37.404  26.684 -21.570  1.00  0.00     0.000 C 
BRANCH   6   7
ATOM      7  C   UNL     1     -38.295  27.743 -22.253  1.00  0.00     0.006 C 
BRANCH   7   8
ATOM      8  C   UNL     1     -38.217  29.111 -21.546  1.00  0.00     0.053 C 
BRANCH   8   9
ATOM      9  C   UNL     1     -39.569  29.583 -21.096  1.00  0.00     0.041 C 
ATOM     10  O   UNL     1     -39.725  30.060 -19.939  1.00  0.00    -0.550 OA
ATOM     11  O   UNL     1     -40.656  29.503 -21.963  1.00  0.00    -0.550 OA
ENDBRANCH   8   9
ENDBRANCH   7   8
ENDBRANCH   6   7
ENDBRANCH   5   6
ENDBRANCH   4   5
ENDBRANCH   3   4
ENDBRANCH   2   3
ENDBRANCH   1   2
BRANCH   1  12
ATOM     12  C   UNL     1     -40.619  22.042 -18.285  1.00  0.00     0.000 C 
BRANCH  12  13
ATOM     13  C   UNL     1     -41.893  22.830 -17.926  1.00  0.00    -0.000 C 
BRANCH  13  14
ATOM     14  C   UNL     1     -41.789  23.507 -16.549  1.00  0.00    -0.000 C 
BRANCH  14  15
ATOM     15  C   UNL     1     -42.981  23.176 -15.637  1.00  0.00    -0.000 C 
BRANCH  15  16
ATOM     16  C   UNL     1     -42.586  23.071 -14.152  1.00  0.00    -0.000 C 
BRANCH  16  17
ATOM     17  C   UNL     1     -42.187  24.406 -13.489  1.00  0.00    -0.000 C 
BRANCH  17  18
ATOM     18  C   UNL     1     -41.703  24.236 -12.036  1.00  0.00    -0.000 C 
BRANCH  18  19
ATOM     19  C   UNL     1     -40.235  24.648 -11.842  1.00  0.00    -0.003 C 
ATOM     20  C   UNL     1     -39.359  24.319 -13.052  1.00  0.00     0.004 C 
ENDBRANCH  18  19
ENDBRANCH  17  18
ENDBRANCH  16  17
ENDBRANCH  15  16
ENDBRANCH  14  15
ENDBRANCH  13  14
ENDBRANCH  12  13
ENDBRANCH   1  12
TORSDOF 16
ENDMDL
MODEL 7
REMARK VINA RESULT:    20.666      6.790      9.882
REMARK INTER + INTRA:          39.375
REMARK INTER:                  39.943
REMARK INTRA:                  -0.567
REMARK UNBOUND:                -0.621
REMARK SMILES CCCCCCCCCCCCCCCCCC(=O)[O-]
REMARK SMILES IDX 10 1 11 2 12 3 13 4 14 5 15 6 16 7 17 8 18 9 19 10 20 11
REMARK SMILES IDX 9 12 8 13 7 14 6 15 5 16 4 17 3 18 2 19 1 20
REMARK H PARENT
REMARK Flexibility Score: inf
ROOT
ATOM      1  C   UNL     1     -39.668  25.086 -14.260  1.00  0.00     0.000 C 
ENDROOT
BRANCH   1   2
ATOM      2  C   UNL     1     -39.213  24.011 -13.249  1.00  0.00     0.000 C 
BRANCH   2   3
ATOM      3  C   UNL     1     -40.279  23.669 -12.185  1.00  0.00     0.000 C 
BRANCH   3   4
ATOM      4  C   UNL     1     -40.939  24.933 -11.605  1.00  0.00     0.000 C 
BRANCH   4   5
ATOM      5  C   UNL     1     -42.474  24.903 -11.711  1.00  0.00     0.000 C 
BRANCH   5   6
ATOM      6  C   UNL     1     -43.137  24.372 -10.425  1.00  0.00     0.000 C 
BRANCH   6   7
ATOM      7  C   UNL     1     -44.386  25.202 -10.062  1.00  0.00     0.006 C 
BRANCH   7   8
ATOM      8  C   UNL     1     -45.103  24.656  -8.811  1.00  0.00     0.053 C 
BRANCH   8   9
ATOM      9  C   UNL     1     -45.531  25.758  -7.887  1.00  0.00     0.041 C 
ATOM     10  O   UNL     1     -46.485  26.521  -8.203  1.00  0.00    -0.550 OA
ATOM     11  O   UNL     1     -44.876  25.937  -6.671  1.00  0.00    -0.550 OA
ENDBRANCH   8   9
ENDBRANCH   7   8
ENDBRANCH   6   7
ENDBRANCH   5   6
ENDBRANCH   4   5
ENDBRANCH   3   4
ENDBRANCH   2   3
ENDBRANCH   1   2
BRANCH   1  12
ATOM     12  C   UNL     1     -40.637  24.588 -15.351  1.00  0.00     0.000 C 
BRANCH  12  13
ATOM     13  C   UNL     1     -42.115  24.843 -15.001  1.00  0.00    -0.000 C 
BRANCH  13  14
ATOM     14  C   UNL     1     -43.017  23.662 -15.394  1.00  0.00    -0.000 C 
BRANCH  14  15
ATOM     15  C   UNL     1     -42.256  22.567 -16.159  1.00  0.00    -0.000 C 
BRANCH  15  16
ATOM     16  C   UNL     1     -42.016  22.928 -17.637  1.00  0.00    -0.000 C 
BRANCH  16  17
ATOM     17  C   UNL     1     -40.568  22.719 -18.130  1.00  0.00    -0.000 C 
BRANCH  17  18
ATOM     18  C   UNL     1     -40.299  21.283 -18.619  1.00  0.00    -0.000 C 
BRANCH  18  19
ATOM     19  C   UNL     1     -38.893  21.107 -19.216  1.00  0.00    -0.003 C 
ATOM     20  C   UNL     1     -37.919  22.203 -18.777  1.00  0.00     0.004 C 
ENDBRANCH  18  19
ENDBRANCH  17  18
ENDBRANCH  16  17
ENDBRANCH  15  16
ENDBRANCH  14  15
ENDBRANCH  13  14
ENDBRANCH  12  13
ENDBRANCH   1  12
TORSDOF 16
ENDMDL
MODEL 8
REMARK VINA RESULT:    20.814      0.926      1.693
REMARK INTER + INTRA:          39.662
REMARK INTER:                  40.398
REMARK INTRA:                  -0.736
REMARK UNBOUND:                -0.621
REMARK SMILES CCCCCCCCCCCCCCCCCC(=O)[O-]
REMARK SMILES IDX 10 1 11 2 12 3 13 4 14 5 15 6 16 7 17 8 18 9 19 10 20 11
REMARK SMILES IDX 9 12 8 13 7 14 6 15 5 16 4 17 3 18 2 19 1 20
REMARK H PARENT
REMARK Flexibility Score: inf
ROOT
ATOM      1  C   UNL     1     -37.904  24.192 -19.787  1.00  0.00     0.000 C 
ENDROOT
BRANCH   1   2
ATOM      2  C   UNL     1     -38.107  24.832 -21.178  1.00  0.00     0.000 C 
BRANCH   2   3
ATOM      3  C   UNL     1     -37.389  26.188 -21.348  1.00  0.00     0.000 C 
BRANCH   3   4
ATOM      4  C   UNL     1     -38.292  27.236 -22.024  1.00  0.00     0.000 C 
BRANCH   4   5
ATOM      5  C   UNL     1     -37.843  28.680 -21.735  1.00  0.00     0.000 C 
BRANCH   5   6
ATOM      6  C   UNL     1     -38.993  29.550 -21.192  1.00  0.00     0.000 C 
BRANCH   6   7
ATOM      7  C   UNL     1     -40.328  29.198 -21.881  1.00  0.00     0.006 C 
BRANCH   7   8
ATOM      8  C   UNL     1     -41.526  29.916 -21.228  1.00  0.00     0.053 C 
BRANCH   8   9
ATOM      9  C   UNL     1     -42.343  30.669 -22.237  1.00  0.00     0.041 C 
ATOM     10  O   UNL     1     -42.015  30.663 -23.455  1.00  0.00    -0.550 OA
ATOM     11  O   UNL     1     -43.472  31.374 -21.829  1.00  0.00    -0.550 OA
ENDBRANCH   8   9
ENDBRANCH   7   8
ENDBRANCH   6   7
ENDBRANCH   5   6
ENDBRANCH   4   5
ENDBRANCH   3   4
ENDBRANCH   2   3
ENDBRANCH   1   2
BRANCH   1  12
ATOM     12  C   UNL     1     -37.913  22.651 -19.769  1.00  0.00     0.000 C 
BRANCH  12  13
ATOM     13  C   UNL     1     -38.547  22.070 -18.491  1.00  0.00    -0.000 C 
BRANCH  13  14
ATOM     14  C   UNL     1     -40.078  21.978 -18.593  1.00  0.00    -0.000 C 
BRANCH  14  15
ATOM     15  C   UNL     1     -40.788  23.148 -17.893  1.00  0.00    -0.000 C 
BRANCH  15  16
ATOM     16  C   UNL     1     -42.207  22.787 -17.415  1.00  0.00    -0.000 C 
BRANCH  16  17
ATOM     17  C   UNL     1     -42.500  23.123 -15.937  1.00  0.00    -0.000 C 
BRANCH  17  18
ATOM     18  C   UNL     1     -41.839  24.435 -15.475  1.00  0.00    -0.000 C 
BRANCH  18  19
ATOM     19  C   UNL     1     -41.162  24.313 -14.099  1.00  0.00    -0.003 C 
ATOM     20  C   UNL     1     -42.152  24.002 -12.975  1.00  0.00     0.004 C 
ENDBRANCH  18  19
ENDBRANCH  17  18
ENDBRANCH  16  17
ENDBRANCH  15  16
ENDBRANCH  14  15
ENDBRANCH  13  14
ENDBRANCH  12  13
ENDBRANCH   1  12
TORSDOF 16
ENDMDL
MODEL 9
REMARK VINA RESULT:    22.022      4.585      9.485
REMARK INTER + INTRA:          42.000
REMARK INTER:                  42.549
REMARK INTRA:                  -0.550
REMARK UNBOUND:                -0.621
REMARK SMILES CCCCCCCCCCCCCCCCCC(=O)[O-]
REMARK SMILES IDX 10 1 11 2 12 3 13 4 14 5 15 6 16 7 17 8 18 9 19 10 20 11
REMARK SMILES IDX 9 12 8 13 7 14 6 15 5 16 4 17 3 18 2 19 1 20
REMARK H PARENT
REMARK Flexibility Score: inf
ROOT
ATOM      1  C   UNL     1     -38.615  23.889 -19.300  1.00  0.00     0.000 C 
ENDROOT
BRANCH   1   2
ATOM      2  C   UNL     1     -38.662  22.397 -18.905  1.00  0.00     0.000 C 
BRANCH   2   3
ATOM      3  C   UNL     1     -40.021  21.953 -18.322  1.00  0.00     0.000 C 
BRANCH   3   4
ATOM      4  C   UNL     1     -41.035  23.110 -18.281  1.00  0.00     0.000 C 
BRANCH   4   5
ATOM      5  C   UNL     1     -42.035  22.981 -17.117  1.00  0.00     0.000 C 
BRANCH   5   6
ATOM      6  C   UNL     1     -41.729  23.968 -15.974  1.00  0.00     0.000 C 
BRANCH   6   7
ATOM      7  C   UNL     1     -42.800  23.883 -14.866  1.00  0.00     0.006 C 
BRANCH   7   8
ATOM      8  C   UNL     1     -42.279  23.159 -13.608  1.00  0.00     0.053 C 
BRANCH   8   9
ATOM      9  C   UNL     1     -41.703  24.121 -12.610  1.00  0.00     0.041 C 
ATOM     10  O   UNL     1     -42.452  24.694 -11.771  1.00  0.00    -0.550 OA
ATOM     11  O   UNL     1     -40.334  24.379 -12.604  1.00  0.00    -0.550 OA
ENDBRANCH   8   9
ENDBRANCH   7   8
ENDBRANCH   6   7
ENDBRANCH   5   6
ENDBRANCH   4   5
ENDBRANCH   3   4
ENDBRANCH   2   3
ENDBRANCH   1   2
BRANCH   1  12
ATOM     12  C   UNL     1     -38.090  24.173 -20.721  1.00  0.00     0.000 C 
BRANCH  12  13
ATOM     13  C   UNL     1     -37.373  25.531 -20.836  1.00  0.00    -0.000 C 
BRANCH  13  14
ATOM     14  C   UNL     1     -38.049  26.460 -21.859  1.00  0.00    -0.000 C 
BRANCH  14  15
ATOM     15  C   UNL     1     -37.314  27.801 -22.013  1.00  0.00    -0.000 C 
BRANCH  15  16
ATOM     16  C   UNL     1     -37.606  28.491 -23.359  1.00  0.00    -0.000 C 
BRANCH  16  17
ATOM     17  C   UNL     1     -36.573  29.558 -23.780  1.00  0.00    -0.000 C 
BRANCH  17  18
ATOM     18  C   UNL     1     -36.948  30.274 -25.092  1.00  0.00    -0.000 C 
BRANCH  18  19
ATOM     19  C   UNL     1     -36.240  31.629 -25.258  1.00  0.00    -0.003 C 
ATOM     20  C   UNL     1     -37.156  32.713 -25.828  1.00  0.00     0.004 C 
ENDBRANCH  18  19
ENDBRANCH  17  18
ENDBRANCH  16  17
ENDBRANCH  15  16
ENDBRANCH  14  15
ENDBRANCH  13  14
ENDBRANCH  12  13
ENDBRANCH   1  12
TORSDOF 16
ENDMDL
