MODEL 1
REMARK VINA RESULT:    -5.264      0.000      0.000
REMARK INTER + INTRA:          -6.026
REMARK INTER:                  -5.879
REMARK INTRA:                  -0.146
REMARK UNBOUND:                -0.146
REMARK SMILES O=C([O-])C=Cc1ccccc1
REMARK SMILES IDX 4 1 5 2 2 3 1 4 3 5 6 6 7 7 11 8 8 9 10 10 9 11
REMARK H PARENT
REMARK Flexibility Score: inf
ROOT
ATOM      1  C   UNL     1     -14.491  45.442  25.199  1.00  0.00     0.025 C 
ATOM      2  C   UNL     1     -14.738  44.576  24.204  1.00  0.00     0.010 C 
ENDROOT
BRANCH   1   3
ATOM      3  C   UNL     1     -15.373  45.564  26.371  1.00  0.00     0.064 C 
ATOM      4  O   UNL     1     -15.888  44.547  26.909  1.00  0.00    -0.545 OA
ATOM      5  O   UNL     1     -15.645  46.822  26.894  1.00  0.00    -0.545 OA
ENDBRANCH   1   3
BRANCH   2   6
ATOM      6  C   UNL     1     -13.888  44.404  22.995  1.00  0.00    -0.026 A 
ATOM      7  C   UNL     1     -14.135  43.429  22.005  1.00  0.00     0.008 A 
ATOM      8  C   UNL     1     -12.782  45.260  22.835  1.00  0.00     0.008 A 
ATOM      9  C   UNL     1     -13.294  43.320  20.891  1.00  0.00     0.001 A 
ATOM     10  C   UNL     1     -11.946  45.147  21.720  1.00  0.00     0.001 A 
ATOM     11  C   UNL     1     -12.202  44.177  20.749  1.00  0.00     0.000 A 
ENDBRANCH   2   6
TORSDOF 2
ENDMDL
MODEL 2
REMARK VINA RESULT:    -5.258      0.237      1.000
REMARK INTER + INTRA:          -6.019
REMARK INTER:                  -5.874
REMARK INTRA:                  -0.144
REMARK UNBOUND:                -0.146
REMARK SMILES O=C([O-])C=Cc1ccccc1
REMARK SMILES IDX 4 1 5 2 2 3 1 4 3 5 6 6 7 7 11 8 8 9 10 10 9 11
REMARK H PARENT
REMARK Flexibility Score: inf
ROOT
ATOM      1  C   UNL     1     -14.293  45.514  25.162  1.00  0.00     0.025 C 
ATOM      2  C   UNL     1     -14.603  44.721  24.124  1.00  0.00     0.010 C 
ENDROOT
BRANCH   1   3
ATOM      3  C   UNL     1     -15.223  45.742  26.280  1.00  0.00     0.064 C 
ATOM      4  O   UNL     1     -15.538  46.908  26.640  1.00  0.00    -0.545 OA
ATOM      5  O   UNL     1     -15.765  44.654  26.951  1.00  0.00    -0.545 OA
ENDBRANCH   1   3
BRANCH   2   6
ATOM      6  C   UNL     1     -13.710  44.449  22.966  1.00  0.00    -0.026 A 
ATOM      7  C   UNL     1     -13.925  43.396  22.050  1.00  0.00     0.008 A 
ATOM      8  C   UNL     1     -12.594  45.286  22.777  1.00  0.00     0.008 A 
ATOM      9  C   UNL     1     -13.044  43.194  20.981  1.00  0.00     0.001 A 
ATOM     10  C   UNL     1     -11.719  45.081  21.707  1.00  0.00     0.001 A 
ATOM     11  C   UNL     1     -11.943  44.036  20.809  1.00  0.00     0.000 A 
ENDBRANCH   2   6
TORSDOF 2
ENDMDL
MODEL 3
REMARK VINA RESULT:    -5.193      0.286      1.484
REMARK INTER + INTRA:          -5.947
REMARK INTER:                  -5.815
REMARK INTRA:                  -0.132
REMARK UNBOUND:                -0.146
REMARK SMILES O=C([O-])C=Cc1ccccc1
REMARK SMILES IDX 4 1 5 2 2 3 1 4 3 5 6 6 7 7 11 8 8 9 10 10 9 11
REMARK H PARENT
REMARK Flexibility Score: inf
ROOT
ATOM      1  C   UNL     1     -14.548  45.490  25.480  1.00  0.00     0.025 C 
ATOM      2  C   UNL     1     -14.865  44.771  24.392  1.00  0.00     0.010 C 
ENDROOT
BRANCH   1   3
ATOM      3  C   UNL     1     -15.480  45.659  26.608  1.00  0.00     0.064 C 
ATOM      4  O   UNL     1     -16.078  44.671  27.113  1.00  0.00    -0.545 OA
ATOM      5  O   UNL     1     -15.704  46.928  27.125  1.00  0.00    -0.545 OA
ENDBRANCH   1   3
BRANCH   2   6
ATOM      6  C   UNL     1     -13.972  44.563  23.221  1.00  0.00    -0.026 A 
ATOM      7  C   UNL     1     -12.809  45.329  22.985  1.00  0.00     0.008 A 
ATOM      8  C   UNL     1     -14.305  43.548  22.304  1.00  0.00     0.008 A 
ATOM      9  C   UNL     1     -12.012  45.081  21.862  1.00  0.00     0.001 A 
ATOM     10  C   UNL     1     -13.504  43.304  21.185  1.00  0.00     0.001 A 
ATOM     11  C   UNL     1     -12.358  44.070  20.963  1.00  0.00     0.000 A 
ENDBRANCH   2   6
TORSDOF 2
ENDMDL
MODEL 4
REMARK VINA RESULT:    -5.086      3.332      5.184
REMARK INTER + INTRA:          -5.827
REMARK INTER:                  -5.679
REMARK INTRA:                  -0.147
REMARK UNBOUND:                -0.146
REMARK SMILES O=C([O-])C=Cc1ccccc1
REMARK SMILES IDX 4 1 5 2 2 3 1 4 3 5 6 6 7 7 11 8 8 9 10 10 9 11
REMARK H PARENT
REMARK Flexibility Score: inf
ROOT
ATOM      1  C   UNL     1     -12.740  45.070  22.513  1.00  0.00     0.025 C 
ATOM      2  C   UNL     1     -13.909  44.495  22.839  1.00  0.00     0.010 C 
ENDROOT
BRANCH   1   3
ATOM      3  C   UNL     1     -12.095  44.849  21.208  1.00  0.00     0.064 C 
ATOM      4  O   UNL     1     -12.742  44.389  20.230  1.00  0.00    -0.545 OA
ATOM      5  O   UNL     1     -10.749  45.154  21.052  1.00  0.00    -0.545 OA
ENDBRANCH   1   3
BRANCH   2   6
ATOM      6  C   UNL     1     -14.612  44.677  24.137  1.00  0.00    -0.026 A 
ATOM      7  C   UNL     1     -15.754  43.935  24.512  1.00  0.00     0.008 A 
ATOM      8  C   UNL     1     -14.112  45.639  25.035  1.00  0.00     0.008 A 
ATOM      9  C   UNL     1     -16.369  44.157  25.750  1.00  0.00     0.001 A 
ATOM     10  C   UNL     1     -14.729  45.855  26.270  1.00  0.00     0.001 A 
ATOM     11  C   UNL     1     -15.858  45.115  26.627  1.00  0.00     0.000 A 
ENDBRANCH   2   6
TORSDOF 2
ENDMDL
MODEL 5
REMARK VINA RESULT:    -5.064      0.784      1.967
REMARK INTER + INTRA:          -5.803
REMARK INTER:                  -5.656
REMARK INTRA:                  -0.146
REMARK UNBOUND:                -0.146
REMARK SMILES O=C([O-])C=Cc1ccccc1
REMARK SMILES IDX 4 1 5 2 2 3 1 4 3 5 6 6 7 7 11 8 8 9 10 10 9 11
REMARK H PARENT
REMARK Flexibility Score: inf
ROOT
ATOM      1  C   UNL     1     -15.472  44.772  25.695  1.00  0.00     0.025 C 
ATOM      2  C   UNL     1     -14.547  45.456  25.003  1.00  0.00     0.010 C 
ENDROOT
BRANCH   1   3
ATOM      3  C   UNL     1     -16.076  45.300  26.930  1.00  0.00     0.064 C 
ATOM      4  O   UNL     1     -15.837  46.472  27.325  1.00  0.00    -0.545 OA
ATOM      5  O   UNL     1     -16.925  44.491  27.675  1.00  0.00    -0.545 OA
ENDBRANCH   1   3
BRANCH   2   6
ATOM      6  C   UNL     1     -13.900  44.981  23.751  1.00  0.00    -0.026 A 
ATOM      7  C   UNL     1     -12.715  45.543  23.228  1.00  0.00     0.008 A 
ATOM      8  C   UNL     1     -14.503  43.916  23.054  1.00  0.00     0.008 A 
ATOM      9  C   UNL     1     -12.158  45.049  22.043  1.00  0.00     0.001 A 
ATOM     10  C   UNL     1     -13.941  43.426  21.872  1.00  0.00     0.001 A 
ATOM     11  C   UNL     1     -12.770  43.992  21.366  1.00  0.00     0.000 A 
ENDBRANCH   2   6
TORSDOF 2
ENDMDL
MODEL 6
REMARK VINA RESULT:    -4.967     20.359     21.957
REMARK INTER + INTRA:          -5.694
REMARK INTER:                  -5.550
REMARK INTRA:                  -0.145
REMARK UNBOUND:                -0.146
REMARK SMILES O=C([O-])C=Cc1ccccc1
REMARK SMILES IDX 4 1 5 2 2 3 1 4 3 5 6 6 7 7 11 8 8 9 10 10 9 11
REMARK H PARENT
REMARK Flexibility Score: inf
ROOT
ATOM      1  C   UNL     1     -26.847  61.096  32.865  1.00  0.00     0.025 C 
ATOM      2  C   UNL     1     -26.308  61.997  32.029  1.00  0.00     0.010 C 
ENDROOT
BRANCH   1   3
ATOM      3  C   UNL     1     -27.610  61.491  34.060  1.00  0.00     0.064 C 
ATOM      4  O   UNL     1     -27.834  62.704  34.320  1.00  0.00    -0.545 OA
ATOM      5  O   UNL     1     -28.092  60.511  34.918  1.00  0.00    -0.545 OA
ENDBRANCH   1   3
BRANCH   2   6
ATOM      6  C   UNL     1     -25.528  61.664  30.807  1.00  0.00    -0.026 A 
ATOM      7  C   UNL     1     -24.576  62.535  30.232  1.00  0.00     0.008 A 
ATOM      8  C   UNL     1     -25.753  60.417  30.195  1.00  0.00     0.008 A 
ATOM      9  C   UNL     1     -23.877  62.159  29.080  1.00  0.00     0.001 A 
ATOM     10  C   UNL     1     -25.051  60.047  29.046  1.00  0.00     0.001 A 
ATOM     11  C   UNL     1     -24.113  60.917  28.487  1.00  0.00     0.000 A 
ENDBRANCH   2   6
TORSDOF 2
ENDMDL
MODEL 7
REMARK VINA RESULT:    -4.914      1.332      2.163
REMARK INTER + INTRA:          -5.635
REMARK INTER:                  -5.508
REMARK INTRA:                  -0.126
REMARK UNBOUND:                -0.146
REMARK SMILES O=C([O-])C=Cc1ccccc1
REMARK SMILES IDX 4 1 5 2 2 3 1 4 3 5 6 6 7 7 11 8 8 9 10 10 9 11
REMARK H PARENT
REMARK Flexibility Score: inf
ROOT
ATOM      1  C   UNL     1     -15.591  46.702  26.063  1.00  0.00     0.025 C 
ATOM      2  C   UNL     1     -14.504  45.942  25.860  1.00  0.00     0.010 C 
ENDROOT
BRANCH   1   3
ATOM      3  C   UNL     1     -15.890  47.312  27.369  1.00  0.00     0.064 C 
ATOM      4  O   UNL     1     -15.879  48.563  27.523  1.00  0.00    -0.545 OA
ATOM      5  O   UNL     1     -16.190  46.496  28.451  1.00  0.00    -0.545 OA
ENDBRANCH   1   3
BRANCH   2   6
ATOM      6  C   UNL     1     -14.145  45.299  24.568  1.00  0.00    -0.026 A 
ATOM      7  C   UNL     1     -14.905  44.265  23.977  1.00  0.00     0.008 A 
ATOM      8  C   UNL     1     -12.988  45.746  23.902  1.00  0.00     0.008 A 
ATOM      9  C   UNL     1     -14.510  43.703  22.758  1.00  0.00     0.001 A 
ATOM     10  C   UNL     1     -12.599  45.181  22.685  1.00  0.00     0.001 A 
ATOM     11  C   UNL     1     -13.360  44.160  22.113  1.00  0.00     0.000 A 
ENDBRANCH   2   6
TORSDOF 2
ENDMDL
MODEL 8
REMARK VINA RESULT:    -4.864     19.422     20.675
REMARK INTER + INTRA:          -5.579
REMARK INTER:                  -5.450
REMARK INTRA:                  -0.130
REMARK UNBOUND:                -0.146
REMARK SMILES O=C([O-])C=Cc1ccccc1
REMARK SMILES IDX 4 1 5 2 2 3 1 4 3 5 6 6 7 7 11 8 8 9 10 10 9 11
REMARK H PARENT
REMARK Flexibility Score: inf
ROOT
ATOM      1  C   UNL     1     -25.433  60.968  31.152  1.00  0.00     0.025 C 
ATOM      2  C   UNL     1     -24.753  61.987  30.601  1.00  0.00     0.010 C 
ENDROOT
BRANCH   1   3
ATOM      3  C   UNL     1     -26.633  61.180  31.977  1.00  0.00     0.064 C 
ATOM      4  O   UNL     1     -27.358  60.214  32.335  1.00  0.00    -0.545 OA
ATOM      5  O   UNL     1     -26.973  62.468  32.369  1.00  0.00    -0.545 OA
ENDBRANCH   1   3
BRANCH   2   6
ATOM      6  C   UNL     1     -23.537  61.840  29.759  1.00  0.00    -0.026 A 
ATOM      7  C   UNL     1     -23.573  61.762  28.349  1.00  0.00     0.008 A 
ATOM      8  C   UNL     1     -22.286  61.777  30.403  1.00  0.00     0.008 A 
ATOM      9  C   UNL     1     -22.389  61.623  27.615  1.00  0.00     0.001 A 
ATOM     10  C   UNL     1     -21.108  61.641  29.665  1.00  0.00     0.001 A 
ATOM     11  C   UNL     1     -21.159  61.563  28.272  1.00  0.00     0.000 A 
ENDBRANCH   2   6
TORSDOF 2
ENDMDL
