MODEL 1
REMARK VINA RESULT:    -3.582      0.000      0.000
REMARK INTER + INTRA:          -4.405
REMARK INTER:                  -4.315
REMARK INTRA:                  -0.089
REMARK UNBOUND:                -0.089
REMARK SMILES CC[C@H](C)[C@H]([NH3+])C(=O)[O-]
REMARK SMILES IDX 3 1 4 2 5 3 6 4 7 8 8 9 9 10 2 11 1 12
REMARK H PARENT 6 5 6 6 6 7
REMARK Flexibility Score: inf
ROOT
ATOM      1  C   UNL     1      18.514  28.586  31.189  1.00  0.00     0.050 C 
ATOM      2  C   UNL     1      19.617  27.699  30.584  1.00  0.00     0.014 C 
ENDROOT
BRANCH   1   3
ATOM      3  C   UNL     1      18.719  28.809  32.721  1.00  0.00     0.230 C 
BRANCH   3   4
ATOM      4  N   UNL     1      17.697  29.676  33.325  1.00  0.00    -0.350 N 
ATOM      5  H   UNL     1      16.872  29.765  32.690  1.00  0.00     0.345 HD
ATOM      6  H   UNL     1      18.082  30.623  33.541  1.00  0.00     0.345 HD
ATOM      7  H   UNL     1      17.363  29.246  34.218  1.00  0.00     0.345 HD
ENDBRANCH   3   4
BRANCH   3   8
ATOM      8  C   UNL     1      20.105  29.335  33.010  1.00  0.00     0.099 C 
ATOM      9  O   UNL     1      20.436  30.481  32.607  1.00  0.00    -0.544 OA
ATOM     10  O   UNL     1      21.011  28.588  33.755  1.00  0.00    -0.544 OA
ENDBRANCH   3   8
ENDBRANCH   1   3
BRANCH   1  11
ATOM     11  C   UNL     1      17.079  28.144  30.778  1.00  0.00     0.006 C 
ATOM     12  C   UNL     1      17.002  26.986  29.776  1.00  0.00     0.004 C 
ENDBRANCH   1  11
TORSDOF 4
ENDMDL
MODEL 2
REMARK VINA RESULT:    -3.577      3.346      4.398
REMARK INTER + INTRA:          -4.398
REMARK INTER:                  -4.330
REMARK INTRA:                  -0.068
REMARK UNBOUND:                -0.089
REMARK SMILES CC[C@H](C)[C@H]([NH3+])C(=O)[O-]
REMARK SMILES IDX 3 1 4 2 5 3 6 4 7 8 8 9 9 10 2 11 1 12
REMARK H PARENT 6 5 6 6 6 7
REMARK Flexibility Score: inf
ROOT
ATOM      1  C   UNL     1      18.305  27.945  31.087  1.00  0.00     0.050 C 
ATOM      2  C   UNL     1      19.435  27.822  30.049  1.00  0.00     0.014 C 
ENDROOT
BRANCH   1   3
ATOM      3  C   UNL     1      16.927  28.246  30.417  1.00  0.00     0.230 C 
BRANCH   3   4
ATOM      4  N   UNL     1      15.863  28.549  31.385  1.00  0.00    -0.350 N 
ATOM      5  H   UNL     1      14.958  28.129  31.076  1.00  0.00     0.345 HD
ATOM      6  H   UNL     1      15.749  29.580  31.513  1.00  0.00     0.345 HD
ATOM      7  H   UNL     1      16.107  28.129  32.310  1.00  0.00     0.345 HD
ENDBRANCH   3   4
BRANCH   3   8
ATOM      8  C   UNL     1      16.512  27.117  29.503  1.00  0.00     0.099 C 
ATOM      9  O   UNL     1      16.030  26.061  29.992  1.00  0.00    -0.544 OA
ATOM     10  O   UNL     1      16.616  27.242  28.122  1.00  0.00    -0.544 OA
ENDBRANCH   3   8
ENDBRANCH   1   3
BRANCH   1  11
ATOM     11  C   UNL     1      18.669  28.874  32.281  1.00  0.00     0.006 C 
ATOM     12  C   UNL     1      20.154  28.916  32.662  1.00  0.00     0.004 C 
ENDBRANCH   1  11
TORSDOF 4
ENDMDL
MODEL 3
REMARK VINA RESULT:    -3.525      1.852      2.526
REMARK INTER + INTRA:          -4.335
REMARK INTER:                  -4.267
REMARK INTRA:                  -0.068
REMARK UNBOUND:                -0.089
REMARK SMILES CC[C@H](C)[C@H]([NH3+])C(=O)[O-]
REMARK SMILES IDX 3 1 4 2 5 3 6 4 7 8 8 9 9 10 2 11 1 12
REMARK H PARENT 6 5 6 6 6 7
REMARK Flexibility Score: inf
ROOT
ATOM      1  C   UNL     1      17.755  27.873  30.822  1.00  0.00     0.050 C 
ATOM      2  C   UNL     1      16.738  28.824  31.478  1.00  0.00     0.014 C 
ENDROOT
BRANCH   1   3
ATOM      3  C   UNL     1      19.107  28.589  30.508  1.00  0.00     0.230 C 
BRANCH   3   4
ATOM      4  N   UNL     1      20.074  27.728  29.812  1.00  0.00    -0.350 N 
ATOM      5  H   UNL     1      20.597  27.139  30.498  1.00  0.00     0.345 HD
ATOM      6  H   UNL     1      20.745  28.293  29.245  1.00  0.00     0.345 HD
ATOM      7  H   UNL     1      19.562  27.084  29.168  1.00  0.00     0.345 HD
ENDBRANCH   3   4
BRANCH   3   8
ATOM      8  C   UNL     1      19.714  29.171  31.762  1.00  0.00     0.099 C 
ATOM      9  O   UNL     1      20.295  28.415  32.586  1.00  0.00    -0.544 OA
ATOM     10  O   UNL     1      19.680  30.540  32.002  1.00  0.00    -0.544 OA
ENDBRANCH   3   8
ENDBRANCH   1   3
BRANCH   1  11
ATOM     11  C   UNL     1      17.156  27.058  29.640  1.00  0.00     0.006 C 
ATOM     12  C   UNL     1      15.877  26.272  29.955  1.00  0.00     0.004 C 
ENDBRANCH   1  11
TORSDOF 4
ENDMDL
MODEL 4
REMARK VINA RESULT:    -3.490      7.132      8.514
REMARK INTER + INTRA:          -4.293
REMARK INTER:                  -4.209
REMARK INTRA:                  -0.083
REMARK UNBOUND:                -0.089
REMARK SMILES CC[C@H](C)[C@H]([NH3+])C(=O)[O-]
REMARK SMILES IDX 3 1 4 2 5 3 6 4 7 8 8 9 9 10 2 11 1 12
REMARK H PARENT 6 5 6 6 6 7
REMARK Flexibility Score: inf
ROOT
ATOM      1  C   UNL     1      15.555  26.862  26.558  1.00  0.00     0.050 C 
ATOM      2  C   UNL     1      14.761  26.402  27.793  1.00  0.00     0.014 C 
ENDROOT
BRANCH   1   3
ATOM      3  C   UNL     1      15.489  25.818  25.398  1.00  0.00     0.230 C 
BRANCH   3   4
ATOM      4  N   UNL     1      16.721  25.756  24.599  1.00  0.00    -0.350 N 
ATOM      5  H   UNL     1      17.322  26.588  24.790  1.00  0.00     0.345 HD
ATOM      6  H   UNL     1      16.508  25.699  23.578  1.00  0.00     0.345 HD
ATOM      7  H   UNL     1      17.264  24.904  24.869  1.00  0.00     0.345 HD
ENDBRANCH   3   4
BRANCH   3   8
ATOM      8  C   UNL     1      14.290  26.068  24.514  1.00  0.00     0.099 C 
ATOM      9  O   UNL     1      14.097  27.215  24.031  1.00  0.00    -0.544 OA
ATOM     10  O   UNL     1      13.416  25.037  24.189  1.00  0.00    -0.544 OA
ENDBRANCH   3   8
ENDBRANCH   1   3
BRANCH   1  11
ATOM     11  C   UNL     1      16.987  27.366  26.903  1.00  0.00     0.006 C 
ATOM     12  C   UNL     1      17.309  27.478  28.398  1.00  0.00     0.004 C 
ENDBRANCH   1  11
TORSDOF 4
ENDMDL
MODEL 5
REMARK VINA RESULT:    -3.436      4.109      5.199
REMARK INTER + INTRA:          -4.228
REMARK INTER:                  -4.115
REMARK INTRA:                  -0.113
REMARK UNBOUND:                -0.089
REMARK SMILES CC[C@H](C)[C@H]([NH3+])C(=O)[O-]
REMARK SMILES IDX 3 1 4 2 5 3 6 4 7 8 8 9 9 10 2 11 1 12
REMARK H PARENT 6 5 6 6 6 7
REMARK Flexibility Score: inf
ROOT
ATOM      1  C   UNL     1      18.313  27.916  29.535  1.00  0.00     0.050 C 
ATOM      2  C   UNL     1      17.116  26.993  29.821  1.00  0.00     0.014 C 
ENDROOT
BRANCH   1   3
ATOM      3  C   UNL     1      18.603  28.040  28.006  1.00  0.00     0.230 C 
BRANCH   3   4
ATOM      4  N   UNL     1      19.858  28.745  27.707  1.00  0.00    -0.350 N 
ATOM      5  H   UNL     1      20.279  28.382  26.822  1.00  0.00     0.345 HD
ATOM      6  H   UNL     1      20.543  28.649  28.491  1.00  0.00     0.345 HD
ATOM      7  H   UNL     1      19.659  29.762  27.568  1.00  0.00     0.345 HD
ENDBRANCH   3   4
BRANCH   3   8
ATOM      8  C   UNL     1      17.443  28.686  27.287  1.00  0.00     0.099 C 
ATOM      9  O   UNL     1      16.847  28.060  26.371  1.00  0.00    -0.544 OA
ATOM     10  O   UNL     1      16.992  29.950  27.651  1.00  0.00    -0.544 OA
ENDBRANCH   3   8
ENDBRANCH   1   3
BRANCH   1  11
ATOM     11  C   UNL     1      19.557  27.595  30.414  1.00  0.00     0.006 C 
ATOM     12  C   UNL     1      19.701  28.427  31.694  1.00  0.00     0.004 C 
ENDBRANCH   1  11
TORSDOF 4
ENDMDL
MODEL 6
REMARK VINA RESULT:    -3.431      1.674      1.876
REMARK INTER + INTRA:          -4.222
REMARK INTER:                  -4.111
REMARK INTRA:                  -0.111
REMARK UNBOUND:                -0.089
REMARK SMILES CC[C@H](C)[C@H]([NH3+])C(=O)[O-]
REMARK SMILES IDX 3 1 4 2 5 3 6 4 7 8 8 9 9 10 2 11 1 12
REMARK H PARENT 6 5 6 6 6 7
REMARK Flexibility Score: inf
ROOT
ATOM      1  C   UNL     1      18.059  28.101  30.511  1.00  0.00     0.050 C 
ATOM      2  C   UNL     1      19.542  27.750  30.724  1.00  0.00     0.014 C 
ENDROOT
BRANCH   1   3
ATOM      3  C   UNL     1      17.332  28.409  31.859  1.00  0.00     0.230 C 
BRANCH   3   4
ATOM      4  N   UNL     1      15.921  28.783  31.687  1.00  0.00    -0.350 N 
ATOM      5  H   UNL     1      15.564  28.448  30.764  1.00  0.00     0.345 HD
ATOM      6  H   UNL     1      15.790  29.817  31.764  1.00  0.00     0.345 HD
ATOM      7  H   UNL     1      15.349  28.324  32.433  1.00  0.00     0.345 HD
ENDBRANCH   3   4
BRANCH   3   8
ATOM      8  C   UNL     1      18.074  29.466  32.643  1.00  0.00     0.099 C 
ATOM      9  O   UNL     1      18.120  30.649  32.211  1.00  0.00    -0.544 OA
ATOM     10  O   UNL     1      18.672  29.163  33.860  1.00  0.00    -0.544 OA
ENDBRANCH   3   8
ENDBRANCH   1   3
BRANCH   1  11
ATOM     11  C   UNL     1      17.318  27.095  29.584  1.00  0.00     0.006 C 
ATOM     12  C   UNL     1      17.148  27.536  28.125  1.00  0.00     0.004 C 
ENDBRANCH   1  11
TORSDOF 4
ENDMDL
MODEL 7
REMARK VINA RESULT:    -3.412      7.894      8.995
REMARK INTER + INTRA:          -4.199
REMARK INTER:                  -4.113
REMARK INTRA:                  -0.086
REMARK UNBOUND:                -0.089
REMARK SMILES CC[C@H](C)[C@H]([NH3+])C(=O)[O-]
REMARK SMILES IDX 3 1 4 2 5 3 6 4 7 8 8 9 9 10 2 11 1 12
REMARK H PARENT 6 5 6 6 6 7
REMARK Flexibility Score: inf
ROOT
ATOM      1  C   UNL     1      13.644  25.218  25.205  1.00  0.00     0.050 C 
ATOM      2  C   UNL     1      13.431  24.819  26.676  1.00  0.00     0.014 C 
ENDROOT
BRANCH   1   3
ATOM      3  C   UNL     1      14.113  26.701  25.064  1.00  0.00     0.230 C 
BRANCH   3   4
ATOM      4  N   UNL     1      13.834  27.278  23.741  1.00  0.00    -0.350 N 
ATOM      5  H   UNL     1      13.959  26.557  22.995  1.00  0.00     0.345 HD
ATOM      6  H   UNL     1      14.450  28.099  23.548  1.00  0.00     0.345 HD
ATOM      7  H   UNL     1      12.840  27.599  23.708  1.00  0.00     0.345 HD
ENDBRANCH   3   4
BRANCH   3   8
ATOM      8  C   UNL     1      15.578  26.838  25.409  1.00  0.00     0.099 C 
ATOM      9  O   UNL     1      15.968  27.810  26.109  1.00  0.00    -0.544 OA
ATOM     10  O   UNL     1      16.500  25.882  25.000  1.00  0.00    -0.544 OA
ENDBRANCH   3   8
ENDBRANCH   1   3
BRANCH   1  11
ATOM     11  C   UNL     1      12.455  24.819  24.284  1.00  0.00     0.006 C 
ATOM     12  C   UNL     1      11.712  23.536  24.676  1.00  0.00     0.004 C 
ENDBRANCH   1  11
TORSDOF 4
ENDMDL
MODEL 8
REMARK VINA RESULT:    -3.363      4.360      5.417
REMARK INTER + INTRA:          -4.140
REMARK INTER:                  -4.073
REMARK INTRA:                  -0.067
REMARK UNBOUND:                -0.089
REMARK SMILES CC[C@H](C)[C@H]([NH3+])C(=O)[O-]
REMARK SMILES IDX 3 1 4 2 5 3 6 4 7 8 8 9 9 10 2 11 1 12
REMARK H PARENT 6 5 6 6 6 7
REMARK Flexibility Score: inf
ROOT
ATOM      1  C   UNL     1      17.400  27.281  29.074  1.00  0.00     0.050 C 
ATOM      2  C   UNL     1      18.100  27.892  27.847  1.00  0.00     0.014 C 
ENDROOT
BRANCH   1   3
ATOM      3  C   UNL     1      15.850  27.465  29.013  1.00  0.00     0.230 C 
BRANCH   3   4
ATOM      4  N   UNL     1      15.327  28.346  30.067  1.00  0.00    -0.350 N 
ATOM      5  H   UNL     1      14.897  27.781  30.834  1.00  0.00     0.345 HD
ATOM      6  H   UNL     1      14.624  29.018  29.685  1.00  0.00     0.345 HD
ATOM      7  H   UNL     1      16.114  28.895  30.481  1.00  0.00     0.345 HD
ENDBRANCH   3   4
BRANCH   3   8
ATOM      8  C   UNL     1      15.146  26.129  29.034  1.00  0.00     0.099 C 
ATOM      9  O   UNL     1      15.250  25.382  30.044  1.00  0.00    -0.544 OA
ATOM     10  O   UNL     1      14.347  25.726  27.970  1.00  0.00    -0.544 OA
ENDBRANCH   3   8
ENDBRANCH   1   3
BRANCH   1  11
ATOM     11  C   UNL     1      18.056  27.696  30.423  1.00  0.00     0.006 C 
ATOM     12  C   UNL     1      19.589  27.702  30.442  1.00  0.00     0.004 C 
ENDBRANCH   1  11
TORSDOF 4
ENDMDL
MODEL 9
REMARK VINA RESULT:    -3.309      8.065      9.537
REMARK INTER + INTRA:          -4.075
REMARK INTER:                  -3.985
REMARK INTRA:                  -0.090
REMARK UNBOUND:                -0.089
REMARK SMILES CC[C@H](C)[C@H]([NH3+])C(=O)[O-]
REMARK SMILES IDX 3 1 4 2 5 3 6 4 7 8 8 9 9 10 2 11 1 12
REMARK H PARENT 6 5 6 6 6 7
REMARK Flexibility Score: inf
ROOT
ATOM      1  C   UNL     1      14.137  26.078  26.391  1.00  0.00     0.050 C 
ATOM      2  C   UNL     1      13.603  25.099  27.451  1.00  0.00     0.014 C 
ENDROOT
BRANCH   1   3
ATOM      3  C   UNL     1      14.093  25.466  24.955  1.00  0.00     0.230 C 
BRANCH   3   4
ATOM      4  N   UNL     1      14.948  26.175  23.993  1.00  0.00    -0.350 N 
ATOM      5  H   UNL     1      15.482  26.936  24.470  1.00  0.00     0.345 HD
ATOM      6  H   UNL     1      14.386  26.575  23.208  1.00  0.00     0.345 HD
ATOM      7  H   UNL     1      15.643  25.506  23.589  1.00  0.00     0.345 HD
ENDBRANCH   3   4
BRANCH   3   8
ATOM      8  C   UNL     1      12.673  25.382  24.447  1.00  0.00     0.099 C 
ATOM      9  O   UNL     1      11.989  26.433  24.324  1.00  0.00    -0.544 OA
ATOM     10  O   UNL     1      12.120  24.163  24.071  1.00  0.00    -0.544 OA
ENDBRANCH   3   8
ENDBRANCH   1   3
BRANCH   1  11
ATOM     11  C   UNL     1      15.497  26.724  26.785  1.00  0.00     0.006 C 
ATOM     12  C   UNL     1      15.648  27.107  28.262  1.00  0.00     0.004 C 
ENDBRANCH   1  11
TORSDOF 4
ENDMDL
