MODEL 1
REMARK VINA RESULT:    -5.844      0.000      0.000
REMARK INTER + INTRA:         -12.086
REMARK INTER:                 -10.115
REMARK INTRA:                  -1.972
REMARK UNBOUND:                -1.972
REMARK SMILES OC[C@@H]1O[C@@H](O[C@@H]2[C@@H](O)[C@@H](O)[C@@H](O)O[C@@H]2CO)[C@@H](O)[C@@H](O)[C@@H]1O[C@@H]1O[C@H](CO)[C@@H](O)[C@H](O)[C@H]1O
REMARK SMILES IDX 22 1 3 2 4 3 5 4 18 5 20 6 23 7 24 8 26 9 29 10 25 11 31 12
REMARK SMILES IDX 33 13 27 14 28 15 30 17 32 19 34 21 2 23 1 24 21 26 19 28
REMARK SMILES IDX 6 30 7 31 15 32 8 33 14 34 10 35 12 36 16 37 17 38 9 40
REMARK SMILES IDX 11 42 13 44
REMARK H PARENT 28 16 30 18 32 20 34 22 1 25 21 27 19 29 17 39 9 41 11 43
REMARK H PARENT 13 45
REMARK Flexibility Score: inf
ROOT
ATOM      1  C   UNL     1      14.870   5.509  42.719  1.00  0.00     0.184 C 
ATOM      2  C   UNL     1      14.637   4.417  41.652  1.00  0.00     0.178 C 
ATOM      3  O   UNL     1      13.777   4.887  40.622  1.00  0.00    -0.341 OA
ATOM      4  C   UNL     1      12.478   5.183  41.115  1.00  0.00     0.282 C 
ATOM      5  C   UNL     1      12.530   6.279  42.203  1.00  0.00     0.202 C 
ATOM      6  C   UNL     1      13.508   5.904  43.329  1.00  0.00     0.180 C 
ENDROOT
BRANCH   1   7
ATOM      7  O   UNL     1      15.479   6.638  42.110  1.00  0.00    -0.341 OA
BRANCH   7   8
ATOM      8  C   UNL     1      15.878   7.619  43.060  1.00  0.00     0.282 C 
ATOM      9  C   UNL     1      17.239   8.925  41.582  1.00  0.00     0.178 C 
ATOM     10  C   UNL     1      18.541   8.542  42.313  1.00  0.00     0.177 C 
ATOM     11  O   UNL     1      16.086   8.870  42.416  1.00  0.00    -0.341 OA
ATOM     12  C   UNL     1      18.410   7.199  43.055  1.00  0.00     0.179 C 
ATOM     13  C   UNL     1      17.107   7.138  43.870  1.00  0.00     0.202 C 
BRANCH   9  14
ATOM     14  C   UNL     1      17.052   8.205  40.230  1.00  0.00     0.191 C 
BRANCH  14  15
ATOM     15  O   UNL     1      18.183   8.384  39.420  1.00  0.00    -0.394 OA
ATOM     16  H   UNL     1      17.988   9.155  38.830  1.00  0.00     0.210 HD
ENDBRANCH  14  15
ENDBRANCH   9  14
BRANCH  10  17
ATOM     17  O   UNL     1      18.867   9.561  43.223  1.00  0.00    -0.387 OA
ATOM     18  H   UNL     1      18.057  10.135  43.320  1.00  0.00     0.211 HD
ENDBRANCH  10  17
BRANCH  12  19
ATOM     19  O   UNL     1      18.442   6.125  42.151  1.00  0.00    -0.387 OA
ATOM     20  H   UNL     1      17.636   5.570  42.325  1.00  0.00     0.211 HD
ENDBRANCH  12  19
BRANCH  13  21
ATOM     21  O   UNL     1      17.238   7.854  45.076  1.00  0.00    -0.385 OA
ATOM     22  H   UNL     1      16.334   7.986  45.462  1.00  0.00     0.211 HD
ENDBRANCH  13  21
ENDBRANCH   7   8
ENDBRANCH   1   7
BRANCH   2  23
ATOM     23  C   UNL     1      15.960   3.963  41.028  1.00  0.00     0.191 C 
BRANCH  23  24
ATOM     24  O   UNL     1      16.439   4.955  40.165  1.00  0.00    -0.394 OA
ATOM     25  H   UNL     1      16.017   5.802  40.459  1.00  0.00     0.210 HD
ENDBRANCH  23  24
ENDBRANCH   2  23
BRANCH   6  26
ATOM     26  O   UNL     1      13.006   4.830  44.086  1.00  0.00    -0.387 OA
ATOM     27  H   UNL     1      13.781   4.266  44.343  1.00  0.00     0.211 HD
ENDBRANCH   6  26
BRANCH   5  28
ATOM     28  O   UNL     1      11.251   6.516  42.734  1.00  0.00    -0.385 OA
ATOM     29  H   UNL     1      10.611   5.999  42.175  1.00  0.00     0.211 HD
ENDBRANCH   5  28
BRANCH   4  30
ATOM     30  O   UNL     1      11.855   4.012  41.624  1.00  0.00    -0.341 OA
BRANCH  30  31
ATOM     31  C   UNL     1      11.107   3.329  40.630  1.00  0.00     0.184 C 
ATOM     32  C   UNL     1      10.788   1.900  41.126  1.00  0.00     0.178 C 
ATOM     33  C   UNL     1       9.779   4.070  40.383  1.00  0.00     0.180 C 
ATOM     34  O   UNL     1      10.054   1.944  42.340  1.00  0.00    -0.342 OA
ATOM     35  C   UNL     1       8.900   3.998  41.647  1.00  0.00     0.201 C 
ATOM     36  C   UNL     1       8.779   2.546  42.157  1.00  0.00     0.279 C 
BRANCH  32  37
ATOM     37  C   UNL     1      12.070   1.091  41.348  1.00  0.00     0.191 C 
BRANCH  37  38
ATOM     38  O   UNL     1      11.793  -0.013  42.164  1.00  0.00    -0.394 OA
ATOM     39  H   UNL     1      11.388   0.354  42.993  1.00  0.00     0.210 HD
ENDBRANCH  37  38
ENDBRANCH  32  37
BRANCH  33  40
ATOM     40  O   UNL     1       9.114   3.498  39.282  1.00  0.00    -0.387 OA
ATOM     41  H   UNL     1       9.296   4.080  38.498  1.00  0.00     0.211 HD
ENDBRANCH  33  40
BRANCH  35  42
ATOM     42  O   UNL     1       7.630   4.535  41.383  1.00  0.00    -0.385 OA
ATOM     43  H   UNL     1       7.096   4.415  42.213  1.00  0.00     0.211 HD
ENDBRANCH  35  42
BRANCH  36  44
ATOM     44  O   UNL     1       7.971   1.778  41.298  1.00  0.00    -0.366 OA
ATOM     45  H   UNL     1       8.457   1.726  40.433  1.00  0.00     0.213 HD
ENDBRANCH  36  44
ENDBRANCH  30  31
ENDBRANCH   4  30
TORSDOF 18
ENDMDL
MODEL 2
REMARK VINA RESULT:    -5.652      2.419      8.939
REMARK INTER + INTRA:         -11.753
REMARK INTER:                  -9.556
REMARK INTRA:                  -2.197
REMARK UNBOUND:                -1.972
REMARK SMILES OC[C@@H]1O[C@@H](O[C@@H]2[C@@H](O)[C@@H](O)[C@@H](O)O[C@@H]2CO)[C@@H](O)[C@@H](O)[C@@H]1O[C@@H]1O[C@H](CO)[C@@H](O)[C@H](O)[C@H]1O
REMARK SMILES IDX 22 1 3 2 4 3 5 4 18 5 20 6 23 7 24 8 26 9 29 10 25 11 31 12
REMARK SMILES IDX 33 13 27 14 28 15 30 17 32 19 34 21 2 23 1 24 21 26 19 28
REMARK SMILES IDX 6 30 7 31 15 32 8 33 14 34 10 35 12 36 16 37 17 38 9 40
REMARK SMILES IDX 11 42 13 44
REMARK H PARENT 28 16 30 18 32 20 34 22 1 25 21 27 19 29 17 39 9 41 11 43
REMARK H PARENT 13 45
REMARK Flexibility Score: inf
ROOT
ATOM      1  C   UNL     1      10.754   1.771  40.258  1.00  0.00     0.184 C 
ATOM      2  C   UNL     1      12.085   1.837  41.039  1.00  0.00     0.178 C 
ATOM      3  O   UNL     1      11.882   2.362  42.345  1.00  0.00    -0.341 OA
ATOM      4  C   UNL     1      11.426   3.707  42.308  1.00  0.00     0.282 C 
ATOM      5  C   UNL     1      10.081   3.818  41.555  1.00  0.00     0.202 C 
ATOM      6  C   UNL     1      10.170   3.195  40.152  1.00  0.00     0.180 C 
ENDROOT
BRANCH   1   7
ATOM      7  O   UNL     1       9.848   0.919  40.945  1.00  0.00    -0.341 OA
BRANCH   7   8
ATOM      8  C   UNL     1       8.705   0.597  40.162  1.00  0.00     0.282 C 
ATOM      9  C   UNL     1       7.783  -1.043  41.646  1.00  0.00     0.178 C 
ATOM     10  C   UNL     1       8.050  -2.200  40.662  1.00  0.00     0.177 C 
ATOM     11  O   UNL     1       7.624   0.219  41.004  1.00  0.00    -0.341 OA
ATOM     12  C   UNL     1       9.204  -1.877  39.694  1.00  0.00     0.179 C 
ATOM     13  C   UNL     1       9.048  -0.470  39.093  1.00  0.00     0.202 C 
BRANCH   9  14
ATOM     14  C   UNL     1       8.763  -1.005  42.838  1.00  0.00     0.191 C 
BRANCH  14  15
ATOM     15  O   UNL     1       9.083  -2.306  43.250  1.00  0.00    -0.394 OA
ATOM     16  H   UNL     1      10.071  -2.369  43.244  1.00  0.00     0.210 HD
ENDBRANCH  14  15
ENDBRANCH   9  14
BRANCH  10  17
ATOM     17  O   UNL     1       6.875  -2.457  39.936  1.00  0.00    -0.387 OA
ATOM     18  H   UNL     1       6.385  -3.179  40.420  1.00  0.00     0.211 HD
ENDBRANCH  10  17
BRANCH  12  19
ATOM     19  O   UNL     1      10.442  -1.968  40.348  1.00  0.00    -0.387 OA
ATOM     20  H   UNL     1      11.077  -1.379  39.859  1.00  0.00     0.211 HD
ENDBRANCH  12  19
BRANCH  13  21
ATOM     21  O   UNL     1       8.102  -0.473  38.050  1.00  0.00    -0.385 OA
ATOM     22  H   UNL     1       8.232  -1.295  37.511  1.00  0.00     0.211 HD
ENDBRANCH  13  21
ENDBRANCH   7   8
ENDBRANCH   1   7
BRANCH   2  23
ATOM     23  C   UNL     1      12.728   0.451  41.152  1.00  0.00     0.191 C 
BRANCH  23  24
ATOM     24  O   UNL     1      12.064  -0.298  42.130  1.00  0.00    -0.394 OA
ATOM     25  H   UNL     1      11.132   0.035  42.146  1.00  0.00     0.210 HD
ENDBRANCH  23  24
ENDBRANCH   2  23
BRANCH   6  26
ATOM     26  O   UNL     1      10.986   3.974  39.313  1.00  0.00    -0.387 OA
ATOM     27  H   UNL     1      11.412   4.668  39.880  1.00  0.00     0.211 HD
ENDBRANCH   6  26
BRANCH   5  28
ATOM     28  O   UNL     1       9.672   5.160  41.462  1.00  0.00    -0.385 OA
ATOM     29  H   UNL     1       9.616   5.372  40.491  1.00  0.00     0.211 HD
ENDBRANCH   5  28
BRANCH   4  30
ATOM     30  O   UNL     1      12.400   4.549  41.706  1.00  0.00    -0.341 OA
BRANCH  30  31
ATOM     31  C   UNL     1      13.290   5.103  42.662  1.00  0.00     0.184 C 
ATOM     32  C   UNL     1      14.593   5.538  41.952  1.00  0.00     0.178 C 
ATOM     33  C   UNL     1      12.647   6.346  43.308  1.00  0.00     0.180 C 
ATOM     34  O   UNL     1      14.315   6.491  40.937  1.00  0.00    -0.342 OA
ATOM     35  C   UNL     1      12.476   7.453  42.250  1.00  0.00     0.201 C 
ATOM     36  C   UNL     1      13.794   7.696  41.483  1.00  0.00     0.279 C 
BRANCH  32  37
ATOM     37  C   UNL     1      15.308   4.337  41.324  1.00  0.00     0.191 C 
BRANCH  37  38
ATOM     38  O   UNL     1      16.026   4.755  40.197  1.00  0.00    -0.394 OA
ATOM     39  H   UNL     1      16.639   4.007  39.968  1.00  0.00     0.210 HD
ENDBRANCH  37  38
ENDBRANCH  32  37
BRANCH  33  40
ATOM     40  O   UNL     1      13.450   6.796  44.373  1.00  0.00    -0.387 OA
ATOM     41  H   UNL     1      12.998   6.520  45.214  1.00  0.00     0.211 HD
ENDBRANCH  33  40
BRANCH  35  42
ATOM     42  O   UNL     1      12.035   8.639  42.859  1.00  0.00    -0.385 OA
ATOM     43  H   UNL     1      12.084   9.348  42.163  1.00  0.00     0.211 HD
ENDBRANCH  35  42
BRANCH  36  44
ATOM     44  O   UNL     1      14.741   8.336  42.303  1.00  0.00    -0.366 OA
ATOM     45  H   UNL     1      14.495   9.299  42.312  1.00  0.00     0.213 HD
ENDBRANCH  36  44
ENDBRANCH  30  31
ENDBRANCH   4  30
TORSDOF 18
ENDMDL
MODEL 3
REMARK VINA RESULT:    -5.644      5.912     10.239
REMARK INTER + INTRA:         -11.739
REMARK INTER:                  -9.448
REMARK INTRA:                  -2.291
REMARK UNBOUND:                -1.972
REMARK SMILES OC[C@@H]1O[C@@H](O[C@@H]2[C@@H](O)[C@@H](O)[C@@H](O)O[C@@H]2CO)[C@@H](O)[C@@H](O)[C@@H]1O[C@@H]1O[C@H](CO)[C@@H](O)[C@H](O)[C@H]1O
REMARK SMILES IDX 22 1 3 2 4 3 5 4 18 5 20 6 23 7 24 8 26 9 29 10 25 11 31 12
REMARK SMILES IDX 33 13 27 14 28 15 30 17 32 19 34 21 2 23 1 24 21 26 19 28
REMARK SMILES IDX 6 30 7 31 15 32 8 33 14 34 10 35 12 36 16 37 17 38 9 40
REMARK SMILES IDX 11 42 13 44
REMARK H PARENT 28 16 30 18 32 20 34 22 1 25 21 27 19 29 17 39 9 41 11 43
REMARK H PARENT 13 45
REMARK Flexibility Score: inf
ROOT
ATOM      1  C   UNL     1      22.017   8.171  47.404  1.00  0.00     0.184 C 
ATOM      2  C   UNL     1      20.479   8.026  47.401  1.00  0.00     0.178 C 
ATOM      3  O   UNL     1      20.078   6.883  46.656  1.00  0.00    -0.341 OA
ATOM      4  C   UNL     1      20.425   7.001  45.284  1.00  0.00     0.282 C 
ATOM      5  C   UNL     1      21.952   7.150  45.106  1.00  0.00     0.202 C 
ATOM      6  C   UNL     1      22.503   8.313  45.947  1.00  0.00     0.180 C 
ENDROOT
BRANCH   1   7
ATOM      7  O   UNL     1      22.596   7.021  48.005  1.00  0.00    -0.341 OA
BRANCH   7   8
ATOM      8  C   UNL     1      23.972   7.205  48.313  1.00  0.00     0.282 C 
ATOM      9  C   UNL     1      24.396   4.982  49.101  1.00  0.00     0.178 C 
ATOM     10  C   UNL     1      24.616   5.452  50.553  1.00  0.00     0.177 C 
ATOM     11  O   UNL     1      24.682   5.986  48.133  1.00  0.00    -0.341 OA
ATOM     12  C   UNL     1      23.891   6.780  50.844  1.00  0.00     0.179 C 
ATOM     13  C   UNL     1      24.146   7.808  49.729  1.00  0.00     0.202 C 
BRANCH   9  14
ATOM     14  C   UNL     1      23.039   4.281  48.876  1.00  0.00     0.191 C 
BRANCH  14  15
ATOM     15  O   UNL     1      22.896   3.198  49.755  1.00  0.00    -0.394 OA
ATOM     16  H   UNL     1      23.808   2.857  49.934  1.00  0.00     0.210 HD
ENDBRANCH  14  15
ENDBRANCH   9  14
BRANCH  10  17
ATOM     17  O   UNL     1      25.995   5.602  50.777  1.00  0.00    -0.387 OA
ATOM     18  H   UNL     1      26.106   5.918  51.716  1.00  0.00     0.211 HD
ENDBRANCH  10  17
BRANCH  12  19
ATOM     19  O   UNL     1      22.509   6.574  50.977  1.00  0.00    -0.387 OA
ATOM     20  H   UNL     1      22.212   7.086  51.775  1.00  0.00     0.211 HD
ENDBRANCH  12  19
BRANCH  13  21
ATOM     21  O   UNL     1      25.414   8.405  49.879  1.00  0.00    -0.385 OA
ATOM     22  H   UNL     1      26.103   7.695  49.815  1.00  0.00     0.211 HD
ENDBRANCH  13  21
ENDBRANCH   7   8
ENDBRANCH   1   7
BRANCH   2  23
ATOM     23  C   UNL     1      19.933   7.909  48.828  1.00  0.00     0.191 C 
BRANCH  23  24
ATOM     24  O   UNL     1      20.056   6.588  49.272  1.00  0.00    -0.394 OA
ATOM     25  H   UNL     1      20.735   6.602  49.993  1.00  0.00     0.210 HD
ENDBRANCH  23  24
ENDBRANCH   2  23
BRANCH   6  26
ATOM     26  O   UNL     1      22.074   9.548  45.429  1.00  0.00    -0.387 OA
ATOM     27  H   UNL     1      22.666  10.247  45.811  1.00  0.00     0.211 HD
ENDBRANCH   6  26
BRANCH   5  28
ATOM     28  O   UNL     1      22.281   7.336  43.752  1.00  0.00    -0.385 OA
ATOM     29  H   UNL     1      21.424   7.314  43.247  1.00  0.00     0.211 HD
ENDBRANCH   5  28
BRANCH   4  30
ATOM     30  O   UNL     1      19.749   8.100  44.688  1.00  0.00    -0.341 OA
BRANCH  30  31
ATOM     31  C   UNL     1      18.340   7.933  44.705  1.00  0.00     0.184 C 
ATOM     32  C   UNL     1      17.670   9.212  44.152  1.00  0.00     0.178 C 
ATOM     33  C   UNL     1      17.949   6.746  43.803  1.00  0.00     0.180 C 
ATOM     34  O   UNL     1      18.111   9.476  42.829  1.00  0.00    -0.342 OA
ATOM     35  C   UNL     1      18.282   7.076  42.336  1.00  0.00     0.201 C 
ATOM     36  C   UNL     1      17.707   8.451  41.931  1.00  0.00     0.279 C 
BRANCH  32  37
ATOM     37  C   UNL     1      17.983  10.426  45.033  1.00  0.00     0.191 C 
BRANCH  37  38
ATOM     38  O   UNL     1      19.301  10.843  44.806  1.00  0.00    -0.394 OA
ATOM     39  H   UNL     1      19.537  10.522  43.896  1.00  0.00     0.210 HD
ENDBRANCH  37  38
ENDBRANCH  32  37
BRANCH  33  40
ATOM     40  O   UNL     1      16.576   6.470  43.952  1.00  0.00    -0.387 OA
ATOM     41  H   UNL     1      16.147   6.650  43.074  1.00  0.00     0.211 HD
ENDBRANCH  33  40
BRANCH  35  42
ATOM     42  O   UNL     1      17.790   6.069  41.491  1.00  0.00    -0.385 OA
ATOM     43  H   UNL     1      17.065   5.608  41.994  1.00  0.00     0.211 HD
ENDBRANCH  35  42
BRANCH  36  44
ATOM     44  O   UNL     1      16.305   8.395  41.818  1.00  0.00    -0.366 OA
ATOM     45  H   UNL     1      16.022   7.568  42.291  1.00  0.00     0.213 HD
ENDBRANCH  36  44
ENDBRANCH  30  31
ENDBRANCH   4  30
TORSDOF 18
ENDMDL
MODEL 4
REMARK VINA RESULT:    -5.626      1.563      8.380
REMARK INTER + INTRA:         -11.709
REMARK INTER:                  -9.267
REMARK INTRA:                  -2.442
REMARK UNBOUND:                -1.972
REMARK SMILES OC[C@@H]1O[C@@H](O[C@@H]2[C@@H](O)[C@@H](O)[C@@H](O)O[C@@H]2CO)[C@@H](O)[C@@H](O)[C@@H]1O[C@@H]1O[C@H](CO)[C@@H](O)[C@H](O)[C@H]1O
REMARK SMILES IDX 22 1 3 2 4 3 5 4 18 5 20 6 23 7 24 8 26 9 29 10 25 11 31 12
REMARK SMILES IDX 33 13 27 14 28 15 30 17 32 19 34 21 2 23 1 24 21 26 19 28
REMARK SMILES IDX 6 30 7 31 15 32 8 33 14 34 10 35 12 36 16 37 17 38 9 40
REMARK SMILES IDX 11 42 13 44
REMARK H PARENT 28 16 30 18 32 20 34 22 1 25 21 27 19 29 17 39 9 41 11 43
REMARK H PARENT 13 45
REMARK Flexibility Score: inf
ROOT
ATOM      1  C   UNL     1      12.415   4.687  42.510  1.00  0.00     0.184 C 
ATOM      2  C   UNL     1      13.123   5.523  43.599  1.00  0.00     0.178 C 
ATOM      3  O   UNL     1      12.982   6.915  43.345  1.00  0.00    -0.341 OA
ATOM      4  C   UNL     1      13.619   7.297  42.134  1.00  0.00     0.282 C 
ATOM      5  C   UNL     1      13.016   6.547  40.925  1.00  0.00     0.202 C 
ATOM      6  C   UNL     1      13.041   5.024  41.141  1.00  0.00     0.180 C 
ENDROOT
BRANCH   1   7
ATOM      7  O   UNL     1      11.029   5.001  42.506  1.00  0.00    -0.341 OA
BRANCH   7   8
ATOM      8  C   UNL     1      10.354   4.462  41.376  1.00  0.00     0.282 C 
ATOM      9  C   UNL     1       8.143   4.521  42.298  1.00  0.00     0.178 C 
ATOM     10  C   UNL     1       8.038   2.983  42.352  1.00  0.00     0.177 C 
ATOM     11  O   UNL     1       9.037   4.990  41.293  1.00  0.00    -0.341 OA
ATOM     12  C   UNL     1       9.424   2.315  42.431  1.00  0.00     0.179 C 
ATOM     13  C   UNL     1      10.390   2.914  41.395  1.00  0.00     0.202 C 
BRANCH   9  14
ATOM     14  C   UNL     1       8.372   5.176  43.676  1.00  0.00     0.191 C 
BRANCH  14  15
ATOM     15  O   UNL     1       7.856   4.363  44.696  1.00  0.00    -0.394 OA
ATOM     16  H   UNL     1       8.569   3.716  44.929  1.00  0.00     0.210 HD
ENDBRANCH  14  15
ENDBRANCH   9  14
BRANCH  10  17
ATOM     17  O   UNL     1       7.356   2.535  41.209  1.00  0.00    -0.387 OA
ATOM     18  H   UNL     1       7.602   1.577  41.080  1.00  0.00     0.211 HD
ENDBRANCH  10  17
BRANCH  12  19
ATOM     19  O   UNL     1       9.973   2.458  43.715  1.00  0.00    -0.387 OA
ATOM     20  H   UNL     1      10.595   1.696  43.855  1.00  0.00     0.211 HD
ENDBRANCH  12  19
BRANCH  13  21
ATOM     21  O   UNL     1      10.145   2.379  40.115  1.00  0.00    -0.385 OA
ATOM     22  H   UNL     1      11.008   2.077  39.731  1.00  0.00     0.211 HD
ENDBRANCH  13  21
ENDBRANCH   7   8
ENDBRANCH   1   7
BRANCH   2  23
ATOM     23  C   UNL     1      12.561   5.210  44.989  1.00  0.00     0.191 C 
BRANCH  23  24
ATOM     24  O   UNL     1      11.777   4.052  44.929  1.00  0.00    -0.394 OA
ATOM     25  H   UNL     1      11.308   3.992  45.800  1.00  0.00     0.210 HD
ENDBRANCH  23  24
ENDBRANCH   2  23
BRANCH   6  26
ATOM     26  O   UNL     1      14.360   4.538  41.098  1.00  0.00    -0.387 OA
ATOM     27  H   UNL     1      14.855   5.091  40.440  1.00  0.00     0.211 HD
ENDBRANCH   6  26
BRANCH   5  28
ATOM     28  O   UNL     1      13.698   6.877  39.742  1.00  0.00    -0.385 OA
ATOM     29  H   UNL     1      13.640   7.866  39.648  1.00  0.00     0.211 HD
ENDBRANCH   5  28
BRANCH   4  30
ATOM     30  O   UNL     1      15.019   7.065  42.210  1.00  0.00    -0.341 OA
BRANCH  30  31
ATOM     31  C   UNL     1      15.737   8.239  42.555  1.00  0.00     0.184 C 
ATOM     32  C   UNL     1      16.840   7.880  43.577  1.00  0.00     0.178 C 
ATOM     33  C   UNL     1      16.409   8.823  41.296  1.00  0.00     0.180 C 
ATOM     34  O   UNL     1      17.726   6.910  43.038  1.00  0.00    -0.342 OA
ATOM     35  C   UNL     1      17.484   7.848  40.781  1.00  0.00     0.201 C 
ATOM     36  C   UNL     1      18.438   7.421  41.918  1.00  0.00     0.279 C 
BRANCH  32  37
ATOM     37  C   UNL     1      16.235   7.333  44.875  1.00  0.00     0.191 C 
BRANCH  37  38
ATOM     38  O   UNL     1      15.042   8.011  45.158  1.00  0.00    -0.394 OA
ATOM     39  H   UNL     1      15.084   8.864  44.651  1.00  0.00     0.210 HD
ENDBRANCH  37  38
ENDBRANCH  32  37
BRANCH  33  40
ATOM     40  O   UNL     1      16.976  10.075  41.599  1.00  0.00    -0.387 OA
ATOM     41  H   UNL     1      16.304  10.578  42.130  1.00  0.00     0.211 HD
ENDBRANCH  33  40
BRANCH  35  42
ATOM     42  O   UNL     1      18.205   8.437  39.729  1.00  0.00    -0.385 OA
ATOM     43  H   UNL     1      18.651   7.693  39.243  1.00  0.00     0.211 HD
ENDBRANCH  35  42
BRANCH  36  44
ATOM     44  O   UNL     1      19.281   8.484  42.292  1.00  0.00    -0.366 OA
ATOM     45  H   UNL     1      20.108   8.067  42.653  1.00  0.00     0.213 HD
ENDBRANCH  36  44
ENDBRANCH  30  31
ENDBRANCH   4  30
TORSDOF 18
ENDMDL
MODEL 5
REMARK VINA RESULT:    -5.475      1.489      8.356
REMARK INTER + INTRA:         -11.447
REMARK INTER:                  -8.818
REMARK INTRA:                  -2.629
REMARK UNBOUND:                -1.972
REMARK SMILES OC[C@@H]1O[C@@H](O[C@@H]2[C@@H](O)[C@@H](O)[C@@H](O)O[C@@H]2CO)[C@@H](O)[C@@H](O)[C@@H]1O[C@@H]1O[C@H](CO)[C@@H](O)[C@H](O)[C@H]1O
REMARK SMILES IDX 22 1 3 2 4 3 5 4 18 5 20 6 23 7 24 8 26 9 29 10 25 11 31 12
REMARK SMILES IDX 33 13 27 14 28 15 30 17 32 19 34 21 2 23 1 24 21 26 19 28
REMARK SMILES IDX 6 30 7 31 15 32 8 33 14 34 10 35 12 36 16 37 17 38 9 40
REMARK SMILES IDX 11 42 13 44
REMARK H PARENT 28 16 30 18 32 20 34 22 1 25 21 27 19 29 17 39 9 41 11 43
REMARK H PARENT 13 45
REMARK Flexibility Score: inf
ROOT
ATOM      1  C   UNL     1      12.069   5.389  42.153  1.00  0.00     0.184 C 
ATOM      2  C   UNL     1      12.244   6.893  41.845  1.00  0.00     0.178 C 
ATOM      3  O   UNL     1      12.976   7.084  40.642  1.00  0.00    -0.341 OA
ATOM      4  C   UNL     1      14.303   6.588  40.748  1.00  0.00     0.282 C 
ATOM      5  C   UNL     1      14.310   5.073  41.051  1.00  0.00     0.202 C 
ATOM      6  C   UNL     1      13.465   4.748  42.295  1.00  0.00     0.180 C 
ENDROOT
BRANCH   1   7
ATOM      7  O   UNL     1      11.353   4.774  41.092  1.00  0.00    -0.341 OA
BRANCH   7   8
ATOM      8  C   UNL     1      11.188   3.375  41.288  1.00  0.00     0.282 C 
ATOM      9  C   UNL     1       9.705   2.992  39.445  1.00  0.00     0.178 C 
ATOM     10  C   UNL     1       8.514   2.662  40.367  1.00  0.00     0.177 C 
ATOM     11  O   UNL     1      10.971   2.726  40.041  1.00  0.00    -0.341 OA
ATOM     12  C   UNL     1       8.665   3.314  41.755  1.00  0.00     0.179 C 
ATOM     13  C   UNL     1      10.074   3.089  42.326  1.00  0.00     0.202 C 
BRANCH   9  14
ATOM     14  C   UNL     1       9.615   4.386  38.791  1.00  0.00     0.191 C 
BRANCH  14  15
ATOM     15  O   UNL     1      10.813   4.695  38.130  1.00  0.00    -0.394 OA
ATOM     16  H   UNL     1      11.396   5.140  38.795  1.00  0.00     0.210 HD
ENDBRANCH  14  15
ENDBRANCH   9  14
BRANCH  10  17
ATOM     17  O   UNL     1       8.418   1.268  40.503  1.00  0.00    -0.387 OA
ATOM     18  H   UNL     1       8.960   1.014  41.300  1.00  0.00     0.211 HD
ENDBRANCH  10  17
BRANCH  12  19
ATOM     19  O   UNL     1       8.406   4.693  41.688  1.00  0.00    -0.387 OA
ATOM     20  H   UNL     1       8.971   5.131  42.378  1.00  0.00     0.211 HD
ENDBRANCH  12  19
BRANCH  13  21
ATOM     21  O   UNL     1      10.195   1.791  42.862  1.00  0.00    -0.385 OA
ATOM     22  H   UNL     1      10.201   1.142  42.113  1.00  0.00     0.211 HD
ENDBRANCH  13  21
ENDBRANCH   7   8
ENDBRANCH   1   7
BRANCH   2  23
ATOM     23  C   UNL     1      10.887   7.592  41.720  1.00  0.00     0.191 C 
BRANCH  23  24
ATOM     24  O   UNL     1       9.942   6.931  42.513  1.00  0.00    -0.394 OA
ATOM     25  H   UNL     1       9.887   6.007  42.162  1.00  0.00     0.210 HD
ENDBRANCH  23  24
ENDBRANCH   2  23
BRANCH   6  26
ATOM     26  O   UNL     1      14.087   5.234  43.459  1.00  0.00    -0.387 OA
ATOM     27  H   UNL     1      13.371   5.589  44.047  1.00  0.00     0.211 HD
ENDBRANCH   6  26
BRANCH   5  28
ATOM     28  O   UNL     1      15.623   4.605  41.224  1.00  0.00    -0.385 OA
ATOM     29  H   UNL     1      15.797   3.966  40.482  1.00  0.00     0.211 HD
ENDBRANCH   5  28
BRANCH   4  30
ATOM     30  O   UNL     1      15.024   7.295  41.748  1.00  0.00    -0.341 OA
BRANCH  30  31
ATOM     31  C   UNL     1      15.928   8.237  41.191  1.00  0.00     0.184 C 
ATOM     32  C   UNL     1      16.149   9.388  42.198  1.00  0.00     0.178 C 
ATOM     33  C   UNL     1      17.284   7.555  40.920  1.00  0.00     0.180 C 
ATOM     34  O   UNL     1      16.664   8.888  43.424  1.00  0.00    -0.342 OA
ATOM     35  C   UNL     1      17.932   7.139  42.255  1.00  0.00     0.201 C 
ATOM     36  C   UNL     1      17.955   8.318  43.252  1.00  0.00     0.279 C 
BRANCH  32  37
ATOM     37  C   UNL     1      14.843  10.139  42.477  1.00  0.00     0.191 C 
BRANCH  37  38
ATOM     38  O   UNL     1      13.950   9.936  41.417  1.00  0.00    -0.394 OA
ATOM     39  H   UNL     1      14.238  10.552  40.694  1.00  0.00     0.210 HD
ENDBRANCH  37  38
ENDBRANCH  32  37
BRANCH  33  40
ATOM     40  O   UNL     1      18.124   8.435  40.212  1.00  0.00    -0.387 OA
ATOM     41  H   UNL     1      18.942   7.926  39.971  1.00  0.00     0.211 HD
ENDBRANCH  33  40
BRANCH  35  42
ATOM     42  O   UNL     1      19.232   6.658  42.030  1.00  0.00    -0.385 OA
ATOM     43  H   UNL     1      19.736   7.400  41.599  1.00  0.00     0.211 HD
ENDBRANCH  35  42
BRANCH  36  44
ATOM     44  O   UNL     1      18.894   9.290  42.859  1.00  0.00    -0.366 OA
ATOM     45  H   UNL     1      18.725  10.086  43.429  1.00  0.00     0.213 HD
ENDBRANCH  36  44
ENDBRANCH  30  31
ENDBRANCH   4  30
TORSDOF 18
ENDMDL
MODEL 6
REMARK VINA RESULT:    -5.466      1.655      3.831
REMARK INTER + INTRA:         -11.432
REMARK INTER:                  -8.983
REMARK INTRA:                  -2.450
REMARK UNBOUND:                -1.972
REMARK SMILES OC[C@@H]1O[C@@H](O[C@@H]2[C@@H](O)[C@@H](O)[C@@H](O)O[C@@H]2CO)[C@@H](O)[C@@H](O)[C@@H]1O[C@@H]1O[C@H](CO)[C@@H](O)[C@H](O)[C@H]1O
REMARK SMILES IDX 22 1 3 2 4 3 5 4 18 5 20 6 23 7 24 8 26 9 29 10 25 11 31 12
REMARK SMILES IDX 33 13 27 14 28 15 30 17 32 19 34 21 2 23 1 24 21 26 19 28
REMARK SMILES IDX 6 30 7 31 15 32 8 33 14 34 10 35 12 36 16 37 17 38 9 40
REMARK SMILES IDX 11 42 13 44
REMARK H PARENT 28 16 30 18 32 20 34 22 1 25 21 27 19 29 17 39 9 41 11 43
REMARK H PARENT 13 45
REMARK Flexibility Score: inf
ROOT
ATOM      1  C   UNL     1      14.146   7.280  41.076  1.00  0.00     0.184 C 
ATOM      2  C   UNL     1      12.964   7.719  41.970  1.00  0.00     0.178 C 
ATOM      3  O   UNL     1      12.835   6.863  43.098  1.00  0.00    -0.341 OA
ATOM      4  C   UNL     1      12.516   5.532  42.716  1.00  0.00     0.282 C 
ATOM      5  C   UNL     1      13.615   4.933  41.811  1.00  0.00     0.202 C 
ATOM      6  C   UNL     1      13.894   5.836  40.597  1.00  0.00     0.180 C 
ENDROOT
BRANCH   1   7
ATOM      7  O   UNL     1      15.350   7.346  41.826  1.00  0.00    -0.341 OA
BRANCH   7   8
ATOM      8  C   UNL     1      16.501   7.108  41.025  1.00  0.00     0.282 C 
ATOM      9  C   UNL     1      17.969   6.459  42.805  1.00  0.00     0.178 C 
ATOM     10  C   UNL     1      18.847   7.717  42.647  1.00  0.00     0.177 C 
ATOM     11  O   UNL     1      17.300   6.084  41.605  1.00  0.00    -0.341 OA
ATOM     12  C   UNL     1      18.070   8.885  42.010  1.00  0.00     0.179 C 
ATOM     13  C   UNL     1      17.283   8.421  40.773  1.00  0.00     0.202 C 
BRANCH   9  14
ATOM     14  C   UNL     1      17.042   6.503  44.037  1.00  0.00     0.191 C 
BRANCH  14  15
ATOM     15  O   UNL     1      16.167   5.407  44.031  1.00  0.00    -0.394 OA
ATOM     16  H   UNL     1      15.313   5.729  43.647  1.00  0.00     0.210 HD
ENDBRANCH  14  15
ENDBRANCH   9  14
BRANCH  10  17
ATOM     17  O   UNL     1      19.960   7.396  41.852  1.00  0.00    -0.387 OA
ATOM     18  H   UNL     1      19.648   6.750  41.160  1.00  0.00     0.211 HD
ENDBRANCH  10  17
BRANCH  12  19
ATOM     19  O   UNL     1      17.183   9.456  42.937  1.00  0.00    -0.387 OA
ATOM     20  H   UNL     1      17.191  10.438  42.786  1.00  0.00     0.211 HD
ENDBRANCH  12  19
BRANCH  13  21
ATOM     21  O   UNL     1      18.132   8.306  39.655  1.00  0.00    -0.385 OA
ATOM     22  H   UNL     1      18.597   7.432  39.704  1.00  0.00     0.211 HD
ENDBRANCH  13  21
ENDBRANCH   7   8
ENDBRANCH   1   7
BRANCH   2  23
ATOM     23  C   UNL     1      13.144   9.161  42.454  1.00  0.00     0.191 C 
BRANCH  23  24
ATOM     24  O   UNL     1      14.175   9.774  41.735  1.00  0.00    -0.394 OA
ATOM     25  H   UNL     1      14.852  10.048  42.403  1.00  0.00     0.210 HD
ENDBRANCH  23  24
ENDBRANCH   2  23
BRANCH   6  26
ATOM     26  O   UNL     1      12.807   5.821  39.705  1.00  0.00    -0.387 OA
ATOM     27  H   UNL     1      13.091   5.306  38.906  1.00  0.00     0.211 HD
ENDBRANCH   6  26
BRANCH   5  28
ATOM     28  O   UNL     1      13.259   3.644  41.381  1.00  0.00    -0.385 OA
ATOM     29  H   UNL     1      14.083   3.231  41.008  1.00  0.00     0.211 HD
ENDBRANCH   5  28
BRANCH   4  30
ATOM     30  O   UNL     1      11.256   5.488  42.059  1.00  0.00    -0.341 OA
BRANCH  30  31
ATOM     31  C   UNL     1      10.192   5.229  42.961  1.00  0.00     0.184 C 
ATOM     32  C   UNL     1       8.846   5.380  42.217  1.00  0.00     0.178 C 
ATOM     33  C   UNL     1      10.301   3.785  43.489  1.00  0.00     0.180 C 
ATOM     34  O   UNL     1       8.779   4.483  41.118  1.00  0.00    -0.342 OA
ATOM     35  C   UNL     1      10.079   2.791  42.333  1.00  0.00     0.201 C 
ATOM     36  C   UNL     1       8.792   3.129  41.549  1.00  0.00     0.279 C 
BRANCH  32  37
ATOM     37  C   UNL     1       8.654   6.811  41.704  1.00  0.00     0.191 C 
BRANCH  37  38
ATOM     38  O   UNL     1       9.424   7.692  42.473  1.00  0.00    -0.394 OA
ATOM     39  H   UNL     1      10.181   7.973  41.894  1.00  0.00     0.210 HD
ENDBRANCH  37  38
ENDBRANCH  32  37
BRANCH  33  40
ATOM     40  O   UNL     1       9.353   3.581  44.510  1.00  0.00    -0.387 OA
ATOM     41  H   UNL     1       8.625   4.241  44.367  1.00  0.00     0.211 HD
ENDBRANCH  33  40
BRANCH  35  42
ATOM     42  O   UNL     1      10.024   1.479  42.829  1.00  0.00    -0.385 OA
ATOM     43  H   UNL     1      10.799   0.996  42.435  1.00  0.00     0.211 HD
ENDBRANCH  35  42
BRANCH  36  44
ATOM     44  O   UNL     1       7.647   2.824  42.308  1.00  0.00    -0.366 OA
ATOM     45  H   UNL     1       7.195   2.074  41.839  1.00  0.00     0.213 HD
ENDBRANCH  36  44
ENDBRANCH  30  31
ENDBRANCH   4  30
TORSDOF 18
ENDMDL
MODEL 7
REMARK VINA RESULT:    -5.441      1.530      2.679
REMARK INTER + INTRA:         -11.388
REMARK INTER:                  -9.319
REMARK INTRA:                  -2.069
REMARK UNBOUND:                -1.972
REMARK SMILES OC[C@@H]1O[C@@H](O[C@@H]2[C@@H](O)[C@@H](O)[C@@H](O)O[C@@H]2CO)[C@@H](O)[C@@H](O)[C@@H]1O[C@@H]1O[C@H](CO)[C@@H](O)[C@H](O)[C@H]1O
REMARK SMILES IDX 22 1 3 2 4 3 5 4 18 5 20 6 23 7 24 8 26 9 29 10 25 11 31 12
REMARK SMILES IDX 33 13 27 14 28 15 30 17 32 19 34 21 2 23 1 24 21 26 19 28
REMARK SMILES IDX 6 30 7 31 15 32 8 33 14 34 10 35 12 36 16 37 17 38 9 40
REMARK SMILES IDX 11 42 13 44
REMARK H PARENT 28 16 30 18 32 20 34 22 1 25 21 27 19 29 17 39 9 41 11 43
REMARK H PARENT 13 45
REMARK Flexibility Score: inf
ROOT
ATOM      1  C   UNL     1      13.472   7.113  42.699  1.00  0.00     0.184 C 
ATOM      2  C   UNL     1      13.261   5.731  43.357  1.00  0.00     0.178 C 
ATOM      3  O   UNL     1      13.765   4.692  42.529  1.00  0.00    -0.341 OA
ATOM      4  C   UNL     1      13.059   4.609  41.299  1.00  0.00     0.282 C 
ATOM      5  C   UNL     1      13.175   5.926  40.500  1.00  0.00     0.202 C 
ATOM      6  C   UNL     1      12.734   7.134  41.344  1.00  0.00     0.180 C 
ENDROOT
BRANCH   1   7
ATOM      7  O   UNL     1      14.862   7.332  42.503  1.00  0.00    -0.341 OA
BRANCH   7   8
ATOM      8  C   UNL     1      15.319   8.518  43.141  1.00  0.00     0.282 C 
ATOM      9  C   UNL     1      17.138   8.973  41.649  1.00  0.00     0.178 C 
ATOM     10  C   UNL     1      18.201   8.688  42.729  1.00  0.00     0.177 C 
ATOM     11  O   UNL     1      15.890   9.402  42.184  1.00  0.00    -0.341 OA
ATOM     12  C   UNL     1      17.669   7.744  43.824  1.00  0.00     0.179 C 
ATOM     13  C   UNL     1      16.279   8.183  44.310  1.00  0.00     0.202 C 
BRANCH   9  14
ATOM     14  C   UNL     1      17.002   7.848  40.601  1.00  0.00     0.191 C 
BRANCH  14  15
ATOM     15  O   UNL     1      17.755   8.150  39.458  1.00  0.00    -0.394 OA
ATOM     16  H   UNL     1      18.042   7.285  39.072  1.00  0.00     0.210 HD
ENDBRANCH  14  15
ENDBRANCH   9  14
BRANCH  10  17
ATOM     17  O   UNL     1      18.603   9.906  43.302  1.00  0.00    -0.387 OA
ATOM     18  H   UNL     1      19.556   9.800  43.575  1.00  0.00     0.211 HD
ENDBRANCH  10  17
BRANCH  12  19
ATOM     19  O   UNL     1      17.600   6.424  43.351  1.00  0.00    -0.387 OA
ATOM     20  H   UNL     1      18.069   5.850  44.014  1.00  0.00     0.211 HD
ENDBRANCH  12  19
BRANCH  13  21
ATOM     21  O   UNL     1      16.382   9.260  45.213  1.00  0.00    -0.385 OA
ATOM     22  H   UNL     1      15.676   9.921  44.994  1.00  0.00     0.211 HD
ENDBRANCH  13  21
ENDBRANCH   7   8
ENDBRANCH   1   7
BRANCH   2  23
ATOM     23  C   UNL     1      13.950   5.660  44.723  1.00  0.00     0.191 C 
BRANCH  23  24
ATOM     24  O   UNL     1      15.234   5.124  44.575  1.00  0.00    -0.394 OA
ATOM     25  H   UNL     1      15.451   4.688  45.438  1.00  0.00     0.210 HD
ENDBRANCH  23  24
ENDBRANCH   2  23
BRANCH   6  26
ATOM     26  O   UNL     1      11.345   7.103  41.567  1.00  0.00    -0.387 OA
ATOM     27  H   UNL     1      11.167   6.362  42.202  1.00  0.00     0.211 HD
ENDBRANCH   6  26
BRANCH   5  28
ATOM     28  O   UNL     1      12.417   5.861  39.318  1.00  0.00    -0.385 OA
ATOM     29  H   UNL     1      11.465   5.783  39.596  1.00  0.00     0.211 HD
ENDBRANCH   5  28
BRANCH   4  30
ATOM     30  O   UNL     1      11.694   4.287  41.525  1.00  0.00    -0.341 OA
BRANCH  30  31
ATOM     31  C   UNL     1      11.543   3.071  42.241  1.00  0.00     0.184 C 
ATOM     32  C   UNL     1      10.111   2.995  42.818  1.00  0.00     0.178 C 
ATOM     33  C   UNL     1      11.749   1.880  41.284  1.00  0.00     0.180 C 
ATOM     34  O   UNL     1       9.147   3.069  41.778  1.00  0.00    -0.342 OA
ATOM     35  C   UNL     1      10.621   1.854  40.235  1.00  0.00     0.201 C 
ATOM     36  C   UNL     1       9.234   1.949  40.907  1.00  0.00     0.279 C 
BRANCH  32  37
ATOM     37  C   UNL     1       9.856   4.130  43.816  1.00  0.00     0.191 C 
BRANCH  37  38
ATOM     38  O   UNL     1       9.615   5.321  43.119  1.00  0.00    -0.394 OA
ATOM     39  H   UNL     1       9.991   5.187  42.209  1.00  0.00     0.210 HD
ENDBRANCH  37  38
ENDBRANCH  32  37
BRANCH  33  40
ATOM     40  O   UNL     1      11.771   0.680  42.020  1.00  0.00    -0.387 OA
ATOM     41  H   UNL     1      11.854  -0.062  41.365  1.00  0.00     0.211 HD
ENDBRANCH  33  40
BRANCH  35  42
ATOM     42  O   UNL     1      10.713   0.689  39.457  1.00  0.00    -0.385 OA
ATOM     43  H   UNL     1      11.662   0.393  39.504  1.00  0.00     0.211 HD
ENDBRANCH  35  42
BRANCH  36  44
ATOM     44  O   UNL     1       8.920   0.753  41.580  1.00  0.00    -0.366 OA
ATOM     45  H   UNL     1       8.669   1.014  42.506  1.00  0.00     0.213 HD
ENDBRANCH  36  44
ENDBRANCH  30  31
ENDBRANCH   4  30
TORSDOF 18
ENDMDL
MODEL 8
REMARK VINA RESULT:    -5.369      3.832      7.825
REMARK INTER + INTRA:         -11.264
REMARK INTER:                  -9.193
REMARK INTRA:                  -2.070
REMARK UNBOUND:                -1.972
REMARK SMILES OC[C@@H]1O[C@@H](O[C@@H]2[C@@H](O)[C@@H](O)[C@@H](O)O[C@@H]2CO)[C@@H](O)[C@@H](O)[C@@H]1O[C@@H]1O[C@H](CO)[C@@H](O)[C@H](O)[C@H]1O
REMARK SMILES IDX 22 1 3 2 4 3 5 4 18 5 20 6 23 7 24 8 26 9 29 10 25 11 31 12
REMARK SMILES IDX 33 13 27 14 28 15 30 17 32 19 34 21 2 23 1 24 21 26 19 28
REMARK SMILES IDX 6 30 7 31 15 32 8 33 14 34 10 35 12 36 16 37 17 38 9 40
REMARK SMILES IDX 11 42 13 44
REMARK H PARENT 28 16 30 18 32 20 34 22 1 25 21 27 19 29 17 39 9 41 11 43
REMARK H PARENT 13 45
REMARK Flexibility Score: inf
ROOT
ATOM      1  C   UNL     1      13.337   6.042  45.637  1.00  0.00     0.184 C 
ATOM      2  C   UNL     1      14.829   5.641  45.610  1.00  0.00     0.178 C 
ATOM      3  O   UNL     1      15.664   6.792  45.593  1.00  0.00    -0.341 OA
ATOM      4  C   UNL     1      15.483   7.558  44.411  1.00  0.00     0.282 C 
ATOM      5  C   UNL     1      14.023   8.050  44.285  1.00  0.00     0.202 C 
ATOM      6  C   UNL     1      13.028   6.881  44.380  1.00  0.00     0.180 C 
ENDROOT
BRANCH   1   7
ATOM      7  O   UNL     1      13.076   6.800  46.809  1.00  0.00    -0.341 OA
BRANCH   7   8
ATOM      8  C   UNL     1      11.714   7.199  46.906  1.00  0.00     0.282 C 
ATOM      9  C   UNL     1      12.003   8.812  48.654  1.00  0.00     0.178 C 
ATOM     10  C   UNL     1      11.212   7.967  49.674  1.00  0.00     0.177 C 
ATOM     11  O   UNL     1      11.628   8.561  47.303  1.00  0.00    -0.341 OA
ATOM     12  C   UNL     1      11.236   6.468  49.319  1.00  0.00     0.179 C 
ATOM     13  C   UNL     1      10.921   6.243  47.831  1.00  0.00     0.202 C 
BRANCH   9  14
ATOM     14  C   UNL     1      13.528   8.791  48.882  1.00  0.00     0.191 C 
BRANCH  14  15
ATOM     15  O   UNL     1      14.196   9.346  47.781  1.00  0.00    -0.394 OA
ATOM     16  H   UNL     1      14.757   8.625  47.398  1.00  0.00     0.210 HD
ENDBRANCH  14  15
ENDBRANCH   9  14
BRANCH  10  17
ATOM     17  O   UNL     1       9.885   8.428  49.712  1.00  0.00    -0.387 OA
ATOM     18  H   UNL     1       9.516   8.179  50.604  1.00  0.00     0.211 HD
ENDBRANCH  10  17
BRANCH  12  19
ATOM     19  O   UNL     1      12.487   5.906  49.620  1.00  0.00    -0.387 OA
ATOM     20  H   UNL     1      12.785   5.405  48.815  1.00  0.00     0.211 HD
ENDBRANCH  12  19
BRANCH  13  21
ATOM     21  O   UNL     1       9.536   6.332  47.594  1.00  0.00    -0.385 OA
ATOM     22  H   UNL     1       9.109   6.751  48.385  1.00  0.00     0.211 HD
ENDBRANCH  13  21
ENDBRANCH   7   8
ENDBRANCH   1   7
BRANCH   2  23
ATOM     23  C   UNL     1      15.191   4.779  46.823  1.00  0.00     0.191 C 
BRANCH  23  24
ATOM     24  O   UNL     1      14.022   4.358  47.467  1.00  0.00    -0.394 OA
ATOM     25  H   UNL     1      13.381   4.123  46.749  1.00  0.00     0.210 HD
ENDBRANCH  23  24
ENDBRANCH   2  23
BRANCH   6  26
ATOM     26  O   UNL     1      13.111   6.064  43.239  1.00  0.00    -0.387 OA
ATOM     27  H   UNL     1      13.348   5.152  43.549  1.00  0.00     0.211 HD
ENDBRANCH   6  26
BRANCH   5  28
ATOM     28  O   UNL     1      13.835   8.747  43.079  1.00  0.00    -0.385 OA
ATOM     29  H   UNL     1      13.350   9.584  43.308  1.00  0.00     0.211 HD
ENDBRANCH   5  28
BRANCH   4  30
ATOM     30  O   UNL     1      15.850   6.804  43.264  1.00  0.00    -0.341 OA
BRANCH  30  31
ATOM     31  C   UNL     1      17.208   7.007  42.904  1.00  0.00     0.184 C 
ATOM     32  C   UNL     1      17.509   6.237  41.598  1.00  0.00     0.178 C 
ATOM     33  C   UNL     1      17.458   8.508  42.656  1.00  0.00     0.180 C 
ATOM     34  O   UNL     1      16.658   6.677  40.550  1.00  0.00    -0.342 OA
ATOM     35  C   UNL     1      16.658   8.972  41.425  1.00  0.00     0.201 C 
ATOM     36  C   UNL     1      16.902   8.038  40.219  1.00  0.00     0.279 C 
BRANCH  32  37
ATOM     37  C   UNL     1      17.323   4.728  41.790  1.00  0.00     0.191 C 
BRANCH  37  38
ATOM     38  O   UNL     1      17.807   4.048  40.665  1.00  0.00    -0.394 OA
ATOM     39  H   UNL     1      18.183   3.193  41.002  1.00  0.00     0.210 HD
ENDBRANCH  37  38
ENDBRANCH  32  37
BRANCH  33  40
ATOM     40  O   UNL     1      18.835   8.734  42.469  1.00  0.00    -0.387 OA
ATOM     41  H   UNL     1      19.286   8.508  43.325  1.00  0.00     0.211 HD
ENDBRANCH  33  40
BRANCH  35  42
ATOM     42  O   UNL     1      16.998  10.295  41.099  1.00  0.00    -0.385 OA
ATOM     43  H   UNL     1      16.837  10.836  41.918  1.00  0.00     0.211 HD
ENDBRANCH  35  42
BRANCH  36  44
ATOM     44  O   UNL     1      18.199   8.213  39.703  1.00  0.00    -0.366 OA
ATOM     45  H   UNL     1      18.719   8.678  40.411  1.00  0.00     0.213 HD
ENDBRANCH  36  44
ENDBRANCH  30  31
ENDBRANCH   4  30
TORSDOF 18
ENDMDL
MODEL 9
REMARK VINA RESULT:    -5.356      3.364      4.850
REMARK INTER + INTRA:         -11.241
REMARK INTER:                  -8.509
REMARK INTRA:                  -2.732
REMARK UNBOUND:                -1.972
REMARK SMILES OC[C@@H]1O[C@@H](O[C@@H]2[C@@H](O)[C@@H](O)[C@@H](O)O[C@@H]2CO)[C@@H](O)[C@@H](O)[C@@H]1O[C@@H]1O[C@H](CO)[C@@H](O)[C@H](O)[C@H]1O
REMARK SMILES IDX 22 1 3 2 4 3 5 4 18 5 20 6 23 7 24 8 26 9 29 10 25 11 31 12
REMARK SMILES IDX 33 13 27 14 28 15 30 17 32 19 34 21 2 23 1 24 21 26 19 28
REMARK SMILES IDX 6 30 7 31 15 32 8 33 14 34 10 35 12 36 16 37 17 38 9 40
REMARK SMILES IDX 11 42 13 44
REMARK H PARENT 28 16 30 18 32 20 34 22 1 25 21 27 19 29 17 39 9 41 11 43
REMARK H PARENT 13 45
REMARK Flexibility Score: inf
ROOT
ATOM      1  C   UNL     1      14.229   8.118  43.898  1.00  0.00     0.184 C 
ATOM      2  C   UNL     1      14.130   7.177  45.120  1.00  0.00     0.178 C 
ATOM      3  O   UNL     1      13.501   5.952  44.768  1.00  0.00    -0.341 OA
ATOM      4  C   UNL     1      12.154   6.148  44.362  1.00  0.00     0.282 C 
ATOM      5  C   UNL     1      12.073   7.074  43.128  1.00  0.00     0.202 C 
ATOM      6  C   UNL     1      12.806   8.403  43.377  1.00  0.00     0.180 C 
ENDROOT
BRANCH   1   7
ATOM      7  O   UNL     1      15.006   7.492  42.886  1.00  0.00    -0.341 OA
BRANCH   7   8
ATOM      8  C   UNL     1      15.304   8.371  41.809  1.00  0.00     0.282 C 
ATOM      9  C   UNL     1      16.647   6.843  40.544  1.00  0.00     0.178 C 
ATOM     10  C   UNL     1      17.938   7.653  40.784  1.00  0.00     0.177 C 
ATOM     11  O   UNL     1      15.465   7.634  40.604  1.00  0.00    -0.341 OA
ATOM     12  C   UNL     1      17.854   8.499  42.069  1.00  0.00     0.179 C 
ATOM     13  C   UNL     1      16.524   9.265  42.145  1.00  0.00     0.202 C 
BRANCH   9  14
ATOM     14  C   UNL     1      16.563   5.549  41.381  1.00  0.00     0.191 C 
BRANCH  14  15
ATOM     15  O   UNL     1      17.847   5.049  41.640  1.00  0.00    -0.394 OA
ATOM     16  H   UNL     1      18.403   5.278  40.853  1.00  0.00     0.210 HD
ENDBRANCH  14  15
ENDBRANCH   9  14
BRANCH  10  17
ATOM     17  O   UNL     1      18.162   8.487  39.676  1.00  0.00    -0.387 OA
ATOM     18  H   UNL     1      18.114   7.911  38.863  1.00  0.00     0.211 HD
ENDBRANCH  10  17
BRANCH  12  19
ATOM     19  O   UNL     1      17.990   7.689  43.207  1.00  0.00    -0.387 OA
ATOM     20  H   UNL     1      17.171   7.129  43.268  1.00  0.00     0.211 HD
ENDBRANCH  12  19
BRANCH  13  21
ATOM     21  O   UNL     1      16.559  10.412  41.327  1.00  0.00    -0.385 OA
ATOM     22  H   UNL     1      15.759  10.403  40.741  1.00  0.00     0.211 HD
ENDBRANCH  13  21
ENDBRANCH   7   8
ENDBRANCH   1   7
BRANCH   2  23
ATOM     23  C   UNL     1      15.516   6.879  45.701  1.00  0.00     0.191 C 
BRANCH  23  24
ATOM     24  O   UNL     1      16.195   5.986  44.865  1.00  0.00    -0.394 OA
ATOM     25  H   UNL     1      16.862   6.525  44.370  1.00  0.00     0.210 HD
ENDBRANCH  23  24
ENDBRANCH   2  23
BRANCH   6  26
ATOM     26  O   UNL     1      12.111   9.186  44.316  1.00  0.00    -0.387 OA
ATOM     27  H   UNL     1      11.857  10.031  43.863  1.00  0.00     0.211 HD
ENDBRANCH   6  26
BRANCH   5  28
ATOM     28  O   UNL     1      10.735   7.320  42.776  1.00  0.00    -0.385 OA
ATOM     29  H   UNL     1      10.179   7.003  43.537  1.00  0.00     0.211 HD
ENDBRANCH   5  28
BRANCH   4  30
ATOM     30  O   UNL     1      11.381   6.680  45.430  1.00  0.00    -0.341 OA
BRANCH  30  31
ATOM     31  C   UNL     1      10.756   5.661  46.195  1.00  0.00     0.184 C 
ATOM     32  C   UNL     1      10.755   6.073  47.685  1.00  0.00     0.178 C 
ATOM     33  C   UNL     1       9.295   5.491  45.734  1.00  0.00     0.180 C 
ATOM     34  O   UNL     1      10.071   7.304  47.864  1.00  0.00    -0.342 OA
ATOM     35  C   UNL     1       8.495   6.766  46.059  1.00  0.00     0.201 C 
ATOM     36  C   UNL     1       8.694   7.187  47.531  1.00  0.00     0.279 C 
BRANCH  32  37
ATOM     37  C   UNL     1      12.184   6.215  48.221  1.00  0.00     0.191 C 
BRANCH  37  38
ATOM     38  O   UNL     1      12.982   5.184  47.709  1.00  0.00    -0.394 OA
ATOM     39  H   UNL     1      12.751   5.111  46.746  1.00  0.00     0.210 HD
ENDBRANCH  37  38
ENDBRANCH  32  37
BRANCH  33  40
ATOM     40  O   UNL     1       8.725   4.371  46.368  1.00  0.00    -0.387 OA
ATOM     41  H   UNL     1       9.161   4.288  47.257  1.00  0.00     0.211 HD
ENDBRANCH  33  40
BRANCH  35  42
ATOM     42  O   UNL     1       7.133   6.565  45.783  1.00  0.00    -0.385 OA
ATOM     43  H   UNL     1       7.092   6.022  44.950  1.00  0.00     0.211 HD
ENDBRANCH  35  42
BRANCH  36  44
ATOM     44  O   UNL     1       8.032   6.299  48.400  1.00  0.00    -0.366 OA
ATOM     45  H   UNL     1       8.721   5.658  48.719  1.00  0.00     0.213 HD
ENDBRANCH  36  44
ENDBRANCH  30  31
ENDBRANCH   4  30
TORSDOF 18
ENDMDL
