MODEL 1
REMARK VINA RESULT:    -4.925      0.000      0.000
REMARK INTER + INTRA:          -9.893
REMARK INTER:                  -8.380
REMARK INTRA:                  -1.512
REMARK UNBOUND:                -1.512
REMARK SMILES CCCCCCCCCCCCCC(=O)[O-]
REMARK SMILES IDX 8 1 9 2 10 3 11 4 12 5 13 6 14 7 15 8 16 9 7 10 6 11 5 12
REMARK SMILES IDX 4 13 3 14 2 15 1 16
REMARK H PARENT
REMARK Flexibility Score: inf
ROOT
ATOM      1  C   UNL     1       1.021  44.685  10.182  1.00  0.00     0.000 C 
ENDROOT
BRANCH   1   2
ATOM      2  C   UNL     1       1.669  43.836   9.082  1.00  0.00     0.000 C 
BRANCH   2   3
ATOM      3  C   UNL     1       2.796  42.963   9.653  1.00  0.00     0.000 C 
BRANCH   3   4
ATOM      4  C   UNL     1       2.799  42.917  11.191  1.00  0.00     0.000 C 
BRANCH   4   5
ATOM      5  C   UNL     1       3.610  41.759  11.809  1.00  0.00     0.006 C 
BRANCH   5   6
ATOM      6  C   UNL     1       2.764  40.718  12.558  1.00  0.00     0.053 C 
BRANCH   6   7
ATOM      7  C   UNL     1       3.549  39.484  12.881  1.00  0.00     0.041 C 
ATOM      8  O   UNL     1       3.079  38.347  12.617  1.00  0.00    -0.550 OA
ATOM      9  O   UNL     1       4.786  39.590  13.506  1.00  0.00    -0.550 OA
ENDBRANCH   6   7
ENDBRANCH   5   6
ENDBRANCH   4   5
ENDBRANCH   3   4
ENDBRANCH   2   3
ENDBRANCH   1   2
BRANCH   1  10
ATOM     10  C   UNL     1       0.241  45.864   9.579  1.00  0.00     0.000 C 
BRANCH  10  11
ATOM     11  C   UNL     1       0.537  46.074   8.084  1.00  0.00    -0.000 C 
BRANCH  11  12
ATOM     12  C   UNL     1       1.338  47.349   7.752  1.00  0.00    -0.000 C 
BRANCH  12  13
ATOM     13  C   UNL     1       2.373  47.768   8.814  1.00  0.00    -0.000 C 
BRANCH  13  14
ATOM     14  C   UNL     1       3.840  47.507   8.428  1.00  0.00    -0.000 C 
BRANCH  14  15
ATOM     15  C   UNL     1       4.441  46.297   9.157  1.00  0.00    -0.003 C 
ATOM     16  C   UNL     1       4.244  46.411  10.666  1.00  0.00     0.004 C 
ENDBRANCH  14  15
ENDBRANCH  13  14
ENDBRANCH  12  13
ENDBRANCH  11  12
ENDBRANCH  10  11
ENDBRANCH   1  10
TORSDOF 12
ENDMDL
MODEL 2
REMARK VINA RESULT:    -4.923      1.092      2.909
REMARK INTER + INTRA:          -9.889
REMARK INTER:                  -8.150
REMARK INTRA:                  -1.739
REMARK UNBOUND:                -1.512
REMARK SMILES CCCCCCCCCCCCCC(=O)[O-]
REMARK SMILES IDX 8 1 9 2 10 3 11 4 12 5 13 6 14 7 15 8 16 9 7 10 6 11 5 12
REMARK SMILES IDX 4 13 3 14 2 15 1 16
REMARK H PARENT
REMARK Flexibility Score: inf
ROOT
ATOM      1  C   UNL     1       4.618  46.244   9.124  1.00  0.00     0.000 C 
ENDROOT
BRANCH   1   2
ATOM      2  C   UNL     1       4.264  46.031  10.601  1.00  0.00     0.000 C 
BRANCH   2   3
ATOM      3  C   UNL     1       4.217  44.535  10.945  1.00  0.00     0.000 C 
BRANCH   3   4
ATOM      4  C   UNL     1       3.595  44.255  12.324  1.00  0.00     0.000 C 
BRANCH   4   5
ATOM      5  C   UNL     1       2.578  43.097  12.360  1.00  0.00     0.006 C 
BRANCH   5   6
ATOM      6  C   UNL     1       2.982  41.868  11.530  1.00  0.00     0.053 C 
BRANCH   6   7
ATOM      7  C   UNL     1       3.460  40.740  12.392  1.00  0.00     0.041 C 
ATOM      8  O   UNL     1       2.651  39.866  12.799  1.00  0.00    -0.550 OA
ATOM      9  O   UNL     1       4.794  40.675  12.776  1.00  0.00    -0.550 OA
ENDBRANCH   6   7
ENDBRANCH   5   6
ENDBRANCH   4   5
ENDBRANCH   3   4
ENDBRANCH   2   3
ENDBRANCH   1   2
BRANCH   1  10
ATOM     10  C   UNL     1       4.410  47.710   8.715  1.00  0.00     0.000 C 
BRANCH  10  11
ATOM     11  C   UNL     1       3.326  47.883   7.637  1.00  0.00    -0.000 C 
BRANCH  11  12
ATOM     12  C   UNL     1       1.922  48.226   8.175  1.00  0.00    -0.000 C 
BRANCH  12  13
ATOM     13  C   UNL     1       0.986  47.020   8.383  1.00  0.00    -0.000 C 
BRANCH  13  14
ATOM     14  C   UNL     1       0.695  46.669   9.853  1.00  0.00    -0.000 C 
BRANCH  14  15
ATOM     15  C   UNL     1       0.586  45.157  10.094  1.00  0.00    -0.003 C 
ATOM     16  C   UNL     1       1.114  44.370   8.898  1.00  0.00     0.004 C 
ENDBRANCH  14  15
ENDBRANCH  13  14
ENDBRANCH  12  13
ENDBRANCH  11  12
ENDBRANCH  10  11
ENDBRANCH   1  10
TORSDOF 12
ENDMDL
MODEL 3
REMARK VINA RESULT:    -4.914      0.816      2.576
REMARK INTER + INTRA:          -9.874
REMARK INTER:                  -8.141
REMARK INTRA:                  -1.733
REMARK UNBOUND:                -1.512
REMARK SMILES CCCCCCCCCCCCCC(=O)[O-]
REMARK SMILES IDX 8 1 9 2 10 3 11 4 12 5 13 6 14 7 15 8 16 9 7 10 6 11 5 12
REMARK SMILES IDX 4 13 3 14 2 15 1 16
REMARK H PARENT
REMARK Flexibility Score: inf
ROOT
ATOM      1  C   UNL     1       4.078  45.083  10.744  1.00  0.00     0.000 C 
ENDROOT
BRANCH   1   2
ATOM      2  C   UNL     1       3.949  44.188   9.506  1.00  0.00     0.000 C 
BRANCH   2   3
ATOM      3  C   UNL     1       2.914  43.076   9.736  1.00  0.00     0.000 C 
BRANCH   3   4
ATOM      4  C   UNL     1       2.335  43.081  11.162  1.00  0.00     0.000 C 
BRANCH   4   5
ATOM      5  C   UNL     1       2.511  41.763  11.943  1.00  0.00     0.006 C 
BRANCH   5   6
ATOM      6  C   UNL     1       3.969  41.402  12.267  1.00  0.00     0.053 C 
BRANCH   6   7
ATOM      7  C   UNL     1       4.084  40.057  12.914  1.00  0.00     0.041 C 
ATOM      8  O   UNL     1       5.087  39.777  13.621  1.00  0.00    -0.550 OA
ATOM      9  O   UNL     1       3.100  39.098  12.707  1.00  0.00    -0.550 OA
ENDBRANCH   6   7
ENDBRANCH   5   6
ENDBRANCH   4   5
ENDBRANCH   3   4
ENDBRANCH   2   3
ENDBRANCH   1   2
BRANCH   1  10
ATOM     10  C   UNL     1       4.210  46.560  10.342  1.00  0.00     0.000 C 
BRANCH  10  11
ATOM     11  C   UNL     1       4.469  46.749   8.837  1.00  0.00    -0.000 C 
BRANCH  11  12
ATOM     12  C   UNL     1       3.622  47.848   8.164  1.00  0.00    -0.000 C 
BRANCH  12  13
ATOM     13  C   UNL     1       2.150  47.912   8.617  1.00  0.00    -0.000 C 
BRANCH  13  14
ATOM     14  C   UNL     1       1.187  47.008   7.826  1.00  0.00    -0.000 C 
BRANCH  14  15
ATOM     15  C   UNL     1       0.644  45.840   8.661  1.00  0.00    -0.003 C 
ATOM     16  C   UNL     1       0.501  46.234  10.128  1.00  0.00     0.004 C 
ENDBRANCH  14  15
ENDBRANCH  13  14
ENDBRANCH  12  13
ENDBRANCH  11  12
ENDBRANCH  10  11
ENDBRANCH   1  10
TORSDOF 12
ENDMDL
MODEL 4
REMARK VINA RESULT:    -4.845      1.185      1.961
REMARK INTER + INTRA:          -9.757
REMARK INTER:                  -8.705
REMARK INTRA:                  -1.052
REMARK UNBOUND:                -1.512
REMARK SMILES CCCCCCCCCCCCCC(=O)[O-]
REMARK SMILES IDX 8 1 9 2 10 3 11 4 12 5 13 6 14 7 15 8 16 9 7 10 6 11 5 12
REMARK SMILES IDX 4 13 3 14 2 15 1 16
REMARK H PARENT
REMARK Flexibility Score: inf
ROOT
ATOM      1  C   UNL     1       1.209  44.138   9.730  1.00  0.00     0.000 C 
ENDROOT
BRANCH   1   2
ATOM      2  C   UNL     1       0.867  44.331  11.212  1.00  0.00     0.000 C 
BRANCH   2   3
ATOM      3  C   UNL     1       1.647  43.340  12.090  1.00  0.00     0.000 C 
BRANCH   3   4
ATOM      4  C   UNL     1       3.129  43.225  11.693  1.00  0.00     0.000 C 
BRANCH   4   5
ATOM      5  C   UNL     1       3.743  41.821  11.863  1.00  0.00     0.006 C 
BRANCH   5   6
ATOM      6  C   UNL     1       2.792  40.778  12.471  1.00  0.00     0.053 C 
BRANCH   6   7
ATOM      7  C   UNL     1       3.512  39.526  12.868  1.00  0.00     0.041 C 
ATOM      8  O   UNL     1       4.634  39.592  13.433  1.00  0.00    -0.550 OA
ATOM      9  O   UNL     1       2.958  38.284  12.582  1.00  0.00    -0.550 OA
ENDBRANCH   6   7
ENDBRANCH   5   6
ENDBRANCH   4   5
ENDBRANCH   3   4
ENDBRANCH   2   3
ENDBRANCH   1   2
BRANCH   1  10
ATOM     10  C   UNL     1       0.955  45.428   8.935  1.00  0.00     0.000 C 
BRANCH  10  11
ATOM     11  C   UNL     1       1.283  46.699   9.738  1.00  0.00    -0.000 C 
BRANCH  11  12
ATOM     12  C   UNL     1       2.732  47.208   9.589  1.00  0.00    -0.000 C 
BRANCH  12  13
ATOM     13  C   UNL     1       3.751  46.576  10.557  1.00  0.00    -0.000 C 
BRANCH  13  14
ATOM     14  C   UNL     1       5.173  46.415   9.988  1.00  0.00    -0.000 C 
BRANCH  14  15
ATOM     15  C   UNL     1       5.581  47.574   9.068  1.00  0.00    -0.003 C 
ATOM     16  C   UNL     1       7.066  47.895   9.215  1.00  0.00     0.004 C 
ENDBRANCH  14  15
ENDBRANCH  13  14
ENDBRANCH  12  13
ENDBRANCH  11  12
ENDBRANCH  10  11
ENDBRANCH   1  10
TORSDOF 12
ENDMDL
MODEL 5
REMARK VINA RESULT:    -4.810      2.007      3.274
REMARK INTER + INTRA:          -9.696
REMARK INTER:                  -8.173
REMARK INTRA:                  -1.523
REMARK UNBOUND:                -1.512
REMARK SMILES CCCCCCCCCCCCCC(=O)[O-]
REMARK SMILES IDX 8 1 9 2 10 3 11 4 12 5 13 6 14 7 15 8 16 9 7 10 6 11 5 12
REMARK SMILES IDX 4 13 3 14 2 15 1 16
REMARK H PARENT
REMARK Flexibility Score: inf
ROOT
ATOM      1  C   UNL     1       0.208  46.608   7.308  1.00  0.00     0.000 C 
ENDROOT
BRANCH   1   2
ATOM      2  C   UNL     1       0.092  45.236   7.982  1.00  0.00     0.000 C 
BRANCH   2   3
ATOM      3  C   UNL     1       0.187  45.363   9.510  1.00  0.00     0.000 C 
BRANCH   3   4
ATOM      4  C   UNL     1       1.249  44.435  10.125  1.00  0.00     0.000 C 
BRANCH   4   5
ATOM      5  C   UNL     1       2.089  43.639   9.106  1.00  0.00     0.006 C 
BRANCH   5   6
ATOM      6  C   UNL     1       3.559  43.439   9.510  1.00  0.00     0.053 C 
BRANCH   6   7
ATOM      7  C   UNL     1       3.707  43.172  10.976  1.00  0.00     0.041 C 
ATOM      8  O   UNL     1       4.195  44.050  11.734  1.00  0.00    -0.550 OA
ATOM      9  O   UNL     1       3.338  41.939  11.500  1.00  0.00    -0.550 OA
ENDBRANCH   6   7
ENDBRANCH   5   6
ENDBRANCH   4   5
ENDBRANCH   3   4
ENDBRANCH   2   3
ENDBRANCH   1   2
BRANCH   1  10
ATOM     10  C   UNL     1       0.811  47.643   8.269  1.00  0.00     0.000 C 
BRANCH  10  11
ATOM     11  C   UNL     1       1.994  48.412   7.654  1.00  0.00    -0.000 C 
BRANCH  11  12
ATOM     12  C   UNL     1       3.377  47.766   7.876  1.00  0.00    -0.000 C 
BRANCH  12  13
ATOM     13  C   UNL     1       3.602  47.165   9.278  1.00  0.00    -0.000 C 
BRANCH  13  14
ATOM     14  C   UNL     1       5.067  46.828   9.611  1.00  0.00    -0.000 C 
BRANCH  14  15
ATOM     15  C   UNL     1       6.061  47.829   9.006  1.00  0.00    -0.003 C 
ATOM     16  C   UNL     1       7.476  47.575   9.516  1.00  0.00     0.004 C 
ENDBRANCH  14  15
ENDBRANCH  13  14
ENDBRANCH  12  13
ENDBRANCH  11  12
ENDBRANCH  10  11
ENDBRANCH   1  10
TORSDOF 12
ENDMDL
MODEL 6
REMARK VINA RESULT:    -4.799      0.914      2.624
REMARK INTER + INTRA:          -9.678
REMARK INTER:                  -8.215
REMARK INTRA:                  -1.463
REMARK UNBOUND:                -1.512
REMARK SMILES CCCCCCCCCCCCCC(=O)[O-]
REMARK SMILES IDX 8 1 9 2 10 3 11 4 12 5 13 6 14 7 15 8 16 9 7 10 6 11 5 12
REMARK SMILES IDX 4 13 3 14 2 15 1 16
REMARK H PARENT
REMARK Flexibility Score: inf
ROOT
ATOM      1  C   UNL     1       3.814  44.138   9.264  1.00  0.00     0.000 C 
ENDROOT
BRANCH   1   2
ATOM      2  C   UNL     1       2.790  43.083   9.699  1.00  0.00     0.000 C 
BRANCH   2   3
ATOM      3  C   UNL     1       1.871  43.629  10.802  1.00  0.00     0.000 C 
BRANCH   3   4
ATOM      4  C   UNL     1       1.932  42.804  12.099  1.00  0.00     0.000 C 
BRANCH   4   5
ATOM      5  C   UNL     1       2.872  41.582  12.052  1.00  0.00     0.006 C 
BRANCH   5   6
ATOM      6  C   UNL     1       2.357  40.351  12.815  1.00  0.00     0.053 C 
BRANCH   6   7
ATOM      7  C   UNL     1       3.344  39.225  12.796  1.00  0.00     0.041 C 
ATOM      8  O   UNL     1       2.997  38.084  12.394  1.00  0.00    -0.550 OA
ATOM      9  O   UNL     1       4.640  39.427  13.255  1.00  0.00    -0.550 OA
ENDBRANCH   6   7
ENDBRANCH   5   6
ENDBRANCH   4   5
ENDBRANCH   3   4
ENDBRANCH   2   3
ENDBRANCH   1   2
BRANCH   1  10
ATOM     10  C   UNL     1       4.474  44.799  10.483  1.00  0.00     0.000 C 
BRANCH  10  11
ATOM     11  C   UNL     1       4.404  46.336  10.441  1.00  0.00    -0.000 C 
BRANCH  11  12
ATOM     12  C   UNL     1       4.242  46.942   9.032  1.00  0.00    -0.000 C 
BRANCH  12  13
ATOM     13  C   UNL     1       2.840  47.497   8.714  1.00  0.00    -0.000 C 
BRANCH  13  14
ATOM     14  C   UNL     1       1.815  47.362   9.854  1.00  0.00    -0.000 C 
BRANCH  14  15
ATOM     15  C   UNL     1       0.432  46.914   9.361  1.00  0.00    -0.003 C 
ATOM     16  C   UNL     1       0.555  45.906   8.222  1.00  0.00     0.004 C 
ENDBRANCH  14  15
ENDBRANCH  13  14
ENDBRANCH  12  13
ENDBRANCH  11  12
ENDBRANCH  10  11
ENDBRANCH   1  10
TORSDOF 12
ENDMDL
MODEL 7
REMARK VINA RESULT:    -4.747      2.889      6.032
REMARK INTER + INTRA:          -9.589
REMARK INTER:                  -8.166
REMARK INTRA:                  -1.423
REMARK UNBOUND:                -1.512
REMARK SMILES CCCCCCCCCCCCCC(=O)[O-]
REMARK SMILES IDX 8 1 9 2 10 3 11 4 12 5 13 6 14 7 15 8 16 9 7 10 6 11 5 12
REMARK SMILES IDX 4 13 3 14 2 15 1 16
REMARK H PARENT
REMARK Flexibility Score: inf
ROOT
ATOM      1  C   UNL     1       3.987  46.193  10.626  1.00  0.00     0.000 C 
ENDROOT
BRANCH   1   2
ATOM      2  C   UNL     1       4.245  46.599   9.170  1.00  0.00     0.000 C 
BRANCH   2   3
ATOM      3  C   UNL     1       3.052  47.380   8.598  1.00  0.00     0.000 C 
BRANCH   3   4
ATOM      4  C   UNL     1       1.911  47.563   9.614  1.00  0.00     0.000 C 
BRANCH   4   5
ATOM      5  C   UNL     1       0.585  46.871   9.239  1.00  0.00     0.006 C 
BRANCH   5   6
ATOM      6  C   UNL     1       0.472  45.412   9.707  1.00  0.00     0.053 C 
BRANCH   6   7
ATOM      7  C   UNL     1       0.804  44.443   8.614  1.00  0.00     0.041 C 
ATOM      8  O   UNL     1       0.080  44.374   7.587  1.00  0.00    -0.550 OA
ATOM      9  O   UNL     1       1.895  43.592   8.746  1.00  0.00    -0.550 OA
ENDBRANCH   6   7
ENDBRANCH   5   6
ENDBRANCH   4   5
ENDBRANCH   3   4
ENDBRANCH   2   3
ENDBRANCH   1   2
BRANCH   1  10
ATOM     10  C   UNL     1       4.501  44.770  10.899  1.00  0.00     0.000 C 
BRANCH  10  11
ATOM     11  C   UNL     1       4.019  44.210  12.249  1.00  0.00    -0.000 C 
BRANCH  11  12
ATOM     12  C   UNL     1       2.496  43.999  12.360  1.00  0.00    -0.000 C 
BRANCH  12  13
ATOM     13  C   UNL     1       2.014  42.554  12.124  1.00  0.00    -0.000 C 
BRANCH  13  14
ATOM     14  C   UNL     1       3.124  41.553  11.755  1.00  0.00    -0.000 C 
BRANCH  14  15
ATOM     15  C   UNL     1       3.392  40.525  12.863  1.00  0.00    -0.003 C 
ATOM     16  C   UNL     1       4.875  40.176  12.941  1.00  0.00     0.004 C 
ENDBRANCH  14  15
ENDBRANCH  13  14
ENDBRANCH  12  13
ENDBRANCH  11  12
ENDBRANCH  10  11
ENDBRANCH   1  10
TORSDOF 12
ENDMDL
MODEL 8
REMARK VINA RESULT:    -4.627      3.773      5.998
REMARK INTER + INTRA:          -9.385
REMARK INTER:                  -7.937
REMARK INTRA:                  -1.448
REMARK UNBOUND:                -1.512
REMARK SMILES CCCCCCCCCCCCCC(=O)[O-]
REMARK SMILES IDX 8 1 9 2 10 3 11 4 12 5 13 6 14 7 15 8 16 9 7 10 6 11 5 12
REMARK SMILES IDX 4 13 3 14 2 15 1 16
REMARK H PARENT
REMARK Flexibility Score: inf
ROOT
ATOM      1  C   UNL     1       0.056  46.252   7.257  1.00  0.00     0.000 C 
ENDROOT
BRANCH   1   2
ATOM      2  C   UNL     1       0.515  47.488   8.039  1.00  0.00     0.000 C 
BRANCH   2   3
ATOM      3  C   UNL     1       1.989  47.808   7.746  1.00  0.00     0.000 C 
BRANCH   3   4
ATOM      4  C   UNL     1       2.890  47.675   8.986  1.00  0.00     0.000 C 
BRANCH   4   5
ATOM      5  C   UNL     1       4.124  46.768   8.803  1.00  0.00     0.006 C 
BRANCH   5   6
ATOM      6  C   UNL     1       5.239  46.991   9.836  1.00  0.00     0.053 C 
BRANCH   6   7
ATOM      7  C   UNL     1       6.419  47.699   9.246  1.00  0.00     0.041 C 
ATOM      8  O   UNL     1       7.586  47.386   9.596  1.00  0.00    -0.550 OA
ATOM      9  O   UNL     1       6.227  48.730   8.334  1.00  0.00    -0.550 OA
ENDBRANCH   6   7
ENDBRANCH   5   6
ENDBRANCH   4   5
ENDBRANCH   3   4
ENDBRANCH   2   3
ENDBRANCH   1   2
BRANCH   1  10
ATOM     10  C   UNL     1       0.265  44.972   8.080  1.00  0.00     0.000 C 
BRANCH  10  11
ATOM     11  C   UNL     1       0.141  45.209   9.596  1.00  0.00    -0.000 C 
BRANCH  11  12
ATOM     12  C   UNL     1       1.327  44.689  10.434  1.00  0.00    -0.000 C 
BRANCH  12  13
ATOM     13  C   UNL     1       2.226  43.656   9.728  1.00  0.00    -0.000 C 
BRANCH  13  14
ATOM     14  C   UNL     1       3.092  42.799  10.669  1.00  0.00    -0.000 C 
BRANCH  14  15
ATOM     15  C   UNL     1       3.074  43.303  12.119  1.00  0.00    -0.003 C 
ATOM     16  C   UNL     1       4.195  44.308  12.365  1.00  0.00     0.004 C 
ENDBRANCH  14  15
ENDBRANCH  13  14
ENDBRANCH  12  13
ENDBRANCH  11  12
ENDBRANCH  10  11
ENDBRANCH   1  10
TORSDOF 12
ENDMDL
MODEL 9
REMARK VINA RESULT:    -4.510      3.921      6.057
REMARK INTER + INTRA:          -9.187
REMARK INTER:                  -8.020
REMARK INTRA:                  -1.167
REMARK UNBOUND:                -1.512
REMARK SMILES CCCCCCCCCCCCCC(=O)[O-]
REMARK SMILES IDX 8 1 9 2 10 3 11 4 12 5 13 6 14 7 15 8 16 9 7 10 6 11 5 12
REMARK SMILES IDX 4 13 3 14 2 15 1 16
REMARK H PARENT
REMARK Flexibility Score: inf
ROOT
ATOM      1  C   UNL     1       1.606  43.598  11.583  1.00  0.00     0.000 C 
ENDROOT
BRANCH   1   2
ATOM      2  C   UNL     1       0.799  44.435  10.583  1.00  0.00     0.000 C 
BRANCH   2   3
ATOM      3  C   UNL     1       1.358  44.283   9.161  1.00  0.00     0.000 C 
BRANCH   3   4
ATOM      4  C   UNL     1       0.374  44.752   8.075  1.00  0.00     0.000 C 
BRANCH   4   5
ATOM      5  C   UNL     1      -0.082  46.220   8.198  1.00  0.00     0.006 C 
BRANCH   5   6
ATOM      6  C   UNL     1       0.729  47.214   7.351  1.00  0.00     0.053 C 
BRANCH   6   7
ATOM      7  C   UNL     1       1.589  48.101   8.196  1.00  0.00     0.041 C 
ATOM      8  O   UNL     1       2.382  48.916   7.656  1.00  0.00    -0.550 OA
ATOM      9  O   UNL     1       1.541  48.003   9.581  1.00  0.00    -0.550 OA
ENDBRANCH   6   7
ENDBRANCH   5   6
ENDBRANCH   4   5
ENDBRANCH   3   4
ENDBRANCH   2   3
ENDBRANCH   1   2
BRANCH   1  10
ATOM     10  C   UNL     1       2.706  42.798  10.869  1.00  0.00     0.000 C 
BRANCH  10  11
ATOM     11  C   UNL     1       4.090  43.464  10.970  1.00  0.00    -0.000 C 
BRANCH  11  12
ATOM     12  C   UNL     1       4.136  44.740  11.835  1.00  0.00    -0.000 C 
BRANCH  12  13
ATOM     13  C   UNL     1       4.116  46.066  11.049  1.00  0.00    -0.000 C 
BRANCH  13  14
ATOM     14  C   UNL     1       4.876  46.038   9.710  1.00  0.00    -0.000 C 
BRANCH  14  15
ATOM     15  C   UNL     1       5.180  47.442   9.169  1.00  0.00    -0.003 C 
ATOM     16  C   UNL     1       6.666  47.767   9.289  1.00  0.00     0.004 C 
ENDBRANCH  14  15
ENDBRANCH  13  14
ENDBRANCH  12  13
ENDBRANCH  11  12
ENDBRANCH  10  11
ENDBRANCH   1  10
TORSDOF 12
ENDMDL
