MODEL 1
REMARK VINA RESULT:    -3.632      0.000      0.000
REMARK INTER + INTRA:          -3.905
REMARK INTER:                  -3.844
REMARK INTRA:                  -0.061
REMARK UNBOUND:                -0.061
REMARK SMILES CC(=O)c1ccccc1
REMARK SMILES IDX 4 1 5 2 6 3 7 4 8 5 9 6 2 7 1 8 3 9
REMARK H PARENT
REMARK Flexibility Score: inf
ROOT
ATOM      1  C   UNL     1       0.724  21.869  32.522  1.00  0.00     0.017 A 
ATOM      2  C   UNL     1       1.391  23.020  32.987  1.00  0.00     0.012 A 
ATOM      3  C   UNL     1       1.143  24.269  32.409  1.00  0.00     0.001 A 
ATOM      4  C   UNL     1       0.228  24.386  31.359  1.00  0.00     0.000 A 
ATOM      5  C   UNL     1      -0.440  23.255  30.887  1.00  0.00     0.001 A 
ATOM      6  C   UNL     1      -0.196  22.004  31.462  1.00  0.00     0.012 A 
ENDROOT
BRANCH   1   7
ATOM      7  C   UNL     1       0.975  20.531  33.124  1.00  0.00     0.159 C 
ATOM      8  C   UNL     1       2.347  19.930  33.173  1.00  0.00     0.093 C 
ATOM      9  O   UNL     1       0.014  19.875  33.612  1.00  0.00    -0.295 OA
ENDBRANCH   1   7
TORSDOF 1
ENDMDL
MODEL 2
REMARK VINA RESULT:    -3.527      0.588      1.621
REMARK INTER + INTRA:          -3.795
REMARK INTER:                  -3.726
REMARK INTRA:                  -0.068
REMARK UNBOUND:                -0.061
REMARK SMILES CC(=O)c1ccccc1
REMARK SMILES IDX 4 1 5 2 6 3 7 4 8 5 9 6 2 7 1 8 3 9
REMARK H PARENT
REMARK Flexibility Score: inf
ROOT
ATOM      1  C   UNL     1       0.454  21.975  32.694  1.00  0.00     0.017 A 
ATOM      2  C   UNL     1      -0.794  22.370  32.172  1.00  0.00     0.012 A 
ATOM      3  C   UNL     1      -1.012  23.693  31.775  1.00  0.00     0.001 A 
ATOM      4  C   UNL     1       0.009  24.638  31.893  1.00  0.00     0.000 A 
ATOM      5  C   UNL     1       1.251  24.262  32.409  1.00  0.00     0.001 A 
ATOM      6  C   UNL     1       1.475  22.941  32.807  1.00  0.00     0.012 A 
ENDROOT
BRANCH   1   7
ATOM      7  C   UNL     1       0.706  20.572  33.123  1.00  0.00     0.159 C 
ATOM      8  C   UNL     1       2.067  19.950  33.034  1.00  0.00     0.093 C 
ATOM      9  O   UNL     1      -0.243  19.876  33.576  1.00  0.00    -0.295 OA
ENDBRANCH   1   7
TORSDOF 1
ENDMDL
MODEL 3
REMARK VINA RESULT:    -3.357      1.795      3.942
REMARK INTER + INTRA:          -3.614
REMARK INTER:                  -3.543
REMARK INTRA:                  -0.071
REMARK UNBOUND:                -0.061
REMARK SMILES CC(=O)c1ccccc1
REMARK SMILES IDX 4 1 5 2 6 3 7 4 8 5 9 6 2 7 1 8 3 9
REMARK H PARENT
REMARK Flexibility Score: inf
ROOT
ATOM      1  C   UNL     1       0.213  22.262  32.086  1.00  0.00     0.017 A 
ATOM      2  C   UNL     1      -0.013  20.981  31.545  1.00  0.00     0.012 A 
ATOM      3  C   UNL     1       0.719  19.878  31.996  1.00  0.00     0.001 A 
ATOM      4  C   UNL     1       1.686  20.039  32.992  1.00  0.00     0.000 A 
ATOM      5  C   UNL     1       1.921  21.301  33.538  1.00  0.00     0.001 A 
ATOM      6  C   UNL     1       1.193  22.407  33.090  1.00  0.00     0.012 A 
ENDROOT
BRANCH   1   7
ATOM      7  C   UNL     1      -0.555  23.448  31.618  1.00  0.00     0.159 C 
ATOM      8  C   UNL     1      -0.167  24.844  32.002  1.00  0.00     0.093 C 
ATOM      9  O   UNL     1      -1.563  23.287  30.877  1.00  0.00    -0.295 OA
ENDBRANCH   1   7
TORSDOF 1
ENDMDL
MODEL 4
REMARK VINA RESULT:    -3.328      1.929      3.973
REMARK INTER + INTRA:          -3.584
REMARK INTER:                  -3.517
REMARK INTRA:                  -0.068
REMARK UNBOUND:                -0.061
REMARK SMILES CC(=O)c1ccccc1
REMARK SMILES IDX 4 1 5 2 6 3 7 4 8 5 9 6 2 7 1 8 3 9
REMARK H PARENT
REMARK Flexibility Score: inf
ROOT
ATOM      1  C   UNL     1      -0.164  22.464  32.977  1.00  0.00     0.017 A 
ATOM      2  C   UNL     1      -0.831  21.223  32.977  1.00  0.00     0.012 A 
ATOM      3  C   UNL     1      -0.125  20.036  33.201  1.00  0.00     0.001 A 
ATOM      4  C   UNL     1       1.253  20.071  33.427  1.00  0.00     0.000 A 
ATOM      5  C   UNL     1       1.927  21.293  33.429  1.00  0.00     0.001 A 
ATOM      6  C   UNL     1       1.228  22.482  33.206  1.00  0.00     0.012 A 
ENDROOT
BRANCH   1   7
ATOM      7  C   UNL     1      -0.896  23.738  32.740  1.00  0.00     0.159 C 
ATOM      8  C   UNL     1      -0.268  24.889  32.016  1.00  0.00     0.093 C 
ATOM      9  O   UNL     1      -2.081  23.864  33.155  1.00  0.00    -0.295 OA
ENDBRANCH   1   7
TORSDOF 1
ENDMDL
MODEL 5
REMARK VINA RESULT:    -3.222      2.256      3.828
REMARK INTER + INTRA:          -3.472
REMARK INTER:                  -3.413
REMARK INTRA:                  -0.059
REMARK UNBOUND:                -0.061
REMARK SMILES CC(=O)c1ccccc1
REMARK SMILES IDX 4 1 5 2 6 3 7 4 8 5 9 6 2 7 1 8 3 9
REMARK H PARENT
REMARK Flexibility Score: inf
ROOT
ATOM      1  C   UNL     1      -0.647  21.880  33.060  1.00  0.00     0.017 A 
ATOM      2  C   UNL     1      -0.418  20.491  33.115  1.00  0.00     0.012 A 
ATOM      3  C   UNL     1       0.881  19.989  33.243  1.00  0.00     0.001 A 
ATOM      4  C   UNL     1       1.967  20.864  33.317  1.00  0.00     0.000 A 
ATOM      5  C   UNL     1       1.756  22.243  33.263  1.00  0.00     0.001 A 
ATOM      6  C   UNL     1       0.460  22.750  33.135  1.00  0.00     0.012 A 
ENDROOT
BRANCH   1   7
ATOM      7  C   UNL     1      -2.022  22.434  32.923  1.00  0.00     0.159 C 
ATOM      8  C   UNL     1      -2.970  22.493  34.083  1.00  0.00     0.093 C 
ATOM      9  O   UNL     1      -2.412  22.871  31.806  1.00  0.00    -0.295 OA
ENDBRANCH   1   7
TORSDOF 1
ENDMDL
MODEL 6
REMARK VINA RESULT:    -3.157      1.300      1.306
REMARK INTER + INTRA:          -3.403
REMARK INTER:                  -3.333
REMARK INTRA:                  -0.070
REMARK UNBOUND:                -0.061
REMARK SMILES CC(=O)c1ccccc1
REMARK SMILES IDX 4 1 5 2 6 3 7 4 8 5 9 6 2 7 1 8 3 9
REMARK H PARENT
REMARK Flexibility Score: inf
ROOT
ATOM      1  C   UNL     1      -0.077  22.108  32.826  1.00  0.00     0.017 A 
ATOM      2  C   UNL     1       0.859  23.022  32.301  1.00  0.00     0.012 A 
ATOM      3  C   UNL     1       0.483  24.335  32.004  1.00  0.00     0.001 A 
ATOM      4  C   UNL     1      -0.831  24.755  32.226  1.00  0.00     0.000 A 
ATOM      5  C   UNL     1      -1.770  23.862  32.745  1.00  0.00     0.001 A 
ATOM      6  C   UNL     1      -1.399  22.548  33.044  1.00  0.00     0.012 A 
ENDROOT
BRANCH   1   7
ATOM      7  C   UNL     1       0.304  20.707  33.149  1.00  0.00     0.159 C 
ATOM      8  C   UNL     1       1.728  20.242  33.101  1.00  0.00     0.093 C 
ATOM      9  O   UNL     1      -0.588  19.875  33.474  1.00  0.00    -0.295 OA
ENDBRANCH   1   7
TORSDOF 1
ENDMDL
MODEL 7
REMARK VINA RESULT:    -3.134      2.401      4.046
REMARK INTER + INTRA:          -3.378
REMARK INTER:                  -3.311
REMARK INTRA:                  -0.067
REMARK UNBOUND:                -0.061
REMARK SMILES CC(=O)c1ccccc1
REMARK SMILES IDX 4 1 5 2 6 3 7 4 8 5 9 6 2 7 1 8 3 9
REMARK H PARENT
REMARK Flexibility Score: inf
ROOT
ATOM      1  C   UNL     1      -0.236  23.925  32.322  1.00  0.00     0.017 A 
ATOM      2  C   UNL     1       1.161  23.808  32.467  1.00  0.00     0.012 A 
ATOM      3  C   UNL     1       1.732  22.611  32.912  1.00  0.00     0.001 A 
ATOM      4  C   UNL     1       0.919  21.517  33.219  1.00  0.00     0.000 A 
ATOM      5  C   UNL     1      -0.467  21.618  33.081  1.00  0.00     0.001 A 
ATOM      6  C   UNL     1      -1.043  22.812  32.636  1.00  0.00     0.012 A 
ENDROOT
BRANCH   1   7
ATOM      7  C   UNL     1      -0.863  25.190  31.851  1.00  0.00     0.159 C 
ATOM      8  C   UNL     1      -0.235  26.527  32.104  1.00  0.00     0.093 C 
ATOM      9  O   UNL     1      -1.954  25.149  31.218  1.00  0.00    -0.295 OA
ENDBRANCH   1   7
TORSDOF 1
ENDMDL
MODEL 8
REMARK VINA RESULT:    -2.899      2.288      2.793
REMARK INTER + INTRA:          -3.130
REMARK INTER:                  -3.065
REMARK INTRA:                  -0.065
REMARK UNBOUND:                -0.061
REMARK SMILES CC(=O)c1ccccc1
REMARK SMILES IDX 4 1 5 2 6 3 7 4 8 5 9 6 2 7 1 8 3 9
REMARK H PARENT
REMARK Flexibility Score: inf
ROOT
ATOM      1  C   UNL     1      -0.279  23.721  32.442  1.00  0.00     0.017 A 
ATOM      2  C   UNL     1       0.048  25.037  32.060  1.00  0.00     0.012 A 
ATOM      3  C   UNL     1      -0.898  26.063  32.161  1.00  0.00     0.001 A 
ATOM      4  C   UNL     1      -2.180  25.789  32.641  1.00  0.00     0.000 A 
ATOM      5  C   UNL     1      -2.519  24.490  33.023  1.00  0.00     0.001 A 
ATOM      6  C   UNL     1      -1.578  23.461  32.925  1.00  0.00     0.012 A 
ENDROOT
BRANCH   1   7
ATOM      7  C   UNL     1       0.713  22.616  32.342  1.00  0.00     0.159 C 
ATOM      8  C   UNL     1       0.352  21.276  31.775  1.00  0.00     0.093 C 
ATOM      9  O   UNL     1       1.896  22.799  32.742  1.00  0.00    -0.295 OA
ENDBRANCH   1   7
TORSDOF 1
ENDMDL
MODEL 9
REMARK VINA RESULT:    -1.800      1.964      3.723
REMARK INTER + INTRA:          -1.966
REMARK INTER:                  -1.895
REMARK INTRA:                  -0.072
REMARK UNBOUND:                -0.061
REMARK SMILES CC(=O)c1ccccc1
REMARK SMILES IDX 4 1 5 2 6 3 7 4 8 5 9 6 2 7 1 8 3 9
REMARK H PARENT
REMARK Flexibility Score: inf
ROOT
ATOM      1  C   UNL     1       0.622  22.545  32.194  1.00  0.00     0.017 A 
ATOM      2  C   UNL     1       1.584  22.253  33.182  1.00  0.00     0.012 A 
ATOM      3  C   UNL     1       1.902  20.928  33.496  1.00  0.00     0.001 A 
ATOM      4  C   UNL     1       1.264  19.878  32.831  1.00  0.00     0.000 A 
ATOM      5  C   UNL     1       0.309  20.151  31.851  1.00  0.00     0.001 A 
ATOM      6  C   UNL     1      -0.012  21.474  31.533  1.00  0.00     0.012 A 
ENDROOT
BRANCH   1   7
ATOM      7  C   UNL     1       0.270  23.948  31.846  1.00  0.00     0.159 C 
ATOM      8  C   UNL     1      -0.825  24.272  30.875  1.00  0.00     0.093 C 
ATOM      9  O   UNL     1       0.903  24.902  32.377  1.00  0.00    -0.295 OA
ENDBRANCH   1   7
TORSDOF 1
ENDMDL
