MODEL 1
REMARK VINA RESULT:    -3.865      0.000      0.000
REMARK INTER + INTRA:          -5.281
REMARK INTER:                  -4.995
REMARK INTRA:                  -0.286
REMARK UNBOUND:                -0.286
REMARK SMILES C=CC(=O)CCCCC
REMARK SMILES IDX 6 1 7 2 8 3 9 4 5 5 3 6 4 7 2 8 1 9
REMARK H PARENT
REMARK Flexibility Score: inf
ROOT
ATOM      1  C   UNL     1       3.393  28.550  57.129  1.00  0.00     0.008 C 
ENDROOT
BRANCH   1   2
ATOM      2  C   UNL     1       4.759  27.853  57.225  1.00  0.00     0.000 C 
BRANCH   2   3
ATOM      3  C   UNL     1       4.878  26.958  58.467  1.00  0.00    -0.003 C 
ATOM      4  C   UNL     1       3.503  26.628  59.039  1.00  0.00     0.004 C 
ENDBRANCH   2   3
ENDBRANCH   1   2
BRANCH   1   5
ATOM      5  C   UNL     1       2.715  28.337  55.768  1.00  0.00     0.080 C 
BRANCH   5   6
ATOM      6  C   UNL     1       1.217  28.373  55.908  1.00  0.00     0.155 C 
ATOM      7  O   UNL     1       0.513  27.936  54.957  1.00  0.00    -0.295 OA
BRANCH   6   8
ATOM      8  C   UNL     1       0.529  28.865  57.121  1.00  0.00     0.039 C 
ATOM      9  C   UNL     1      -0.635  29.517  57.104  1.00  0.00     0.012 C 
ENDBRANCH   6   8
ENDBRANCH   5   6
ENDBRANCH   1   5
TORSDOF 5
ENDMDL
MODEL 2
REMARK VINA RESULT:    -3.836      2.131      4.194
REMARK INTER + INTRA:          -5.243
REMARK INTER:                  -4.722
REMARK INTRA:                  -0.520
REMARK UNBOUND:                -0.286
REMARK SMILES C=CC(=O)CCCCC
REMARK SMILES IDX 6 1 7 2 8 3 9 4 5 5 3 6 4 7 2 8 1 9
REMARK H PARENT
REMARK Flexibility Score: inf
ROOT
ATOM      1  C   UNL     1       2.605  28.901  54.470  1.00  0.00     0.008 C 
ENDROOT
BRANCH   1   2
ATOM      2  C   UNL     1       1.375  28.258  55.127  1.00  0.00     0.000 C 
BRANCH   2   3
ATOM      3  C   UNL     1       0.485  29.285  55.842  1.00  0.00    -0.003 C 
ATOM      4  C   UNL     1       0.659  29.203  57.355  1.00  0.00     0.004 C 
ENDBRANCH   2   3
ENDBRANCH   1   2
BRANCH   1   5
ATOM      5  C   UNL     1       3.888  28.086  54.692  1.00  0.00     0.080 C 
BRANCH   5   6
ATOM      6  C   UNL     1       4.719  28.691  55.791  1.00  0.00     0.155 C 
ATOM      7  O   UNL     1       5.723  29.384  55.474  1.00  0.00    -0.295 OA
BRANCH   6   8
ATOM      8  C   UNL     1       4.398  28.540  57.226  1.00  0.00     0.039 C 
ATOM      9  C   UNL     1       3.938  27.413  57.772  1.00  0.00     0.012 C 
ENDBRANCH   6   8
ENDBRANCH   5   6
ENDBRANCH   1   5
TORSDOF 5
ENDMDL
MODEL 3
REMARK VINA RESULT:    -3.799      2.234      4.727
REMARK INTER + INTRA:          -5.196
REMARK INTER:                  -4.969
REMARK INTRA:                  -0.227
REMARK UNBOUND:                -0.286
REMARK SMILES C=CC(=O)CCCCC
REMARK SMILES IDX 6 1 7 2 8 3 9 4 5 5 3 6 4 7 2 8 1 9
REMARK H PARENT
REMARK Flexibility Score: inf
ROOT
ATOM      1  C   UNL     1       2.324  28.708  57.138  1.00  0.00     0.008 C 
ENDROOT
BRANCH   1   2
ATOM      2  C   UNL     1       0.900  29.213  57.414  1.00  0.00     0.000 C 
BRANCH   2   3
ATOM      3  C   UNL     1       0.003  29.153  56.170  1.00  0.00    -0.003 C 
ATOM      4  C   UNL     1       0.597  28.233  55.108  1.00  0.00     0.004 C 
ENDBRANCH   2   3
ENDBRANCH   1   2
BRANCH   1   5
ATOM      5  C   UNL     1       2.747  27.580  58.090  1.00  0.00     0.080 C 
BRANCH   5   6
ATOM      6  C   UNL     1       4.224  27.314  57.978  1.00  0.00     0.155 C 
ATOM      7  O   UNL     1       4.789  26.660  58.896  1.00  0.00    -0.295 OA
BRANCH   6   8
ATOM      8  C   UNL     1       5.042  27.754  56.827  1.00  0.00     0.039 C 
ATOM      9  C   UNL     1       6.035  28.640  56.914  1.00  0.00     0.012 C 
ENDBRANCH   6   8
ENDBRANCH   5   6
ENDBRANCH   1   5
TORSDOF 5
ENDMDL
MODEL 4
REMARK VINA RESULT:    -3.715      2.443      4.333
REMARK INTER + INTRA:          -5.087
REMARK INTER:                  -4.599
REMARK INTRA:                  -0.488
REMARK UNBOUND:                -0.286
REMARK SMILES C=CC(=O)CCCCC
REMARK SMILES IDX 6 1 7 2 8 3 9 4 5 5 3 6 4 7 2 8 1 9
REMARK H PARENT
REMARK Flexibility Score: inf
ROOT
ATOM      1  C   UNL     1       3.172  27.797  57.736  1.00  0.00     0.008 C 
ENDROOT
BRANCH   1   2
ATOM      2  C   UNL     1       2.229  28.902  57.234  1.00  0.00     0.000 C 
BRANCH   2   3
ATOM      3  C   UNL     1       0.902  28.344  56.699  1.00  0.00    -0.003 C 
ATOM      4  C   UNL     1       0.964  28.133  55.190  1.00  0.00     0.004 C 
ENDBRANCH   2   3
ENDBRANCH   1   2
BRANCH   1   5
ATOM      5  C   UNL     1       4.334  27.528  56.769  1.00  0.00     0.080 C 
BRANCH   5   6
ATOM      6  C   UNL     1       5.111  28.789  56.506  1.00  0.00     0.155 C 
ATOM      7  O   UNL     1       5.650  29.379  57.481  1.00  0.00    -0.295 OA
BRANCH   6   8
ATOM      8  C   UNL     1       5.302  29.355  55.153  1.00  0.00     0.039 C 
ATOM      9  C   UNL     1       4.428  29.212  54.156  1.00  0.00     0.012 C 
ENDBRANCH   6   8
ENDBRANCH   5   6
ENDBRANCH   1   5
TORSDOF 5
ENDMDL
MODEL 5
REMARK VINA RESULT:    -3.637      1.826      2.769
REMARK INTER + INTRA:          -4.986
REMARK INTER:                  -4.533
REMARK INTRA:                  -0.453
REMARK UNBOUND:                -0.286
REMARK SMILES C=CC(=O)CCCCC
REMARK SMILES IDX 6 1 7 2 8 3 9 4 5 5 3 6 4 7 2 8 1 9
REMARK H PARENT
REMARK Flexibility Score: inf
ROOT
ATOM      1  C   UNL     1       3.819  27.868  56.794  1.00  0.00     0.008 C 
ENDROOT
BRANCH   1   2
ATOM      2  C   UNL     1       4.998  28.806  57.095  1.00  0.00     0.000 C 
BRANCH   2   3
ATOM      3  C   UNL     1       5.658  29.352  55.821  1.00  0.00    -0.003 C 
ATOM      4  C   UNL     1       4.746  29.171  54.611  1.00  0.00     0.004 C 
ENDBRANCH   2   3
ENDBRANCH   1   2
BRANCH   1   5
ATOM      5  C   UNL     1       2.642  28.069  57.758  1.00  0.00     0.080 C 
BRANCH   5   6
ATOM      6  C   UNL     1       1.502  28.770  57.069  1.00  0.00     0.155 C 
ATOM      7  O   UNL     1       0.785  29.558  57.743  1.00  0.00    -0.295 OA
BRANCH   6   8
ATOM      8  C   UNL     1       1.202  28.606  55.631  1.00  0.00     0.039 C 
ATOM      9  C   UNL     1       0.865  29.610  54.821  1.00  0.00     0.012 C 
ENDBRANCH   6   8
ENDBRANCH   5   6
ENDBRANCH   1   5
TORSDOF 5
ENDMDL
MODEL 6
REMARK VINA RESULT:    -3.554      1.732      2.789
REMARK INTER + INTRA:          -4.879
REMARK INTER:                  -4.636
REMARK INTRA:                  -0.243
REMARK UNBOUND:                -0.286
REMARK SMILES C=CC(=O)CCCCC
REMARK SMILES IDX 6 1 7 2 8 3 9 4 5 5 3 6 4 7 2 8 1 9
REMARK H PARENT
REMARK Flexibility Score: inf
ROOT
ATOM      1  C   UNL     1       4.255  27.927  56.004  1.00  0.00     0.008 C 
ENDROOT
BRANCH   1   2
ATOM      2  C   UNL     1       5.351  29.003  55.966  1.00  0.00     0.000 C 
BRANCH   2   3
ATOM      3  C   UNL     1       5.469  29.674  54.590  1.00  0.00    -0.003 C 
ATOM      4  C   UNL     1       4.422  29.131  53.623  1.00  0.00     0.004 C 
ENDBRANCH   2   3
ENDBRANCH   1   2
BRANCH   1   5
ATOM      5  C   UNL     1       3.256  28.141  57.150  1.00  0.00     0.080 C 
BRANCH   5   6
ATOM      6  C   UNL     1       1.899  28.509  56.612  1.00  0.00     0.155 C 
ATOM      7  O   UNL     1       1.594  28.139  55.446  1.00  0.00    -0.295 OA
BRANCH   6   8
ATOM      8  C   UNL     1       0.893  29.256  57.397  1.00  0.00     0.039 C 
ATOM      9  C   UNL     1      -0.405  29.302  57.091  1.00  0.00     0.012 C 
ENDBRANCH   6   8
ENDBRANCH   5   6
ENDBRANCH   1   5
TORSDOF 5
ENDMDL
MODEL 7
REMARK VINA RESULT:    -3.465      2.170      4.379
REMARK INTER + INTRA:          -4.764
REMARK INTER:                  -4.221
REMARK INTRA:                  -0.543
REMARK UNBOUND:                -0.286
REMARK SMILES C=CC(=O)CCCCC
REMARK SMILES IDX 6 1 7 2 8 3 9 4 5 5 3 6 4 7 2 8 1 9
REMARK H PARENT
REMARK Flexibility Score: inf
ROOT
ATOM      1  C   UNL     1       2.209  28.132  55.559  1.00  0.00     0.008 C 
ENDROOT
BRANCH   1   2
ATOM      2  C   UNL     1       1.995  29.391  54.705  1.00  0.00     0.000 C 
BRANCH   2   3
ATOM      3  C   UNL     1       3.207  29.717  53.822  1.00  0.00    -0.003 C 
ATOM      4  C   UNL     1       4.144  28.517  53.712  1.00  0.00     0.004 C 
ENDBRANCH   2   3
ENDBRANCH   1   2
BRANCH   1   5
ATOM      5  C   UNL     1       2.237  28.436  57.064  1.00  0.00     0.080 C 
BRANCH   5   6
ATOM      6  C   UNL     1       3.414  27.767  57.721  1.00  0.00     0.155 C 
ATOM      7  O   UNL     1       3.198  26.955  58.661  1.00  0.00    -0.295 OA
BRANCH   6   8
ATOM      8  C   UNL     1       4.813  27.989  57.296  1.00  0.00     0.039 C 
ATOM      9  C   UNL     1       5.391  29.190  57.235  1.00  0.00     0.012 C 
ENDBRANCH   6   8
ENDBRANCH   5   6
ENDBRANCH   1   5
TORSDOF 5
ENDMDL
MODEL 8
REMARK VINA RESULT:    -3.465      8.395      9.629
REMARK INTER + INTRA:          -4.764
REMARK INTER:                  -4.602
REMARK INTRA:                  -0.162
REMARK UNBOUND:                -0.286
REMARK SMILES C=CC(=O)CCCCC
REMARK SMILES IDX 6 1 7 2 8 3 9 4 5 5 3 6 4 7 2 8 1 9
REMARK H PARENT
REMARK Flexibility Score: inf
ROOT
ATOM      1  C   UNL     1      -6.607  28.417  56.783  1.00  0.00     0.008 C 
ENDROOT
BRANCH   1   2
ATOM      2  C   UNL     1      -7.617  27.285  57.026  1.00  0.00     0.000 C 
BRANCH   2   3
ATOM      3  C   UNL     1      -7.556  26.200  55.942  1.00  0.00    -0.003 C 
ATOM      4  C   UNL     1      -6.980  26.753  54.643  1.00  0.00     0.004 C 
ENDBRANCH   2   3
ENDBRANCH   1   2
BRANCH   1   5
ATOM      5  C   UNL     1      -5.963  28.924  58.082  1.00  0.00     0.080 C 
BRANCH   5   6
ATOM      6  C   UNL     1      -6.201  30.400  58.254  1.00  0.00     0.155 C 
ATOM      7  O   UNL     1      -6.862  31.010  57.370  1.00  0.00    -0.295 OA
BRANCH   6   8
ATOM      8  C   UNL     1      -5.725  31.166  59.426  1.00  0.00     0.039 C 
ATOM      9  C   UNL     1      -4.457  31.186  59.838  1.00  0.00     0.012 C 
ENDBRANCH   6   8
ENDBRANCH   5   6
ENDBRANCH   1   5
TORSDOF 5
ENDMDL
MODEL 9
REMARK VINA RESULT:    -3.441      8.018     10.915
REMARK INTER + INTRA:          -4.732
REMARK INTER:                  -4.546
REMARK INTRA:                  -0.186
REMARK UNBOUND:                -0.286
REMARK SMILES C=CC(=O)CCCCC
REMARK SMILES IDX 6 1 7 2 8 3 9 4 5 5 3 6 4 7 2 8 1 9
REMARK H PARENT
REMARK Flexibility Score: inf
ROOT
ATOM      1  C   UNL     1      -7.006  32.185  58.262  1.00  0.00     0.008 C 
ENDROOT
BRANCH   1   2
ATOM      2  C   UNL     1      -8.533  32.333  58.167  1.00  0.00     0.000 C 
BRANCH   2   3
ATOM      3  C   UNL     1      -9.235  32.062  59.505  1.00  0.00    -0.003 C 
ATOM      4  C   UNL     1     -10.742  32.264  59.384  1.00  0.00     0.004 C 
ENDBRANCH   2   3
ENDBRANCH   1   2
BRANCH   1   5
ATOM      5  C   UNL     1      -6.559  31.493  59.558  1.00  0.00     0.080 C 
BRANCH   5   6
ATOM      6  C   UNL     1      -5.170  30.931  59.410  1.00  0.00     0.155 C 
ATOM      7  O   UNL     1      -4.227  31.487  60.034  1.00  0.00    -0.295 OA
BRANCH   6   8
ATOM      8  C   UNL     1      -4.863  29.738  58.592  1.00  0.00     0.039 C 
ATOM      9  C   UNL     1      -5.787  28.902  58.117  1.00  0.00     0.012 C 
ENDBRANCH   6   8
ENDBRANCH   5   6
ENDBRANCH   1   5
TORSDOF 5
ENDMDL
