MODEL 1
REMARK VINA RESULT:    -4.079      0.000      0.000
REMARK INTER + INTRA:          -5.705
REMARK INTER:                  -5.509
REMARK INTRA:                  -0.196
REMARK UNBOUND:                -0.196
REMARK SMILES CCCCCCCC=O
REMARK SMILES IDX 5 1 4 2 3 3 2 4 1 5 6 6 7 7 8 8 9 9
REMARK H PARENT
REMARK Flexibility Score: inf
ROOT
ATOM      1  C   UNL     1      25.738  56.479  -8.982  1.00  0.00     0.000 C 
ENDROOT
BRANCH   1   2
ATOM      2  C   UNL     1      25.084  57.870  -8.914  1.00  0.00     0.000 C 
BRANCH   2   3
ATOM      3  C   UNL     1      25.970  58.976  -9.512  1.00  0.00    -0.000 C 
BRANCH   3   4
ATOM      4  C   UNL     1      27.093  58.473 -10.436  1.00  0.00    -0.003 C 
ATOM      5  C   UNL     1      27.820  59.603 -11.165  1.00  0.00     0.004 C 
ENDBRANCH   3   4
ENDBRANCH   2   3
ENDBRANCH   1   2
BRANCH   1   6
ATOM      6  C   UNL     1      24.884  55.387  -8.310  1.00  0.00     0.008 C 
BRANCH   6   7
ATOM      7  C   UNL     1      23.373  55.668  -8.339  1.00  0.00     0.072 C 
BRANCH   7   8
ATOM      8  C   UNL     1      22.596  54.729  -7.462  1.00  0.00     0.224 C 
ATOM      9  O   UNL     1      22.868  54.640  -6.275  1.00  0.00    -0.303 OA
ENDBRANCH   7   8
ENDBRANCH   6   7
ENDBRANCH   1   6
TORSDOF 6
ENDMDL
MODEL 2
REMARK VINA RESULT:    -3.785      3.043      5.770
REMARK INTER + INTRA:          -5.308
REMARK INTER:                  -5.103
REMARK INTRA:                  -0.205
REMARK UNBOUND:                -0.196
REMARK SMILES CCCCCCCC=O
REMARK SMILES IDX 5 1 4 2 3 3 2 4 1 5 6 6 7 7 8 8 9 9
REMARK H PARENT
REMARK Flexibility Score: inf
ROOT
ATOM      1  C   UNL     1      24.978  57.776  -8.943  1.00  0.00     0.000 C 
ENDROOT
BRANCH   1   2
ATOM      2  C   UNL     1      25.681  56.407  -8.932  1.00  0.00     0.000 C 
BRANCH   2   3
ATOM      3  C   UNL     1      24.718  55.243  -8.637  1.00  0.00    -0.000 C 
BRANCH   3   4
ATOM      4  C   UNL     1      23.279  55.669  -8.293  1.00  0.00    -0.003 C 
ATOM      5  C   UNL     1      22.548  54.653  -7.417  1.00  0.00     0.004 C 
ENDBRANCH   3   4
ENDBRANCH   2   3
ENDBRANCH   1   2
BRANCH   1   6
ATOM      6  C   UNL     1      25.905  58.916  -9.403  1.00  0.00     0.008 C 
BRANCH   6   7
ATOM      7  C   UNL     1      26.970  58.484 -10.423  1.00  0.00     0.072 C 
BRANCH   7   8
ATOM      8  C   UNL     1      28.020  59.535 -10.640  1.00  0.00     0.224 C 
ATOM      9  O   UNL     1      29.131  59.214 -11.032  1.00  0.00    -0.303 OA
ENDBRANCH   7   8
ENDBRANCH   6   7
ENDBRANCH   1   6
TORSDOF 6
ENDMDL
MODEL 3
REMARK VINA RESULT:    -3.686     15.093     16.525
REMARK INTER + INTRA:          -5.174
REMARK INTER:                  -5.007
REMARK INTRA:                  -0.167
REMARK UNBOUND:                -0.196
REMARK SMILES CCCCCCCC=O
REMARK SMILES IDX 5 1 4 2 3 3 2 4 1 5 6 6 7 7 8 8 9 9
REMARK H PARENT
REMARK Flexibility Score: inf
ROOT
ATOM      1  C   UNL     1      31.798  45.631   1.513  1.00  0.00     0.000 C 
ENDROOT
BRANCH   1   2
ATOM      2  C   UNL     1      32.440  45.281   2.867  1.00  0.00     0.000 C 
BRANCH   2   3
ATOM      3  C   UNL     1      32.935  46.522   3.631  1.00  0.00    -0.000 C 
BRANCH   3   4
ATOM      4  C   UNL     1      31.885  47.635   3.801  1.00  0.00    -0.003 C 
ATOM      5  C   UNL     1      32.505  49.007   4.061  1.00  0.00     0.004 C 
ENDBRANCH   3   4
ENDBRANCH   2   3
ENDBRANCH   1   2
BRANCH   1   6
ATOM      6  C   UNL     1      30.282  45.363   1.487  1.00  0.00     0.008 C 
BRANCH   6   7
ATOM      7  C   UNL     1      29.737  44.983   0.101  1.00  0.00     0.072 C 
BRANCH   7   8
ATOM      8  C   UNL     1      28.498  45.750  -0.260  1.00  0.00     0.224 C 
ATOM      9  O   UNL     1      27.739  45.313  -1.111  1.00  0.00    -0.303 OA
ENDBRANCH   7   8
ENDBRANCH   6   7
ENDBRANCH   1   6
TORSDOF 6
ENDMDL
MODEL 4
REMARK VINA RESULT:    -3.610      4.561      6.877
REMARK INTER + INTRA:          -5.072
REMARK INTER:                  -4.843
REMARK INTRA:                  -0.229
REMARK UNBOUND:                -0.196
REMARK SMILES CCCCCCCC=O
REMARK SMILES IDX 5 1 4 2 3 3 2 4 1 5 6 6 7 7 8 8 9 9
REMARK H PARENT
REMARK Flexibility Score: inf
ROOT
ATOM      1  C   UNL     1      30.243  58.859 -13.269  1.00  0.00     0.000 C 
ENDROOT
BRANCH   1   2
ATOM      2  C   UNL     1      30.084  57.333 -13.389  1.00  0.00     0.000 C 
BRANCH   2   3
ATOM      3  C   UNL     1      31.384  56.629 -13.815  1.00  0.00    -0.000 C 
BRANCH   3   4
ATOM      4  C   UNL     1      32.552  57.576 -14.145  1.00  0.00    -0.003 C 
ATOM      5  C   UNL     1      33.907  57.036 -13.689  1.00  0.00     0.004 C 
ENDBRANCH   3   4
ENDBRANCH   2   3
ENDBRANCH   1   2
BRANCH   1   6
ATOM      6  C   UNL     1      29.351  59.466 -12.171  1.00  0.00     0.008 C 
BRANCH   6   7
ATOM      7  C   UNL     1      28.168  58.573 -11.762  1.00  0.00     0.072 C 
BRANCH   7   8
ATOM      8  C   UNL     1      27.528  59.018 -10.479  1.00  0.00     0.224 C 
ATOM      9  O   UNL     1      26.612  58.368  -9.999  1.00  0.00    -0.303 OA
ENDBRANCH   7   8
ENDBRANCH   6   7
ENDBRANCH   1   6
TORSDOF 6
ENDMDL
MODEL 5
REMARK VINA RESULT:    -3.572     15.154     16.814
REMARK INTER + INTRA:          -5.021
REMARK INTER:                  -4.867
REMARK INTRA:                  -0.154
REMARK UNBOUND:                -0.196
REMARK SMILES CCCCCCCC=O
REMARK SMILES IDX 5 1 4 2 3 3 2 4 1 5 6 6 7 7 8 8 9 9
REMARK H PARENT
REMARK Flexibility Score: inf
ROOT
ATOM      1  C   UNL     1      32.308  45.710   1.789  1.00  0.00     0.000 C 
ENDROOT
BRANCH   1   2
ATOM      2  C   UNL     1      31.159  44.716   1.546  1.00  0.00     0.000 C 
BRANCH   2   3
ATOM      3  C   UNL     1      29.860  45.404   1.089  1.00  0.00    -0.000 C 
BRANCH   3   4
ATOM      4  C   UNL     1      29.254  44.841  -0.209  1.00  0.00    -0.003 C 
ATOM      5  C   UNL     1      28.127  45.708  -0.768  1.00  0.00     0.004 C 
ENDBRANCH   3   4
ENDBRANCH   2   3
ENDBRANCH   1   2
BRANCH   1   6
ATOM      6  C   UNL     1      32.539  45.996   3.284  1.00  0.00     0.008 C 
BRANCH   6   7
ATOM      7  C   UNL     1      31.750  47.203   3.819  1.00  0.00     0.072 C 
BRANCH   7   8
ATOM      8  C   UNL     1      32.508  48.491   3.687  1.00  0.00     0.224 C 
ATOM      9  O   UNL     1      31.923  49.556   3.801  1.00  0.00    -0.303 OA
ENDBRANCH   7   8
ENDBRANCH   6   7
ENDBRANCH   1   6
TORSDOF 6
ENDMDL
MODEL 6
REMARK VINA RESULT:    -3.554     17.010     18.268
REMARK INTER + INTRA:          -4.996
REMARK INTER:                  -4.589
REMARK INTRA:                  -0.407
REMARK UNBOUND:                -0.196
REMARK SMILES CCCCCCCC=O
REMARK SMILES IDX 5 1 4 2 3 3 2 4 1 5 6 6 7 7 8 8 9 9
REMARK H PARENT
REMARK Flexibility Score: inf
ROOT
ATOM      1  C   UNL     1      17.480  42.715   1.153  1.00  0.00     0.000 C 
ENDROOT
BRANCH   1   2
ATOM      2  C   UNL     1      15.981  43.061   1.145  1.00  0.00     0.000 C 
BRANCH   2   3
ATOM      3  C   UNL     1      15.701  44.513   1.572  1.00  0.00    -0.000 C 
BRANCH   3   4
ATOM      4  C   UNL     1      15.094  45.403   0.473  1.00  0.00    -0.003 C 
ATOM      5  C   UNL     1      15.949  45.457  -0.793  1.00  0.00     0.004 C 
ENDBRANCH   3   4
ENDBRANCH   2   3
ENDBRANCH   1   2
BRANCH   1   6
ATOM      6  C   UNL     1      18.350  43.854   1.713  1.00  0.00     0.008 C 
BRANCH   6   7
ATOM      7  C   UNL     1      19.640  44.106   0.915  1.00  0.00     0.072 C 
BRANCH   7   8
ATOM      8  C   UNL     1      20.655  43.015   1.101  1.00  0.00     0.224 C 
ATOM      9  O   UNL     1      20.998  42.335   0.147  1.00  0.00    -0.303 OA
ENDBRANCH   7   8
ENDBRANCH   6   7
ENDBRANCH   1   6
TORSDOF 6
ENDMDL
MODEL 7
REMARK VINA RESULT:    -3.532      3.538      6.192
REMARK INTER + INTRA:          -4.967
REMARK INTER:                  -4.782
REMARK INTRA:                  -0.185
REMARK UNBOUND:                -0.196
REMARK SMILES CCCCCCCC=O
REMARK SMILES IDX 5 1 4 2 3 3 2 4 1 5 6 6 7 7 8 8 9 9
REMARK H PARENT
REMARK Flexibility Score: inf
ROOT
ATOM      1  C   UNL     1      27.017  58.410 -10.396  1.00  0.00     0.000 C 
ENDROOT
BRANCH   1   2
ATOM      2  C   UNL     1      26.000  58.937  -9.369  1.00  0.00     0.000 C 
BRANCH   2   3
ATOM      3  C   UNL     1      24.919  57.900  -9.013  1.00  0.00    -0.000 C 
BRANCH   3   4
ATOM      4  C   UNL     1      25.446  56.473  -8.780  1.00  0.00    -0.003 C 
ATOM      5  C   UNL     1      24.337  55.423  -8.750  1.00  0.00     0.004 C 
ENDBRANCH   3   4
ENDBRANCH   2   3
ENDBRANCH   1   2
BRANCH   1   6
ATOM      6  C   UNL     1      28.313  59.241 -10.429  1.00  0.00     0.008 C 
BRANCH   6   7
ATOM      7  C   UNL     1      28.644  59.828 -11.811  1.00  0.00     0.072 C 
BRANCH   7   8
ATOM      8  C   UNL     1      29.763  59.096 -12.494  1.00  0.00     0.224 C 
ATOM      9  O   UNL     1      29.518  58.122 -13.187  1.00  0.00    -0.303 OA
ENDBRANCH   7   8
ENDBRANCH   6   7
ENDBRANCH   1   6
TORSDOF 6
ENDMDL
MODEL 8
REMARK VINA RESULT:    -3.473     15.943     17.462
REMARK INTER + INTRA:          -4.886
REMARK INTER:                  -4.540
REMARK INTRA:                  -0.346
REMARK UNBOUND:                -0.196
REMARK SMILES CCCCCCCC=O
REMARK SMILES IDX 5 1 4 2 3 3 2 4 1 5 6 6 7 7 8 8 9 9
REMARK H PARENT
REMARK Flexibility Score: inf
ROOT
ATOM      1  C   UNL     1      15.827  44.563   1.639  1.00  0.00     0.000 C 
ENDROOT
BRANCH   1   2
ATOM      2  C   UNL     1      16.997  43.773   1.025  1.00  0.00     0.000 C 
BRANCH   2   3
ATOM      3  C   UNL     1      18.317  43.969   1.791  1.00  0.00    -0.000 C 
BRANCH   3   4
ATOM      4  C   UNL     1      19.560  44.141   0.900  1.00  0.00    -0.003 C 
ATOM      5  C   UNL     1      19.353  45.152  -0.227  1.00  0.00     0.004 C 
ENDBRANCH   3   4
ENDBRANCH   2   3
ENDBRANCH   1   2
BRANCH   1   6
ATOM      6  C   UNL     1      15.027  45.353   0.588  1.00  0.00     0.008 C 
BRANCH   6   7
ATOM      7  C   UNL     1      15.695  45.408  -0.796  1.00  0.00     0.072 C 
BRANCH   7   8
ATOM      8  C   UNL     1      14.839  46.093  -1.822  1.00  0.00     0.224 C 
ATOM      9  O   UNL     1      14.646  45.564  -2.905  1.00  0.00    -0.303 OA
ENDBRANCH   7   8
ENDBRANCH   6   7
ENDBRANCH   1   6
TORSDOF 6
ENDMDL
MODEL 9
REMARK VINA RESULT:    -3.443     16.331     18.035
REMARK INTER + INTRA:          -4.846
REMARK INTER:                  -4.253
REMARK INTRA:                  -0.593
REMARK UNBOUND:                -0.196
REMARK SMILES CCCCCCCC=O
REMARK SMILES IDX 5 1 4 2 3 3 2 4 1 5 6 6 7 7 8 8 9 9
REMARK H PARENT
REMARK Flexibility Score: inf
ROOT
ATOM      1  C   UNL     1      17.864  45.033  -0.371  1.00  0.00     0.000 C 
ENDROOT
BRANCH   1   2
ATOM      2  C   UNL     1      16.953  44.273   0.609  1.00  0.00     0.000 C 
BRANCH   2   3
ATOM      3  C   UNL     1      16.259  43.061  -0.038  1.00  0.00    -0.000 C 
BRANCH   3   4
ATOM      4  C   UNL     1      17.060  41.748   0.029  1.00  0.00    -0.003 C 
ATOM      5  C   UNL     1      17.668  41.349  -1.315  1.00  0.00     0.004 C 
ENDBRANCH   3   4
ENDBRANCH   2   3
ENDBRANCH   1   2
BRANCH   1   6
ATOM      6  C   UNL     1      19.358  44.885  -0.030  1.00  0.00     0.008 C 
BRANCH   6   7
ATOM      7  C   UNL     1      19.627  44.197   1.318  1.00  0.00     0.072 C 
BRANCH   7   8
ATOM      8  C   UNL     1      20.567  43.033   1.194  1.00  0.00     0.224 C 
ATOM      9  O   UNL     1      20.689  42.462   0.122  1.00  0.00    -0.303 OA
ENDBRANCH   7   8
ENDBRANCH   6   7
ENDBRANCH   1   6
TORSDOF 6
ENDMDL
