MODEL 1
REMARK VINA RESULT:    -5.167      0.000      0.000
REMARK INTER + INTRA:          -6.071
REMARK INTER:                  -5.923
REMARK INTRA:                  -0.148
REMARK UNBOUND:                -0.148
REMARK SMILES CC=Cc1ccc(O)c(OC)c1
REMARK SMILES IDX 4 1 12 2 9 3 7 4 6 5 5 6 3 7 1 8 2 9 10 10 11 11 8 12
REMARK H PARENT 8 13
REMARK Flexibility Score: inf
ROOT
ATOM      1  C   UNL     1       6.467  -2.003  48.464  1.00  0.00    -0.022 A 
ATOM      2  C   UNL     1       5.973  -3.203  47.925  1.00  0.00     0.058 A 
ATOM      3  C   UNL     1       5.482  -3.255  46.605  1.00  0.00     0.161 A 
ATOM      4  C   UNL     1       5.480  -2.084  45.827  1.00  0.00     0.157 A 
ATOM      5  C   UNL     1       5.956  -0.886  46.366  1.00  0.00     0.051 A 
ATOM      6  C   UNL     1       6.442  -0.839  47.673  1.00  0.00     0.012 A 
ENDROOT
BRANCH   1   7
ATOM      7  C   UNL     1       6.963  -2.004  49.863  1.00  0.00     0.003 C 
ATOM      8  C   UNL     1       6.805  -1.648  52.297  1.00  0.00     0.035 C 
ATOM      9  C   UNL     1       6.227  -1.632  50.918  1.00  0.00    -0.030 C 
ENDBRANCH   1   7
BRANCH   3  10
ATOM     10  O   UNL     1       4.993  -4.444  46.040  1.00  0.00    -0.493 OA
ATOM     11  C   UNL     1       4.971  -5.705  46.702  1.00  0.00     0.278 C 
ENDBRANCH   3  10
BRANCH   4  12
ATOM     12  O   UNL     1       5.004  -2.090  44.515  1.00  0.00    -0.504 OA
ATOM     13  H   UNL     1       4.382  -1.373  44.164  1.00  0.00     0.293 HD
ENDBRANCH   4  12
TORSDOF 3
ENDMDL
MODEL 2
REMARK VINA RESULT:    -4.991     12.715     14.343
REMARK INTER + INTRA:          -5.869
REMARK INTER:                  -5.705
REMARK INTRA:                  -0.164
REMARK UNBOUND:                -0.148
REMARK SMILES CC=Cc1ccc(O)c(OC)c1
REMARK SMILES IDX 4 1 12 2 9 3 7 4 6 5 5 6 3 7 1 8 2 9 10 10 11 11 8 12
REMARK H PARENT 8 13
REMARK Flexibility Score: inf
ROOT
ATOM      1  C   UNL     1      -2.182   5.397  40.562  1.00  0.00    -0.022 A 
ATOM      2  C   UNL     1      -1.511   6.527  40.067  1.00  0.00     0.058 A 
ATOM      3  C   UNL     1      -0.813   7.392  40.934  1.00  0.00     0.161 A 
ATOM      4  C   UNL     1      -0.803   7.118  42.313  1.00  0.00     0.157 A 
ATOM      5  C   UNL     1      -1.483   6.003  42.810  1.00  0.00     0.051 A 
ATOM      6  C   UNL     1      -2.172   5.149  41.947  1.00  0.00     0.012 A 
ENDROOT
BRANCH   1   7
ATOM      7  C   UNL     1      -2.908   4.526  39.603  1.00  0.00     0.003 C 
ATOM      8  C   UNL     1      -3.125   2.735  37.925  1.00  0.00     0.035 C 
ATOM      9  C   UNL     1      -2.326   3.560  38.882  1.00  0.00    -0.030 C 
ENDBRANCH   1   7
BRANCH   3  10
ATOM     10  O   UNL     1      -0.126   8.522  40.464  1.00  0.00    -0.493 OA
ATOM     11  C   UNL     1      -0.754   9.711  39.992  1.00  0.00     0.278 C 
ENDBRANCH   3  10
BRANCH   4  12
ATOM     12  O   UNL     1      -0.125   7.946  43.208  1.00  0.00    -0.504 OA
ATOM     13  H   UNL     1      -0.488   8.850  43.489  1.00  0.00     0.293 HD
ENDBRANCH   4  12
TORSDOF 3
ENDMDL
MODEL 3
REMARK VINA RESULT:    -4.868     13.124     14.467
REMARK INTER + INTRA:          -5.727
REMARK INTER:                  -5.557
REMARK INTRA:                  -0.170
REMARK UNBOUND:                -0.148
REMARK SMILES CC=Cc1ccc(O)c(OC)c1
REMARK SMILES IDX 4 1 12 2 9 3 7 4 6 5 5 6 3 7 1 8 2 9 10 10 11 11 8 12
REMARK H PARENT 8 13
REMARK Flexibility Score: inf
ROOT
ATOM      1  C   UNL     1       4.812  11.252  47.473  1.00  0.00    -0.022 A 
ATOM      2  C   UNL     1       3.437  10.989  47.352  1.00  0.00     0.058 A 
ATOM      3  C   UNL     1       2.513  11.537  48.265  1.00  0.00     0.161 A 
ATOM      4  C   UNL     1       2.983  12.348  49.313  1.00  0.00     0.157 A 
ATOM      5  C   UNL     1       4.351  12.597  49.445  1.00  0.00     0.051 A 
ATOM      6  C   UNL     1       5.262  12.053  48.538  1.00  0.00     0.012 A 
ENDROOT
BRANCH   1   7
ATOM      7  C   UNL     1       5.740  10.641  46.489  1.00  0.00     0.003 C 
ATOM      8  C   UNL     1       7.862   9.644  45.729  1.00  0.00     0.035 C 
ATOM      9  C   UNL     1       6.982  10.238  46.782  1.00  0.00    -0.030 C 
ENDBRANCH   1   7
BRANCH   3  10
ATOM     10  O   UNL     1       1.133  11.298  48.161  1.00  0.00    -0.493 OA
ATOM     11  C   UNL     1       0.541  10.005  48.085  1.00  0.00     0.278 C 
ENDBRANCH   3  10
BRANCH   4  12
ATOM     12  O   UNL     1       2.104  12.911  50.239  1.00  0.00    -0.504 OA
ATOM     13  H   UNL     1       1.098  12.864  50.127  1.00  0.00     0.293 HD
ENDBRANCH   4  12
TORSDOF 3
ENDMDL
MODEL 4
REMARK VINA RESULT:    -4.840      2.647      3.564
REMARK INTER + INTRA:          -5.696
REMARK INTER:                  -5.536
REMARK INTRA:                  -0.160
REMARK UNBOUND:                -0.148
REMARK SMILES CC=Cc1ccc(O)c(OC)c1
REMARK SMILES IDX 4 1 12 2 9 3 7 4 6 5 5 6 3 7 1 8 2 9 10 10 11 11 8 12
REMARK H PARENT 8 13
REMARK Flexibility Score: inf
ROOT
ATOM      1  C   UNL     1       5.279  -2.927  48.200  1.00  0.00    -0.022 A 
ATOM      2  C   UNL     1       6.608  -2.781  48.633  1.00  0.00     0.058 A 
ATOM      3  C   UNL     1       7.465  -1.837  48.030  1.00  0.00     0.161 A 
ATOM      4  C   UNL     1       6.979  -1.044  46.976  1.00  0.00     0.157 A 
ATOM      5  C   UNL     1       5.663  -1.199  46.533  1.00  0.00     0.051 A 
ATOM      6  C   UNL     1       4.818  -2.133  47.133  1.00  0.00     0.012 A 
ENDROOT
BRANCH   1   7
ATOM      7  C   UNL     1       4.425  -3.943  48.865  1.00  0.00     0.003 C 
ATOM      8  C   UNL     1       3.941  -5.794  50.418  1.00  0.00     0.035 C 
ATOM      9  C   UNL     1       4.862  -4.788  49.806  1.00  0.00    -0.030 C 
ENDBRANCH   1   7
BRANCH   3  10
ATOM     10  O   UNL     1       8.793  -1.665  48.451  1.00  0.00    -0.493 OA
ATOM     11  C   UNL     1       9.712  -2.728  48.684  1.00  0.00     0.278 C 
ENDBRANCH   3  10
BRANCH   4  12
ATOM     12  O   UNL     1       7.792  -0.098  46.351  1.00  0.00    -0.504 OA
ATOM     13  H   UNL     1       8.053  -0.170  45.375  1.00  0.00     0.293 HD
ENDBRANCH   4  12
TORSDOF 3
ENDMDL
MODEL 5
REMARK VINA RESULT:    -4.772      2.003      3.134
REMARK INTER + INTRA:          -5.617
REMARK INTER:                  -5.462
REMARK INTRA:                  -0.156
REMARK UNBOUND:                -0.148
REMARK SMILES CC=Cc1ccc(O)c(OC)c1
REMARK SMILES IDX 4 1 12 2 9 3 7 4 6 5 5 6 3 7 1 8 2 9 10 10 11 11 8 12
REMARK H PARENT 8 13
REMARK Flexibility Score: inf
ROOT
ATOM      1  C   UNL     1       5.491  -3.048  48.785  1.00  0.00    -0.022 A 
ATOM      2  C   UNL     1       5.002  -2.845  47.483  1.00  0.00     0.058 A 
ATOM      3  C   UNL     1       5.570  -1.868  46.641  1.00  0.00     0.161 A 
ATOM      4  C   UNL     1       6.634  -1.083  47.121  1.00  0.00     0.157 A 
ATOM      5  C   UNL     1       7.111  -1.272  48.420  1.00  0.00     0.051 A 
ATOM      6  C   UNL     1       6.546  -2.241  49.250  1.00  0.00     0.012 A 
ENDROOT
BRANCH   1   7
ATOM      7  C   UNL     1       4.849  -4.085  49.631  1.00  0.00     0.003 C 
ATOM      8  C   UNL     1       3.297  -5.938  50.112  1.00  0.00     0.035 C 
ATOM      9  C   UNL     1       3.907  -4.929  49.192  1.00  0.00    -0.030 C 
ENDBRANCH   1   7
BRANCH   3  10
ATOM     10  O   UNL     1       5.107  -1.652  45.333  1.00  0.00    -0.493 OA
ATOM     11  C   UNL     1       4.644  -2.678  44.461  1.00  0.00     0.278 C 
ENDBRANCH   3  10
BRANCH   4  12
ATOM     12  O   UNL     1       7.226  -0.105  46.321  1.00  0.00    -0.504 OA
ATOM     13  H   UNL     1       7.993   0.469  46.650  1.00  0.00     0.293 HD
ENDBRANCH   4  12
TORSDOF 3
ENDMDL
MODEL 6
REMARK VINA RESULT:    -4.634      2.724      4.708
REMARK INTER + INTRA:          -5.459
REMARK INTER:                  -5.305
REMARK INTRA:                  -0.154
REMARK UNBOUND:                -0.148
REMARK SMILES CC=Cc1ccc(O)c(OC)c1
REMARK SMILES IDX 4 1 12 2 9 3 7 4 6 5 5 6 3 7 1 8 2 9 10 10 11 11 8 12
REMARK H PARENT 8 13
REMARK Flexibility Score: inf
ROOT
ATOM      1  C   UNL     1       5.369  -2.296  47.887  1.00  0.00    -0.022 A 
ATOM      2  C   UNL     1       4.669  -3.330  48.531  1.00  0.00     0.058 A 
ATOM      3  C   UNL     1       4.845  -3.575  49.908  1.00  0.00     0.161 A 
ATOM      4  C   UNL     1       5.743  -2.776  50.638  1.00  0.00     0.157 A 
ATOM      5  C   UNL     1       6.452  -1.758  49.996  1.00  0.00     0.051 A 
ATOM      6  C   UNL     1       6.274  -1.518  48.633  1.00  0.00     0.012 A 
ENDROOT
BRANCH   1   7
ATOM      7  C   UNL     1       5.151  -2.090  46.433  1.00  0.00     0.003 C 
ATOM      8  C   UNL     1       4.678  -2.787  44.117  1.00  0.00     0.035 C 
ATOM      9  C   UNL     1       4.871  -3.075  45.572  1.00  0.00    -0.030 C 
ENDBRANCH   1   7
BRANCH   3  10
ATOM     10  O   UNL     1       4.150  -4.596  50.577  1.00  0.00    -0.493 OA
ATOM     11  C   UNL     1       3.871  -5.879  50.025  1.00  0.00     0.278 C 
ENDBRANCH   3  10
BRANCH   4  12
ATOM     12  O   UNL     1       5.948  -2.983  52.002  1.00  0.00    -0.504 OA
ATOM     13  H   UNL     1       5.291  -2.658  52.702  1.00  0.00     0.293 HD
ENDBRANCH   4  12
TORSDOF 3
ENDMDL
MODEL 7
REMARK VINA RESULT:    -4.590      3.035      4.549
REMARK INTER + INTRA:          -5.409
REMARK INTER:                  -5.256
REMARK INTRA:                  -0.153
REMARK UNBOUND:                -0.148
REMARK SMILES CC=Cc1ccc(O)c(OC)c1
REMARK SMILES IDX 4 1 12 2 9 3 7 4 6 5 5 6 3 7 1 8 2 9 10 10 11 11 8 12
REMARK H PARENT 8 13
REMARK Flexibility Score: inf
ROOT
ATOM      1  C   UNL     1       6.540  -4.232  49.183  1.00  0.00    -0.022 A 
ATOM      2  C   UNL     1       6.529  -2.918  48.685  1.00  0.00     0.058 A 
ATOM      3  C   UNL     1       7.732  -2.247  48.388  1.00  0.00     0.161 A 
ATOM      4  C   UNL     1       8.956  -2.904  48.605  1.00  0.00     0.157 A 
ATOM      5  C   UNL     1       8.971  -4.204  49.115  1.00  0.00     0.051 A 
ATOM      6  C   UNL     1       7.777  -4.866  49.407  1.00  0.00     0.012 A 
ENDROOT
BRANCH   1   7
ATOM      7  C   UNL     1       5.243  -4.887  49.487  1.00  0.00     0.003 C 
ATOM      8  C   UNL     1       2.826  -5.294  49.236  1.00  0.00     0.035 C 
ATOM      9  C   UNL     1       4.096  -4.599  48.862  1.00  0.00    -0.030 C 
ENDBRANCH   1   7
BRANCH   3  10
ATOM     10  O   UNL     1       7.747  -0.938  47.881  1.00  0.00    -0.493 OA
ATOM     11  C   UNL     1       6.759  -0.397  47.010  1.00  0.00     0.278 C 
ENDBRANCH   3  10
BRANCH   4  12
ATOM     12  O   UNL     1      10.171  -2.277  48.324  1.00  0.00    -0.504 OA
ATOM     13  H   UNL     1      10.714  -1.808  49.039  1.00  0.00     0.293 HD
ENDBRANCH   4  12
TORSDOF 3
ENDMDL
MODEL 8
REMARK VINA RESULT:    -4.574     13.413     14.112
REMARK INTER + INTRA:          -5.391
REMARK INTER:                  -5.225
REMARK INTRA:                  -0.166
REMARK UNBOUND:                -0.148
REMARK SMILES CC=Cc1ccc(O)c(OC)c1
REMARK SMILES IDX 4 1 12 2 9 3 7 4 6 5 5 6 3 7 1 8 2 9 10 10 11 11 8 12
REMARK H PARENT 8 13
REMARK Flexibility Score: inf
ROOT
ATOM      1  C   UNL     1       1.678   9.914  47.269  1.00  0.00    -0.022 A 
ATOM      2  C   UNL     1       2.894  10.445  46.807  1.00  0.00     0.058 A 
ATOM      3  C   UNL     1       3.798  11.062  47.696  1.00  0.00     0.161 A 
ATOM      4  C   UNL     1       3.466  11.152  49.059  1.00  0.00     0.157 A 
ATOM      5  C   UNL     1       2.250  10.640  49.518  1.00  0.00     0.051 A 
ATOM      6  C   UNL     1       1.358  10.029  48.635  1.00  0.00     0.012 A 
ENDROOT
BRANCH   1   7
ATOM      7  C   UNL     1       0.761   9.284  46.287  1.00  0.00     0.003 C 
ATOM      8  C   UNL     1      -1.343   8.245  45.531  1.00  0.00     0.035 C 
ATOM      9  C   UNL     1      -0.485   8.886  46.574  1.00  0.00    -0.030 C 
ENDBRANCH   1   7
BRANCH   3  10
ATOM     10  O   UNL     1       5.024  11.591  47.262  1.00  0.00    -0.493 OA
ATOM     11  C   UNL     1       5.782  11.082  46.169  1.00  0.00     0.278 C 
ENDBRANCH   3  10
BRANCH   4  12
ATOM     12  O   UNL     1       4.330  11.754  49.974  1.00  0.00    -0.504 OA
ATOM     13  H   UNL     1       4.442  11.408  50.919  1.00  0.00     0.293 HD
ENDBRANCH   4  12
TORSDOF 3
ENDMDL
MODEL 9
REMARK VINA RESULT:    -4.548      9.004     10.078
REMARK INTER + INTRA:          -5.361
REMARK INTER:                  -5.211
REMARK INTRA:                  -0.150
REMARK UNBOUND:                -0.148
REMARK SMILES CC=Cc1ccc(O)c(OC)c1
REMARK SMILES IDX 4 1 12 2 9 3 7 4 6 5 5 6 3 7 1 8 2 9 10 10 11 11 8 12
REMARK H PARENT 8 13
REMARK Flexibility Score: inf
ROOT
ATOM      1  C   UNL     1       7.643   3.279  53.847  1.00  0.00    -0.022 A 
ATOM      2  C   UNL     1       8.761   4.130  53.879  1.00  0.00     0.058 A 
ATOM      3  C   UNL     1       8.645   5.490  53.529  1.00  0.00     0.161 A 
ATOM      4  C   UNL     1       7.392   5.993  53.134  1.00  0.00     0.157 A 
ATOM      5  C   UNL     1       6.282   5.145  53.086  1.00  0.00     0.051 A 
ATOM      6  C   UNL     1       6.402   3.799  53.435  1.00  0.00     0.012 A 
ENDROOT
BRANCH   1   7
ATOM      7  C   UNL     1       7.826   1.853  54.217  1.00  0.00     0.003 C 
ATOM      8  C   UNL     1       8.889  -0.041  55.382  1.00  0.00     0.035 C 
ATOM      9  C   UNL     1       8.759   1.416  55.071  1.00  0.00    -0.030 C 
ENDBRANCH   1   7
BRANCH   3  10
ATOM     10  O   UNL     1       9.744   6.363  53.561  1.00  0.00    -0.493 OA
ATOM     11  C   UNL     1      11.032   6.022  54.064  1.00  0.00     0.278 C 
ENDBRANCH   3  10
BRANCH   4  12
ATOM     12  O   UNL     1       7.231   7.332  52.780  1.00  0.00    -0.504 OA
ATOM     13  H   UNL     1       7.610   8.088  53.338  1.00  0.00     0.293 HD
ENDBRANCH   4  12
TORSDOF 3
ENDMDL
