MODEL 1
REMARK VINA RESULT:    -3.724      0.000      0.000
REMARK INTER + INTRA:          -4.211
REMARK INTER:                  -3.942
REMARK INTRA:                  -0.269
REMARK UNBOUND:                -0.269
REMARK SMILES CC1=CC[C@@H]2[C@H]3[C@@H](C(C)C)CC[C@]2(C)[C@@H]13
REMARK SMILES IDX 1 1 2 2 3 3 4 4 5 5 6 6 15 7 13 8 12 9 11 10 7 11 14 12 8 13
REMARK SMILES IDX 9 14 10 15
REMARK H PARENT
REMARK Flexibility Score: inf
ROOT
ATOM      1  C   UNL     1       0.190  10.669  12.024  1.00  0.00     0.039 C 
ATOM      2  C   UNL     1       1.676  10.496  11.921  1.00  0.00    -0.073 C 
ATOM      3  C   UNL     1       2.385  11.066  10.912  1.00  0.00    -0.027 C 
ATOM      4  C   UNL     1       3.905  10.874  10.875  1.00  0.00     0.031 C 
ATOM      5  C   UNL     1       4.371   9.970  12.063  1.00  0.00     0.003 C 
ATOM      6  C   UNL     1       3.415   8.752  12.121  1.00  0.00     0.004 C 
ATOM      7  C   UNL     1       2.461   9.655  12.935  1.00  0.00     0.024 C 
ATOM      8  C   UNL     1       3.721  10.416  13.400  1.00  0.00    -0.022 C 
ATOM      9  C   UNL     1       4.345   9.654  14.603  1.00  0.00     0.008 C 
ATOM     10  C   UNL     1       4.772   8.212  14.232  1.00  0.00     0.005 C 
ATOM     11  C   UNL     1       3.976   7.609  13.027  1.00  0.00    -0.005 C 
ATOM     12  C   UNL     1       3.598  11.927  13.710  1.00  0.00     0.012 C 
ENDROOT
BRANCH  11  13
ATOM     13  C   UNL     1       4.840   6.578  12.232  1.00  0.00    -0.014 C 
ATOM     14  C   UNL     1       4.310   5.138  12.369  1.00  0.00     0.007 C 
ATOM     15  C   UNL     1       6.310   6.608  12.693  1.00  0.00     0.007 C 
ENDBRANCH  11  13
TORSDOF 1
ENDMDL
MODEL 2
REMARK VINA RESULT:    -2.249      1.266      3.213
REMARK INTER + INTRA:          -2.649
REMARK INTER:                  -2.586
REMARK INTRA:                  -0.063
REMARK UNBOUND:                -0.269
REMARK SMILES CC1=CC[C@@H]2[C@H]3[C@@H](C(C)C)CC[C@]2(C)[C@@H]13
REMARK SMILES IDX 1 1 2 2 3 3 4 4 5 5 6 6 15 7 13 8 12 9 11 10 7 11 14 12 8 13
REMARK SMILES IDX 9 14 10 15
REMARK H PARENT
REMARK Flexibility Score: inf
ROOT
ATOM      1  C   UNL     1       3.080  10.573  11.411  1.00  0.00     0.039 C 
ATOM      2  C   UNL     1       3.731   9.663  12.410  1.00  0.00    -0.073 C 
ATOM      3  C   UNL     1       4.064  10.102  13.652  1.00  0.00    -0.027 C 
ATOM      4  C   UNL     1       4.703   9.118  14.638  1.00  0.00     0.031 C 
ATOM      5  C   UNL     1       4.893   7.719  13.967  1.00  0.00     0.003 C 
ATOM      6  C   UNL     1       5.510   7.956  12.566  1.00  0.00     0.004 C 
ATOM      7  C   UNL     1       4.067   8.206  12.073  1.00  0.00     0.024 C 
ATOM      8  C   UNL     1       3.610   7.273  13.216  1.00  0.00    -0.022 C 
ATOM      9  C   UNL     1       3.731   5.801  12.733  1.00  0.00     0.008 C 
ATOM     10  C   UNL     1       5.186   5.418  12.361  1.00  0.00     0.005 C 
ATOM     11  C   UNL     1       6.070   6.639  11.941  1.00  0.00    -0.005 C 
ATOM     12  C   UNL     1       2.230   7.527  13.868  1.00  0.00     0.012 C 
ENDROOT
BRANCH  11  13
ATOM     13  C   UNL     1       7.575   6.398  12.288  1.00  0.00    -0.014 C 
ATOM     14  C   UNL     1       7.907   4.903  12.457  1.00  0.00     0.007 C 
ATOM     15  C   UNL     1       7.975   7.140  13.578  1.00  0.00     0.007 C 
ENDBRANCH  11  13
TORSDOF 1
ENDMDL
MODEL 3
REMARK VINA RESULT:    -1.102      1.226      5.034
REMARK INTER + INTRA:          -1.435
REMARK INTER:                  -1.183
REMARK INTRA:                  -0.252
REMARK UNBOUND:                -0.269
REMARK SMILES CC1=CC[C@@H]2[C@H]3[C@@H](C(C)C)CC[C@]2(C)[C@@H]13
REMARK SMILES IDX 1 1 2 2 3 3 4 4 5 5 6 6 15 7 13 8 12 9 11 10 7 11 14 12 8 13
REMARK SMILES IDX 9 14 10 15
REMARK H PARENT
REMARK Flexibility Score: inf
ROOT
ATOM      1  C   UNL     1       8.111   6.348  11.342  1.00  0.00     0.039 C 
ATOM      2  C   UNL     1       6.763   6.380  11.999  1.00  0.00    -0.073 C 
ATOM      3  C   UNL     1       5.948   5.294  11.991  1.00  0.00    -0.027 C 
ATOM      4  C   UNL     1       4.592   5.380  12.701  1.00  0.00     0.031 C 
ATOM      5  C   UNL     1       4.382   6.805  13.307  1.00  0.00     0.003 C 
ATOM      6  C   UNL     1       4.778   7.834  12.218  1.00  0.00     0.004 C 
ATOM      7  C   UNL     1       6.235   7.641  12.693  1.00  0.00     0.024 C 
ATOM      8  C   UNL     1       5.644   7.284  14.074  1.00  0.00    -0.022 C 
ATOM      9  C   UNL     1       5.358   8.603  14.847  1.00  0.00     0.008 C 
ATOM     10  C   UNL     1       4.337   9.508  14.113  1.00  0.00     0.005 C 
ATOM     11  C   UNL     1       4.286   9.276  12.567  1.00  0.00    -0.005 C 
ATOM     12  C   UNL     1       6.409   6.278  14.967  1.00  0.00     0.012 C 
ENDROOT
BRANCH  11  13
ATOM     13  C   UNL     1       2.866   9.585  11.991  1.00  0.00    -0.014 C 
ATOM     14  C   UNL     1       2.904  10.646  10.875  1.00  0.00     0.007 C 
ATOM     15  C   UNL     1       1.908  10.067  13.097  1.00  0.00     0.007 C 
ENDBRANCH  11  13
TORSDOF 1
ENDMDL
MODEL 4
REMARK VINA RESULT:    -0.987      1.181      4.782
REMARK INTER + INTRA:          -1.313
REMARK INTER:                  -1.068
REMARK INTRA:                  -0.244
REMARK UNBOUND:                -0.269
REMARK SMILES CC1=CC[C@@H]2[C@H]3[C@@H](C(C)C)CC[C@]2(C)[C@@H]13
REMARK SMILES IDX 1 1 2 2 3 3 4 4 5 5 6 6 15 7 13 8 12 9 11 10 7 11 14 12 8 13
REMARK SMILES IDX 9 14 10 15
REMARK H PARENT
REMARK Flexibility Score: inf
ROOT
ATOM      1  C   UNL     1       7.849   7.428  14.252  1.00  0.00     0.039 C 
ATOM      2  C   UNL     1       6.693   7.490  13.298  1.00  0.00    -0.073 C 
ATOM      3  C   UNL     1       6.831   7.119  11.998  1.00  0.00    -0.027 C 
ATOM      4  C   UNL     1       5.608   7.180  11.077  1.00  0.00     0.031 C 
ATOM      5  C   UNL     1       4.366   7.726  11.854  1.00  0.00     0.003 C 
ATOM      6  C   UNL     1       4.828   8.973  12.649  1.00  0.00     0.004 C 
ATOM      7  C   UNL     1       5.312   7.988  13.737  1.00  0.00     0.024 C 
ATOM      8  C   UNL     1       4.212   7.029  13.233  1.00  0.00    -0.022 C 
ATOM      9  C   UNL     1       2.866   7.421  13.907  1.00  0.00     0.008 C 
ATOM     10  C   UNL     1       2.430   8.866  13.560  1.00  0.00     0.005 C 
ATOM     11  C   UNL     1       3.620   9.810  13.181  1.00  0.00    -0.005 C 
ATOM     12  C   UNL     1       4.457   5.505  13.339  1.00  0.00     0.012 C 
ENDROOT
BRANCH  11  13
ATOM     13  C   UNL     1       3.169  10.922  12.180  1.00  0.00    -0.014 C 
ATOM     14  C   UNL     1       1.678  10.806  11.808  1.00  0.00     0.007 C 
ATOM     15  C   UNL     1       4.004  10.880  10.886  1.00  0.00     0.007 C 
ENDBRANCH  11  13
TORSDOF 1
ENDMDL
