MODEL 1
REMARK VINA RESULT:    -4.019      0.000      0.000
REMARK INTER + INTRA:          -9.418
REMARK INTER:                  -7.308
REMARK INTRA:                  -2.110
REMARK UNBOUND:                -2.110
REMARK SMILES CCCCCCCCCCCCCCCC(=O)[O-]
REMARK SMILES IDX 9 1 10 2 11 3 12 4 13 5 14 6 15 7 16 8 17 9 18 10 8 11 7 12
REMARK SMILES IDX 6 13 5 14 4 15 3 16 2 17 1 18
REMARK H PARENT
REMARK Flexibility Score: inf
ROOT
ATOM      1  C   UNL     1       5.371   0.278  -3.483  1.00  0.00     0.000 C 
ENDROOT
BRANCH   1   2
ATOM      2  C   UNL     1       4.035  -0.058  -4.168  1.00  0.00     0.000 C 
BRANCH   2   3
ATOM      3  C   UNL     1       3.919   0.560  -5.571  1.00  0.00     0.000 C 
BRANCH   3   4
ATOM      4  C   UNL     1       2.618   1.354  -5.760  1.00  0.00     0.000 C 
BRANCH   4   5
ATOM      5  C   UNL     1       1.741   1.278  -4.505  1.00  0.00     0.000 C 
BRANCH   5   6
ATOM      6  C   UNL     1       0.336   0.760  -4.847  1.00  0.00     0.006 C 
BRANCH   6   7
ATOM      7  C   UNL     1       0.097  -0.660  -4.318  1.00  0.00     0.053 C 
BRANCH   7   8
ATOM      8  C   UNL     1       0.892  -1.679  -5.076  1.00  0.00     0.041 C 
ATOM      9  O   UNL     1       1.520  -2.579  -4.460  1.00  0.00    -0.550 OA
ATOM     10  O   UNL     1       0.912  -1.653  -6.464  1.00  0.00    -0.550 OA
ENDBRANCH   7   8
ENDBRANCH   6   7
ENDBRANCH   5   6
ENDBRANCH   4   5
ENDBRANCH   3   4
ENDBRANCH   2   3
ENDBRANCH   1   2
BRANCH   1  11
ATOM     11  C   UNL     1       5.689   1.784  -3.498  1.00  0.00     0.000 C 
BRANCH  11  12
ATOM     12  C   UNL     1       7.008   2.165  -4.195  1.00  0.00    -0.000 C 
BRANCH  12  13
ATOM     13  C   UNL     1       6.945   3.538  -4.885  1.00  0.00    -0.000 C 
BRANCH  13  14
ATOM     14  C   UNL     1       5.801   3.632  -5.909  1.00  0.00    -0.000 C 
BRANCH  14  15
ATOM     15  C   UNL     1       5.039   4.964  -5.826  1.00  0.00    -0.000 C 
BRANCH  15  16
ATOM     16  C   UNL     1       3.656   4.763  -5.190  1.00  0.00    -0.000 C 
BRANCH  16  17
ATOM     17  C   UNL     1       3.686   4.883  -3.658  1.00  0.00    -0.003 C 
ATOM     18  C   UNL     1       4.012   6.299  -3.182  1.00  0.00     0.004 C 
ENDBRANCH  16  17
ENDBRANCH  15  16
ENDBRANCH  14  15
ENDBRANCH  13  14
ENDBRANCH  12  13
ENDBRANCH  11  12
ENDBRANCH   1  11
TORSDOF 14
ENDMDL
MODEL 2
REMARK VINA RESULT:    -3.985      1.031      3.123
REMARK INTER + INTRA:          -9.356
REMARK INTER:                  -7.422
REMARK INTRA:                  -1.933
REMARK UNBOUND:                -2.110
REMARK SMILES CCCCCCCCCCCCCCCC(=O)[O-]
REMARK SMILES IDX 9 1 10 2 11 3 12 4 13 5 14 6 15 7 16 8 17 9 18 10 8 11 7 12
REMARK SMILES IDX 6 13 5 14 4 15 3 16 2 17 1 18
REMARK H PARENT
REMARK Flexibility Score: inf
ROOT
ATOM      1  C   UNL     1       3.487   3.853  -3.719  1.00  0.00     0.000 C 
ENDROOT
BRANCH   1   2
ATOM      2  C   UNL     1       3.053   3.345  -5.105  1.00  0.00     0.000 C 
BRANCH   2   3
ATOM      3  C   UNL     1       2.194   2.073  -5.026  1.00  0.00     0.000 C 
BRANCH   3   4
ATOM      4  C   UNL     1       1.000   2.107  -5.991  1.00  0.00     0.000 C 
BRANCH   4   5
ATOM      5  C   UNL     1      -0.237   1.458  -5.358  1.00  0.00     0.000 C 
BRANCH   5   6
ATOM      6  C   UNL     1       0.150   0.620  -4.131  1.00  0.00     0.006 C 
BRANCH   6   7
ATOM      7  C   UNL     1      -0.170  -0.869  -4.321  1.00  0.00     0.053 C 
BRANCH   7   8
ATOM      8  C   UNL     1       0.992  -1.620  -4.897  1.00  0.00     0.041 C 
ATOM      9  O   UNL     1       0.996  -1.944  -6.113  1.00  0.00    -0.550 OA
ATOM     10  O   UNL     1       2.085  -1.930  -4.098  1.00  0.00    -0.550 OA
ENDBRANCH   7   8
ENDBRANCH   6   7
ENDBRANCH   5   6
ENDBRANCH   4   5
ENDBRANCH   3   4
ENDBRANCH   2   3
ENDBRANCH   1   2
BRANCH   1  11
ATOM     11  C   UNL     1       4.399   5.091  -3.793  1.00  0.00     0.000 C 
BRANCH  11  12
ATOM     12  C   UNL     1       5.313   5.154  -5.032  1.00  0.00    -0.000 C 
BRANCH  12  13
ATOM     13  C   UNL     1       6.603   4.334  -4.865  1.00  0.00    -0.000 C 
BRANCH  13  14
ATOM     14  C   UNL     1       6.670   3.137  -5.829  1.00  0.00    -0.000 C 
BRANCH  14  15
ATOM     15  C   UNL     1       6.428   1.794  -5.124  1.00  0.00    -0.000 C 
BRANCH  15  16
ATOM     16  C   UNL     1       6.516   1.954  -3.599  1.00  0.00    -0.000 C 
BRANCH  16  17
ATOM     17  C   UNL     1       5.747   0.860  -2.843  1.00  0.00    -0.003 C 
ATOM     18  C   UNL     1       4.981  -0.077  -3.775  1.00  0.00     0.004 C 
ENDBRANCH  16  17
ENDBRANCH  15  16
ENDBRANCH  14  15
ENDBRANCH  13  14
ENDBRANCH  12  13
ENDBRANCH  11  12
ENDBRANCH   1  11
TORSDOF 14
ENDMDL
MODEL 3
REMARK VINA RESULT:    -3.849      1.242      3.338
REMARK INTER + INTRA:          -9.110
REMARK INTER:                  -6.846
REMARK INTRA:                  -2.264
REMARK UNBOUND:                -2.110
REMARK SMILES CCCCCCCCCCCCCCCC(=O)[O-]
REMARK SMILES IDX 9 1 10 2 11 3 12 4 13 5 14 6 15 7 16 8 17 9 18 10 8 11 7 12
REMARK SMILES IDX 6 13 5 14 4 15 3 16 2 17 1 18
REMARK H PARENT
REMARK Flexibility Score: inf
ROOT
ATOM      1  C   UNL     1       3.469   4.417  -4.617  1.00  0.00     0.000 C 
ENDROOT
BRANCH   1   2
ATOM      2  C   UNL     1       3.113   3.342  -3.575  1.00  0.00     0.000 C 
BRANCH   2   3
ATOM      3  C   UNL     1       2.403   2.129  -4.197  1.00  0.00     0.000 C 
BRANCH   3   4
ATOM      4  C   UNL     1       2.497   2.113  -5.730  1.00  0.00     0.000 C 
BRANCH   4   5
ATOM      5  C   UNL     1       1.392   1.243  -6.339  1.00  0.00     0.000 C 
BRANCH   5   6
ATOM      6  C   UNL     1       1.904  -0.175  -6.628  1.00  0.00     0.006 C 
BRANCH   6   7
ATOM      7  C   UNL     1       0.914  -1.254  -6.169  1.00  0.00     0.053 C 
BRANCH   7   8
ATOM      8  C   UNL     1       0.966  -1.463  -4.686  1.00  0.00     0.041 C 
ATOM      9  O   UNL     1       1.826  -2.233  -4.184  1.00  0.00    -0.550 OA
ATOM     10  O   UNL     1       0.085  -0.781  -3.856  1.00  0.00    -0.550 OA
ENDBRANCH   7   8
ENDBRANCH   6   7
ENDBRANCH   5   6
ENDBRANCH   4   5
ENDBRANCH   3   4
ENDBRANCH   2   3
ENDBRANCH   1   2
BRANCH   1  11
ATOM     11  C   UNL     1       4.545   5.399  -4.119  1.00  0.00     0.000 C 
BRANCH  11  12
ATOM     12  C   UNL     1       5.941   5.207  -4.742  1.00  0.00    -0.000 C 
BRANCH  12  13
ATOM     13  C   UNL     1       5.964   4.127  -5.836  1.00  0.00    -0.000 C 
BRANCH  13  14
ATOM     14  C   UNL     1       6.918   2.968  -5.500  1.00  0.00    -0.000 C 
BRANCH  14  15
ATOM     15  C   UNL     1       6.176   1.701  -5.048  1.00  0.00    -0.000 C 
BRANCH  15  16
ATOM     16  C   UNL     1       6.234   1.550  -3.521  1.00  0.00    -0.000 C 
BRANCH  16  17
ATOM     17  C   UNL     1       5.408   0.359  -3.011  1.00  0.00    -0.003 C 
ATOM     18  C   UNL     1       5.020  -0.612  -4.126  1.00  0.00     0.004 C 
ENDBRANCH  16  17
ENDBRANCH  15  16
ENDBRANCH  14  15
ENDBRANCH  13  14
ENDBRANCH  12  13
ENDBRANCH  11  12
ENDBRANCH   1  11
TORSDOF 14
ENDMDL
MODEL 4
REMARK VINA RESULT:    -3.829      1.014      3.526
REMARK INTER + INTRA:          -9.073
REMARK INTER:                  -7.120
REMARK INTRA:                  -1.953
REMARK UNBOUND:                -2.110
REMARK SMILES CCCCCCCCCCCCCCCC(=O)[O-]
REMARK SMILES IDX 9 1 10 2 11 3 12 4 13 5 14 6 15 7 16 8 17 9 18 10 8 11 7 12
REMARK SMILES IDX 6 13 5 14 4 15 3 16 2 17 1 18
REMARK H PARENT
REMARK Flexibility Score: inf
ROOT
ATOM      1  C   UNL     1       4.914   5.723  -3.876  1.00  0.00     0.000 C 
ENDROOT
BRANCH   1   2
ATOM      2  C   UNL     1       3.452   5.261  -4.004  1.00  0.00     0.000 C 
BRANCH   2   3
ATOM      3  C   UNL     1       3.316   3.730  -4.027  1.00  0.00     0.000 C 
BRANCH   3   4
ATOM      4  C   UNL     1       2.764   3.206  -5.361  1.00  0.00     0.000 C 
BRANCH   4   5
ATOM      5  C   UNL     1       2.573   1.686  -5.318  1.00  0.00     0.000 C 
BRANCH   5   6
ATOM      6  C   UNL     1       1.605   1.285  -4.196  1.00  0.00     0.006 C 
BRANCH   6   7
ATOM      7  C   UNL     1       0.484   0.365  -4.697  1.00  0.00     0.053 C 
BRANCH   7   8
ATOM      8  C   UNL     1       0.934  -1.062  -4.792  1.00  0.00     0.041 C 
ATOM      9  O   UNL     1       1.044  -1.761  -3.751  1.00  0.00    -0.550 OA
ATOM     10  O   UNL     1       1.198  -1.627  -6.032  1.00  0.00    -0.550 OA
ENDBRANCH   7   8
ENDBRANCH   6   7
ENDBRANCH   5   6
ENDBRANCH   4   5
ENDBRANCH   3   4
ENDBRANCH   2   3
ENDBRANCH   1   2
BRANCH   1  11
ATOM     11  C   UNL     1       5.711   5.553  -5.182  1.00  0.00     0.000 C 
BRANCH  11  12
ATOM     12  C   UNL     1       7.026   4.763  -5.044  1.00  0.00    -0.000 C 
BRANCH  12  13
ATOM     13  C   UNL     1       7.099   3.553  -5.990  1.00  0.00    -0.000 C 
BRANCH  13  14
ATOM     14  C   UNL     1       7.444   2.247  -5.253  1.00  0.00    -0.000 C 
BRANCH  14  15
ATOM     15  C   UNL     1       6.196   1.464  -4.819  1.00  0.00    -0.000 C 
BRANCH  15  16
ATOM     16  C   UNL     1       6.005   1.541  -3.297  1.00  0.00    -0.000 C 
BRANCH  16  17
ATOM     17  C   UNL     1       5.433   0.244  -2.705  1.00  0.00    -0.003 C 
ATOM     18  C   UNL     1       4.991  -0.751  -3.777  1.00  0.00     0.004 C 
ENDBRANCH  16  17
ENDBRANCH  15  16
ENDBRANCH  14  15
ENDBRANCH  13  14
ENDBRANCH  12  13
ENDBRANCH  11  12
ENDBRANCH   1  11
TORSDOF 14
ENDMDL
MODEL 5
REMARK VINA RESULT:    -3.812      1.847      5.568
REMARK INTER + INTRA:          -9.042
REMARK INTER:                  -6.856
REMARK INTRA:                  -2.185
REMARK UNBOUND:                -2.110
REMARK SMILES CCCCCCCCCCCCCCCC(=O)[O-]
REMARK SMILES IDX 9 1 10 2 11 3 12 4 13 5 14 6 15 7 16 8 17 9 18 10 8 11 7 12
REMARK SMILES IDX 6 13 5 14 4 15 3 16 2 17 1 18
REMARK H PARENT
REMARK Flexibility Score: inf
ROOT
ATOM      1  C   UNL     1       3.396   3.704  -3.477  1.00  0.00     0.000 C 
ENDROOT
BRANCH   1   2
ATOM      2  C   UNL     1       3.684   4.849  -4.464  1.00  0.00     0.000 C 
BRANCH   2   3
ATOM      3  C   UNL     1       5.181   5.180  -4.564  1.00  0.00     0.000 C 
BRANCH   3   4
ATOM      4  C   UNL     1       5.941   4.204  -5.475  1.00  0.00     0.000 C 
BRANCH   4   5
ATOM      5  C   UNL     1       6.900   3.327  -4.662  1.00  0.00     0.000 C 
BRANCH   5   6
ATOM      6  C   UNL     1       6.532   1.842  -4.792  1.00  0.00     0.006 C 
BRANCH   6   7
ATOM      7  C   UNL     1       6.028   1.251  -3.469  1.00  0.00     0.053 C 
BRANCH   7   8
ATOM      8  C   UNL     1       5.551  -0.160  -3.634  1.00  0.00     0.041 C 
ATOM      9  O   UNL     1       6.249  -0.994  -4.266  1.00  0.00    -0.550 OA
ATOM     10  O   UNL     1       4.351  -0.560  -3.061  1.00  0.00    -0.550 OA
ENDBRANCH   7   8
ENDBRANCH   6   7
ENDBRANCH   5   6
ENDBRANCH   4   5
ENDBRANCH   3   4
ENDBRANCH   2   3
ENDBRANCH   1   2
BRANCH   1  11
ATOM     11  C   UNL     1       2.719   2.494  -4.144  1.00  0.00     0.000 C 
BRANCH  11  12
ATOM     12  C   UNL     1       2.480   2.634  -5.659  1.00  0.00    -0.000 C 
BRANCH  12  13
ATOM     13  C   UNL     1       3.319   1.650  -6.491  1.00  0.00    -0.000 C 
BRANCH  13  14
ATOM     14  C   UNL     1       2.901   0.186  -6.272  1.00  0.00    -0.000 C 
BRANCH  14  15
ATOM     15  C   UNL     1       1.639  -0.195  -7.061  1.00  0.00    -0.000 C 
BRANCH  15  16
ATOM     16  C   UNL     1       0.798  -1.218  -6.284  1.00  0.00    -0.000 C 
BRANCH  16  17
ATOM     17  C   UNL     1       1.096  -1.208  -4.776  1.00  0.00    -0.003 C 
ATOM     18  C   UNL     1       1.402  -2.600  -4.225  1.00  0.00     0.004 C 
ENDBRANCH  16  17
ENDBRANCH  15  16
ENDBRANCH  14  15
ENDBRANCH  13  14
ENDBRANCH  12  13
ENDBRANCH  11  12
ENDBRANCH   1  11
TORSDOF 14
ENDMDL
MODEL 6
REMARK VINA RESULT:    -3.768      1.572      2.138
REMARK INTER + INTRA:          -8.962
REMARK INTER:                  -6.652
REMARK INTRA:                  -2.310
REMARK UNBOUND:                -2.110
REMARK SMILES CCCCCCCCCCCCCCCC(=O)[O-]
REMARK SMILES IDX 9 1 10 2 11 3 12 4 13 5 14 6 15 7 16 8 17 9 18 10 8 11 7 12
REMARK SMILES IDX 6 13 5 14 4 15 3 16 2 17 1 18
REMARK H PARENT
REMARK Flexibility Score: inf
ROOT
ATOM      1  C   UNL     1       4.954  -0.658  -4.204  1.00  0.00     0.000 C 
ENDROOT
BRANCH   1   2
ATOM      2  C   UNL     1       5.770  -0.335  -5.468  1.00  0.00     0.000 C 
BRANCH   2   3
ATOM      3  C   UNL     1       4.894   0.183  -6.620  1.00  0.00     0.000 C 
BRANCH   3   4
ATOM      4  C   UNL     1       3.406   0.255  -6.243  1.00  0.00     0.000 C 
BRANCH   4   5
ATOM      5  C   UNL     1       2.767   1.543  -6.775  1.00  0.00     0.000 C 
BRANCH   5   6
ATOM      6  C   UNL     1       2.052   2.307  -5.651  1.00  0.00     0.006 C 
BRANCH   6   7
ATOM      7  C   UNL     1       1.747   1.411  -4.443  1.00  0.00     0.053 C 
BRANCH   7   8
ATOM      8  C   UNL     1       0.329   0.927  -4.452  1.00  0.00     0.041 C 
ATOM      9  O   UNL     1      -0.045   0.048  -3.632  1.00  0.00    -0.550 OA
ATOM     10  O   UNL     1      -0.587   1.473  -5.342  1.00  0.00    -0.550 OA
ENDBRANCH   7   8
ENDBRANCH   6   7
ENDBRANCH   5   6
ENDBRANCH   4   5
ENDBRANCH   3   4
ENDBRANCH   2   3
ENDBRANCH   1   2
BRANCH   1  11
ATOM     11  C   UNL     1       5.246   0.307  -3.041  1.00  0.00     0.000 C 
BRANCH  11  12
ATOM     12  C   UNL     1       6.036   1.572  -3.425  1.00  0.00    -0.000 C 
BRANCH  12  13
ATOM     13  C   UNL     1       5.127   2.763  -3.774  1.00  0.00    -0.000 C 
BRANCH  13  14
ATOM     14  C   UNL     1       5.566   3.482  -5.062  1.00  0.00    -0.000 C 
BRANCH  14  15
ATOM     15  C   UNL     1       4.889   4.850  -5.236  1.00  0.00    -0.000 C 
BRANCH  15  16
ATOM     16  C   UNL     1       4.703   5.544  -3.879  1.00  0.00    -0.000 C 
BRANCH  16  17
ATOM     17  C   UNL     1       3.322   6.203  -3.735  1.00  0.00    -0.003 C 
ATOM     18  C   UNL     1       2.656   6.480  -5.082  1.00  0.00     0.004 C 
ENDBRANCH  16  17
ENDBRANCH  15  16
ENDBRANCH  14  15
ENDBRANCH  13  14
ENDBRANCH  12  13
ENDBRANCH  11  12
ENDBRANCH   1  11
TORSDOF 14
ENDMDL
MODEL 7
REMARK VINA RESULT:    -3.746      2.943      6.172
REMARK INTER + INTRA:          -8.922
REMARK INTER:                  -7.006
REMARK INTRA:                  -1.916
REMARK UNBOUND:                -2.110
REMARK SMILES CCCCCCCCCCCCCCCC(=O)[O-]
REMARK SMILES IDX 9 1 10 2 11 3 12 4 13 5 14 6 15 7 16 8 17 9 18 10 8 11 7 12
REMARK SMILES IDX 6 13 5 14 4 15 3 16 2 17 1 18
REMARK H PARENT
REMARK Flexibility Score: inf
ROOT
ATOM      1  C   UNL     1       5.340   0.215  -3.529  1.00  0.00     0.000 C 
ENDROOT
BRANCH   1   2
ATOM      2  C   UNL     1       5.766   1.693  -3.501  1.00  0.00     0.000 C 
BRANCH   2   3
ATOM      3  C   UNL     1       6.924   1.992  -4.466  1.00  0.00     0.000 C 
BRANCH   3   4
ATOM      4  C   UNL     1       6.893   3.434  -4.997  1.00  0.00     0.000 C 
BRANCH   4   5
ATOM      5  C   UNL     1       5.868   3.582  -6.127  1.00  0.00     0.000 C 
BRANCH   5   6
ATOM      6  C   UNL     1       4.896   4.735  -5.840  1.00  0.00     0.006 C 
BRANCH   6   7
ATOM      7  C   UNL     1       5.282   5.519  -4.579  1.00  0.00     0.053 C 
BRANCH   7   8
ATOM      8  C   UNL     1       4.111   5.715  -3.664  1.00  0.00     0.041 C 
ATOM      9  O   UNL     1       3.071   5.022  -3.810  1.00  0.00    -0.550 OA
ATOM     10  O   UNL     1       4.183   6.639  -2.630  1.00  0.00    -0.550 OA
ENDBRANCH   7   8
ENDBRANCH   6   7
ENDBRANCH   5   6
ENDBRANCH   4   5
ENDBRANCH   3   4
ENDBRANCH   2   3
ENDBRANCH   1   2
BRANCH   1  11
ATOM     11  C   UNL     1       3.933   0.008  -4.117  1.00  0.00     0.000 C 
BRANCH  11  12
ATOM     12  C   UNL     1       3.673   0.728  -5.454  1.00  0.00    -0.000 C 
BRANCH  12  13
ATOM     13  C   UNL     1       2.554   1.779  -5.359  1.00  0.00    -0.000 C 
BRANCH  13  14
ATOM     14  C   UNL     1       1.515   1.439  -4.276  1.00  0.00    -0.000 C 
BRANCH  14  15
ATOM     15  C   UNL     1       0.205   0.891  -4.862  1.00  0.00    -0.000 C 
BRANCH  15  16
ATOM     16  C   UNL     1      -0.058  -0.539  -4.366  1.00  0.00    -0.000 C 
BRANCH  16  17
ATOM     17  C   UNL     1       0.794  -1.587  -5.099  1.00  0.00    -0.003 C 
ATOM     18  C   UNL     1       1.336  -2.667  -4.165  1.00  0.00     0.004 C 
ENDBRANCH  16  17
ENDBRANCH  15  16
ENDBRANCH  14  15
ENDBRANCH  13  14
ENDBRANCH  12  13
ENDBRANCH  11  12
ENDBRANCH   1  11
TORSDOF 14
ENDMDL
MODEL 8
REMARK VINA RESULT:    -3.628      1.184      1.998
REMARK INTER + INTRA:          -8.707
REMARK INTER:                  -6.931
REMARK INTRA:                  -1.776
REMARK UNBOUND:                -2.110
REMARK SMILES CCCCCCCCCCCCCCCC(=O)[O-]
REMARK SMILES IDX 9 1 10 2 11 3 12 4 13 5 14 6 15 7 16 8 17 9 18 10 8 11 7 12
REMARK SMILES IDX 6 13 5 14 4 15 3 16 2 17 1 18
REMARK H PARENT
REMARK Flexibility Score: inf
ROOT
ATOM      1  C   UNL     1       3.568   0.066  -4.700  1.00  0.00     0.000 C 
ENDROOT
BRANCH   1   2
ATOM      2  C   UNL     1       3.372   0.164  -6.223  1.00  0.00     0.000 C 
BRANCH   2   3
ATOM      3  C   UNL     1       3.431   1.613  -6.734  1.00  0.00     0.000 C 
BRANCH   3   4
ATOM      4  C   UNL     1       2.037   2.204  -6.992  1.00  0.00     0.000 C 
BRANCH   4   5
ATOM      5  C   UNL     1       1.220   2.272  -5.697  1.00  0.00     0.000 C 
BRANCH   5   6
ATOM      6  C   UNL     1       0.053   1.275  -5.729  1.00  0.00     0.006 C 
BRANCH   6   7
ATOM      7  C   UNL     1      -0.291   0.739  -4.333  1.00  0.00     0.053 C 
BRANCH   7   8
ATOM      8  C   UNL     1      -0.089  -0.743  -4.239  1.00  0.00     0.041 C 
ATOM      9  O   UNL     1      -0.321  -1.347  -3.160  1.00  0.00    -0.550 OA
ATOM     10  O   UNL     1       0.324  -1.461  -5.354  1.00  0.00    -0.550 OA
ENDBRANCH   7   8
ENDBRANCH   6   7
ENDBRANCH   5   6
ENDBRANCH   4   5
ENDBRANCH   3   4
ENDBRANCH   2   3
ENDBRANCH   1   2
BRANCH   1  11
ATOM     11  C   UNL     1       4.799  -0.771  -4.308  1.00  0.00     0.000 C 
BRANCH  11  12
ATOM     12  C   UNL     1       5.681  -0.155  -3.205  1.00  0.00    -0.000 C 
BRANCH  12  13
ATOM     13  C   UNL     1       5.466   1.359  -3.044  1.00  0.00    -0.000 C 
BRANCH  13  14
ATOM     14  C   UNL     1       6.283   2.182  -4.055  1.00  0.00    -0.000 C 
BRANCH  14  15
ATOM     15  C   UNL     1       5.532   3.428  -4.550  1.00  0.00    -0.000 C 
BRANCH  15  16
ATOM     16  C   UNL     1       4.266   3.669  -3.716  1.00  0.00    -0.000 C 
BRANCH  16  17
ATOM     17  C   UNL     1       3.536   4.963  -4.108  1.00  0.00    -0.003 C 
ATOM     18  C   UNL     1       3.983   6.169  -3.282  1.00  0.00     0.004 C 
ENDBRANCH  16  17
ENDBRANCH  15  16
ENDBRANCH  14  15
ENDBRANCH  13  14
ENDBRANCH  12  13
ENDBRANCH  11  12
ENDBRANCH   1  11
TORSDOF 14
ENDMDL
MODEL 9
REMARK VINA RESULT:    -3.622      1.916      5.489
REMARK INTER + INTRA:          -8.697
REMARK INTER:                  -6.985
REMARK INTRA:                  -1.712
REMARK UNBOUND:                -2.110
REMARK SMILES CCCCCCCCCCCCCCCC(=O)[O-]
REMARK SMILES IDX 9 1 10 2 11 3 12 4 13 5 14 6 15 7 16 8 17 9 18 10 8 11 7 12
REMARK SMILES IDX 6 13 5 14 4 15 3 16 2 17 1 18
REMARK H PARENT
REMARK Flexibility Score: inf
ROOT
ATOM      1  C   UNL     1       2.947   6.196  -4.111  1.00  0.00     0.000 C 
ENDROOT
BRANCH   1   2
ATOM      2  C   UNL     1       4.210   5.484  -3.593  1.00  0.00     0.000 C 
BRANCH   2   3
ATOM      3  C   UNL     1       5.387   5.581  -4.576  1.00  0.00     0.000 C 
BRANCH   3   4
ATOM      4  C   UNL     1       5.976   4.207  -4.929  1.00  0.00     0.000 C 
BRANCH   4   5
ATOM      5  C   UNL     1       5.246   3.087  -4.178  1.00  0.00     0.000 C 
BRANCH   5   6
ATOM      6  C   UNL     1       6.134   1.842  -4.048  1.00  0.00     0.006 C 
BRANCH   6   7
ATOM      7  C   UNL     1       5.628   0.878  -2.967  1.00  0.00     0.053 C 
BRANCH   7   8
ATOM      8  C   UNL     1       5.408  -0.502  -3.509  1.00  0.00     0.041 C 
ATOM      9  O   UNL     1       6.227  -1.000  -4.324  1.00  0.00    -0.550 OA
ATOM     10  O   UNL     1       4.317  -1.250  -3.086  1.00  0.00    -0.550 OA
ENDBRANCH   7   8
ENDBRANCH   6   7
ENDBRANCH   5   6
ENDBRANCH   4   5
ENDBRANCH   3   4
ENDBRANCH   2   3
ENDBRANCH   1   2
BRANCH   1  11
ATOM     11  C   UNL     1       2.896   6.282  -5.647  1.00  0.00     0.000 C 
BRANCH  11  12
ATOM     12  C   UNL     1       1.939   5.283  -6.324  1.00  0.00    -0.000 C 
BRANCH  12  13
ATOM     13  C   UNL     1       2.573   3.898  -6.537  1.00  0.00    -0.000 C 
BRANCH  13  14
ATOM     14  C   UNL     1       1.621   2.749  -6.161  1.00  0.00    -0.000 C 
BRANCH  14  15
ATOM     15  C   UNL     1       1.994   2.082  -4.829  1.00  0.00    -0.000 C 
BRANCH  15  16
ATOM     16  C   UNL     1       1.167   0.808  -4.606  1.00  0.00    -0.000 C 
BRANCH  16  17
ATOM     17  C   UNL     1       1.761  -0.416  -5.321  1.00  0.00    -0.003 C 
ATOM     18  C   UNL     1       0.736  -1.154  -6.181  1.00  0.00     0.004 C 
ENDBRANCH  16  17
ENDBRANCH  15  16
ENDBRANCH  14  15
ENDBRANCH  13  14
ENDBRANCH  12  13
ENDBRANCH  11  12
ENDBRANCH   1  11
TORSDOF 14
ENDMDL
