MODEL 1
REMARK VINA RESULT:    -3.754      0.000      0.000
REMARK INTER + INTRA:          -4.443
REMARK INTER:                  -4.413
REMARK INTRA:                  -0.030
REMARK UNBOUND:                -0.030
REMARK SMILES CCCCC(=O)[O-]
REMARK SMILES IDX 4 1 5 2 6 3 7 4 3 5 2 6 1 7
REMARK H PARENT
REMARK Flexibility Score: inf
ROOT
ATOM      1  C   UNL     1      13.722 -10.398  36.551  1.00  0.00     0.053 C 
ENDROOT
BRANCH   1   2
ATOM      2  C   UNL     1      13.431 -10.893  35.167  1.00  0.00     0.041 C 
ATOM      3  O   UNL     1      14.376 -11.198  34.393  1.00  0.00    -0.550 OA
ATOM      4  O   UNL     1      12.118 -10.984  34.721  1.00  0.00    -0.550 OA
ENDBRANCH   1   2
BRANCH   1   5
ATOM      5  C   UNL     1      13.091 -11.297  37.622  1.00  0.00     0.006 C 
BRANCH   5   6
ATOM      6  C   UNL     1      12.390 -10.487  38.722  1.00  0.00    -0.003 C 
ATOM      7  C   UNL     1      13.275 -10.356  39.958  1.00  0.00     0.004 C 
ENDBRANCH   5   6
ENDBRANCH   1   5
TORSDOF 3
ENDMDL
MODEL 2
REMARK VINA RESULT:    -3.715      5.547      6.066
REMARK INTER + INTRA:          -4.397
REMARK INTER:                  -4.368
REMARK INTRA:                  -0.028
REMARK UNBOUND:                -0.030
REMARK SMILES CCCCC(=O)[O-]
REMARK SMILES IDX 4 1 5 2 6 3 7 4 3 5 2 6 1 7
REMARK H PARENT
REMARK Flexibility Score: inf
ROOT
ATOM      1  C   UNL     1       7.310 -12.334  35.522  1.00  0.00     0.053 C 
ENDROOT
BRANCH   1   2
ATOM      2  C   UNL     1       8.057 -12.699  34.275  1.00  0.00     0.041 C 
ATOM      3  O   UNL     1       7.578 -13.545  33.475  1.00  0.00    -0.550 OA
ATOM      4  O   UNL     1       9.298 -12.130  34.013  1.00  0.00    -0.550 OA
ENDBRANCH   1   2
BRANCH   1   5
ATOM      5  C   UNL     1       7.221 -13.514  36.498  1.00  0.00     0.006 C 
BRANCH   5   6
ATOM      6  C   UNL     1       8.037 -13.274  37.776  1.00  0.00    -0.003 C 
ATOM      7  C   UNL     1       7.629 -14.246  38.880  1.00  0.00     0.004 C 
ENDBRANCH   5   6
ENDBRANCH   1   5
TORSDOF 3
ENDMDL
MODEL 3
REMARK VINA RESULT:    -3.707      2.874      4.254
REMARK INTER + INTRA:          -4.387
REMARK INTER:                  -4.368
REMARK INTRA:                  -0.020
REMARK UNBOUND:                -0.030
REMARK SMILES CCCCC(=O)[O-]
REMARK SMILES IDX 4 1 5 2 6 3 7 4 3 5 2 6 1 7
REMARK H PARENT
REMARK Flexibility Score: inf
ROOT
ATOM      1  C   UNL     1      12.568  -9.710  37.549  1.00  0.00     0.053 C 
ENDROOT
BRANCH   1   2
ATOM      2  C   UNL     1      12.312 -10.219  38.935  1.00  0.00     0.041 C 
ATOM      3  O   UNL     1      11.185 -10.691  39.238  1.00  0.00    -0.550 OA
ATOM      4  O   UNL     1      13.308 -10.139  39.901  1.00  0.00    -0.550 OA
ENDBRANCH   1   2
BRANCH   1   5
ATOM      5  C   UNL     1      13.621 -10.552  36.818  1.00  0.00     0.006 C 
BRANCH   5   6
ATOM      6  C   UNL     1      13.158 -10.977  35.418  1.00  0.00    -0.003 C 
ATOM      7  C   UNL     1      14.344 -11.137  34.471  1.00  0.00     0.004 C 
ENDBRANCH   5   6
ENDBRANCH   1   5
TORSDOF 3
ENDMDL
MODEL 4
REMARK VINA RESULT:    -3.682      5.600      6.690
REMARK INTER + INTRA:          -4.358
REMARK INTER:                  -4.277
REMARK INTRA:                  -0.081
REMARK UNBOUND:                -0.030
REMARK SMILES CCCCC(=O)[O-]
REMARK SMILES IDX 4 1 5 2 6 3 7 4 3 5 2 6 1 7
REMARK H PARENT
REMARK Flexibility Score: inf
ROOT
ATOM      1  C   UNL     1       7.636 -13.857  37.588  1.00  0.00     0.053 C 
ENDROOT
BRANCH   1   2
ATOM      2  C   UNL     1       8.923 -13.324  38.138  1.00  0.00     0.041 C 
ATOM      3  O   UNL     1       9.009 -12.120  38.495  1.00  0.00    -0.550 OA
ATOM      4  O   UNL     1      10.039 -14.148  38.225  1.00  0.00    -0.550 OA
ENDBRANCH   1   2
BRANCH   1   5
ATOM      5  C   UNL     1       7.283 -13.215  36.241  1.00  0.00     0.006 C 
BRANCH   5   6
ATOM      6  C   UNL     1       8.359 -13.469  35.176  1.00  0.00    -0.003 C 
ATOM      7  C   UNL     1       7.767 -13.417  33.771  1.00  0.00     0.004 C 
ENDBRANCH   5   6
ENDBRANCH   1   5
TORSDOF 3
ENDMDL
MODEL 5
REMARK VINA RESULT:    -3.655      4.448      4.945
REMARK INTER + INTRA:          -4.326
REMARK INTER:                  -4.275
REMARK INTRA:                  -0.051
REMARK UNBOUND:                -0.030
REMARK SMILES CCCCC(=O)[O-]
REMARK SMILES IDX 4 1 5 2 6 3 7 4 3 5 2 6 1 7
REMARK H PARENT
REMARK Flexibility Score: inf
ROOT
ATOM      1  C   UNL     1      10.807 -15.080  36.826  1.00  0.00     0.053 C 
ENDROOT
BRANCH   1   2
ATOM      2  C   UNL     1      11.974 -14.151  36.682  1.00  0.00     0.041 C 
ATOM      3  O   UNL     1      11.906 -13.166  35.901  1.00  0.00    -0.550 OA
ATOM      4  O   UNL     1      13.149 -14.393  37.384  1.00  0.00    -0.550 OA
ENDBRANCH   1   2
BRANCH   1   5
ATOM      5  C   UNL     1      10.057 -14.851  38.144  1.00  0.00     0.006 C 
BRANCH   5   6
ATOM      6  C   UNL     1       8.930 -13.819  38.000  1.00  0.00    -0.003 C 
ATOM      7  C   UNL     1       7.683 -14.254  38.763  1.00  0.00     0.004 C 
ENDBRANCH   5   6
ENDBRANCH   1   5
TORSDOF 3
ENDMDL
MODEL 6
REMARK VINA RESULT:    -3.625      1.379      1.969
REMARK INTER + INTRA:          -4.290
REMARK INTER:                  -4.171
REMARK INTRA:                  -0.119
REMARK UNBOUND:                -0.030
REMARK SMILES CCCCC(=O)[O-]
REMARK SMILES IDX 4 1 5 2 6 3 7 4 3 5 2 6 1 7
REMARK H PARENT
REMARK Flexibility Score: inf
ROOT
ATOM      1  C   UNL     1      13.628 -10.902  35.484  1.00  0.00     0.053 C 
ENDROOT
BRANCH   1   2
ATOM      2  C   UNL     1      12.686 -12.060  35.356  1.00  0.00     0.041 C 
ATOM      3  O   UNL     1      11.473 -11.862  35.084  1.00  0.00    -0.550 OA
ATOM      4  O   UNL     1      13.141 -13.356  35.571  1.00  0.00    -0.550 OA
ENDBRANCH   1   2
BRANCH   1   5
ATOM      5  C   UNL     1      13.232  -9.969  36.635  1.00  0.00     0.006 C 
BRANCH   5   6
ATOM      6  C   UNL     1      13.157 -10.705  37.980  1.00  0.00    -0.003 C 
ATOM      7  C   UNL     1      11.954 -10.240  38.796  1.00  0.00     0.004 C 
ENDBRANCH   5   6
ENDBRANCH   1   5
TORSDOF 3
ENDMDL
MODEL 7
REMARK VINA RESULT:    -3.618      3.588      4.377
REMARK INTER + INTRA:          -4.283
REMARK INTER:                  -4.253
REMARK INTRA:                  -0.030
REMARK UNBOUND:                -0.030
REMARK SMILES CCCCC(=O)[O-]
REMARK SMILES IDX 4 1 5 2 6 3 7 4 3 5 2 6 1 7
REMARK H PARENT
REMARK Flexibility Score: inf
ROOT
ATOM      1  C   UNL     1      12.865 -13.751  37.018  1.00  0.00     0.053 C 
ENDROOT
BRANCH   1   2
ATOM      2  C   UNL     1      11.480 -14.307  37.152  1.00  0.00     0.041 C 
ATOM      3  O   UNL     1      11.194 -15.423  36.645  1.00  0.00    -0.550 OA
ATOM      4  O   UNL     1      10.496 -13.576  37.808  1.00  0.00    -0.550 OA
ENDBRANCH   1   2
BRANCH   1   5
ATOM      5  C   UNL     1      13.107 -13.157  35.624  1.00  0.00     0.006 C 
BRANCH   5   6
ATOM      6  C   UNL     1      13.365 -11.644  35.674  1.00  0.00    -0.003 C 
ATOM      7  C   UNL     1      14.200 -11.189  34.480  1.00  0.00     0.004 C 
ENDBRANCH   5   6
ENDBRANCH   1   5
TORSDOF 3
ENDMDL
MODEL 8
REMARK VINA RESULT:    -3.605      2.958      3.778
REMARK INTER + INTRA:          -4.268
REMARK INTER:                  -4.185
REMARK INTRA:                  -0.083
REMARK UNBOUND:                -0.030
REMARK SMILES CCCCC(=O)[O-]
REMARK SMILES IDX 4 1 5 2 6 3 7 4 3 5 2 6 1 7
REMARK H PARENT
REMARK Flexibility Score: inf
ROOT
ATOM      1  C   UNL     1      12.242 -12.883  35.713  1.00  0.00     0.053 C 
ENDROOT
BRANCH   1   2
ATOM      2  C   UNL     1      12.268 -14.082  36.610  1.00  0.00     0.041 C 
ATOM      3  O   UNL     1      13.245 -14.276  37.380  1.00  0.00    -0.550 OA
ATOM      4  O   UNL     1      11.229 -15.005  36.571  1.00  0.00    -0.550 OA
ENDBRANCH   1   2
BRANCH   1   5
ATOM      5  C   UNL     1      13.620 -12.599  35.101  1.00  0.00     0.006 C 
BRANCH   5   6
ATOM      6  C   UNL     1      13.947 -11.100  35.074  1.00  0.00    -0.003 C 
ATOM      7  C   UNL     1      13.611 -10.439  36.408  1.00  0.00     0.004 C 
ENDBRANCH   5   6
ENDBRANCH   1   5
TORSDOF 3
ENDMDL
MODEL 9
REMARK VINA RESULT:    -3.522      5.501      6.217
REMARK INTER + INTRA:          -4.170
REMARK INTER:                  -4.133
REMARK INTRA:                  -0.037
REMARK UNBOUND:                -0.030
REMARK SMILES CCCCC(=O)[O-]
REMARK SMILES IDX 4 1 5 2 6 3 7 4 3 5 2 6 1 7
REMARK H PARENT
REMARK Flexibility Score: inf
ROOT
ATOM      1  C   UNL     1       9.513 -13.964  36.274  1.00  0.00     0.053 C 
ENDROOT
BRANCH   1   2
ATOM      2  C   UNL     1      10.255 -14.878  37.201  1.00  0.00     0.041 C 
ATOM      3  O   UNL     1      11.150 -15.642  36.753  1.00  0.00    -0.550 OA
ATOM      4  O   UNL     1       9.934 -14.911  38.552  1.00  0.00    -0.550 OA
ENDBRANCH   1   2
BRANCH   1   5
ATOM      5  C   UNL     1       8.175 -13.510  36.872  1.00  0.00     0.006 C 
BRANCH   5   6
ATOM      6  C   UNL     1       7.254 -12.875  35.820  1.00  0.00    -0.003 C 
ATOM      7  C   UNL     1       7.752 -13.163  34.407  1.00  0.00     0.004 C 
ENDBRANCH   5   6
ENDBRANCH   1   5
TORSDOF 3
ENDMDL
