MODEL 1
REMARK VINA RESULT:    -4.458      0.000      0.000
REMARK INTER + INTRA:          -4.458
REMARK INTER:                  -4.458
REMARK INTRA:                   0.000
REMARK UNBOUND:                 0.000
REMARK SMILES C=C1[C@@H]2CC[C@@H](C2)C1(C)C
REMARK SMILES IDX 9 1 8 2 6 3 5 4 4 5 3 6 7 7 2 8 1 9 10 10
REMARK H PARENT
REMARK Flexibility Score: inf
ROOT
ATOM      1  C   UNL     1      -2.327   3.967  12.505  1.00  0.00     0.016 C 
ATOM      2  C   UNL     1      -1.204   3.275  13.311  1.00  0.00    -0.012 C 
ATOM      3  C   UNL     1      -1.510   3.140  14.844  1.00  0.00    -0.001 C 
ATOM      4  C   UNL     1      -2.927   2.562  15.081  1.00  0.00     0.005 C 
ATOM      5  C   UNL     1      -2.795   1.110  14.573  1.00  0.00     0.008 C 
ATOM      6  C   UNL     1      -1.303   1.005  14.214  1.00  0.00     0.015 C 
ATOM      7  C   UNL     1      -0.681   1.924  15.242  1.00  0.00     0.012 C 
ATOM      8  C   UNL     1      -1.082   1.811  12.962  1.00  0.00    -0.068 C 
ATOM      9  C   UNL     1      -0.872   1.299  11.743  1.00  0.00     0.008 C 
ATOM     10  C   UNL     1       0.125   4.026  13.069  1.00  0.00     0.016 C 
ENDROOT
TORSDOF 0
ENDMDL
MODEL 2
REMARK VINA RESULT:    -4.438      1.027      3.070
REMARK INTER + INTRA:          -4.438
REMARK INTER:                  -4.438
REMARK INTRA:                   0.000
REMARK UNBOUND:                 0.000
REMARK SMILES C=C1[C@@H]2CC[C@@H](C2)C1(C)C
REMARK SMILES IDX 9 1 8 2 6 3 5 4 4 5 3 6 7 7 2 8 1 9 10 10
REMARK H PARENT
REMARK Flexibility Score: inf
ROOT
ATOM      1  C   UNL     1      -2.523   1.714  14.509  1.00  0.00     0.016 C 
ATOM      2  C   UNL     1      -1.447   2.718  14.037  1.00  0.00    -0.012 C 
ATOM      3  C   UNL     1      -0.252   2.055  13.265  1.00  0.00    -0.001 C 
ATOM      4  C   UNL     1      -0.764   1.091  12.166  1.00  0.00     0.005 C 
ATOM      5  C   UNL     1      -1.415   2.049  11.145  1.00  0.00     0.008 C 
ATOM      6  C   UNL     1      -1.100   3.438  11.727  1.00  0.00     0.015 C 
ATOM      7  C   UNL     1       0.242   3.194  12.380  1.00  0.00     0.012 C 
ATOM      8  C   UNL     1      -1.964   3.624  12.945  1.00  0.00    -0.068 C 
ATOM      9  C   UNL     1      -3.040   4.418  13.014  1.00  0.00     0.008 C 
ATOM     10  C   UNL     1      -0.947   3.528  15.254  1.00  0.00     0.016 C 
ENDROOT
TORSDOF 0
ENDMDL
MODEL 3
REMARK VINA RESULT:    -4.346      1.122      2.520
REMARK INTER + INTRA:          -4.346
REMARK INTER:                  -4.346
REMARK INTRA:                   0.000
REMARK UNBOUND:                 0.000
REMARK SMILES C=C1[C@@H]2CC[C@@H](C2)C1(C)C
REMARK SMILES IDX 9 1 8 2 6 3 5 4 4 5 3 6 7 7 2 8 1 9 10 10
REMARK H PARENT
REMARK Flexibility Score: inf
ROOT
ATOM      1  C   UNL     1       0.050   4.765  12.546  1.00  0.00     0.016 C 
ATOM      2  C   UNL     1      -0.830   3.495  12.526  1.00  0.00    -0.012 C 
ATOM      3  C   UNL     1      -0.284   2.327  13.422  1.00  0.00    -0.001 C 
ATOM      4  C   UNL     1       0.086   2.836  14.837  1.00  0.00     0.005 C 
ATOM      5  C   UNL     1      -1.288   3.193  15.444  1.00  0.00     0.008 C 
ATOM      6  C   UNL     1      -2.275   2.745  14.351  1.00  0.00     0.015 C 
ATOM      7  C   UNL     1      -1.552   1.552  13.764  1.00  0.00     0.012 C 
ATOM      8  C   UNL     1      -2.157   3.719  13.210  1.00  0.00    -0.068 C 
ATOM      9  C   UNL     1      -3.060   4.659  12.903  1.00  0.00     0.008 C 
ATOM     10  C   UNL     1      -1.019   3.036  11.063  1.00  0.00     0.016 C 
ENDROOT
TORSDOF 0
ENDMDL
MODEL 4
REMARK VINA RESULT:    -4.177      0.862      3.083
REMARK INTER + INTRA:          -4.177
REMARK INTER:                  -4.177
REMARK INTRA:                   0.000
REMARK UNBOUND:                 0.000
REMARK SMILES C=C1[C@@H]2CC[C@@H](C2)C1(C)C
REMARK SMILES IDX 9 1 8 2 6 3 5 4 4 5 3 6 7 7 2 8 1 9 10 10
REMARK H PARENT
REMARK Flexibility Score: inf
ROOT
ATOM      1  C   UNL     1      -0.427   2.396  15.299  1.00  0.00     0.016 C 
ATOM      2  C   UNL     1      -1.517   2.596  14.220  1.00  0.00    -0.012 C 
ATOM      3  C   UNL     1      -1.384   3.941  13.422  1.00  0.00    -0.001 C 
ATOM      4  C   UNL     1       0.067   4.153  12.923  1.00  0.00     0.005 C 
ATOM      5  C   UNL     1       0.231   3.044  11.863  1.00  0.00     0.008 C 
ATOM      6  C   UNL     1      -1.170   2.410  11.807  1.00  0.00     0.015 C 
ATOM      7  C   UNL     1      -2.052   3.604  12.093  1.00  0.00     0.012 C 
ATOM      8  C   UNL     1      -1.360   1.623  13.076  1.00  0.00    -0.068 C 
ATOM      9  C   UNL     1      -1.334   0.288  13.166  1.00  0.00     0.008 C 
ATOM     10  C   UNL     1      -2.907   2.472  14.881  1.00  0.00     0.016 C 
ENDROOT
TORSDOF 0
ENDMDL
MODEL 5
REMARK VINA RESULT:    -4.092      1.095      2.791
REMARK INTER + INTRA:          -4.092
REMARK INTER:                  -4.092
REMARK INTRA:                   0.000
REMARK UNBOUND:                 0.000
REMARK SMILES C=C1[C@@H]2CC[C@@H](C2)C1(C)C
REMARK SMILES IDX 9 1 8 2 6 3 5 4 4 5 3 6 7 7 2 8 1 9 10 10
REMARK H PARENT
REMARK Flexibility Score: inf
ROOT
ATOM      1  C   UNL     1      -2.364   4.066  12.267  1.00  0.00     0.016 C 
ATOM      2  C   UNL     1      -1.365   3.180  13.047  1.00  0.00    -0.012 C 
ATOM      3  C   UNL     1       0.003   3.884  13.356  1.00  0.00    -0.001 C 
ATOM      4  C   UNL     1      -0.218   5.294  13.957  1.00  0.00     0.005 C 
ATOM      5  C   UNL     1      -0.827   4.985  15.341  1.00  0.00     0.008 C 
ATOM      6  C   UNL     1      -0.778   3.449  15.405  1.00  0.00     0.015 C 
ATOM      7  C   UNL     1       0.474   3.155  14.610  1.00  0.00     0.012 C 
ATOM      8  C   UNL     1      -1.827   2.924  14.461  1.00  0.00    -0.068 C 
ATOM      9  C   UNL     1      -2.992   2.378  14.830  1.00  0.00     0.008 C 
ATOM     10  C   UNL     1      -1.154   1.859  12.273  1.00  0.00     0.016 C 
ENDROOT
TORSDOF 0
ENDMDL
MODEL 6
REMARK VINA RESULT:    -4.059      1.121      3.342
REMARK INTER + INTRA:          -4.059
REMARK INTER:                  -4.059
REMARK INTRA:                   0.000
REMARK UNBOUND:                 0.000
REMARK SMILES C=C1[C@@H]2CC[C@@H](C2)C1(C)C
REMARK SMILES IDX 9 1 8 2 6 3 5 4 4 5 3 6 7 7 2 8 1 9 10 10
REMARK H PARENT
REMARK Flexibility Score: inf
ROOT
ATOM      1  C   UNL     1      -0.726   1.352  12.798  1.00  0.00     0.016 C 
ATOM      2  C   UNL     1      -0.611   2.780  13.379  1.00  0.00    -0.012 C 
ATOM      3  C   UNL     1      -0.203   3.866  12.322  1.00  0.00    -0.001 C 
ATOM      4  C   UNL     1      -1.069   3.755  11.043  1.00  0.00     0.005 C 
ATOM      5  C   UNL     1      -2.467   4.186  11.537  1.00  0.00     0.008 C 
ATOM      6  C   UNL     1      -2.206   4.594  12.998  1.00  0.00     0.015 C 
ATOM      7  C   UNL     1      -0.799   5.140  12.910  1.00  0.00     0.012 C 
ATOM      8  C   UNL     1      -1.958   3.332  13.780  1.00  0.00    -0.068 C 
ATOM      9  C   UNL     1      -2.820   2.777  14.641  1.00  0.00     0.008 C 
ATOM     10  C   UNL     1       0.370   2.761  14.571  1.00  0.00     0.016 C 
ENDROOT
TORSDOF 0
ENDMDL
MODEL 7
REMARK VINA RESULT:    -4.009      1.049      3.035
REMARK INTER + INTRA:          -4.009
REMARK INTER:                  -4.009
REMARK INTRA:                   0.000
REMARK UNBOUND:                 0.000
REMARK SMILES C=C1[C@@H]2CC[C@@H](C2)C1(C)C
REMARK SMILES IDX 9 1 8 2 6 3 5 4 4 5 3 6 7 7 2 8 1 9 10 10
REMARK H PARENT
REMARK Flexibility Score: inf
ROOT
ATOM      1  C   UNL     1      -1.085  -0.369  14.859  1.00  0.00     0.016 C 
ATOM      2  C   UNL     1      -1.957   0.751  14.247  1.00  0.00    -0.012 C 
ATOM      3  C   UNL     1      -1.898   2.107  15.036  1.00  0.00    -0.001 C 
ATOM      4  C   UNL     1      -0.434   2.516  15.334  1.00  0.00     0.005 C 
ATOM      5  C   UNL     1       0.122   2.847  13.933  1.00  0.00     0.008 C 
ATOM      6  C   UNL     1      -1.112   2.694  13.027  1.00  0.00     0.015 C 
ATOM      7  C   UNL     1      -2.223   3.132  13.955  1.00  0.00     0.012 C 
ATOM      8  C   UNL     1      -1.414   1.224  12.920  1.00  0.00    -0.068 C 
ATOM      9  C   UNL     1      -1.182   0.465  11.841  1.00  0.00     0.008 C 
ATOM     10  C   UNL     1      -3.410   0.242  14.116  1.00  0.00     0.016 C 
ENDROOT
TORSDOF 0
ENDMDL
MODEL 8
REMARK VINA RESULT:    -3.992      1.419      3.041
REMARK INTER + INTRA:          -3.992
REMARK INTER:                  -3.992
REMARK INTRA:                   0.000
REMARK UNBOUND:                 0.000
REMARK SMILES C=C1[C@@H]2CC[C@@H](C2)C1(C)C
REMARK SMILES IDX 9 1 8 2 6 3 5 4 4 5 3 6 7 7 2 8 1 9 10 10
REMARK H PARENT
REMARK Flexibility Score: inf
ROOT
ATOM      1  C   UNL     1      -0.801   4.545  11.775  1.00  0.00     0.016 C 
ATOM      2  C   UNL     1      -1.756   4.236  12.951  1.00  0.00    -0.012 C 
ATOM      3  C   UNL     1      -1.800   2.720  13.354  1.00  0.00    -0.001 C 
ATOM      4  C   UNL     1      -0.372   2.143  13.511  1.00  0.00     0.005 C 
ATOM      5  C   UNL     1       0.157   2.872  14.765  1.00  0.00     0.008 C 
ATOM      6  C   UNL     1      -1.063   3.687  15.230  1.00  0.00     0.015 C 
ATOM      7  C   UNL     1      -2.203   2.780  14.823  1.00  0.00     0.012 C 
ATOM      8  C   UNL     1      -1.252   4.814  14.251  1.00  0.00    -0.068 C 
ATOM      9  C   UNL     1      -0.963   6.099  14.491  1.00  0.00     0.008 C 
ATOM     10  C   UNL     1      -3.166   4.765  12.606  1.00  0.00     0.016 C 
ENDROOT
TORSDOF 0
ENDMDL
MODEL 9
REMARK VINA RESULT:    -3.878      1.492      2.315
REMARK INTER + INTRA:          -3.878
REMARK INTER:                  -3.878
REMARK INTRA:                   0.000
REMARK UNBOUND:                 0.000
REMARK SMILES C=C1[C@@H]2CC[C@@H](C2)C1(C)C
REMARK SMILES IDX 9 1 8 2 6 3 5 4 4 5 3 6 7 7 2 8 1 9 10 10
REMARK H PARENT
REMARK Flexibility Score: inf
ROOT
ATOM      1  C   UNL     1      -2.876   4.735  11.564  1.00  0.00     0.016 C 
ATOM      2  C   UNL     1      -1.353   4.486  11.654  1.00  0.00    -0.012 C 
ATOM      3  C   UNL     1      -0.721   4.899  13.030  1.00  0.00    -0.001 C 
ATOM      4  C   UNL     1      -1.540   4.329  14.214  1.00  0.00     0.005 C 
ATOM      5  C   UNL     1      -1.294   2.810  14.104  1.00  0.00     0.008 C 
ATOM      6  C   UNL     1      -0.284   2.707  12.947  1.00  0.00     0.015 C 
ATOM      7  C   UNL     1       0.500   3.989  13.119  1.00  0.00     0.012 C 
ATOM      8  C   UNL     1      -1.024   3.012  11.673  1.00  0.00    -0.068 C 
ATOM      9  C   UNL     1      -1.375   2.108  10.750  1.00  0.00     0.008 C 
ATOM     10  C   UNL     1      -0.655   5.206  10.479  1.00  0.00     0.016 C 
ENDROOT
TORSDOF 0
ENDMDL
