MODEL 1
REMARK VINA RESULT:    -3.453      0.000      0.000
REMARK INTER + INTRA:          -4.757
REMARK INTER:                  -4.563
REMARK INTRA:                  -0.194
REMARK UNBOUND:                -0.194
REMARK SMILES C=C[C@H](O)CCCCC
REMARK SMILES IDX 6 1 7 2 8 3 9 4 5 5 3 6 2 7 1 8 4 9
REMARK H PARENT 4 10
REMARK Flexibility Score: inf
ROOT
ATOM      1  C   UNL     1     -41.624  22.646   6.524  1.00  0.00     0.003 C 
ENDROOT
BRANCH   1   2
ATOM      2  C   UNL     1     -41.421  23.408   5.208  1.00  0.00    -0.000 C 
BRANCH   2   3
ATOM      3  C   UNL     1     -41.836  24.876   5.352  1.00  0.00    -0.003 C 
ATOM      4  C   UNL     1     -42.125  25.504   3.992  1.00  0.00     0.004 C 
ENDBRANCH   2   3
ENDBRANCH   1   2
BRANCH   1   5
ATOM      5  C   UNL     1     -41.364  23.555   7.733  1.00  0.00     0.036 C 
BRANCH   5   6
ATOM      6  C   UNL     1     -40.345  22.932   8.706  1.00  0.00     0.136 C 
BRANCH   6   7
ATOM      7  C   UNL     1     -38.940  23.384   8.383  1.00  0.00    -0.004 C 
ATOM      8  C   UNL     1     -38.685  24.127   7.303  1.00  0.00     0.007 C 
ENDBRANCH   6   7
BRANCH   6   9
ATOM      9  O   UNL     1     -40.424  21.527   8.685  1.00  0.00    -0.389 OA
ATOM     10  H   UNL     1     -40.747  21.233   9.577  1.00  0.00     0.211 HD
ENDBRANCH   6   9
ENDBRANCH   5   6
ENDBRANCH   1   5
TORSDOF 6
ENDMDL
MODEL 2
REMARK VINA RESULT:    -3.410      1.703      3.744
REMARK INTER + INTRA:          -4.700
REMARK INTER:                  -4.134
REMARK INTRA:                  -0.566
REMARK UNBOUND:                -0.194
REMARK SMILES C=C[C@H](O)CCCCC
REMARK SMILES IDX 6 1 7 2 8 3 9 4 5 5 3 6 2 7 1 8 4 9
REMARK H PARENT 4 10
REMARK Flexibility Score: inf
ROOT
ATOM      1  C   UNL     1     -41.350  23.396   8.442  1.00  0.00     0.003 C 
ENDROOT
BRANCH   1   2
ATOM      2  C   UNL     1     -40.004  22.679   8.280  1.00  0.00    -0.000 C 
BRANCH   2   3
ATOM      3  C   UNL     1     -38.838  23.669   8.376  1.00  0.00    -0.003 C 
ATOM      4  C   UNL     1     -38.375  24.112   6.991  1.00  0.00     0.004 C 
ENDBRANCH   2   3
ENDBRANCH   1   2
BRANCH   1   5
ATOM      5  C   UNL     1     -42.115  23.439   7.113  1.00  0.00     0.036 C 
BRANCH   5   6
ATOM      6  C   UNL     1     -42.124  24.855   6.505  1.00  0.00     0.136 C 
BRANCH   6   7
ATOM      7  C   UNL     1     -41.522  24.855   5.120  1.00  0.00    -0.004 C 
ATOM      8  C   UNL     1     -40.931  23.765   4.623  1.00  0.00     0.007 C 
ENDBRANCH   6   7
BRANCH   6   9
ATOM      9  O   UNL     1     -41.441  25.763   7.336  1.00  0.00    -0.389 OA
ATOM     10  H   UNL     1     -40.469  25.644   7.171  1.00  0.00     0.211 HD
ENDBRANCH   6   9
ENDBRANCH   5   6
ENDBRANCH   1   5
TORSDOF 6
ENDMDL
MODEL 3
REMARK VINA RESULT:    -3.335      2.250      4.220
REMARK INTER + INTRA:          -4.602
REMARK INTER:                  -4.142
REMARK INTRA:                  -0.460
REMARK UNBOUND:                -0.194
REMARK SMILES C=C[C@H](O)CCCCC
REMARK SMILES IDX 6 1 7 2 8 3 9 4 5 5 3 6 2 7 1 8 4 9
REMARK H PARENT 4 10
REMARK Flexibility Score: inf
ROOT
ATOM      1  C   UNL     1     -39.493  24.399   7.229  1.00  0.00     0.003 C 
ENDROOT
BRANCH   1   2
ATOM      2  C   UNL     1     -39.159  23.370   8.317  1.00  0.00    -0.000 C 
BRANCH   2   3
ATOM      3  C   UNL     1     -40.409  22.993   9.120  1.00  0.00    -0.003 C 
ATOM      4  C   UNL     1     -41.051  21.721   8.574  1.00  0.00     0.004 C 
ENDBRANCH   2   3
ENDBRANCH   1   2
BRANCH   1   5
ATOM      5  C   UNL     1     -40.795  25.143   7.555  1.00  0.00     0.036 C 
BRANCH   5   6
ATOM      6  C   UNL     1     -41.814  25.040   6.403  1.00  0.00     0.136 C 
BRANCH   6   7
ATOM      7  C   UNL     1     -41.298  24.144   5.301  1.00  0.00    -0.004 C 
ATOM      8  C   UNL     1     -41.927  23.009   4.983  1.00  0.00     0.007 C 
ENDBRANCH   6   7
BRANCH   6   9
ATOM      9  O   UNL     1     -42.125  26.314   5.892  1.00  0.00    -0.389 OA
ATOM     10  H   UNL     1     -41.552  26.973   6.366  1.00  0.00     0.211 HD
ENDBRANCH   6   9
ENDBRANCH   5   6
ENDBRANCH   1   5
TORSDOF 6
ENDMDL
MODEL 4
REMARK VINA RESULT:    -3.143     16.616     18.559
REMARK INTER + INTRA:          -4.348
REMARK INTER:                  -4.025
REMARK INTRA:                  -0.323
REMARK UNBOUND:                -0.194
REMARK SMILES C=C[C@H](O)CCCCC
REMARK SMILES IDX 6 1 7 2 8 3 9 4 5 5 3 6 2 7 1 8 4 9
REMARK H PARENT 4 10
REMARK Flexibility Score: inf
ROOT
ATOM      1  C   UNL     1     -23.557  31.361   9.001  1.00  0.00     0.003 C 
ENDROOT
BRANCH   1   2
ATOM      2  C   UNL     1     -22.115  30.999   8.622  1.00  0.00    -0.000 C 
BRANCH   2   3
ATOM      3  C   UNL     1     -21.875  29.491   8.750  1.00  0.00    -0.003 C 
ATOM      4  C   UNL     1     -23.160  28.757   9.124  1.00  0.00     0.004 C 
ENDBRANCH   2   3
ENDBRANCH   1   2
BRANCH   1   5
ATOM      5  C   UNL     1     -24.266  32.079   7.845  1.00  0.00     0.036 C 
BRANCH   5   6
ATOM      6  C   UNL     1     -25.451  31.255   7.304  1.00  0.00     0.136 C 
BRANCH   6   7
ATOM      7  C   UNL     1     -24.967  30.096   6.465  1.00  0.00    -0.004 C 
ATOM      8  C   UNL     1     -25.628  29.712   5.370  1.00  0.00     0.007 C 
ENDBRANCH   6   7
BRANCH   6   9
ATOM      9  O   UNL     1     -26.328  32.065   6.560  1.00  0.00    -0.389 OA
ATOM     10  H   UNL     1     -26.481  31.615   5.687  1.00  0.00     0.211 HD
ENDBRANCH   6   9
ENDBRANCH   5   6
ENDBRANCH   1   5
TORSDOF 6
ENDMDL
MODEL 5
REMARK VINA RESULT:    -2.923     18.312     19.735
REMARK INTER + INTRA:          -4.057
REMARK INTER:                  -3.964
REMARK INTRA:                  -0.093
REMARK UNBOUND:                -0.194
REMARK SMILES C=C[C@H](O)CCCCC
REMARK SMILES IDX 6 1 7 2 8 3 9 4 5 5 3 6 2 7 1 8 4 9
REMARK H PARENT 4 10
REMARK Flexibility Score: inf
ROOT
ATOM      1  C   UNL     1     -24.406  31.357   7.647  1.00  0.00     0.003 C 
ENDROOT
BRANCH   1   2
ATOM      2  C   UNL     1     -24.124  29.849   7.623  1.00  0.00    -0.000 C 
BRANCH   2   3
ATOM      3  C   UNL     1     -23.729  29.342   9.014  1.00  0.00    -0.003 C 
ATOM      4  C   UNL     1     -22.348  28.693   8.993  1.00  0.00     0.004 C 
ENDBRANCH   2   3
ENDBRANCH   1   2
BRANCH   1   5
ATOM      5  C   UNL     1     -24.163  31.941   9.045  1.00  0.00     0.036 C 
BRANCH   5   6
ATOM      6  C   UNL     1     -22.822  32.695   9.123  1.00  0.00     0.136 C 
BRANCH   6   7
ATOM      7  C   UNL     1     -23.005  34.163   8.817  1.00  0.00    -0.004 C 
ATOM      8  C   UNL     1     -21.967  35.004   8.819  1.00  0.00     0.007 C 
ENDBRANCH   6   7
BRANCH   6   9
ATOM      9  O   UNL     1     -21.875  32.128   8.251  1.00  0.00    -0.389 OA
ATOM     10  H   UNL     1     -21.496  31.327   8.700  1.00  0.00     0.211 HD
ENDBRANCH   6   9
ENDBRANCH   5   6
ENDBRANCH   1   5
TORSDOF 6
ENDMDL
MODEL 6
REMARK VINA RESULT:    -2.815     18.026     19.420
REMARK INTER + INTRA:          -3.914
REMARK INTER:                  -3.650
REMARK INTRA:                  -0.264
REMARK UNBOUND:                -0.194
REMARK SMILES C=C[C@H](O)CCCCC
REMARK SMILES IDX 6 1 7 2 8 3 9 4 5 5 3 6 2 7 1 8 4 9
REMARK H PARENT 4 10
REMARK Flexibility Score: inf
ROOT
ATOM      1  C   UNL     1     -24.450  32.186   8.254  1.00  0.00     0.003 C 
ENDROOT
BRANCH   1   2
ATOM      2  C   UNL     1     -23.816  33.278   9.125  1.00  0.00    -0.000 C 
BRANCH   2   3
ATOM      3  C   UNL     1     -22.336  33.469   8.777  1.00  0.00    -0.003 C 
ATOM      4  C   UNL     1     -22.007  34.942   8.556  1.00  0.00     0.004 C 
ENDBRANCH   2   3
ENDBRANCH   1   2
BRANCH   1   5
ATOM      5  C   UNL     1     -24.558  30.862   9.022  1.00  0.00     0.036 C 
BRANCH   5   6
ATOM      6  C   UNL     1     -23.941  29.693   8.231  1.00  0.00     0.136 C 
BRANCH   6   7
ATOM      7  C   UNL     1     -22.448  29.617   8.451  1.00  0.00    -0.004 C 
ATOM      8  C   UNL     1     -21.877  28.514   8.945  1.00  0.00     0.007 C 
ENDBRANCH   6   7
BRANCH   6   9
ATOM      9  O   UNL     1     -24.227  29.807   6.859  1.00  0.00    -0.389 OA
ATOM     10  H   UNL     1     -23.502  30.347   6.446  1.00  0.00     0.211 HD
ENDBRANCH   6   9
ENDBRANCH   5   6
ENDBRANCH   1   5
TORSDOF 6
ENDMDL
MODEL 7
REMARK VINA RESULT:    -2.719     16.864     18.529
REMARK INTER + INTRA:          -3.787
REMARK INTER:                  -3.545
REMARK INTRA:                  -0.242
REMARK UNBOUND:                -0.194
REMARK SMILES C=C[C@H](O)CCCCC
REMARK SMILES IDX 6 1 7 2 8 3 9 4 5 5 3 6 2 7 1 8 4 9
REMARK H PARENT 4 10
REMARK Flexibility Score: inf
ROOT
ATOM      1  C   UNL     1     -23.204  16.531   5.917  1.00  0.00     0.003 C 
ENDROOT
BRANCH   1   2
ATOM      2  C   UNL     1     -21.875  16.071   5.305  1.00  0.00    -0.000 C 
BRANCH   2   3
ATOM      3  C   UNL     1     -22.005  15.875   3.791  1.00  0.00    -0.003 C 
ATOM      4  C   UNL     1     -23.463  15.956   3.347  1.00  0.00     0.004 C 
ENDBRANCH   2   3
ENDBRANCH   1   2
BRANCH   1   5
ATOM      5  C   UNL     1     -23.192  16.374   7.444  1.00  0.00     0.036 C 
BRANCH   5   6
ATOM      6  C   UNL     1     -24.312  17.196   8.110  1.00  0.00     0.136 C 
BRANCH   6   7
ATOM      7  C   UNL     1     -25.498  17.347   7.186  1.00  0.00    -0.004 C 
ATOM      8  C   UNL     1     -26.694  17.714   7.653  1.00  0.00     0.007 C 
ENDBRANCH   6   7
BRANCH   6   9
ATOM      9  O   UNL     1     -23.838  18.459   8.509  1.00  0.00    -0.389 OA
ATOM     10  H   UNL     1     -22.946  18.326   8.924  1.00  0.00     0.211 HD
ENDBRANCH   6   9
ENDBRANCH   5   6
ENDBRANCH   1   5
TORSDOF 6
ENDMDL
MODEL 8
REMARK VINA RESULT:    -2.648     16.157     17.876
REMARK INTER + INTRA:          -3.694
REMARK INTER:                  -3.472
REMARK INTRA:                  -0.222
REMARK UNBOUND:                -0.194
REMARK SMILES C=C[C@H](O)CCCCC
REMARK SMILES IDX 6 1 7 2 8 3 9 4 5 5 3 6 2 7 1 8 4 9
REMARK H PARENT 4 10
REMARK Flexibility Score: inf
ROOT
ATOM      1  C   UNL     1     -25.232  17.424   6.907  1.00  0.00     0.003 C 
ENDROOT
BRANCH   1   2
ATOM      2  C   UNL     1     -26.386  17.970   7.756  1.00  0.00    -0.000 C 
BRANCH   2   3
ATOM      3  C   UNL     1     -26.464  17.249   9.106  1.00  0.00    -0.003 C 
ATOM      4  C   UNL     1     -27.604  16.234   9.125  1.00  0.00     0.004 C 
ENDBRANCH   2   3
ENDBRANCH   1   2
BRANCH   1   5
ATOM      5  C   UNL     1     -24.457  16.336   7.663  1.00  0.00     0.036 C 
BRANCH   5   6
ATOM      6  C   UNL     1     -23.081  16.067   7.023  1.00  0.00     0.136 C 
BRANCH   6   7
ATOM      7  C   UNL     1     -21.964  16.356   7.999  1.00  0.00    -0.004 C 
ATOM      8  C   UNL     1     -22.184  17.058   9.114  1.00  0.00     0.007 C 
ENDBRANCH   6   7
BRANCH   6   9
ATOM      9  O   UNL     1     -22.915  16.826   5.851  1.00  0.00    -0.389 OA
ATOM     10  H   UNL     1     -22.667  17.748   6.124  1.00  0.00     0.211 HD
ENDBRANCH   6   9
ENDBRANCH   5   6
ENDBRANCH   1   5
TORSDOF 6
ENDMDL
