MODEL 1
REMARK VINA RESULT:    -3.370      0.000      0.000
REMARK INTER + INTRA:          -4.342
REMARK INTER:                  -4.158
REMARK INTRA:                  -0.184
REMARK UNBOUND:                -0.184
REMARK SMILES CCCCCC(=O)[O-]
REMARK SMILES IDX 4 1 5 2 6 3 7 4 8 5 3 6 2 7 1 8
REMARK H PARENT
REMARK Flexibility Score: inf
ROOT
ATOM      1  C   UNL     1     -22.940 -14.604  -0.884  1.00  0.00     0.006 C 
ENDROOT
BRANCH   1   2
ATOM      2  C   UNL     1     -22.241 -15.584   0.068  1.00  0.00     0.053 C 
BRANCH   2   3
ATOM      3  C   UNL     1     -22.045 -14.955   1.412  1.00  0.00     0.041 C 
ATOM      4  O   UNL     1     -21.560 -15.626   2.361  1.00  0.00    -0.550 OA
ATOM      5  O   UNL     1     -22.353 -13.614   1.604  1.00  0.00    -0.550 OA
ENDBRANCH   2   3
ENDBRANCH   1   2
BRANCH   1   6
ATOM      6  C   UNL     1     -24.414 -14.968  -1.140  1.00  0.00     0.000 C 
BRANCH   6   7
ATOM      7  C   UNL     1     -25.378 -14.595  -0.000  1.00  0.00    -0.003 C 
ATOM      8  C   UNL     1     -25.801 -15.797   0.844  1.00  0.00     0.004 C 
ENDBRANCH   6   7
ENDBRANCH   1   6
TORSDOF 4
ENDMDL
MODEL 2
REMARK VINA RESULT:    -3.335      1.867      2.314
REMARK INTER + INTRA:          -4.299
REMARK INTER:                  -4.087
REMARK INTRA:                  -0.212
REMARK UNBOUND:                -0.184
REMARK SMILES CCCCCC(=O)[O-]
REMARK SMILES IDX 4 1 5 2 6 3 7 4 8 5 3 6 2 7 1 8
REMARK H PARENT
REMARK Flexibility Score: inf
ROOT
ATOM      1  C   UNL     1     -22.209 -15.733   0.126  1.00  0.00     0.006 C 
ENDROOT
BRANCH   1   2
ATOM      2  C   UNL     1     -22.315 -15.946   1.642  1.00  0.00     0.053 C 
BRANCH   2   3
ATOM      3  C   UNL     1     -23.349 -16.984   1.951  1.00  0.00     0.041 C 
ATOM      4  O   UNL     1     -23.142 -18.190   1.659  1.00  0.00    -0.550 OA
ATOM      5  O   UNL     1     -24.519 -16.624   2.607  1.00  0.00    -0.550 OA
ENDBRANCH   2   3
ENDBRANCH   1   2
BRANCH   1   6
ATOM      6  C   UNL     1     -23.022 -14.521  -0.365  1.00  0.00     0.000 C 
BRANCH   6   7
ATOM      7  C   UNL     1     -24.368 -14.871  -1.023  1.00  0.00    -0.003 C 
ATOM      8  C   UNL     1     -25.556 -14.719  -0.074  1.00  0.00     0.004 C 
ENDBRANCH   6   7
ENDBRANCH   1   6
TORSDOF 4
ENDMDL
MODEL 3
REMARK VINA RESULT:    -3.334      2.080      3.300
REMARK INTER + INTRA:          -4.298
REMARK INTER:                  -4.127
REMARK INTRA:                  -0.172
REMARK UNBOUND:                -0.184
REMARK SMILES CCCCCC(=O)[O-]
REMARK SMILES IDX 4 1 5 2 6 3 7 4 8 5 3 6 2 7 1 8
REMARK H PARENT
REMARK Flexibility Score: inf
ROOT
ATOM      1  C   UNL     1     -25.056 -14.657   0.376  1.00  0.00     0.006 C 
ENDROOT
BRANCH   1   2
ATOM      2  C   UNL     1     -25.913 -15.854   0.811  1.00  0.00     0.053 C 
BRANCH   2   3
ATOM      3  C   UNL     1     -25.453 -16.369   2.139  1.00  0.00     0.041 C 
ATOM      4  O   UNL     1     -24.592 -17.286   2.199  1.00  0.00    -0.550 OA
ATOM      5  O   UNL     1     -25.939 -15.803   3.310  1.00  0.00    -0.550 OA
ENDBRANCH   2   3
ENDBRANCH   1   2
BRANCH   1   6
ATOM      6  C   UNL     1     -24.486 -14.815  -1.045  1.00  0.00     0.000 C 
BRANCH   6   7
ATOM      7  C   UNL     1     -22.949 -14.826  -1.127  1.00  0.00    -0.003 C 
ATOM      8  C   UNL     1     -22.293 -15.557   0.045  1.00  0.00     0.004 C 
ENDBRANCH   6   7
ENDBRANCH   1   6
TORSDOF 4
ENDMDL
MODEL 4
REMARK VINA RESULT:    -3.269      2.204      3.124
REMARK INTER + INTRA:          -4.217
REMARK INTER:                  -4.010
REMARK INTRA:                  -0.207
REMARK UNBOUND:                -0.184
REMARK SMILES CCCCCC(=O)[O-]
REMARK SMILES IDX 4 1 5 2 6 3 7 4 8 5 3 6 2 7 1 8
REMARK H PARENT
REMARK Flexibility Score: inf
ROOT
ATOM      1  C   UNL     1     -25.389 -15.400   0.208  1.00  0.00     0.006 C 
ENDROOT
BRANCH   1   2
ATOM      2  C   UNL     1     -24.158 -14.493   0.330  1.00  0.00     0.053 C 
BRANCH   2   3
ATOM      3  C   UNL     1     -23.122 -14.880  -0.679  1.00  0.00     0.041 C 
ATOM      4  O   UNL     1     -23.213 -14.473  -1.867  1.00  0.00    -0.550 OA
ATOM      5  O   UNL     1     -22.031 -15.648  -0.296  1.00  0.00    -0.550 OA
ENDBRANCH   2   3
ENDBRANCH   1   2
BRANCH   1   6
ATOM      6  C   UNL     1     -25.608 -16.281   1.453  1.00  0.00     0.000 C 
BRANCH   6   7
ATOM      7  C   UNL     1     -24.391 -16.391   2.388  1.00  0.00    -0.003 C 
ATOM      8  C   UNL     1     -23.599 -17.683   2.189  1.00  0.00     0.004 C 
ENDBRANCH   6   7
ENDBRANCH   1   6
TORSDOF 4
ENDMDL
MODEL 5
REMARK VINA RESULT:    -3.240     15.174     16.299
REMARK INTER + INTRA:          -4.182
REMARK INTER:                  -4.092
REMARK INTRA:                  -0.091
REMARK UNBOUND:                -0.184
REMARK SMILES CCCCCC(=O)[O-]
REMARK SMILES IDX 4 1 5 2 6 3 7 4 8 5 3 6 2 7 1 8
REMARK H PARENT
REMARK Flexibility Score: inf
ROOT
ATOM      1  C   UNL     1     -28.803  -7.989 -12.705  1.00  0.00     0.006 C 
ENDROOT
BRANCH   1   2
ATOM      2  C   UNL     1     -29.204  -8.177 -11.236  1.00  0.00     0.053 C 
BRANCH   2   3
ATOM      3  C   UNL     1     -29.118  -6.875 -10.501  1.00  0.00     0.041 C 
ATOM      4  O   UNL     1     -28.645  -6.836  -9.335  1.00  0.00    -0.550 OA
ATOM      5  O   UNL     1     -29.514  -5.698 -11.123  1.00  0.00    -0.550 OA
ENDBRANCH   2   3
ENDBRANCH   1   2
BRANCH   1   6
ATOM      6  C   UNL     1     -29.997  -8.104 -13.670  1.00  0.00     0.000 C 
BRANCH   6   7
ATOM      7  C   UNL     1     -30.604  -6.760 -14.109  1.00  0.00    -0.003 C 
ATOM      8  C   UNL     1     -32.063  -6.879 -14.549  1.00  0.00     0.004 C 
ENDBRANCH   6   7
ENDBRANCH   1   6
TORSDOF 4
ENDMDL
MODEL 6
REMARK VINA RESULT:    -3.210     16.089     17.292
REMARK INTER + INTRA:          -4.145
REMARK INTER:                  -3.966
REMARK INTRA:                  -0.179
REMARK UNBOUND:                -0.184
REMARK SMILES CCCCCC(=O)[O-]
REMARK SMILES IDX 4 1 5 2 6 3 7 4 8 5 3 6 2 7 1 8
REMARK H PARENT
REMARK Flexibility Score: inf
ROOT
ATOM      1  C   UNL     1     -29.542  -6.183 -12.956  1.00  0.00     0.006 C 
ENDROOT
BRANCH   1   2
ATOM      2  C   UNL     1     -30.882  -6.450 -13.654  1.00  0.00     0.053 C 
BRANCH   2   3
ATOM      3  C   UNL     1     -30.853  -7.774 -14.351  1.00  0.00     0.041 C 
ATOM      4  O   UNL     1     -31.840  -8.152 -15.036  1.00  0.00    -0.550 OA
ATOM      5  O   UNL     1     -29.716  -8.569 -14.286  1.00  0.00    -0.550 OA
ENDBRANCH   2   3
ENDBRANCH   1   2
BRANCH   1   6
ATOM      6  C   UNL     1     -29.709  -5.734 -11.492  1.00  0.00     0.000 C 
BRANCH   6   7
ATOM      7  C   UNL     1     -29.030  -6.647 -10.456  1.00  0.00    -0.003 C 
ATOM      8  C   UNL     1     -29.173  -8.133 -10.783  1.00  0.00     0.004 C 
ENDBRANCH   6   7
ENDBRANCH   1   6
TORSDOF 4
ENDMDL
MODEL 7
REMARK VINA RESULT:    -3.200     16.031     17.257
REMARK INTER + INTRA:          -4.132
REMARK INTER:                  -3.965
REMARK INTRA:                  -0.168
REMARK UNBOUND:                -0.184
REMARK SMILES CCCCCC(=O)[O-]
REMARK SMILES IDX 4 1 5 2 6 3 7 4 8 5 3 6 2 7 1 8
REMARK H PARENT
REMARK Flexibility Score: inf
ROOT
ATOM      1  C   UNL     1     -28.980  -8.035 -13.008  1.00  0.00     0.006 C 
ENDROOT
BRANCH   1   2
ATOM      2  C   UNL     1     -30.194  -8.215 -13.929  1.00  0.00     0.053 C 
BRANCH   2   3
ATOM      3  C   UNL     1     -30.785  -6.885 -14.278  1.00  0.00     0.041 C 
ATOM      4  O   UNL     1     -30.039  -5.930 -14.618  1.00  0.00    -0.550 OA
ATOM      5  O   UNL     1     -32.164  -6.715 -14.276  1.00  0.00    -0.550 OA
ENDBRANCH   2   3
ENDBRANCH   1   2
BRANCH   1   6
ATOM      6  C   UNL     1     -29.265  -8.453 -11.554  1.00  0.00     0.000 C 
BRANCH   6   7
ATOM      7  C   UNL     1     -29.115  -7.327 -10.516  1.00  0.00    -0.003 C 
ATOM      8  C   UNL     1     -29.274  -5.932 -11.121  1.00  0.00     0.004 C 
ENDBRANCH   6   7
ENDBRANCH   1   6
TORSDOF 4
ENDMDL
MODEL 8
REMARK VINA RESULT:    -3.168      1.433      2.656
REMARK INTER + INTRA:          -4.093
REMARK INTER:                  -3.861
REMARK INTRA:                  -0.232
REMARK UNBOUND:                -0.184
REMARK SMILES CCCCCC(=O)[O-]
REMARK SMILES IDX 4 1 5 2 6 3 7 4 8 5 3 6 2 7 1 8
REMARK H PARENT
REMARK Flexibility Score: inf
ROOT
ATOM      1  C   UNL     1     -25.335 -15.804   1.197  1.00  0.00     0.006 C 
ENDROOT
BRANCH   1   2
ATOM      2  C   UNL     1     -24.369 -15.727   2.387  1.00  0.00     0.053 C 
BRANCH   2   3
ATOM      3  C   UNL     1     -23.119 -16.497   2.095  1.00  0.00     0.041 C 
ATOM      4  O   UNL     1     -23.189 -17.671   1.644  1.00  0.00    -0.550 OA
ATOM      5  O   UNL     1     -21.878 -15.901   2.275  1.00  0.00    -0.550 OA
ENDBRANCH   2   3
ENDBRANCH   1   2
BRANCH   1   6
ATOM      6  C   UNL     1     -25.179 -14.621   0.223  1.00  0.00     0.000 C 
BRANCH   6   7
ATOM      7  C   UNL     1     -24.439 -14.954  -1.084  1.00  0.00    -0.003 C 
ATOM      8  C   UNL     1     -22.947 -14.627  -1.027  1.00  0.00     0.004 C 
ENDBRANCH   6   7
ENDBRANCH   1   6
TORSDOF 4
ENDMDL
MODEL 9
REMARK VINA RESULT:    -3.113      2.377      3.376
REMARK INTER + INTRA:          -4.025
REMARK INTER:                  -3.791
REMARK INTRA:                  -0.234
REMARK UNBOUND:                -0.184
REMARK SMILES CCCCCC(=O)[O-]
REMARK SMILES IDX 4 1 5 2 6 3 7 4 8 5 3 6 2 7 1 8
REMARK H PARENT
REMARK Flexibility Score: inf
ROOT
ATOM      1  C   UNL     1     -22.744 -16.007   1.749  1.00  0.00     0.006 C 
ENDROOT
BRANCH   1   2
ATOM      2  C   UNL     1     -23.975 -16.924   1.767  1.00  0.00     0.053 C 
BRANCH   2   3
ATOM      3  C   UNL     1     -25.228 -16.112   1.868  1.00  0.00     0.041 C 
ATOM      4  O   UNL     1     -25.598 -15.655   2.982  1.00  0.00    -0.550 OA
ATOM      5  O   UNL     1     -25.961 -15.819   0.726  1.00  0.00    -0.550 OA
ENDBRANCH   2   3
ENDBRANCH   1   2
BRANCH   1   6
ATOM      6  C   UNL     1     -22.203 -15.761   0.328  1.00  0.00     0.000 C 
BRANCH   6   7
ATOM      7  C   UNL     1     -22.657 -14.439  -0.316  1.00  0.00    -0.003 C 
ATOM      8  C   UNL     1     -23.516 -14.646  -1.564  1.00  0.00     0.004 C 
ENDBRANCH   6   7
ENDBRANCH   1   6
TORSDOF 4
ENDMDL
