MODEL 1
REMARK VINA RESULT:    -6.065      0.000      0.000
REMARK INTER + INTRA:          -6.597
REMARK INTER:                  -6.597
REMARK INTRA:                   0.000
REMARK UNBOUND:                 0.000
REMARK SMILES Cc1cc(O)c2c(c1)C(=O)c1cc(O)cc(O)c1C2=O
REMARK SMILES IDX 1 1 2 2 8 3 7 4 6 5 4 6 3 7 19 8 20 9 18 10 11 11 9 12 10 13
REMARK SMILES IDX 12 14 13 15 15 16 16 17 5 18 17 20 14 22
REMARK H PARENT 5 19 17 21 14 23
REMARK Flexibility Score: inf
ROOT
ATOM      1  C   UNL     1     481.758  38.067 456.531  1.00  0.00     0.044 C 
ATOM      2  C   UNL     1     480.769  38.093 457.658  1.00  0.00    -0.047 A 
ATOM      3  C   UNL     1     480.422  36.907 458.318  1.00  0.00     0.016 A 
ATOM      4  C   UNL     1     479.520  36.925 459.397  1.00  0.00     0.038 A 
ATOM      5  C   UNL     1     478.976  38.150 459.836  1.00  0.00     0.076 A 
ATOM      6  C   UNL     1     479.338  39.346 459.174  1.00  0.00     0.127 A 
ATOM      7  C   UNL     1     480.236  39.308 458.099  1.00  0.00     0.050 A 
ATOM      8  C   UNL     1     478.055  38.156 461.003  1.00  0.00     0.201 C 
ATOM      9  O   UNL     1     477.849  39.232 461.626  1.00  0.00    -0.288 OA
ATOM     10  C   UNL     1     477.474  36.879 461.505  1.00  0.00     0.076 A 
ATOM     11  C   UNL     1     478.075  35.663 461.103  1.00  0.00     0.041 A 
ATOM     12  C   UNL     1     479.148  35.666 460.080  1.00  0.00     0.194 C 
ATOM     13  O   UNL     1     479.730  34.588 459.775  1.00  0.00    -0.289 OA
ATOM     14  C   UNL     1     477.648  34.450 461.670  1.00  0.00     0.059 A 
ATOM     15  C   UNL     1     476.621  34.431 462.616  1.00  0.00     0.120 A 
ATOM     16  C   UNL     1     475.993  35.620 462.980  1.00  0.00     0.093 A 
ATOM     17  C   UNL     1     476.379  36.838 462.412  1.00  0.00     0.131 A 
ENDROOT
BRANCH   6  18
ATOM     18  O   UNL     1     478.805  40.571 459.577  1.00  0.00    -0.507 OA
ATOM     19  H   UNL     1     478.319  41.180 458.927  1.00  0.00     0.293 HD
ENDBRANCH   6  18
BRANCH  17  20
ATOM     20  O   UNL     1     475.628  37.965 462.750  1.00  0.00    -0.507 OA
ATOM     21  H   UNL     1     475.382  38.693 462.094  1.00  0.00     0.293 HD
ENDBRANCH  17  20
BRANCH  15  22
ATOM     22  O   UNL     1     476.207  33.231 463.192  1.00  0.00    -0.508 OA
ATOM     23  H   UNL     1     476.664  32.851 464.012  1.00  0.00     0.293 HD
ENDBRANCH  15  22
TORSDOF 3
ENDMDL
MODEL 2
REMARK VINA RESULT:    -5.611      1.889      6.052
REMARK INTER + INTRA:          -6.102
REMARK INTER:                  -6.102
REMARK INTRA:                   0.000
REMARK UNBOUND:                 0.000
REMARK SMILES Cc1cc(O)c2c(c1)C(=O)c1cc(O)cc(O)c1C2=O
REMARK SMILES IDX 1 1 2 2 8 3 7 4 6 5 4 6 3 7 19 8 20 9 18 10 11 11 9 12 10 13
REMARK SMILES IDX 12 14 13 15 15 16 16 17 5 18 17 20 14 22
REMARK H PARENT 5 19 17 21 14 23
REMARK Flexibility Score: inf
ROOT
ATOM      1  C   UNL     1     475.982  33.905 463.414  1.00  0.00     0.044 C 
ATOM      2  C   UNL     1     476.740  34.830 462.508  1.00  0.00    -0.047 A 
ATOM      3  C   UNL     1     476.480  36.207 462.530  1.00  0.00     0.016 A 
ATOM      4  C   UNL     1     477.208  37.086 461.709  1.00  0.00     0.038 A 
ATOM      5  C   UNL     1     478.224  36.584 460.870  1.00  0.00     0.076 A 
ATOM      6  C   UNL     1     478.491  35.195 460.861  1.00  0.00     0.127 A 
ATOM      7  C   UNL     1     477.754  34.334 461.684  1.00  0.00     0.050 A 
ATOM      8  C   UNL     1     479.011  37.532 460.038  1.00  0.00     0.201 C 
ATOM      9  O   UNL     1     480.126  37.173 459.573  1.00  0.00    -0.288 OA
ATOM     10  C   UNL     1     478.540  38.933 459.852  1.00  0.00     0.076 A 
ATOM     11  C   UNL     1     477.564  39.438 460.745  1.00  0.00     0.041 A 
ATOM     12  C   UNL     1     476.917  38.537 461.727  1.00  0.00     0.194 C 
ATOM     13  O   UNL     1     476.100  39.005 462.567  1.00  0.00    -0.289 OA
ATOM     14  C   UNL     1     477.205  40.796 460.692  1.00  0.00     0.059 A 
ATOM     15  C   UNL     1     477.789  41.651 459.755  1.00  0.00     0.120 A 
ATOM     16  C   UNL     1     478.714  41.148 458.842  1.00  0.00     0.093 A 
ATOM     17  C   UNL     1     479.071  39.796 458.854  1.00  0.00     0.131 A 
ENDROOT
BRANCH   6  18
ATOM     18  O   UNL     1     479.481  34.667 460.032  1.00  0.00    -0.507 OA
ATOM     19  H   UNL     1     480.126  35.263 459.525  1.00  0.00     0.293 HD
ENDBRANCH   6  18
BRANCH  17  20
ATOM     20  O   UNL     1     479.921  39.353 457.839  1.00  0.00    -0.507 OA
ATOM     21  H   UNL     1     480.111  38.378 457.650  1.00  0.00     0.293 HD
ENDBRANCH  17  20
BRANCH  15  22
ATOM     22  O   UNL     1     477.446  43.000 459.712  1.00  0.00    -0.508 OA
ATOM     23  H   UNL     1     476.526  43.322 459.990  1.00  0.00     0.293 HD
ENDBRANCH  15  22
TORSDOF 3
ENDMDL
MODEL 3
REMARK VINA RESULT:    -5.595      1.468      5.525
REMARK INTER + INTRA:          -6.085
REMARK INTER:                  -6.085
REMARK INTRA:                   0.000
REMARK UNBOUND:                 0.000
REMARK SMILES Cc1cc(O)c2c(c1)C(=O)c1cc(O)cc(O)c1C2=O
REMARK SMILES IDX 1 1 2 2 8 3 7 4 6 5 4 6 3 7 19 8 20 9 18 10 11 11 9 12 10 13
REMARK SMILES IDX 12 14 13 15 15 16 16 17 5 18 17 20 14 22
REMARK H PARENT 5 19 17 21 14 23
REMARK Flexibility Score: inf
ROOT
ATOM      1  C   UNL     1     476.420  33.836 463.162  1.00  0.00     0.044 C 
ATOM      2  C   UNL     1     476.871  35.086 462.465  1.00  0.00    -0.047 A 
ATOM      3  C   UNL     1     477.871  35.025 461.486  1.00  0.00     0.016 A 
ATOM      4  C   UNL     1     478.279  36.185 460.805  1.00  0.00     0.038 A 
ATOM      5  C   UNL     1     477.661  37.421 461.091  1.00  0.00     0.076 A 
ATOM      6  C   UNL     1     476.643  37.475 462.072  1.00  0.00     0.127 A 
ATOM      7  C   UNL     1     476.253  36.309 462.743  1.00  0.00     0.050 A 
ATOM      8  C   UNL     1     478.076  38.631 460.334  1.00  0.00     0.201 C 
ATOM      9  O   UNL     1     477.318  39.637 460.307  1.00  0.00    -0.288 OA
ATOM     10  C   UNL     1     479.322  38.612 459.517  1.00  0.00     0.076 A 
ATOM     11  C   UNL     1     479.890  37.358 459.187  1.00  0.00     0.041 A 
ATOM     12  C   UNL     1     479.346  36.114 459.783  1.00  0.00     0.194 C 
ATOM     13  O   UNL     1     479.809  34.994 459.432  1.00  0.00    -0.289 OA
ATOM     14  C   UNL     1     480.977  37.295 458.298  1.00  0.00     0.059 A 
ATOM     15  C   UNL     1     481.515  38.461 457.749  1.00  0.00     0.120 A 
ATOM     16  C   UNL     1     480.991  39.701 458.109  1.00  0.00     0.093 A 
ATOM     17  C   UNL     1     479.926  39.795 459.010  1.00  0.00     0.131 A 
ENDROOT
BRANCH   6  18
ATOM     18  O   UNL     1     476.024  38.685 462.387  1.00  0.00    -0.507 OA
ATOM     19  H   UNL     1     475.727  39.336 461.667  1.00  0.00     0.293 HD
ENDBRANCH   6  18
BRANCH  17  20
ATOM     20  O   UNL     1     479.532  41.077 459.399  1.00  0.00    -0.507 OA
ATOM     21  H   UNL     1     478.839  41.624 458.908  1.00  0.00     0.293 HD
ENDBRANCH  17  20
BRANCH  15  22
ATOM     22  O   UNL     1     482.583  38.399 456.856  1.00  0.00    -0.508 OA
ATOM     23  H   UNL     1     483.489  38.790 457.085  1.00  0.00     0.293 HD
ENDBRANCH  15  22
TORSDOF 3
ENDMDL
MODEL 4
REMARK VINA RESULT:    -5.477      4.545      6.849
REMARK INTER + INTRA:          -5.957
REMARK INTER:                  -5.957
REMARK INTRA:                   0.000
REMARK UNBOUND:                 0.000
REMARK SMILES Cc1cc(O)c2c(c1)C(=O)c1cc(O)cc(O)c1C2=O
REMARK SMILES IDX 1 1 2 2 8 3 7 4 6 5 4 6 3 7 19 8 20 9 18 10 11 11 9 12 10 13
REMARK SMILES IDX 12 14 13 15 15 16 16 17 5 18 17 20 14 22
REMARK H PARENT 5 19 17 21 14 23
REMARK Flexibility Score: inf
ROOT
ATOM      1  C   UNL     1     478.090  38.745 454.872  1.00  0.00     0.044 C 
ATOM      2  C   UNL     1     479.487  38.759 455.419  1.00  0.00    -0.047 A 
ATOM      3  C   UNL     1     479.701  38.730 456.803  1.00  0.00     0.016 A 
ATOM      4  C   UNL     1     481.007  38.710 457.325  1.00  0.00     0.038 A 
ATOM      5  C   UNL     1     482.112  38.694 456.450  1.00  0.00     0.076 A 
ATOM      6  C   UNL     1     481.891  38.711 455.053  1.00  0.00     0.127 A 
ATOM      7  C   UNL     1     480.583  38.735 454.551  1.00  0.00     0.050 A 
ATOM      8  C   UNL     1     483.485  38.632 457.018  1.00  0.00     0.201 C 
ATOM      9  O   UNL     1     484.443  38.260 456.288  1.00  0.00    -0.288 OA
ATOM     10  C   UNL     1     483.707  38.894 458.467  1.00  0.00     0.076 A 
ATOM     11  C   UNL     1     482.593  38.841 459.339  1.00  0.00     0.041 A 
ATOM     12  C   UNL     1     481.225  38.695 458.789  1.00  0.00     0.194 C 
ATOM     13  O   UNL     1     480.241  38.578 459.571  1.00  0.00    -0.289 OA
ATOM     14  C   UNL     1     482.786  38.937 460.728  1.00  0.00     0.059 A 
ATOM     15  C   UNL     1     484.068  39.100 461.258  1.00  0.00     0.120 A 
ATOM     16  C   UNL     1     485.163  39.201 460.402  1.00  0.00     0.093 A 
ATOM     17  C   UNL     1     484.997  39.136 459.015  1.00  0.00     0.131 A 
ENDROOT
BRANCH   6  18
ATOM     18  O   UNL     1     482.965  38.710 454.162  1.00  0.00    -0.507 OA
ATOM     19  H   UNL     1     483.027  39.379 453.402  1.00  0.00     0.293 HD
ENDBRANCH   6  18
BRANCH  17  20
ATOM     20  O   UNL     1     486.130  39.353 458.228  1.00  0.00    -0.507 OA
ATOM     21  H   UNL     1     486.679  38.612 457.817  1.00  0.00     0.293 HD
ENDBRANCH  17  20
BRANCH  15  22
ATOM     22  O   UNL     1     484.263  39.179 462.635  1.00  0.00    -0.508 OA
ATOM     23  H   UNL     1     485.162  38.976 463.056  1.00  0.00     0.293 HD
ENDBRANCH  15  22
TORSDOF 3
ENDMDL
MODEL 5
REMARK VINA RESULT:    -5.467      2.326      3.945
REMARK INTER + INTRA:          -5.947
REMARK INTER:                  -5.947
REMARK INTRA:                   0.000
REMARK UNBOUND:                 0.000
REMARK SMILES Cc1cc(O)c2c(c1)C(=O)c1cc(O)cc(O)c1C2=O
REMARK SMILES IDX 1 1 2 2 8 3 7 4 6 5 4 6 3 7 19 8 20 9 18 10 11 11 9 12 10 13
REMARK SMILES IDX 12 14 13 15 15 16 16 17 5 18 17 20 14 22
REMARK H PARENT 5 19 17 21 14 23
REMARK Flexibility Score: inf
ROOT
ATOM      1  C   UNL     1     482.970  42.667 459.831  1.00  0.00     0.044 C 
ATOM      2  C   UNL     1     482.354  41.323 459.572  1.00  0.00    -0.047 A 
ATOM      3  C   UNL     1     481.364  40.825 460.429  1.00  0.00     0.016 A 
ATOM      4  C   UNL     1     480.758  39.582 460.178  1.00  0.00     0.038 A 
ATOM      5  C   UNL     1     481.132  38.836 459.040  1.00  0.00     0.076 A 
ATOM      6  C   UNL     1     482.123  39.349 458.171  1.00  0.00     0.127 A 
ATOM      7  C   UNL     1     482.718  40.588 458.440  1.00  0.00     0.050 A 
ATOM      8  C   UNL     1     480.453  37.542 458.768  1.00  0.00     0.201 C 
ATOM      9  O   UNL     1     480.500  37.048 457.609  1.00  0.00    -0.288 OA
ATOM     10  C   UNL     1     479.625  36.895 459.823  1.00  0.00     0.076 A 
ATOM     11  C   UNL     1     479.207  37.678 460.925  1.00  0.00     0.041 A 
ATOM     12  C   UNL     1     479.723  39.057 461.096  1.00  0.00     0.194 C 
ATOM     13  O   UNL     1     479.295  39.777 462.040  1.00  0.00    -0.289 OA
ATOM     14  C   UNL     1     478.306  37.144 461.862  1.00  0.00     0.059 A 
ATOM     15  C   UNL     1     477.831  35.838 461.727  1.00  0.00     0.120 A 
ATOM     16  C   UNL     1     478.277  35.045 460.671  1.00  0.00     0.093 A 
ATOM     17  C   UNL     1     479.193  35.542 459.739  1.00  0.00     0.131 A 
ENDROOT
BRANCH   6  18
ATOM     18  O   UNL     1     482.524  38.627 457.046  1.00  0.00    -0.507 OA
ATOM     19  H   UNL     1     482.084  38.761 456.142  1.00  0.00     0.293 HD
ENDBRANCH   6  18
BRANCH  17  20
ATOM     20  O   UNL     1     479.669  34.650 458.776  1.00  0.00    -0.507 OA
ATOM     21  H   UNL     1     480.225  34.928 457.979  1.00  0.00     0.293 HD
ENDBRANCH  17  20
BRANCH  15  22
ATOM     22  O   UNL     1     476.925  35.311 462.646  1.00  0.00    -0.508 OA
ATOM     23  H   UNL     1     476.225  35.892 463.092  1.00  0.00     0.293 HD
ENDBRANCH  15  22
TORSDOF 3
ENDMDL
MODEL 6
REMARK VINA RESULT:    -5.406      6.642      8.418
REMARK INTER + INTRA:          -5.880
REMARK INTER:                  -5.880
REMARK INTRA:                   0.000
REMARK UNBOUND:                 0.000
REMARK SMILES Cc1cc(O)c2c(c1)C(=O)c1cc(O)cc(O)c1C2=O
REMARK SMILES IDX 1 1 2 2 8 3 7 4 6 5 4 6 3 7 19 8 20 9 18 10 11 11 9 12 10 13
REMARK SMILES IDX 12 14 13 15 15 16 16 17 5 18 17 20 14 22
REMARK H PARENT 5 19 17 21 14 23
REMARK Flexibility Score: inf
ROOT
ATOM      1  C   UNL     1     486.338  42.811 461.656  1.00  0.00     0.044 C 
ATOM      2  C   UNL     1     485.761  41.739 460.779  1.00  0.00    -0.047 A 
ATOM      3  C   UNL     1     485.127  42.077 459.577  1.00  0.00     0.016 A 
ATOM      4  C   UNL     1     484.612  41.078 458.732  1.00  0.00     0.038 A 
ATOM      5  C   UNL     1     484.754  39.719 459.085  1.00  0.00     0.076 A 
ATOM      6  C   UNL     1     485.406  39.382 460.294  1.00  0.00     0.127 A 
ATOM      7  C   UNL     1     485.909  40.392 461.125  1.00  0.00     0.050 A 
ATOM      8  C   UNL     1     484.239  38.674 458.162  1.00  0.00     0.201 C 
ATOM      9  O   UNL     1     484.661  37.491 458.267  1.00  0.00    -0.288 OA
ATOM     10  C   UNL     1     483.323  39.045 457.047  1.00  0.00     0.076 A 
ATOM     11  C   UNL     1     483.245  40.406 456.667  1.00  0.00     0.041 A 
ATOM     12  C   UNL     1     483.931  41.444 457.471  1.00  0.00     0.194 C 
ATOM     13  O   UNL     1     483.917  42.647 457.089  1.00  0.00    -0.289 OA
ATOM     14  C   UNL     1     482.506  40.772 455.528  1.00  0.00     0.059 A 
ATOM     15  C   UNL     1     481.833  39.806 454.776  1.00  0.00     0.120 A 
ATOM     16  C   UNL     1     481.868  38.472 455.174  1.00  0.00     0.093 A 
ATOM     17  C   UNL     1     482.573  38.082 456.317  1.00  0.00     0.131 A 
ENDROOT
BRANCH   6  18
ATOM     18  O   UNL     1     485.548  38.048 460.677  1.00  0.00    -0.507 OA
ATOM     19  H   UNL     1     485.775  37.322 460.006  1.00  0.00     0.293 HD
ENDBRANCH   6  18
BRANCH  17  20
ATOM     20  O   UNL     1     482.468  36.745 456.706  1.00  0.00    -0.507 OA
ATOM     21  H   UNL     1     481.722  36.131 456.410  1.00  0.00     0.293 HD
ENDBRANCH  17  20
BRANCH  15  22
ATOM     22  O   UNL     1     481.114  40.165 453.638  1.00  0.00    -0.508 OA
ATOM     23  H   UNL     1     481.073  39.563 452.825  1.00  0.00     0.293 HD
ENDBRANCH  15  22
TORSDOF 3
ENDMDL
MODEL 7
REMARK VINA RESULT:    -5.351      4.704      6.720
REMARK INTER + INTRA:          -5.820
REMARK INTER:                  -5.820
REMARK INTRA:                   0.000
REMARK UNBOUND:                 0.000
REMARK SMILES Cc1cc(O)c2c(c1)C(=O)c1cc(O)cc(O)c1C2=O
REMARK SMILES IDX 1 1 2 2 8 3 7 4 6 5 4 6 3 7 19 8 20 9 18 10 11 11 9 12 10 13
REMARK SMILES IDX 12 14 13 15 15 16 16 17 5 18 17 20 14 22
REMARK H PARENT 5 19 17 21 14 23
REMARK Flexibility Score: inf
ROOT
ATOM      1  C   UNL     1     483.849  41.067 464.013  1.00  0.00     0.044 C 
ATOM      2  C   UNL     1     483.676  40.372 462.695  1.00  0.00    -0.047 A 
ATOM      3  C   UNL     1     482.504  40.555 461.950  1.00  0.00     0.016 A 
ATOM      4  C   UNL     1     482.346  39.934 460.698  1.00  0.00     0.038 A 
ATOM      5  C   UNL     1     483.385  39.137 460.174  1.00  0.00     0.076 A 
ATOM      6  C   UNL     1     484.572  38.966 460.924  1.00  0.00     0.127 A 
ATOM      7  C   UNL     1     484.710  39.589 462.171  1.00  0.00     0.050 A 
ATOM      8  C   UNL     1     483.218  38.521 458.832  1.00  0.00     0.201 C 
ATOM      9  O   UNL     1     484.234  38.122 458.201  1.00  0.00    -0.288 OA
ATOM     10  C   UNL     1     481.875  38.482 458.188  1.00  0.00     0.076 A 
ATOM     11  C   UNL     1     480.865  39.337 458.689  1.00  0.00     0.041 A 
ATOM     12  C   UNL     1     481.099  40.121 459.925  1.00  0.00     0.194 C 
ATOM     13  O   UNL     1     480.223  40.934 460.329  1.00  0.00    -0.289 OA
ATOM     14  C   UNL     1     479.635  39.435 458.016  1.00  0.00     0.059 A 
ATOM     15  C   UNL     1     479.392  38.683 456.865  1.00  0.00     0.120 A 
ATOM     16  C   UNL     1     480.365  37.803 456.395  1.00  0.00     0.093 A 
ATOM     17  C   UNL     1     481.588  37.666 457.059  1.00  0.00     0.131 A 
ENDROOT
BRANCH   6  18
ATOM     18  O   UNL     1     485.612  38.172 460.438  1.00  0.00    -0.507 OA
ATOM     19  H   UNL     1     485.604  37.803 459.494  1.00  0.00     0.293 HD
ENDBRANCH   6  18
BRANCH  17  20
ATOM     20  O   UNL     1     482.464  36.687 456.586  1.00  0.00    -0.507 OA
ATOM     21  H   UNL     1     482.344  36.204 455.706  1.00  0.00     0.293 HD
ENDBRANCH  17  20
BRANCH  15  22
ATOM     22  O   UNL     1     478.179  38.790 456.188  1.00  0.00    -0.508 OA
ATOM     23  H   UNL     1     478.141  38.890 455.181  1.00  0.00     0.293 HD
ENDBRANCH  15  22
TORSDOF 3
ENDMDL
MODEL 8
REMARK VINA RESULT:    -5.298      3.307      6.465
REMARK INTER + INTRA:          -5.762
REMARK INTER:                  -5.762
REMARK INTRA:                   0.000
REMARK UNBOUND:                 0.000
REMARK SMILES Cc1cc(O)c2c(c1)C(=O)c1cc(O)cc(O)c1C2=O
REMARK SMILES IDX 1 1 2 2 8 3 7 4 6 5 4 6 3 7 19 8 20 9 18 10 11 11 9 12 10 13
REMARK SMILES IDX 12 14 13 15 15 16 16 17 5 18 17 20 14 22
REMARK H PARENT 5 19 17 21 14 23
REMARK Flexibility Score: inf
ROOT
ATOM      1  C   UNL     1     476.192  38.425 461.650  1.00  0.00     0.044 C 
ATOM      2  C   UNL     1     477.683  38.577 461.581  1.00  0.00    -0.047 A 
ATOM      3  C   UNL     1     478.348  38.454 460.355  1.00  0.00     0.016 A 
ATOM      4  C   UNL     1     479.741  38.627 460.274  1.00  0.00     0.038 A 
ATOM      5  C   UNL     1     480.476  38.951 461.434  1.00  0.00     0.076 A 
ATOM      6  C   UNL     1     479.799  39.086 462.668  1.00  0.00     0.127 A 
ATOM      7  C   UNL     1     478.411  38.906 462.729  1.00  0.00     0.050 A 
ATOM      8  C   UNL     1     481.943  39.169 461.325  1.00  0.00     0.201 C 
ATOM      9  O   UNL     1     482.547  39.795 462.237  1.00  0.00    -0.288 OA
ATOM     10  C   UNL     1     482.671  38.756 460.093  1.00  0.00     0.076 A 
ATOM     11  C   UNL     1     481.919  38.498 458.922  1.00  0.00     0.041 A 
ATOM     12  C   UNL     1     480.438  38.481 458.977  1.00  0.00     0.194 C 
ATOM     13  O   UNL     1     479.771  38.320 457.918  1.00  0.00    -0.289 OA
ATOM     14  C   UNL     1     482.580  38.249 457.707  1.00  0.00     0.059 A 
ATOM     15  C   UNL     1     483.975  38.238 457.646  1.00  0.00     0.120 A 
ATOM     16  C   UNL     1     484.720  38.443 458.805  1.00  0.00     0.093 A 
ATOM     17  C   UNL     1     484.089  38.666 460.033  1.00  0.00     0.131 A 
ENDROOT
BRANCH   6  18
ATOM     18  O   UNL     1     480.500  39.391 463.835  1.00  0.00    -0.507 OA
ATOM     19  H   UNL     1     480.195  39.058 464.743  1.00  0.00     0.293 HD
ENDBRANCH   6  18
BRANCH  17  20
ATOM     20  O   UNL     1     484.906  38.755 461.162  1.00  0.00    -0.507 OA
ATOM     21  H   UNL     1     484.769  39.429 461.902  1.00  0.00     0.293 HD
ENDBRANCH  17  20
BRANCH  15  22
ATOM     22  O   UNL     1     484.632  38.007 456.439  1.00  0.00    -0.508 OA
ATOM     23  H   UNL     1     485.547  38.399 456.250  1.00  0.00     0.293 HD
ENDBRANCH  15  22
TORSDOF 3
ENDMDL
MODEL 9
REMARK VINA RESULT:    -5.206      4.058      5.490
REMARK INTER + INTRA:          -5.662
REMARK INTER:                  -5.662
REMARK INTRA:                   0.000
REMARK UNBOUND:                 0.000
REMARK SMILES Cc1cc(O)c2c(c1)C(=O)c1cc(O)cc(O)c1C2=O
REMARK SMILES IDX 1 1 2 2 8 3 7 4 6 5 4 6 3 7 19 8 20 9 18 10 11 11 9 12 10 13
REMARK SMILES IDX 12 14 13 15 15 16 16 17 5 18 17 20 14 22
REMARK H PARENT 5 19 17 21 14 23
REMARK Flexibility Score: inf
ROOT
ATOM      1  C   UNL     1     486.641  41.000 462.007  1.00  0.00     0.044 C 
ATOM      2  C   UNL     1     485.513  40.300 461.306  1.00  0.00    -0.047 A 
ATOM      3  C   UNL     1     484.222  40.326 461.849  1.00  0.00     0.016 A 
ATOM      4  C   UNL     1     483.153  39.701 461.184  1.00  0.00     0.038 A 
ATOM      5  C   UNL     1     483.374  39.060 459.948  1.00  0.00     0.076 A 
ATOM      6  C   UNL     1     484.677  39.046 459.397  1.00  0.00     0.127 A 
ATOM      7  C   UNL     1     485.731  39.672 460.077  1.00  0.00     0.050 A 
ATOM      8  C   UNL     1     482.225  38.438 459.239  1.00  0.00     0.201 C 
ATOM      9  O   UNL     1     482.316  38.188 458.007  1.00  0.00    -0.288 OA
ATOM     10  C   UNL     1     480.935  38.221 459.951  1.00  0.00     0.076 A 
ATOM     11  C   UNL     1     480.707  38.924 461.158  1.00  0.00     0.041 A 
ATOM     12  C   UNL     1     481.795  39.721 461.772  1.00  0.00     0.194 C 
ATOM     13  O   UNL     1     481.567  40.402 462.810  1.00  0.00    -0.289 OA
ATOM     14  C   UNL     1     479.448  38.857 461.780  1.00  0.00     0.059 A 
ATOM     15  C   UNL     1     478.421  38.089 461.226  1.00  0.00     0.120 A 
ATOM     16  C   UNL     1     478.655  37.357 460.064  1.00  0.00     0.093 A 
ATOM     17  C   UNL     1     479.906  37.383 459.439  1.00  0.00     0.131 A 
ENDROOT
BRANCH   6  18
ATOM     18  O   UNL     1     484.929  38.408 458.183  1.00  0.00    -0.507 OA
ATOM     19  H   UNL     1     485.281  38.914 457.377  1.00  0.00     0.293 HD
ENDBRANCH   6  18
BRANCH  17  20
ATOM     20  O   UNL     1     480.088  36.538 458.342  1.00  0.00    -0.507 OA
ATOM     21  H   UNL     1     480.855  36.621 457.690  1.00  0.00     0.293 HD
ENDBRANCH  17  20
BRANCH  15  22
ATOM     22  O   UNL     1     477.168  38.035 461.831  1.00  0.00    -0.508 OA
ATOM     23  H   UNL     1     477.063  38.072 462.838  1.00  0.00     0.293 HD
ENDBRANCH  15  22
TORSDOF 3
ENDMDL
