MODEL 1
REMARK VINA RESULT:    -3.698      0.000      0.000
REMARK INTER + INTRA:          -9.714
REMARK INTER:                  -8.022
REMARK INTRA:                  -1.692
REMARK UNBOUND:                -1.692
REMARK SMILES CCCCCCCCCCCCCCCCCCCCCC(=O)[O-]
REMARK SMILES IDX 12 1 11 2 10 3 9 4 8 5 7 6 6 7 5 8 4 9 3 10 2 11 1 12 13 13
REMARK SMILES IDX 14 14 15 15 16 16 17 17 18 18 19 19 20 20 21 21 22 22 23 23
REMARK SMILES IDX 24 24
REMARK H PARENT
REMARK Flexibility Score: inf
ROOT
ATOM      1  C   UNL     1     -44.650 -29.257  -1.366  1.00  0.00     0.000 C 
ENDROOT
BRANCH   1   2
ATOM      2  C   UNL     1     -44.049 -28.668  -0.078  1.00  0.00     0.000 C 
BRANCH   2   3
ATOM      3  C   UNL     1     -44.139 -27.132  -0.032  1.00  0.00     0.000 C 
BRANCH   3   4
ATOM      4  C   UNL     1     -44.885 -26.623   1.212  1.00  0.00    -0.000 C 
BRANCH   4   5
ATOM      5  C   UNL     1     -46.409 -26.607   1.025  1.00  0.00    -0.000 C 
BRANCH   5   6
ATOM      6  C   UNL     1     -47.013 -27.980   1.357  1.00  0.00    -0.000 C 
BRANCH   6   7
ATOM      7  C   UNL     1     -46.887 -28.340   2.846  1.00  0.00    -0.000 C 
BRANCH   7   8
ATOM      8  C   UNL     1     -45.931 -29.518   3.090  1.00  0.00    -0.000 C 
BRANCH   8   9
ATOM      9  C   UNL     1     -45.930 -29.927   4.567  1.00  0.00    -0.000 C 
BRANCH   9  10
ATOM     10  C   UNL     1     -46.325 -28.744   5.464  1.00  0.00    -0.000 C 
BRANCH  10  11
ATOM     11  C   UNL     1     -45.217 -28.358   6.454  1.00  0.00    -0.003 C 
ATOM     12  C   UNL     1     -45.410 -26.959   7.042  1.00  0.00     0.004 C 
ENDBRANCH  10  11
ENDBRANCH   9  10
ENDBRANCH   8   9
ENDBRANCH   7   8
ENDBRANCH   6   7
ENDBRANCH   5   6
ENDBRANCH   4   5
ENDBRANCH   3   4
ENDBRANCH   2   3
ENDBRANCH   1   2
BRANCH   1  13
ATOM     13  C   UNL     1     -45.309 -28.186  -2.253  1.00  0.00     0.000 C 
BRANCH  13  14
ATOM     14  C   UNL     1     -46.450 -28.751  -3.117  1.00  0.00     0.000 C 
BRANCH  14  15
ATOM     15  C   UNL     1     -46.525 -28.094  -4.506  1.00  0.00     0.000 C 
BRANCH  15  16
ATOM     16  C   UNL     1     -45.189 -28.172  -5.265  1.00  0.00     0.000 C 
BRANCH  16  17
ATOM     17  C   UNL     1     -45.161 -27.253  -6.499  1.00  0.00     0.000 C 
BRANCH  17  18
ATOM     18  C   UNL     1     -46.225 -27.627  -7.547  1.00  0.00     0.000 C 
BRANCH  18  19
ATOM     19  C   UNL     1     -45.708 -28.462  -8.737  1.00  0.00     0.000 C 
BRANCH  19  20
ATOM     20  C   UNL     1     -44.298 -28.091  -9.231  1.00  0.00     0.006 C 
BRANCH  20  21
ATOM     21  C   UNL     1     -43.470 -29.316  -9.638  1.00  0.00     0.053 C 
BRANCH  21  22
ATOM     22  C   UNL     1     -42.308 -29.495  -8.713  1.00  0.00     0.041 C 
ATOM     23  O   UNL     1     -42.498 -29.578  -7.469  1.00  0.00    -0.550 OA
ATOM     24  O   UNL     1     -41.015 -29.531  -9.217  1.00  0.00    -0.550 OA
ENDBRANCH  21  22
ENDBRANCH  20  21
ENDBRANCH  19  20
ENDBRANCH  18  19
ENDBRANCH  17  18
ENDBRANCH  16  17
ENDBRANCH  15  16
ENDBRANCH  14  15
ENDBRANCH  13  14
ENDBRANCH   1  13
TORSDOF 20
ENDMDL
MODEL 2
REMARK VINA RESULT:    -3.585      1.006      1.496
REMARK INTER + INTRA:          -9.469
REMARK INTER:                  -8.048
REMARK INTRA:                  -1.421
REMARK UNBOUND:                -1.692
REMARK SMILES CCCCCCCCCCCCCCCCCCCCCC(=O)[O-]
REMARK SMILES IDX 12 1 11 2 10 3 9 4 8 5 7 6 6 7 5 8 4 9 3 10 2 11 1 12 13 13
REMARK SMILES IDX 14 14 15 15 16 16 17 17 18 18 19 19 20 20 21 21 22 22 23 23
REMARK SMILES IDX 24 24
REMARK H PARENT
REMARK Flexibility Score: inf
ROOT
ATOM      1  C   UNL     1     -44.105 -28.054  -0.648  1.00  0.00     0.000 C 
ENDROOT
BRANCH   1   2
ATOM      2  C   UNL     1     -44.269 -26.953   0.415  1.00  0.00     0.000 C 
BRANCH   2   3
ATOM      3  C   UNL     1     -45.743 -26.694   0.776  1.00  0.00     0.000 C 
BRANCH   3   4
ATOM      4  C   UNL     1     -45.929 -26.313   2.253  1.00  0.00    -0.000 C 
BRANCH   4   5
ATOM      5  C   UNL     1     -46.670 -27.391   3.057  1.00  0.00    -0.000 C 
BRANCH   5   6
ATOM      6  C   UNL     1     -46.596 -28.750   2.343  1.00  0.00    -0.000 C 
BRANCH   6   7
ATOM      7  C   UNL     1     -46.004 -29.856   3.231  1.00  0.00    -0.000 C 
BRANCH   7   8
ATOM      8  C   UNL     1     -46.427 -29.721   4.702  1.00  0.00    -0.000 C 
BRANCH   8   9
ATOM      9  C   UNL     1     -45.242 -29.299   5.578  1.00  0.00    -0.000 C 
BRANCH   9  10
ATOM     10  C   UNL     1     -45.727 -28.728   6.919  1.00  0.00    -0.000 C 
BRANCH  10  11
ATOM     11  C   UNL     1     -45.241 -27.292   7.160  1.00  0.00    -0.003 C 
ATOM     12  C   UNL     1     -45.829 -26.292   6.164  1.00  0.00     0.004 C 
ENDBRANCH  10  11
ENDBRANCH   9  10
ENDBRANCH   8   9
ENDBRANCH   7   8
ENDBRANCH   6   7
ENDBRANCH   5   6
ENDBRANCH   4   5
ENDBRANCH   3   4
ENDBRANCH   2   3
ENDBRANCH   1   2
BRANCH   1  13
ATOM     13  C   UNL     1     -45.434 -28.406  -1.341  1.00  0.00     0.000 C 
BRANCH  13  14
ATOM     14  C   UNL     1     -45.308 -29.615  -2.284  1.00  0.00     0.000 C 
BRANCH  14  15
ATOM     15  C   UNL     1     -45.838 -29.323  -3.699  1.00  0.00     0.000 C 
BRANCH  15  16
ATOM     16  C   UNL     1     -45.529 -27.887  -4.157  1.00  0.00     0.000 C 
BRANCH  16  17
ATOM     17  C   UNL     1     -45.605 -27.730  -5.685  1.00  0.00     0.000 C 
BRANCH  17  18
ATOM     18  C   UNL     1     -46.086 -29.008  -6.394  1.00  0.00     0.000 C 
BRANCH  18  19
ATOM     19  C   UNL     1     -45.194 -29.487  -7.559  1.00  0.00     0.000 C 
BRANCH  19  20
ATOM     20  C   UNL     1     -45.168 -28.558  -8.786  1.00  0.00     0.006 C 
BRANCH  20  21
ATOM     21  C   UNL     1     -43.786 -27.941  -9.035  1.00  0.00     0.053 C 
BRANCH  21  22
ATOM     22  C   UNL     1     -42.712 -28.818  -8.473  1.00  0.00     0.041 C 
ATOM     23  O   UNL     1     -42.075 -28.459  -7.446  1.00  0.00    -0.550 OA
ATOM     24  O   UNL     1     -42.386 -30.012  -9.103  1.00  0.00    -0.550 OA
ENDBRANCH  21  22
ENDBRANCH  20  21
ENDBRANCH  19  20
ENDBRANCH  18  19
ENDBRANCH  17  18
ENDBRANCH  16  17
ENDBRANCH  15  16
ENDBRANCH  14  15
ENDBRANCH  13  14
ENDBRANCH   1  13
TORSDOF 20
ENDMDL
MODEL 3
REMARK VINA RESULT:    -3.523      4.868     10.803
REMARK INTER + INTRA:          -9.335
REMARK INTER:                  -7.413
REMARK INTRA:                  -1.922
REMARK UNBOUND:                -1.692
REMARK SMILES CCCCCCCCCCCCCCCCCCCCCC(=O)[O-]
REMARK SMILES IDX 12 1 11 2 10 3 9 4 8 5 7 6 6 7 5 8 4 9 3 10 2 11 1 12 13 13
REMARK SMILES IDX 14 14 15 15 16 16 17 17 18 18 19 19 20 20 21 21 22 22 23 23
REMARK SMILES IDX 24 24
REMARK H PARENT
REMARK Flexibility Score: inf
ROOT
ATOM      1  C   UNL     1     -45.370 -30.000  -1.705  1.00  0.00     0.000 C 
ENDROOT
BRANCH   1   2
ATOM      2  C   UNL     1     -46.727 -29.275  -1.711  1.00  0.00     0.000 C 
BRANCH   2   3
ATOM      3  C   UNL     1     -47.122 -28.770  -3.111  1.00  0.00     0.000 C 
BRANCH   3   4
ATOM      4  C   UNL     1     -45.989 -28.934  -4.137  1.00  0.00    -0.000 C 
BRANCH   4   5
ATOM      5  C   UNL     1     -45.557 -27.600  -4.762  1.00  0.00    -0.000 C 
BRANCH   5   6
ATOM      6  C   UNL     1     -46.495 -27.209  -5.914  1.00  0.00    -0.000 C 
BRANCH   6   7
ATOM      7  C   UNL     1     -47.019 -28.426  -6.693  1.00  0.00    -0.000 C 
BRANCH   7   8
ATOM      8  C   UNL     1     -46.342 -28.585  -8.063  1.00  0.00    -0.000 C 
BRANCH   8   9
ATOM      9  C   UNL     1     -45.182 -29.584  -7.990  1.00  0.00    -0.000 C 
BRANCH   9  10
ATOM     10  C   UNL     1     -44.284 -29.475  -9.232  1.00  0.00    -0.000 C 
BRANCH  10  11
ATOM     11  C   UNL     1     -42.858 -29.019  -8.892  1.00  0.00    -0.003 C 
ATOM     12  C   UNL     1     -42.766 -28.333  -7.529  1.00  0.00     0.004 C 
ENDBRANCH  10  11
ENDBRANCH   9  10
ENDBRANCH   8   9
ENDBRANCH   7   8
ENDBRANCH   6   7
ENDBRANCH   5   6
ENDBRANCH   4   5
ENDBRANCH   3   4
ENDBRANCH   2   3
ENDBRANCH   1   2
BRANCH   1  13
ATOM     13  C   UNL     1     -44.721 -30.024  -0.310  1.00  0.00     0.000 C 
BRANCH  13  14
ATOM     14  C   UNL     1     -43.477 -29.123  -0.219  1.00  0.00     0.000 C 
BRANCH  14  15
ATOM     15  C   UNL     1     -43.763 -27.672  -0.644  1.00  0.00     0.000 C 
BRANCH  15  16
ATOM     16  C   UNL     1     -44.179 -26.783   0.541  1.00  0.00     0.000 C 
BRANCH  16  17
ATOM     17  C   UNL     1     -45.704 -26.743   0.738  1.00  0.00     0.000 C 
BRANCH  17  18
ATOM     18  C   UNL     1     -46.114 -26.696   2.220  1.00  0.00     0.000 C 
BRANCH  18  19
ATOM     19  C   UNL     1     -46.305 -28.073   2.891  1.00  0.00     0.000 C 
BRANCH  19  20
ATOM     20  C   UNL     1     -45.976 -28.118   4.394  1.00  0.00     0.006 C 
BRANCH  20  21
ATOM     21  C   UNL     1     -46.356 -26.824   5.125  1.00  0.00     0.053 C 
BRANCH  21  22
ATOM     22  C   UNL     1     -46.110 -26.961   6.595  1.00  0.00     0.041 C 
ATOM     23  O   UNL     1     -45.548 -26.028   7.230  1.00  0.00    -0.550 OA
ATOM     24  O   UNL     1     -46.466 -28.129   7.255  1.00  0.00    -0.550 OA
ENDBRANCH  21  22
ENDBRANCH  20  21
ENDBRANCH  19  20
ENDBRANCH  18  19
ENDBRANCH  17  18
ENDBRANCH  16  17
ENDBRANCH  15  16
ENDBRANCH  14  15
ENDBRANCH  13  14
ENDBRANCH   1  13
TORSDOF 20
ENDMDL
MODEL 4
REMARK VINA RESULT:    -3.395      1.230      2.620
REMARK INTER + INTRA:          -9.056
REMARK INTER:                  -7.671
REMARK INTRA:                  -1.386
REMARK UNBOUND:                -1.692
REMARK SMILES CCCCCCCCCCCCCCCCCCCCCC(=O)[O-]
REMARK SMILES IDX 12 1 11 2 10 3 9 4 8 5 7 6 6 7 5 8 4 9 3 10 2 11 1 12 13 13
REMARK SMILES IDX 14 14 15 15 16 16 17 17 18 18 19 19 20 20 21 21 22 22 23 23
REMARK SMILES IDX 24 24
REMARK H PARENT
REMARK Flexibility Score: inf
ROOT
ATOM      1  C   UNL     1     -43.771 -27.253   0.310  1.00  0.00     0.000 C 
ENDROOT
BRANCH   1   2
ATOM      2  C   UNL     1     -44.808 -26.351   1.002  1.00  0.00     0.000 C 
BRANCH   2   3
ATOM      3  C   UNL     1     -46.214 -26.977   1.027  1.00  0.00     0.000 C 
BRANCH   3   4
ATOM      4  C   UNL     1     -46.488 -27.759   2.322  1.00  0.00    -0.000 C 
BRANCH   4   5
ATOM      5  C   UNL     1     -46.075 -29.234   2.224  1.00  0.00    -0.000 C 
BRANCH   5   6
ATOM      6  C   UNL     1     -46.125 -29.907   3.604  1.00  0.00    -0.000 C 
BRANCH   6   7
ATOM      7  C   UNL     1     -46.822 -29.038   4.664  1.00  0.00    -0.000 C 
BRANCH   7   8
ATOM      8  C   UNL     1     -46.338 -29.345   6.089  1.00  0.00    -0.000 C 
BRANCH   8   9
ATOM      9  C   UNL     1     -45.148 -28.455   6.468  1.00  0.00    -0.000 C 
BRANCH   9  10
ATOM     10  C   UNL     1     -45.594 -26.997   6.662  1.00  0.00    -0.000 C 
BRANCH  10  11
ATOM     11  C   UNL     1     -46.712 -26.854   7.704  1.00  0.00    -0.003 C 
ATOM     12  C   UNL     1     -46.981 -25.399   8.087  1.00  0.00     0.004 C 
ENDBRANCH  10  11
ENDBRANCH   9  10
ENDBRANCH   8   9
ENDBRANCH   7   8
ENDBRANCH   6   7
ENDBRANCH   5   6
ENDBRANCH   4   5
ENDBRANCH   3   4
ENDBRANCH   2   3
ENDBRANCH   1   2
BRANCH   1  13
ATOM     13  C   UNL     1     -44.108 -27.510  -1.169  1.00  0.00     0.000 C 
BRANCH  13  14
ATOM     14  C   UNL     1     -44.905 -28.809  -1.378  1.00  0.00     0.000 C 
BRANCH  14  15
ATOM     15  C   UNL     1     -45.989 -28.674  -2.462  1.00  0.00     0.000 C 
BRANCH  15  16
ATOM     16  C   UNL     1     -46.507 -30.039  -2.948  1.00  0.00     0.000 C 
BRANCH  16  17
ATOM     17  C   UNL     1     -46.587 -30.123  -4.482  1.00  0.00     0.000 C 
BRANCH  17  18
ATOM     18  C   UNL     1     -46.713 -28.743  -5.151  1.00  0.00     0.000 C 
BRANCH  18  19
ATOM     19  C   UNL     1     -46.525 -28.737  -6.682  1.00  0.00     0.000 C 
BRANCH  19  20
ATOM     20  C   UNL     1     -45.771 -27.517  -7.243  1.00  0.00     0.006 C 
BRANCH  20  21
ATOM     21  C   UNL     1     -44.315 -27.447  -6.764  1.00  0.00     0.053 C 
BRANCH  21  22
ATOM     22  C   UNL     1     -43.394 -28.001  -7.804  1.00  0.00     0.041 C 
ATOM     23  O   UNL     1     -43.821 -28.232  -8.968  1.00  0.00    -0.550 OA
ATOM     24  O   UNL     1     -42.077 -28.299  -7.481  1.00  0.00    -0.550 OA
ENDBRANCH  21  22
ENDBRANCH  20  21
ENDBRANCH  19  20
ENDBRANCH  18  19
ENDBRANCH  17  18
ENDBRANCH  16  17
ENDBRANCH  15  16
ENDBRANCH  14  15
ENDBRANCH  13  14
ENDBRANCH   1  13
TORSDOF 20
ENDMDL
MODEL 5
REMARK VINA RESULT:    -3.310      1.282      2.418
REMARK INTER + INTRA:          -8.872
REMARK INTER:                  -7.632
REMARK INTRA:                  -1.240
REMARK UNBOUND:                -1.692
REMARK SMILES CCCCCCCCCCCCCCCCCCCCCC(=O)[O-]
REMARK SMILES IDX 12 1 11 2 10 3 9 4 8 5 7 6 6 7 5 8 4 9 3 10 2 11 1 12 13 13
REMARK SMILES IDX 14 14 15 15 16 16 17 17 18 18 19 19 20 20 21 21 22 22 23 23
REMARK SMILES IDX 24 24
REMARK H PARENT
REMARK Flexibility Score: inf
ROOT
ATOM      1  C   UNL     1     -43.743 -27.508  -0.283  1.00  0.00     0.000 C 
ENDROOT
BRANCH   1   2
ATOM      2  C   UNL     1     -44.415 -26.654   0.807  1.00  0.00     0.000 C 
BRANCH   2   3
ATOM      3  C   UNL     1     -45.952 -26.716   0.744  1.00  0.00     0.000 C 
BRANCH   3   4
ATOM      4  C   UNL     1     -46.589 -26.949   2.123  1.00  0.00    -0.000 C 
BRANCH   4   5
ATOM      5  C   UNL     1     -46.610 -28.430   2.525  1.00  0.00    -0.000 C 
BRANCH   5   6
ATOM      6  C   UNL     1     -46.234 -28.599   4.005  1.00  0.00    -0.000 C 
BRANCH   6   7
ATOM      7  C   UNL     1     -46.809 -27.485   4.894  1.00  0.00    -0.000 C 
BRANCH   7   8
ATOM      8  C   UNL     1     -45.720 -26.735   5.677  1.00  0.00    -0.000 C 
BRANCH   8   9
ATOM      9  C   UNL     1     -45.622 -27.256   7.115  1.00  0.00    -0.000 C 
BRANCH   9  10
ATOM     10  C   UNL     1     -46.647 -28.372   7.366  1.00  0.00    -0.000 C 
BRANCH  10  11
ATOM     11  C   UNL     1     -45.991 -29.690   7.803  1.00  0.00    -0.003 C 
ATOM     12  C   UNL     1     -44.726 -30.013   7.006  1.00  0.00     0.004 C 
ENDBRANCH  10  11
ENDBRANCH   9  10
ENDBRANCH   8   9
ENDBRANCH   7   8
ENDBRANCH   6   7
ENDBRANCH   5   6
ENDBRANCH   4   5
ENDBRANCH   3   4
ENDBRANCH   2   3
ENDBRANCH   1   2
BRANCH   1  13
ATOM     13  C   UNL     1     -44.578 -27.577  -1.574  1.00  0.00     0.000 C 
BRANCH  13  14
ATOM     14  C   UNL     1     -45.485 -28.819  -1.628  1.00  0.00     0.000 C 
BRANCH  14  15
ATOM     15  C   UNL     1     -46.659 -28.655  -2.607  1.00  0.00     0.000 C 
BRANCH  15  16
ATOM     16  C   UNL     1     -46.957 -29.947  -3.390  1.00  0.00     0.000 C 
BRANCH  16  17
ATOM     17  C   UNL     1     -46.826 -29.754  -4.911  1.00  0.00     0.000 C 
BRANCH  17  18
ATOM     18  C   UNL     1     -45.919 -28.569  -5.287  1.00  0.00     0.000 C 
BRANCH  18  19
ATOM     19  C   UNL     1     -44.839 -28.881  -6.344  1.00  0.00     0.000 C 
BRANCH  19  20
ATOM     20  C   UNL     1     -44.971 -28.097  -7.663  1.00  0.00     0.006 C 
BRANCH  20  21
ATOM     21  C   UNL     1     -43.616 -27.654  -8.229  1.00  0.00     0.053 C 
BRANCH  21  22
ATOM     22  C   UNL     1     -42.800 -28.844  -8.627  1.00  0.00     0.041 C 
ATOM     23  O   UNL     1     -41.647 -29.009  -8.145  1.00  0.00    -0.550 OA
ATOM     24  O   UNL     1     -43.295 -29.748  -9.557  1.00  0.00    -0.550 OA
ENDBRANCH  21  22
ENDBRANCH  20  21
ENDBRANCH  19  20
ENDBRANCH  18  19
ENDBRANCH  17  18
ENDBRANCH  16  17
ENDBRANCH  15  16
ENDBRANCH  14  15
ENDBRANCH  13  14
ENDBRANCH   1  13
TORSDOF 20
ENDMDL
MODEL 6
REMARK VINA RESULT:    -3.187      4.668     11.420
REMARK INTER + INTRA:          -8.604
REMARK INTER:                  -7.371
REMARK INTRA:                  -1.234
REMARK UNBOUND:                -1.692
REMARK SMILES CCCCCCCCCCCCCCCCCCCCCC(=O)[O-]
REMARK SMILES IDX 12 1 11 2 10 3 9 4 8 5 7 6 6 7 5 8 4 9 3 10 2 11 1 12 13 13
REMARK SMILES IDX 14 14 15 15 16 16 17 17 18 18 19 19 20 20 21 21 22 22 23 23
REMARK SMILES IDX 24 24
REMARK H PARENT
REMARK Flexibility Score: inf
ROOT
ATOM      1  C   UNL     1     -44.669 -28.372  -0.950  1.00  0.00     0.000 C 
ENDROOT
BRANCH   1   2
ATOM      2  C   UNL     1     -45.198 -27.912  -2.319  1.00  0.00     0.000 C 
BRANCH   2   3
ATOM      3  C   UNL     1     -46.660 -28.331  -2.560  1.00  0.00     0.000 C 
BRANCH   3   4
ATOM      4  C   UNL     1     -46.787 -29.447  -3.609  1.00  0.00    -0.000 C 
BRANCH   4   5
ATOM      5  C   UNL     1     -45.635 -29.442  -4.624  1.00  0.00    -0.000 C 
BRANCH   5   6
ATOM      6  C   UNL     1     -45.715 -28.206  -5.533  1.00  0.00    -0.000 C 
BRANCH   6   7
ATOM      7  C   UNL     1     -46.372 -28.509  -6.890  1.00  0.00    -0.000 C 
BRANCH   7   8
ATOM      8  C   UNL     1     -45.810 -27.639  -8.025  1.00  0.00    -0.000 C 
BRANCH   8   9
ATOM      9  C   UNL     1     -44.279 -27.717  -8.068  1.00  0.00    -0.000 C 
BRANCH   9  10
ATOM     10  C   UNL     1     -43.814 -28.922  -8.900  1.00  0.00    -0.000 C 
BRANCH  10  11
ATOM     11  C   UNL     1     -42.550 -29.580  -8.330  1.00  0.00    -0.003 C 
ATOM     12  C   UNL     1     -41.443 -29.738  -9.372  1.00  0.00     0.004 C 
ENDBRANCH  10  11
ENDBRANCH   9  10
ENDBRANCH   8   9
ENDBRANCH   7   8
ENDBRANCH   6   7
ENDBRANCH   5   6
ENDBRANCH   4   5
ENDBRANCH   3   4
ENDBRANCH   2   3
ENDBRANCH   1   2
BRANCH   1  13
ATOM     13  C   UNL     1     -44.090 -27.211  -0.121  1.00  0.00     0.000 C 
BRANCH  13  14
ATOM     14  C   UNL     1     -44.909 -26.923   1.149  1.00  0.00     0.000 C 
BRANCH  14  15
ATOM     15  C   UNL     1     -46.426 -26.951   0.896  1.00  0.00     0.000 C 
BRANCH  15  16
ATOM     16  C   UNL     1     -47.111 -28.157   1.563  1.00  0.00     0.000 C 
BRANCH  16  17
ATOM     17  C   UNL     1     -46.124 -29.019   2.370  1.00  0.00     0.000 C 
BRANCH  17  18
ATOM     18  C   UNL     1     -46.795 -29.756   3.543  1.00  0.00     0.000 C 
BRANCH  18  19
ATOM     19  C   UNL     1     -46.931 -28.934   4.841  1.00  0.00     0.000 C 
BRANCH  19  20
ATOM     20  C   UNL     1     -45.600 -28.523   5.497  1.00  0.00     0.006 C 
BRANCH  20  21
ATOM     21  C   UNL     1     -45.718 -28.337   7.015  1.00  0.00     0.053 C 
BRANCH  21  22
ATOM     22  C   UNL     1     -45.870 -26.888   7.355  1.00  0.00     0.041 C 
ATOM     23  O   UNL     1     -45.184 -26.021   6.749  1.00  0.00    -0.550 OA
ATOM     24  O   UNL     1     -46.738 -26.497   8.366  1.00  0.00    -0.550 OA
ENDBRANCH  21  22
ENDBRANCH  20  21
ENDBRANCH  19  20
ENDBRANCH  18  19
ENDBRANCH  17  18
ENDBRANCH  16  17
ENDBRANCH  15  16
ENDBRANCH  14  15
ENDBRANCH  13  14
ENDBRANCH   1  13
TORSDOF 20
ENDMDL
MODEL 7
REMARK VINA RESULT:    -3.135      4.249     11.410
REMARK INTER + INTRA:          -8.493
REMARK INTER:                  -7.164
REMARK INTRA:                  -1.328
REMARK UNBOUND:                -1.692
REMARK SMILES CCCCCCCCCCCCCCCCCCCCCC(=O)[O-]
REMARK SMILES IDX 12 1 11 2 10 3 9 4 8 5 7 6 6 7 5 8 4 9 3 10 2 11 1 12 13 13
REMARK SMILES IDX 14 14 15 15 16 16 17 17 18 18 19 19 20 20 21 21 22 22 23 23
REMARK SMILES IDX 24 24
REMARK H PARENT
REMARK Flexibility Score: inf
ROOT
ATOM      1  C   UNL     1     -44.894 -28.926  -2.278  1.00  0.00     0.000 C 
ENDROOT
BRANCH   1   2
ATOM      2  C   UNL     1     -46.223 -28.265  -2.687  1.00  0.00     0.000 C 
BRANCH   2   3
ATOM      3  C   UNL     1     -46.951 -29.040  -3.801  1.00  0.00     0.000 C 
BRANCH   3   4
ATOM      4  C   UNL     1     -46.306 -28.833  -5.181  1.00  0.00    -0.000 C 
BRANCH   4   5
ATOM      5  C   UNL     1     -46.311 -27.363  -5.623  1.00  0.00    -0.000 C 
BRANCH   5   6
ATOM      6  C   UNL     1     -45.993 -27.243  -7.122  1.00  0.00    -0.000 C 
BRANCH   6   7
ATOM      7  C   UNL     1     -46.367 -28.509  -7.910  1.00  0.00    -0.000 C 
BRANCH   7   8
ATOM      8  C   UNL     1     -46.005 -28.404  -9.400  1.00  0.00    -0.000 C 
BRANCH   8   9
ATOM      9  C   UNL     1     -44.588 -27.848  -9.582  1.00  0.00    -0.000 C 
BRANCH   9  10
ATOM     10  C   UNL     1     -43.630 -28.940 -10.082  1.00  0.00    -0.000 C 
BRANCH  10  11
ATOM     11  C   UNL     1     -42.789 -29.551  -8.952  1.00  0.00    -0.003 C 
ATOM     12  C   UNL     1     -42.393 -28.525  -7.888  1.00  0.00     0.004 C 
ENDBRANCH  10  11
ENDBRANCH   9  10
ENDBRANCH   8   9
ENDBRANCH   7   8
ENDBRANCH   6   7
ENDBRANCH   5   6
ENDBRANCH   4   5
ENDBRANCH   3   4
ENDBRANCH   2   3
ENDBRANCH   1   2
BRANCH   1  13
ATOM     13  C   UNL     1     -44.753 -29.067  -0.752  1.00  0.00     0.000 C 
BRANCH  13  14
ATOM     14  C   UNL     1     -45.066 -27.760  -0.004  1.00  0.00     0.000 C 
BRANCH  14  15
ATOM     15  C   UNL     1     -46.400 -27.819   0.761  1.00  0.00     0.000 C 
BRANCH  15  16
ATOM     16  C   UNL     1     -46.930 -26.421   1.125  1.00  0.00     0.000 C 
BRANCH  16  17
ATOM     17  C   UNL     1     -46.516 -25.987   2.542  1.00  0.00     0.000 C 
BRANCH  17  18
ATOM     18  C   UNL     1     -46.483 -27.159   3.540  1.00  0.00     0.000 C 
BRANCH  18  19
ATOM     19  C   UNL     1     -46.783 -26.781   5.005  1.00  0.00     0.000 C 
BRANCH  19  20
ATOM     20  C   UNL     1     -45.607 -26.966   5.982  1.00  0.00     0.006 C 
BRANCH  20  21
ATOM     21  C   UNL     1     -45.839 -28.108   6.980  1.00  0.00     0.053 C 
BRANCH  21  22
ATOM     22  C   UNL     1     -45.092 -29.333   6.557  1.00  0.00     0.041 C 
ATOM     23  O   UNL     1     -45.166 -29.738   5.365  1.00  0.00    -0.550 OA
ATOM     24  O   UNL     1     -44.347 -30.050   7.484  1.00  0.00    -0.550 OA
ENDBRANCH  21  22
ENDBRANCH  20  21
ENDBRANCH  19  20
ENDBRANCH  18  19
ENDBRANCH  17  18
ENDBRANCH  16  17
ENDBRANCH  15  16
ENDBRANCH  14  15
ENDBRANCH  13  14
ENDBRANCH   1  13
TORSDOF 20
ENDMDL
MODEL 8
REMARK VINA RESULT:    -3.108      1.337      2.265
REMARK INTER + INTRA:          -8.433
REMARK INTER:                  -7.578
REMARK INTRA:                  -0.856
REMARK UNBOUND:                -1.692
REMARK SMILES CCCCCCCCCCCCCCCCCCCCCC(=O)[O-]
REMARK SMILES IDX 12 1 11 2 10 3 9 4 8 5 7 6 6 7 5 8 4 9 3 10 2 11 1 12 13 13
REMARK SMILES IDX 14 14 15 15 16 16 17 17 18 18 19 19 20 20 21 21 22 22 23 23
REMARK SMILES IDX 24 24
REMARK H PARENT
REMARK Flexibility Score: inf
ROOT
ATOM      1  C   UNL     1     -43.249 -28.884  -0.378  1.00  0.00     0.000 C 
ENDROOT
BRANCH   1   2
ATOM      2  C   UNL     1     -44.210 -29.832   0.361  1.00  0.00     0.000 C 
BRANCH   2   3
ATOM      3  C   UNL     1     -45.324 -29.078   1.110  1.00  0.00     0.000 C 
BRANCH   3   4
ATOM      4  C   UNL     1     -45.939 -29.913   2.245  1.00  0.00    -0.000 C 
BRANCH   4   5
ATOM      5  C   UNL     1     -46.934 -29.113   3.098  1.00  0.00    -0.000 C 
BRANCH   5   6
ATOM      6  C   UNL     1     -47.125 -27.698   2.531  1.00  0.00    -0.000 C 
BRANCH   6   7
ATOM      7  C   UNL     1     -47.119 -26.615   3.621  1.00  0.00    -0.000 C 
BRANCH   7   8
ATOM      8  C   UNL     1     -46.005 -26.828   4.659  1.00  0.00    -0.000 C 
BRANCH   8   9
ATOM      9  C   UNL     1     -46.430 -26.304   6.035  1.00  0.00    -0.000 C 
BRANCH   9  10
ATOM     10  C   UNL     1     -45.505 -26.843   7.137  1.00  0.00    -0.000 C 
BRANCH  10  11
ATOM     11  C   UNL     1     -45.108 -28.308   6.910  1.00  0.00    -0.003 C 
ATOM     12  C   UNL     1     -46.301 -29.262   6.974  1.00  0.00     0.004 C 
ENDBRANCH  10  11
ENDBRANCH   9  10
ENDBRANCH   8   9
ENDBRANCH   7   8
ENDBRANCH   6   7
ENDBRANCH   5   6
ENDBRANCH   4   5
ENDBRANCH   3   4
ENDBRANCH   2   3
ENDBRANCH   1   2
BRANCH   1  13
ATOM     13  C   UNL     1     -43.945 -27.600  -0.864  1.00  0.00     0.000 C 
BRANCH  13  14
ATOM     14  C   UNL     1     -45.288 -27.882  -1.560  1.00  0.00     0.000 C 
BRANCH  14  15
ATOM     15  C   UNL     1     -45.122 -28.655  -2.880  1.00  0.00     0.000 C 
BRANCH  15  16
ATOM     16  C   UNL     1     -46.124 -28.202  -3.956  1.00  0.00     0.000 C 
BRANCH  16  17
ATOM     17  C   UNL     1     -45.430 -27.776  -5.262  1.00  0.00     0.000 C 
BRANCH  17  18
ATOM     18  C   UNL     1     -46.300 -28.018  -6.508  1.00  0.00     0.000 C 
BRANCH  18  19
ATOM     19  C   UNL     1     -46.188 -29.428  -7.123  1.00  0.00     0.000 C 
BRANCH  19  20
ATOM     20  C   UNL     1     -45.366 -29.511  -8.422  1.00  0.00     0.006 C 
BRANCH  20  21
ATOM     21  C   UNL     1     -43.890 -29.845  -8.172  1.00  0.00     0.053 C 
BRANCH  21  22
ATOM     22  C   UNL     1     -43.067 -28.596  -8.147  1.00  0.00     0.041 C 
ATOM     23  O   UNL     1     -41.880 -28.630  -7.724  1.00  0.00    -0.550 OA
ATOM     24  O   UNL     1     -43.620 -27.388  -8.553  1.00  0.00    -0.550 OA
ENDBRANCH  21  22
ENDBRANCH  20  21
ENDBRANCH  19  20
ENDBRANCH  18  19
ENDBRANCH  17  18
ENDBRANCH  16  17
ENDBRANCH  15  16
ENDBRANCH  14  15
ENDBRANCH  13  14
ENDBRANCH   1  13
TORSDOF 20
ENDMDL
