MODEL 1
REMARK VINA RESULT:     2.472      0.000      0.000
REMARK INTER + INTRA:           2.632
REMARK INTER:                   2.761
REMARK INTRA:                  -0.129
REMARK UNBOUND:                -0.129
REMARK SMILES O=C([O-])C=Cc1ccccc1
REMARK SMILES IDX 4 1 5 2 2 3 1 4 3 5 6 6 7 7 11 8 8 9 10 10 9 11
REMARK H PARENT
REMARK Flexibility Score: inf
ROOT
ATOM      1  C   UNL     1     -29.091  39.813 -25.640  1.00  0.00     0.025 C 
ATOM      2  C   UNL     1     -29.825  40.897 -25.344  1.00  0.00     0.010 C 
ENDROOT
BRANCH   1   3
ATOM      3  C   UNL     1     -27.640  39.900 -25.871  1.00  0.00     0.064 C 
ATOM      4  O   UNL     1     -26.948  38.847 -25.876  1.00  0.00    -0.545 OA
ATOM      5  O   UNL     1     -27.017  41.124 -26.085  1.00  0.00    -0.545 OA
ENDBRANCH   1   3
BRANCH   2   6
ATOM      6  C   UNL     1     -31.292  40.887 -25.098  1.00  0.00    -0.026 A 
ATOM      7  C   UNL     1     -32.253  41.036 -26.123  1.00  0.00     0.008 A 
ATOM      8  C   UNL     1     -31.742  40.721 -23.775  1.00  0.00     0.008 A 
ATOM      9  C   UNL     1     -33.619  41.017 -25.822  1.00  0.00     0.001 A 
ATOM     10  C   UNL     1     -33.108  40.703 -23.482  1.00  0.00     0.001 A 
ATOM     11  C   UNL     1     -34.046  40.852 -24.504  1.00  0.00     0.000 A 
ENDBRANCH   2   6
TORSDOF 2
ENDMDL
MODEL 2
REMARK VINA RESULT:     2.634      3.184      5.360
REMARK INTER + INTRA:           2.813
REMARK INTER:                   2.945
REMARK INTRA:                  -0.132
REMARK UNBOUND:                -0.129
REMARK SMILES O=C([O-])C=Cc1ccccc1
REMARK SMILES IDX 4 1 5 2 2 3 1 4 3 5 6 6 7 7 11 8 8 9 10 10 9 11
REMARK H PARENT
REMARK Flexibility Score: inf
ROOT
ATOM      1  C   UNL     1     -31.819  40.155 -24.665  1.00  0.00     0.025 C 
ATOM      2  C   UNL     1     -31.043  40.473 -25.712  1.00  0.00     0.010 C 
ENDROOT
BRANCH   1   3
ATOM      3  C   UNL     1     -33.247  40.510 -24.622  1.00  0.00     0.064 C 
ATOM      4  O   UNL     1     -33.878  40.417 -23.536  1.00  0.00    -0.545 OA
ATOM      5  O   UNL     1     -33.914  40.946 -25.761  1.00  0.00    -0.545 OA
ENDBRANCH   1   3
BRANCH   2   6
ATOM      6  C   UNL     1     -29.596  40.150 -25.826  1.00  0.00    -0.026 A 
ATOM      7  C   UNL     1     -28.574  41.122 -25.756  1.00  0.00     0.008 A 
ATOM      8  C   UNL     1     -29.230  38.803 -26.012  1.00  0.00     0.008 A 
ATOM      9  C   UNL     1     -27.230  40.749 -25.870  1.00  0.00     0.001 A 
ATOM     10  C   UNL     1     -27.886  38.437 -26.125  1.00  0.00     0.001 A 
ATOM     11  C   UNL     1     -26.887  39.409 -26.055  1.00  0.00     0.000 A 
ENDBRANCH   2   6
TORSDOF 2
ENDMDL
MODEL 3
REMARK VINA RESULT:     2.727      0.208      1.463
REMARK INTER + INTRA:           2.917
REMARK INTER:                   3.045
REMARK INTRA:                  -0.128
REMARK UNBOUND:                -0.129
REMARK SMILES O=C([O-])C=Cc1ccccc1
REMARK SMILES IDX 4 1 5 2 2 3 1 4 3 5 6 6 7 7 11 8 8 9 10 10 9 11
REMARK H PARENT
REMARK Flexibility Score: inf
ROOT
ATOM      1  C   UNL     1     -29.075  39.762 -25.566  1.00  0.00     0.025 C 
ATOM      2  C   UNL     1     -29.814  40.830 -25.229  1.00  0.00     0.010 C 
ENDROOT
BRANCH   1   3
ATOM      3  C   UNL     1     -27.618  39.855 -25.749  1.00  0.00     0.064 C 
ATOM      4  O   UNL     1     -26.907  38.825 -25.604  1.00  0.00    -0.545 OA
ATOM      5  O   UNL     1     -27.010  41.061 -26.081  1.00  0.00    -0.545 OA
ENDBRANCH   1   3
BRANCH   2   6
ATOM      6  C   UNL     1     -31.288  40.813 -25.027  1.00  0.00    -0.026 A 
ATOM      7  C   UNL     1     -31.900  40.502 -23.792  1.00  0.00     0.008 A 
ATOM      8  C   UNL     1     -32.112  41.124 -26.125  1.00  0.00     0.008 A 
ATOM      9  C   UNL     1     -33.294  40.505 -23.671  1.00  0.00     0.001 A 
ATOM     10  C   UNL     1     -33.503  41.125 -25.996  1.00  0.00     0.001 A 
ATOM     11  C   UNL     1     -34.094  40.815 -24.771  1.00  0.00     0.000 A 
ENDBRANCH   2   6
TORSDOF 2
ENDMDL
