MODEL 1
REMARK VINA RESULT:    -4.272      0.000      0.000
REMARK INTER + INTRA:          -4.618
REMARK INTER:                  -5.270
REMARK INTRA:                   0.653
REMARK UNBOUND:                 0.653
REMARK SMILES C=C1[C@@H]2CC[C@H]3[C@@H]2C(C)(C)CCC[C@@]13C
REMARK SMILES IDX 14 1 6 2 7 3 3 4 2 5 1 6 4 7 5 8 15 9 8 10 9 11 10 12 11 13
REMARK SMILES IDX 13 15 12 16
REMARK H PARENT
REMARK Flexibility Score: 80.00
ROOT
ATOM      1  C   UNL     1      31.847  10.936  32.840  1.00  0.00    -0.008 C 
ATOM      2  C   UNL     1      32.456   9.677  32.120  1.00  0.00     0.003 C 
ATOM      3  C   UNL     1      31.389   9.324  31.072  1.00  0.00     0.006 C 
ATOM      4  C   UNL     1      30.268   9.213  32.107  1.00  0.00     0.019 C 
ATOM      5  C   UNL     1      30.393  10.525  32.833  1.00  0.00    -0.068 C 
ATOM      6  C   UNL     1      29.383  11.162  33.439  1.00  0.00     0.009 C 
ATOM      7  C   UNL     1      30.832   8.144  33.062  1.00  0.00     0.008 C 
ATOM      8  C   UNL     1      32.351   8.419  33.025  1.00  0.00     0.005 C 
ATOM      9  C   UNL     1      32.357  11.115  34.293  1.00  0.00     0.016 C 
ENDROOT
BRANCH   3  10
ATOM     10  C   UNL     1      31.180  10.296  29.827  1.00  0.00    -0.032 C 
ATOM     11  C   UNL     1      31.132   9.406  28.552  1.00  0.00     0.011 C 
ATOM     12  C   UNL     1      29.825  11.060  29.816  1.00  0.00     0.011 C 
BRANCH  10  13
ATOM     13  C   UNL     1      32.371  11.284  29.610  1.00  0.00     0.007 CG0
ATOM     14  G   UNL     1      32.864  12.199  30.762  1.00  0.00     0.000 G0
ENDBRANCH  10  13
ENDBRANCH   3  10
BRANCH   1  15
ATOM     15  C   UNL     1      32.048  12.277  32.049  1.00  0.00     0.011 C 
BRANCH  15  16
ATOM     16  C   UNL     1      32.873  12.204  30.757  1.00  0.00     0.001 CG0
ATOM     17  G   UNL     1      32.384  11.290  29.604  1.00  0.00     0.000 G0
ENDBRANCH  15  16
ENDBRANCH   1  15
TORSDOF 0
ENDMDL
MODEL 2
REMARK VINA RESULT:    -4.164      1.488      2.107
REMARK INTER + INTRA:          -4.485
REMARK INTER:                  -5.142
REMARK INTRA:                   0.657
REMARK UNBOUND:                 0.653
REMARK SMILES C=C1[C@@H]2CC[C@H]3[C@@H]2C(C)(C)CCC[C@@]13C
REMARK SMILES IDX 14 1 6 2 7 3 3 4 2 5 1 6 4 7 5 8 15 9 8 10 9 11 10 12 11 13
REMARK SMILES IDX 13 15 12 16
REMARK H PARENT
REMARK Flexibility Score: 80.00
ROOT
ATOM      1  C   UNL     1      31.251   9.445  34.123  1.00  0.00    -0.008 C 
ATOM      2  C   UNL     1      32.140   8.791  33.003  1.00  0.00     0.003 C 
ATOM      3  C   UNL     1      31.531   9.344  31.705  1.00  0.00     0.006 C 
ATOM      4  C   UNL     1      30.126   8.839  32.034  1.00  0.00     0.019 C 
ATOM      5  C   UNL     1      29.916   9.396  33.415  1.00  0.00    -0.068 C 
ATOM      6  C   UNL     1      28.725   9.709  33.941  1.00  0.00     0.009 C 
ATOM      7  C   UNL     1      30.373   7.330  32.217  1.00  0.00     0.008 C 
ATOM      8  C   UNL     1      31.791   7.287  32.828  1.00  0.00     0.005 C 
ATOM      9  C   UNL     1      31.206   8.614  35.431  1.00  0.00     0.016 C 
ENDROOT
BRANCH   3  10
ATOM     10  C   UNL     1      31.722  10.888  31.361  1.00  0.00    -0.032 C 
ATOM     11  C   UNL     1      32.175  10.976  29.876  1.00  0.00     0.011 C 
ATOM     12  C   UNL     1      30.419  11.736  31.419  1.00  0.00     0.011 C 
BRANCH  10  13
ATOM     13  C   UNL     1      32.858  11.568  32.192  1.00  0.00     0.007 CG0
ATOM     14  G   UNL     1      32.866  11.489  33.741  1.00  0.00     0.000 G0
ENDBRANCH  10  13
ENDBRANCH   3  10
BRANCH   1  15
ATOM     15  C   UNL     1      31.645  10.926  34.460  1.00  0.00     0.011 C 
BRANCH  15  16
ATOM     16  C   UNL     1      32.873  11.500  33.740  1.00  0.00     0.001 CG0
ATOM     17  G   UNL     1      32.878  11.550  32.190  1.00  0.00     0.000 G0
ENDBRANCH  15  16
ENDBRANCH   1  15
TORSDOF 0
ENDMDL
MODEL 3
REMARK VINA RESULT:    -4.059      2.683      4.796
REMARK INTER + INTRA:          -4.356
REMARK INTER:                  -5.013
REMARK INTRA:                   0.657
REMARK UNBOUND:                 0.653
REMARK SMILES C=C1[C@@H]2CC[C@H]3[C@@H]2C(C)(C)CCC[C@@]13C
REMARK SMILES IDX 14 1 6 2 7 3 3 4 2 5 1 6 4 7 5 8 15 9 8 10 9 11 10 12 11 13
REMARK SMILES IDX 13 15 12 16
REMARK H PARENT
REMARK Flexibility Score: 80.00
ROOT
ATOM      1  C   UNL     1      30.916   9.289  32.192  1.00  0.00    -0.008 C 
ATOM      2  C   UNL     1      32.175   9.308  33.135  1.00  0.00     0.003 C 
ATOM      3  C   UNL     1      31.612   9.846  34.459  1.00  0.00     0.006 C 
ATOM      4  C   UNL     1      31.051  11.116  33.818  1.00  0.00     0.019 C 
ATOM      5  C   UNL     1      30.245  10.553  32.679  1.00  0.00    -0.068 C 
ATOM      6  C   UNL     1      29.164  11.136  32.145  1.00  0.00     0.009 C 
ATOM      7  C   UNL     1      32.315  11.727  33.182  1.00  0.00     0.008 C 
ATOM      8  C   UNL     1      33.125  10.480  32.766  1.00  0.00     0.005 C 
ATOM      9  C   UNL     1      31.278   9.408  30.688  1.00  0.00     0.016 C 
ENDROOT
BRANCH   3  10
ATOM     10  C   UNL     1      30.627   8.927  35.309  1.00  0.00    -0.032 C 
ATOM     11  C   UNL     1      31.117   8.968  36.784  1.00  0.00     0.011 C 
ATOM     12  C   UNL     1      29.157   9.431  35.375  1.00  0.00     0.011 C 
BRANCH  10  13
ATOM     13  C   UNL     1      30.673   7.422  34.888  1.00  0.00     0.007 CG0
ATOM     14  G   UNL     1      30.455   7.002  33.412  1.00  0.00     0.000 G0
ENDBRANCH  10  13
ENDBRANCH   3  10
BRANCH   1  15
ATOM     15  C   UNL     1      29.982   8.047  32.406  1.00  0.00     0.011 C 
BRANCH  15  16
ATOM     16  C   UNL     1      30.451   6.991  33.417  1.00  0.00     0.001 CG0
ATOM     17  G   UNL     1      30.671   7.410  34.893  1.00  0.00     0.000 G0
ENDBRANCH  15  16
ENDBRANCH   1  15
TORSDOF 0
ENDMDL
MODEL 4
REMARK VINA RESULT:    -3.981      3.160      5.208
REMARK INTER + INTRA:          -4.259
REMARK INTER:                  -4.915
REMARK INTRA:                   0.656
REMARK UNBOUND:                 0.653
REMARK SMILES C=C1[C@@H]2CC[C@H]3[C@@H]2C(C)(C)CCC[C@@]13C
REMARK SMILES IDX 14 1 6 2 7 3 3 4 2 5 1 6 4 7 5 8 15 9 8 10 9 11 10 12 11 13
REMARK SMILES IDX 13 15 12 16
REMARK H PARENT
REMARK Flexibility Score: 80.00
ROOT
ATOM      1  C   UNL     1      29.416   9.638  27.086  1.00  0.00    -0.008 C 
ATOM      2  C   UNL     1      29.880   9.282  28.546  1.00  0.00     0.003 C 
ATOM      3  C   UNL     1      31.335   9.773  28.580  1.00  0.00     0.006 C 
ATOM      4  C   UNL     1      31.747   8.942  27.364  1.00  0.00     0.019 C 
ATOM      5  C   UNL     1      30.704   9.339  26.356  1.00  0.00    -0.068 C 
ATOM      6  C   UNL     1      30.884   9.337  25.028  1.00  0.00     0.009 C 
ATOM      7  C   UNL     1      31.376   7.518  27.822  1.00  0.00     0.008 C 
ATOM      8  C   UNL     1      30.122   7.754  28.692  1.00  0.00     0.005 C 
ATOM      9  C   UNL     1      28.271   8.729  26.570  1.00  0.00     0.016 C 
ENDROOT
BRANCH   3  10
ATOM     10  C   UNL     1      31.621  11.340  28.560  1.00  0.00    -0.032 C 
ATOM     11  C   UNL     1      32.664  11.632  29.677  1.00  0.00     0.011 C 
ATOM     12  C   UNL     1      32.291  11.865  27.258  1.00  0.00     0.011 C 
BRANCH  10  13
ATOM     13  C   UNL     1      30.365  12.200  28.917  1.00  0.00     0.007 CG0
ATOM     14  G   UNL     1      29.036  12.028  28.137  1.00  0.00     0.000 G0
ENDBRANCH  10  13
ENDBRANCH   3  10
BRANCH   1  15
ATOM     15  C   UNL     1      29.010  11.143  26.900  1.00  0.00     0.011 C 
BRANCH  15  16
ATOM     16  C   UNL     1      29.032  12.029  28.153  1.00  0.00     0.001 CG0
ATOM     17  G   UNL     1      30.367  12.208  28.922  1.00  0.00     0.000 G0
ENDBRANCH  15  16
ENDBRANCH   1  15
TORSDOF 0
ENDMDL
MODEL 5
REMARK VINA RESULT:    -3.927      1.941      4.696
REMARK INTER + INTRA:          -4.192
REMARK INTER:                  -4.872
REMARK INTRA:                   0.680
REMARK UNBOUND:                 0.653
REMARK SMILES C=C1[C@@H]2CC[C@H]3[C@@H]2C(C)(C)CCC[C@@]13C
REMARK SMILES IDX 14 1 6 2 7 3 3 4 2 5 1 6 4 7 5 8 15 9 8 10 9 11 10 12 11 13
REMARK SMILES IDX 13 15 12 16
REMARK H PARENT
REMARK Flexibility Score: 80.00
ROOT
ATOM      1  C   UNL     1      30.129  11.228  27.743  1.00  0.00    -0.008 C 
ATOM      2  C   UNL     1      29.937   9.893  28.552  1.00  0.00     0.003 C 
ATOM      3  C   UNL     1      31.249   9.773  29.343  1.00  0.00     0.006 C 
ATOM      4  C   UNL     1      32.125   9.853  28.092  1.00  0.00     0.019 C 
ATOM      5  C   UNL     1      31.602  11.099  27.433  1.00  0.00    -0.068 C 
ATOM      6  C   UNL     1      32.320  11.902  26.637  1.00  0.00     0.009 C 
ATOM      7  C   UNL     1      31.585   8.674  27.259  1.00  0.00     0.008 C 
ATOM      8  C   UNL     1      30.085   8.657  27.623  1.00  0.00     0.005 C 
ATOM      9  C   UNL     1      29.297  11.273  26.434  1.00  0.00     0.016 C 
ENDROOT
BRANCH   3  10
ATOM     10  C   UNL     1      31.529  10.795  30.532  1.00  0.00    -0.032 C 
ATOM     11  C   UNL     1      32.024   9.961  31.749  1.00  0.00     0.011 C 
ATOM     12  C   UNL     1      32.678  11.809  30.265  1.00  0.00     0.011 C 
BRANCH  10  13
ATOM     13  C   UNL     1      30.244  11.537  31.022  1.00  0.00     0.007 CG0
ATOM     14  G   UNL     1      29.358  12.332  30.028  1.00  0.00     0.000 G0
ENDBRANCH  10  13
ENDBRANCH   3  10
BRANCH   1  15
ATOM     15  C   UNL     1      29.849  12.523  28.582  1.00  0.00     0.011 C 
BRANCH  15  16
ATOM     16  C   UNL     1      29.349  12.326  30.019  1.00  0.00     0.001 CG0
ATOM     17  G   UNL     1      30.230  11.531  31.018  1.00  0.00     0.000 G0
ENDBRANCH  15  16
ENDBRANCH   1  15
TORSDOF 0
ENDMDL
MODEL 6
REMARK VINA RESULT:    -3.923      1.863      3.527
REMARK INTER + INTRA:          -4.188
REMARK INTER:                  -4.860
REMARK INTRA:                   0.672
REMARK UNBOUND:                 0.653
REMARK SMILES C=C1[C@@H]2CC[C@H]3[C@@H]2C(C)(C)CCC[C@@]13C
REMARK SMILES IDX 14 1 6 2 7 3 3 4 2 5 1 6 4 7 5 8 15 9 8 10 9 11 10 12 11 13
REMARK SMILES IDX 13 15 12 16
REMARK H PARENT
REMARK Flexibility Score: 80.00
ROOT
ATOM      1  C   UNL     1      30.005  10.819  30.890  1.00  0.00    -0.008 C 
ATOM      2  C   UNL     1      30.729  12.186  30.607  1.00  0.00     0.003 C 
ATOM      3  C   UNL     1      31.837  11.796  29.617  1.00  0.00     0.006 C 
ATOM      4  C   UNL     1      32.428  10.733  30.544  1.00  0.00     0.019 C 
ATOM      5  C   UNL     1      31.214   9.911  30.878  1.00  0.00    -0.068 C 
ATOM      6  C   UNL     1      31.234   8.610  31.195  1.00  0.00     0.009 C 
ATOM      7  C   UNL     1      32.742  11.561  31.805  1.00  0.00     0.008 C 
ATOM      8  C   UNL     1      31.606  12.607  31.819  1.00  0.00     0.005 C 
ATOM      9  C   UNL     1      29.301  10.774  32.271  1.00  0.00     0.016 C 
ENDROOT
BRANCH   3  10
ATOM     10  C   UNL     1      31.433  11.372  28.135  1.00  0.00    -0.032 C 
ATOM     11  C   UNL     1      32.376  12.138  27.164  1.00  0.00     0.011 C 
ATOM     12  C   UNL     1      31.666   9.871  27.799  1.00  0.00     0.011 C 
BRANCH  10  13
ATOM     13  C   UNL     1      29.981  11.803  27.746  1.00  0.00     0.007 CG0
ATOM     14  G   UNL     1      28.770  11.401  28.626  1.00  0.00     0.000 G0
ENDBRANCH  10  13
ENDBRANCH   3  10
BRANCH   1  15
ATOM     15  C   UNL     1      28.986  10.399  29.773  1.00  0.00     0.011 C 
BRANCH  15  16
ATOM     16  C   UNL     1      28.765  11.394  28.625  1.00  0.00     0.001 CG0
ATOM     17  G   UNL     1      29.975  11.814  27.752  1.00  0.00     0.000 G0
ENDBRANCH  15  16
ENDBRANCH   1  15
TORSDOF 0
ENDMDL
MODEL 7
REMARK VINA RESULT:    -3.899      1.934      3.874
REMARK INTER + INTRA:          -4.158
REMARK INTER:                  -4.815
REMARK INTRA:                   0.657
REMARK UNBOUND:                 0.653
REMARK SMILES C=C1[C@@H]2CC[C@H]3[C@@H]2C(C)(C)CCC[C@@]13C
REMARK SMILES IDX 14 1 6 2 7 3 3 4 2 5 1 6 4 7 5 8 15 9 8 10 9 11 10 12 11 13
REMARK SMILES IDX 13 15 12 16
REMARK H PARENT
REMARK Flexibility Score: 80.00
ROOT
ATOM      1  C   UNL     1      30.482  10.734  29.860  1.00  0.00    -0.008 C 
ATOM      2  C   UNL     1      31.975  10.338  30.154  1.00  0.00     0.003 C 
ATOM      3  C   UNL     1      31.941   9.921  31.633  1.00  0.00     0.006 C 
ATOM      4  C   UNL     1      31.340  11.249  32.095  1.00  0.00     0.019 C 
ATOM      5  C   UNL     1      30.149  11.377  31.186  1.00  0.00    -0.068 C 
ATOM      6  C   UNL     1      29.021  12.032  31.491  1.00  0.00     0.009 C 
ATOM      7  C   UNL     1      32.382  12.258  31.576  1.00  0.00     0.008 C 
ATOM      8  C   UNL     1      32.870  11.603  30.266  1.00  0.00     0.005 C 
ATOM      9  C   UNL     1      30.338  11.758  28.704  1.00  0.00     0.016 C 
ENDROOT
BRANCH   3  10
ATOM     10  C   UNL     1      31.199   8.570  32.036  1.00  0.00    -0.032 C 
ATOM     11  C   UNL     1      32.150   7.789  32.987  1.00  0.00     0.011 C 
ATOM     12  C   UNL     1      29.896   8.763  32.864  1.00  0.00     0.011 C 
BRANCH  10  13
ATOM     13  C   UNL     1      30.942   7.622  30.820  1.00  0.00     0.007 CG0
ATOM     14  G   UNL     1      30.199   8.131  29.558  1.00  0.00     0.000 G0
ENDBRANCH  10  13
ENDBRANCH   3  10
BRANCH   1  15
ATOM     15  C   UNL     1      29.543   9.506  29.588  1.00  0.00     0.011 C 
BRANCH  15  16
ATOM     16  C   UNL     1      30.202   8.121  29.556  1.00  0.00     0.001 CG0
ATOM     17  G   UNL     1      30.941   7.612  30.821  1.00  0.00     0.000 G0
ENDBRANCH  15  16
ENDBRANCH   1  15
TORSDOF 0
ENDMDL
MODEL 8
REMARK VINA RESULT:    -3.869      1.846      3.952
REMARK INTER + INTRA:          -4.121
REMARK INTER:                  -4.778
REMARK INTRA:                   0.657
REMARK UNBOUND:                 0.653
REMARK SMILES C=C1[C@@H]2CC[C@H]3[C@@H]2C(C)(C)CCC[C@@]13C
REMARK SMILES IDX 14 1 6 2 7 3 3 4 2 5 1 6 4 7 5 8 15 9 8 10 9 11 10 12 11 13
REMARK SMILES IDX 13 15 12 16
REMARK H PARENT
REMARK Flexibility Score: 80.00
ROOT
ATOM      1  C   UNL     1      30.183  11.202  30.709  1.00  0.00    -0.008 C 
ATOM      2  C   UNL     1      29.592   9.744  30.724  1.00  0.00     0.003 C 
ATOM      3  C   UNL     1      30.812   8.876  31.068  1.00  0.00     0.006 C 
ATOM      4  C   UNL     1      31.645   9.410  29.901  1.00  0.00     0.019 C 
ATOM      5  C   UNL     1      31.533  10.897  30.102  1.00  0.00    -0.068 C 
ATOM      6  C   UNL     1      32.454  11.791  29.721  1.00  0.00     0.009 C 
ATOM      7  C   UNL     1      30.743   9.075  28.698  1.00  0.00     0.008 C 
ATOM      8  C   UNL     1      29.321   9.243  29.278  1.00  0.00     0.005 C 
ATOM      9  C   UNL     1      29.384  12.175  29.803  1.00  0.00     0.016 C 
ENDROOT
BRANCH   3  10
ATOM     10  C   UNL     1      31.425   8.955  32.536  1.00  0.00    -0.032 C 
ATOM     11  C   UNL     1      31.639   7.494  33.025  1.00  0.00     0.011 C 
ATOM     12  C   UNL     1      32.837   9.603  32.621  1.00  0.00     0.011 C 
BRANCH  10  13
ATOM     13  C   UNL     1      30.456   9.611  33.573  1.00  0.00     0.007 CG0
ATOM     14  G   UNL     1      29.843  11.011  33.312  1.00  0.00     0.000 G0
ENDBRANCH  10  13
ENDBRANCH   3  10
BRANCH   1  15
ATOM     15  C   UNL     1      30.345  11.834  32.135  1.00  0.00     0.011 C 
BRANCH  15  16
ATOM     16  C   UNL     1      29.834  11.009  33.323  1.00  0.00     0.001 CG0
ATOM     17  G   UNL     1      30.449   9.610  33.587  1.00  0.00     0.000 G0
ENDBRANCH  15  16
ENDBRANCH   1  15
TORSDOF 0
ENDMDL
MODEL 9
REMARK VINA RESULT:    -3.845      1.926      4.683
REMARK INTER + INTRA:          -4.091
REMARK INTER:                  -4.755
REMARK INTRA:                   0.664
REMARK UNBOUND:                 0.653
REMARK SMILES C=C1[C@@H]2CC[C@H]3[C@@H]2C(C)(C)CCC[C@@]13C
REMARK SMILES IDX 14 1 6 2 7 3 3 4 2 5 1 6 4 7 5 8 15 9 8 10 9 11 10 12 11 13
REMARK SMILES IDX 13 15 12 16
REMARK H PARENT
REMARK Flexibility Score: 80.00
ROOT
ATOM      1  C   UNL     1      29.997  10.313  28.339  1.00  0.00    -0.008 C 
ATOM      2  C   UNL     1      31.563  10.176  28.292  1.00  0.00     0.003 C 
ATOM      3  C   UNL     1      32.042  11.313  29.207  1.00  0.00     0.006 C 
ATOM      4  C   UNL     1      31.291  12.391  28.423  1.00  0.00     0.019 C 
ATOM      5  C   UNL     1      29.900  11.821  28.377  1.00  0.00    -0.068 C 
ATOM      6  C   UNL     1      28.778  12.548  28.296  1.00  0.00     0.009 C 
ATOM      7  C   UNL     1      31.874  12.208  27.009  1.00  0.00     0.008 C 
ATOM      8  C   UNL     1      32.123  10.686  26.935  1.00  0.00     0.005 C 
ATOM      9  C   UNL     1      29.297   9.752  27.074  1.00  0.00     0.016 C 
ENDROOT
BRANCH   3  10
ATOM     10  C   UNL     1      31.788  11.200  30.776  1.00  0.00    -0.032 C 
ATOM     11  C   UNL     1      33.123  11.565  31.486  1.00  0.00     0.011 C 
ATOM     12  C   UNL     1      30.756  12.215  31.345  1.00  0.00     0.011 C 
BRANCH  10  13
ATOM     13  C   UNL     1      31.444   9.747  31.240  1.00  0.00     0.007 CG0
ATOM     14  G   UNL     1      30.277   8.960  30.589  1.00  0.00     0.000 G0
ENDBRANCH  10  13
ENDBRANCH   3  10
BRANCH   1  15
ATOM     15  C   UNL     1      29.344   9.683  29.618  1.00  0.00     0.011 C 
BRANCH  15  16
ATOM     16  C   UNL     1      30.282   8.957  30.591  1.00  0.00     0.001 CG0
ATOM     17  G   UNL     1      31.455   9.743  31.231  1.00  0.00     0.000 G0
ENDBRANCH  15  16
ENDBRANCH   1  15
TORSDOF 0
ENDMDL
