MODEL 1
REMARK VINA RESULT:    -3.814      0.000      0.000
REMARK INTER + INTRA:          -4.604
REMARK INTER:                  -4.483
REMARK INTRA:                  -0.121
REMARK UNBOUND:                -0.121
REMARK SMILES O=C([O-])CCC(=O)[O-]
REMARK SMILES IDX 4 1 2 2 1 3 3 4 5 5 6 6 7 7 8 8
REMARK H PARENT
REMARK Flexibility Score: inf
ROOT
ATOM      1  C   UNL     1     -30.952 -12.042   0.184  1.00  0.00     0.059 C 
ENDROOT
BRANCH   1   2
ATOM      2  C   UNL     1     -29.878 -11.407   1.015  1.00  0.00     0.042 C 
ATOM      3  O   UNL     1     -30.169 -10.838   2.100  1.00  0.00    -0.550 OA
ATOM      4  O   UNL     1     -28.563 -11.411   0.569  1.00  0.00    -0.550 OA
ENDBRANCH   1   2
BRANCH   1   5
ATOM      5  C   UNL     1     -30.450 -12.386  -1.221  1.00  0.00     0.059 C 
BRANCH   5   6
ATOM      6  C   UNL     1     -30.235 -13.859  -1.386  1.00  0.00     0.042 C 
ATOM      7  O   UNL     1     -30.993 -14.530  -2.136  1.00  0.00    -0.550 OA
ATOM      8  O   UNL     1     -29.174 -14.484  -0.743  1.00  0.00    -0.550 OA
ENDBRANCH   5   6
ENDBRANCH   1   5
TORSDOF 3
ENDMDL
MODEL 2
REMARK VINA RESULT:    -3.714      0.138      3.832
REMARK INTER + INTRA:          -4.487
REMARK INTER:                  -4.420
REMARK INTRA:                  -0.067
REMARK UNBOUND:                -0.121
REMARK SMILES O=C([O-])CCC(=O)[O-]
REMARK SMILES IDX 4 1 2 2 1 3 3 4 5 5 6 6 7 7 8 8
REMARK H PARENT
REMARK Flexibility Score: inf
ROOT
ATOM      1  C   UNL     1     -30.522 -12.285  -1.182  1.00  0.00     0.059 C 
ENDROOT
BRANCH   1   2
ATOM      2  C   UNL     1     -30.277 -13.753  -1.357  1.00  0.00     0.042 C 
ATOM      3  O   UNL     1     -29.283 -14.300  -0.811  1.00  0.00    -0.550 OA
ATOM      4  O   UNL     1     -31.125 -14.507  -2.158  1.00  0.00    -0.550 OA
ENDBRANCH   1   2
BRANCH   1   5
ATOM      5  C   UNL     1     -30.950 -11.952   0.251  1.00  0.00     0.059 C 
BRANCH   5   6
ATOM      6  C   UNL     1     -29.822 -11.359   1.040  1.00  0.00     0.042 C 
ATOM      7  O   UNL     1     -30.054 -10.758   2.122  1.00  0.00    -0.550 OA
ATOM      8  O   UNL     1     -28.512 -11.507   0.602  1.00  0.00    -0.550 OA
ENDBRANCH   5   6
ENDBRANCH   1   5
TORSDOF 3
ENDMDL
MODEL 3
REMARK VINA RESULT:    -3.111     14.444     15.678
REMARK INTER + INTRA:          -3.777
REMARK INTER:                  -3.689
REMARK INTRA:                  -0.088
REMARK UNBOUND:                -0.121
REMARK SMILES O=C([O-])CCC(=O)[O-]
REMARK SMILES IDX 4 1 2 2 1 3 3 4 5 5 6 6 7 7 8 8
REMARK H PARENT
REMARK Flexibility Score: inf
ROOT
ATOM      1  C   UNL     1     -15.770  -8.102  -2.948  1.00  0.00     0.059 C 
ENDROOT
BRANCH   1   2
ATOM      2  C   UNL     1     -14.616  -9.001  -3.274  1.00  0.00     0.042 C 
ATOM      3  O   UNL     1     -13.436  -8.564  -3.218  1.00  0.00    -0.550 OA
ATOM      4  O   UNL     1     -14.848 -10.309  -3.680  1.00  0.00    -0.550 OA
ENDBRANCH   1   2
BRANCH   1   5
ATOM      5  C   UNL     1     -16.525  -8.582  -1.704  1.00  0.00     0.059 C 
BRANCH   5   6
ATOM      6  C   UNL     1     -16.394  -7.611  -0.570  1.00  0.00     0.042 C 
ATOM      7  O   UNL     1     -15.505  -6.720  -0.600  1.00  0.00    -0.550 OA
ATOM      8  O   UNL     1     -17.279  -7.665   0.498  1.00  0.00    -0.550 OA
ENDBRANCH   5   6
ENDBRANCH   1   5
TORSDOF 3
ENDMDL
MODEL 4
REMARK VINA RESULT:    -3.105     14.411     15.310
REMARK INTER + INTRA:          -3.771
REMARK INTER:                  -3.696
REMARK INTRA:                  -0.075
REMARK UNBOUND:                -0.121
REMARK SMILES O=C([O-])CCC(=O)[O-]
REMARK SMILES IDX 4 1 2 2 1 3 3 4 5 5 6 6 7 7 8 8
REMARK H PARENT
REMARK Flexibility Score: inf
ROOT
ATOM      1  C   UNL     1     -16.538  -8.589  -1.753  1.00  0.00     0.059 C 
ENDROOT
BRANCH   1   2
ATOM      2  C   UNL     1     -16.406  -7.618  -0.619  1.00  0.00     0.042 C 
ATOM      3  O   UNL     1     -15.474  -6.771  -0.616  1.00  0.00    -0.550 OA
ATOM      4  O   UNL     1     -17.288  -7.677   0.452  1.00  0.00    -0.550 OA
ENDBRANCH   1   2
BRANCH   1   5
ATOM      5  C   UNL     1     -15.728  -8.144  -2.974  1.00  0.00     0.059 C 
BRANCH   5   6
ATOM      6  C   UNL     1     -14.672  -9.146  -3.330  1.00  0.00     0.042 C 
ATOM      7  O   UNL     1     -13.460  -8.804  -3.364  1.00  0.00    -0.550 OA
ATOM      8  O   UNL     1     -15.022 -10.466  -3.586  1.00  0.00    -0.550 OA
ENDBRANCH   5   6
ENDBRANCH   1   5
TORSDOF 3
ENDMDL
MODEL 5
REMARK VINA RESULT:    -3.049     14.508     15.395
REMARK INTER + INTRA:          -3.705
REMARK INTER:                  -3.606
REMARK INTRA:                  -0.099
REMARK UNBOUND:                -0.121
REMARK SMILES O=C([O-])CCC(=O)[O-]
REMARK SMILES IDX 4 1 2 2 1 3 3 4 5 5 6 6 7 7 8 8
REMARK H PARENT
REMARK Flexibility Score: inf
ROOT
ATOM      1  C   UNL     1     -16.519  -8.552  -1.778  1.00  0.00     0.059 C 
ENDROOT
BRANCH   1   2
ATOM      2  C   UNL     1     -16.377  -7.632  -0.604  1.00  0.00     0.042 C 
ATOM      3  O   UNL     1     -17.199  -7.687   0.348  1.00  0.00    -0.550 OA
ATOM      4  O   UNL     1     -15.360  -6.686  -0.583  1.00  0.00    -0.550 OA
ENDBRANCH   1   2
BRANCH   1   5
ATOM      5  C   UNL     1     -15.693  -8.072  -2.975  1.00  0.00     0.059 C 
BRANCH   5   6
ATOM      6  C   UNL     1     -14.543  -8.991  -3.256  1.00  0.00     0.042 C 
ATOM      7  O   UNL     1     -13.362  -8.613  -3.032  1.00  0.00    -0.550 OA
ATOM      8  O   UNL     1     -14.777 -10.276  -3.728  1.00  0.00    -0.550 OA
ENDBRANCH   5   6
ENDBRANCH   1   5
TORSDOF 3
ENDMDL
MODEL 6
REMARK VINA RESULT:    -2.932     14.709     15.912
REMARK INTER + INTRA:          -3.567
REMARK INTER:                  -3.460
REMARK INTRA:                  -0.107
REMARK UNBOUND:                -0.121
REMARK SMILES O=C([O-])CCC(=O)[O-]
REMARK SMILES IDX 4 1 2 2 1 3 3 4 5 5 6 6 7 7 8 8
REMARK H PARENT
REMARK Flexibility Score: inf
ROOT
ATOM      1  C   UNL     1     -14.784  -8.355  -2.790  1.00  0.00     0.059 C 
ENDROOT
BRANCH   1   2
ATOM      2  C   UNL     1     -14.845  -7.708  -4.140  1.00  0.00     0.042 C 
ATOM      3  O   UNL     1     -14.775  -8.409  -5.184  1.00  0.00    -0.550 OA
ATOM      4  O   UNL     1     -14.936  -6.326  -4.244  1.00  0.00    -0.550 OA
ENDBRANCH   1   2
BRANCH   1   5
ATOM      5  C   UNL     1     -16.172  -8.455  -2.149  1.00  0.00     0.059 C 
BRANCH   5   6
ATOM      6  C   UNL     1     -16.243  -7.687  -0.864  1.00  0.00     0.042 C 
ATOM      7  O   UNL     1     -15.443  -6.739  -0.649  1.00  0.00    -0.550 OA
ATOM      8  O   UNL     1     -17.218  -7.993   0.076  1.00  0.00    -0.550 OA
ENDBRANCH   5   6
ENDBRANCH   1   5
TORSDOF 3
ENDMDL
MODEL 7
REMARK VINA RESULT:    -2.873     14.799     15.732
REMARK INTER + INTRA:          -3.497
REMARK INTER:                  -3.376
REMARK INTRA:                  -0.121
REMARK UNBOUND:                -0.121
REMARK SMILES O=C([O-])CCC(=O)[O-]
REMARK SMILES IDX 4 1 2 2 1 3 3 4 5 5 6 6 7 7 8 8
REMARK H PARENT
REMARK Flexibility Score: inf
ROOT
ATOM      1  C   UNL     1     -16.147  -8.510  -2.310  1.00  0.00     0.059 C 
ENDROOT
BRANCH   1   2
ATOM      2  C   UNL     1     -16.147  -7.724  -1.033  1.00  0.00     0.042 C 
ATOM      3  O   UNL     1     -15.261  -6.854  -0.825  1.00  0.00    -0.550 OA
ATOM      4  O   UNL     1     -17.101  -7.984  -0.058  1.00  0.00    -0.550 OA
ENDBRANCH   1   2
BRANCH   1   5
ATOM      5  C   UNL     1     -14.768  -8.503  -2.977  1.00  0.00     0.059 C 
BRANCH   5   6
ATOM      6  C   UNL     1     -14.791  -7.770  -4.284  1.00  0.00     0.042 C 
ATOM      7  O   UNL     1     -14.885  -6.515  -4.304  1.00  0.00    -0.550 OA
ATOM      8  O   UNL     1     -14.668  -8.471  -5.477  1.00  0.00    -0.550 OA
ENDBRANCH   5   6
ENDBRANCH   1   5
TORSDOF 3
ENDMDL
MODEL 8
REMARK VINA RESULT:    -2.773     14.993     16.051
REMARK INTER + INTRA:          -3.381
REMARK INTER:                  -3.260
REMARK INTRA:                  -0.121
REMARK UNBOUND:                -0.121
REMARK SMILES O=C([O-])CCC(=O)[O-]
REMARK SMILES IDX 4 1 2 2 1 3 3 4 5 5 6 6 7 7 8 8
REMARK H PARENT
REMARK Flexibility Score: inf
ROOT
ATOM      1  C   UNL     1     -16.122 -13.638  -6.161  1.00  0.00     0.059 C 
ENDROOT
BRANCH   1   2
ATOM      2  C   UNL     1     -15.523 -14.874  -6.762  1.00  0.00     0.042 C 
ATOM      3  O   UNL     1     -14.277 -15.051  -6.737  1.00  0.00    -0.550 OA
ATOM      4  O   UNL     1     -16.340 -15.808  -7.385  1.00  0.00    -0.550 OA
ENDBRANCH   1   2
BRANCH   1   5
ATOM      5  C   UNL     1     -16.336 -13.791  -4.651  1.00  0.00     0.059 C 
BRANCH   5   6
ATOM      6  C   UNL     1     -15.199 -13.204  -3.870  1.00  0.00     0.042 C 
ATOM      7  O   UNL     1     -14.245 -13.936  -3.495  1.00  0.00    -0.550 OA
ATOM      8  O   UNL     1     -15.175 -11.844  -3.593  1.00  0.00    -0.550 OA
ENDBRANCH   5   6
ENDBRANCH   1   5
TORSDOF 3
ENDMDL
MODEL 9
REMARK VINA RESULT:    -2.743     14.918     15.519
REMARK INTER + INTRA:          -3.345
REMARK INTER:                  -3.191
REMARK INTRA:                  -0.154
REMARK UNBOUND:                -0.121
REMARK SMILES O=C([O-])CCC(=O)[O-]
REMARK SMILES IDX 4 1 2 2 1 3 3 4 5 5 6 6 7 7 8 8
REMARK H PARENT
REMARK Flexibility Score: inf
ROOT
ATOM      1  C   UNL     1     -15.738 -14.130  -3.956  1.00  0.00     0.059 C 
ENDROOT
BRANCH   1   2
ATOM      2  C   UNL     1     -14.747 -13.021  -3.775  1.00  0.00     0.042 C 
ATOM      3  O   UNL     1     -13.547 -13.282  -3.493  1.00  0.00    -0.550 OA
ATOM      4  O   UNL     1     -15.158 -11.698  -3.877  1.00  0.00    -0.550 OA
ENDBRANCH   1   2
BRANCH   1   5
ATOM      5  C   UNL     1     -16.733 -13.820  -5.079  1.00  0.00     0.059 C 
BRANCH   5   6
ATOM      6  C   UNL     1     -16.096 -13.941  -6.430  1.00  0.00     0.042 C 
ATOM      7  O   UNL     1     -15.911 -12.915  -7.137  1.00  0.00    -0.550 OA
ATOM      8  O   UNL     1     -15.670 -15.180  -6.890  1.00  0.00    -0.550 OA
ENDBRANCH   5   6
ENDBRANCH   1   5
TORSDOF 3
ENDMDL
