MODEL 1
REMARK VINA RESULT:    -5.833      0.000      0.000
REMARK INTER + INTRA:          -7.311
REMARK INTER:                  -7.026
REMARK INTRA:                  -0.285
REMARK UNBOUND:                -0.285
REMARK SMILES O=c1c(O)c(-c2ccc(O)c(O)c2)oc2cc(O)cc(O)c12
REMARK SMILES IDX 5 1 3 2 2 3 1 4 22 5 20 6 19 7 17 8 16 9 15 10 14 11 6 12
REMARK SMILES IDX 7 13 8 14 9 15 13 16 11 17 10 18 12 20 4 22 21 24 18 26
REMARK H PARENT 10 19 12 21 4 23 21 25 18 27
REMARK Flexibility Score: inf
ROOT
ATOM      1  C   UNL     1     156.075 150.545 142.985  1.00  0.00     0.180 A 
ATOM      2  C   UNL     1     157.260 150.710 143.724  1.00  0.00     0.208 A 
ATOM      3  C   UNL     1     158.190 149.658 143.761  1.00  0.00     0.238 A 
ATOM      4  O   UNL     1     159.224 149.790 144.467  1.00  0.00    -0.285 OA
ATOM      5  C   UNL     1     157.932 148.463 143.046  1.00  0.00     0.111 A 
ATOM      6  C   UNL     1     158.822 147.350 142.981  1.00  0.00     0.134 A 
ATOM      7  C   UNL     1     158.406 146.169 142.352  1.00  0.00     0.093 A 
ATOM      8  C   UNL     1     157.161 146.083 141.732  1.00  0.00     0.123 A 
ATOM      9  C   UNL     1     156.305 147.187 141.739  1.00  0.00     0.094 A 
ATOM     10  C   UNL     1     156.678 148.366 142.388  1.00  0.00     0.146 A 
ATOM     11  O   UNL     1     155.831 149.389 142.380  1.00  0.00    -0.452 OA
ENDROOT
BRANCH   1  12
ATOM     12  C   UNL     1     155.058 151.617 142.879  1.00  0.00     0.025 A 
ATOM     13  C   UNL     1     155.257 152.734 142.050  1.00  0.00     0.016 A 
ATOM     14  C   UNL     1     154.274 153.721 141.946  1.00  0.00     0.051 A 
ATOM     15  C   UNL     1     153.074 153.602 142.656  1.00  0.00     0.157 A 
ATOM     16  C   UNL     1     153.845 151.491 143.575  1.00  0.00     0.062 A 
ATOM     17  C   UNL     1     152.856 152.480 143.472  1.00  0.00     0.158 A 
BRANCH  15  18
ATOM     18  O   UNL     1     152.112 154.605 142.533  1.00  0.00    -0.504 OA
ATOM     19  H   UNL     1     151.222 154.442 142.077  1.00  0.00     0.293 HD
ENDBRANCH  15  18
BRANCH  17  20
ATOM     20  O   UNL     1     151.660 152.351 144.177  1.00  0.00    -0.504 OA
ATOM     21  H   UNL     1     151.164 153.160 144.531  1.00  0.00     0.293 HD
ENDBRANCH  17  20
ENDBRANCH   1  12
BRANCH   2  22
ATOM     22  O   UNL     1     157.485 151.889 144.439  1.00  0.00    -0.502 OA
ATOM     23  H   UNL     1     157.067 152.773 144.175  1.00  0.00     0.293 HD
ENDBRANCH   2  22
BRANCH   6  24
ATOM     24  O   UNL     1     160.125 147.361 143.488  1.00  0.00    -0.507 OA
ATOM     25  H   UNL     1     160.519 148.104 144.044  1.00  0.00     0.293 HD
ENDBRANCH   6  24
BRANCH   8  26
ATOM     26  O   UNL     1     156.786 144.898 141.103  1.00  0.00    -0.508 OA
ATOM     27  H   UNL     1     156.339 144.900 140.193  1.00  0.00     0.293 HD
ENDBRANCH   8  26
TORSDOF 6
ENDMDL
MODEL 2
REMARK VINA RESULT:    -5.741      2.887      8.310
REMARK INTER + INTRA:          -7.200
REMARK INTER:                  -6.897
REMARK INTRA:                  -0.303
REMARK UNBOUND:                -0.285
REMARK SMILES O=c1c(O)c(-c2ccc(O)c(O)c2)oc2cc(O)cc(O)c12
REMARK SMILES IDX 5 1 3 2 2 3 1 4 22 5 20 6 19 7 17 8 16 9 15 10 14 11 6 12
REMARK SMILES IDX 7 13 8 14 9 15 13 16 11 17 10 18 12 20 4 22 21 24 18 26
REMARK H PARENT 10 19 12 21 4 23 21 25 18 27
REMARK Flexibility Score: inf
ROOT
ATOM      1  C   UNL     1     152.619 153.024 142.557  1.00  0.00     0.180 A 
ATOM      2  C   UNL     1     152.581 154.190 141.773  1.00  0.00     0.208 A 
ATOM      3  C   UNL     1     151.349 154.833 141.570  1.00  0.00     0.238 A 
ATOM      4  O   UNL     1     151.311 155.846 140.823  1.00  0.00    -0.285 OA
ATOM      5  C   UNL     1     150.175 154.312 142.167  1.00  0.00     0.111 A 
ATOM      6  C   UNL     1     148.881 154.905 142.062  1.00  0.00     0.134 A 
ATOM      7  C   UNL     1     147.769 154.232 142.585  1.00  0.00     0.093 A 
ATOM      8  C   UNL     1     147.912 153.023 143.263  1.00  0.00     0.123 A 
ATOM      9  C   UNL     1     149.181 152.464 143.424  1.00  0.00     0.094 A 
ATOM     10  C   UNL     1     150.304 153.093 142.883  1.00  0.00     0.146 A 
ATOM     11  O   UNL     1     151.492 152.523 143.048  1.00  0.00    -0.452 OA
ENDROOT
BRANCH   1  12
ATOM     12  C   UNL     1     153.884 152.304 142.835  1.00  0.00     0.025 A 
ATOM     13  C   UNL     1     154.276 151.192 142.070  1.00  0.00     0.016 A 
ATOM     14  C   UNL     1     155.484 150.543 142.335  1.00  0.00     0.051 A 
ATOM     15  C   UNL     1     156.325 151.000 143.355  1.00  0.00     0.157 A 
ATOM     16  C   UNL     1     154.739 152.773 143.846  1.00  0.00     0.062 A 
ATOM     17  C   UNL     1     155.953 152.124 144.112  1.00  0.00     0.158 A 
BRANCH  15  18
ATOM     18  O   UNL     1     157.524 150.331 143.596  1.00  0.00    -0.504 OA
ATOM     19  H   UNL     1     158.357 150.506 143.047  1.00  0.00     0.293 HD
ENDBRANCH  15  18
BRANCH  17  20
ATOM     20  O   UNL     1     156.789 152.589 145.127  1.00  0.00    -0.504 OA
ATOM     21  H   UNL     1     157.797 152.516 145.058  1.00  0.00     0.293 HD
ENDBRANCH  17  20
ENDBRANCH   1  12
BRANCH   2  22
ATOM     22  O   UNL     1     153.747 154.675 141.175  1.00  0.00    -0.502 OA
ATOM     23  H   UNL     1     153.970 154.506 140.202  1.00  0.00     0.293 HD
ENDBRANCH   2  22
BRANCH   6  24
ATOM     24  O   UNL     1     148.639 156.155 141.484  1.00  0.00    -0.507 OA
ATOM     25  H   UNL     1     147.860 156.752 141.712  1.00  0.00     0.293 HD
ENDBRANCH   6  24
BRANCH   8  26
ATOM     26  O   UNL     1     146.786 152.390 143.784  1.00  0.00    -0.508 OA
ATOM     27  H   UNL     1     146.699 152.191 144.774  1.00  0.00     0.293 HD
ENDBRANCH   8  26
TORSDOF 6
ENDMDL
MODEL 3
REMARK VINA RESULT:    -5.672      2.499      7.780
REMARK INTER + INTRA:          -7.117
REMARK INTER:                  -6.812
REMARK INTRA:                  -0.305
REMARK UNBOUND:                -0.285
REMARK SMILES O=c1c(O)c(-c2ccc(O)c(O)c2)oc2cc(O)cc(O)c12
REMARK SMILES IDX 5 1 3 2 2 3 1 4 22 5 20 6 19 7 17 8 16 9 15 10 14 11 6 12
REMARK SMILES IDX 7 13 8 14 9 15 13 16 11 17 10 18 12 20 4 22 21 24 18 26
REMARK H PARENT 10 19 12 21 4 23 21 25 18 27
REMARK Flexibility Score: inf
ROOT
ATOM      1  C   UNL     1     153.902 152.086 143.248  1.00  0.00     0.180 A 
ATOM      2  C   UNL     1     152.783 151.259 143.449  1.00  0.00     0.208 A 
ATOM      3  C   UNL     1     151.512 151.736 143.089  1.00  0.00     0.238 A 
ATOM      4  O   UNL     1     150.508 151.013 143.321  1.00  0.00    -0.285 OA
ATOM      5  C   UNL     1     151.378 153.025 142.519  1.00  0.00     0.111 A 
ATOM      6  C   UNL     1     150.144 153.592 142.080  1.00  0.00     0.134 A 
ATOM      7  C   UNL     1     150.111 154.925 141.652  1.00  0.00     0.093 A 
ATOM      8  C   UNL     1     151.274 155.690 141.585  1.00  0.00     0.123 A 
ATOM      9  C   UNL     1     152.496 155.126 141.955  1.00  0.00     0.094 A 
ATOM     10  C   UNL     1     152.556 153.810 142.420  1.00  0.00     0.146 A 
ATOM     11  O   UNL     1     153.737 153.315 142.773  1.00  0.00    -0.452 OA
ENDROOT
BRANCH   1  12
ATOM     12  C   UNL     1     155.277 151.645 143.579  1.00  0.00     0.025 A 
ATOM     13  C   UNL     1     155.877 151.980 144.806  1.00  0.00     0.016 A 
ATOM     14  C   UNL     1     157.165 151.533 145.108  1.00  0.00     0.051 A 
ATOM     15  C   UNL     1     157.868 150.735 144.200  1.00  0.00     0.157 A 
ATOM     16  C   UNL     1     155.977 150.827 142.678  1.00  0.00     0.062 A 
ATOM     17  C   UNL     1     157.270 150.377 142.980  1.00  0.00     0.158 A 
BRANCH  15  18
ATOM     18  O   UNL     1     159.153 150.304 144.528  1.00  0.00    -0.504 OA
ATOM     19  H   UNL     1     159.555 150.462 145.445  1.00  0.00     0.293 HD
ENDBRANCH  15  18
BRANCH  17  20
ATOM     20  O   UNL     1     157.963 149.576 142.072  1.00  0.00    -0.504 OA
ATOM     21  H   UNL     1     158.535 149.978 141.339  1.00  0.00     0.293 HD
ENDBRANCH  17  20
ENDBRANCH   1  12
BRANCH   2  22
ATOM     22  O   UNL     1     152.936 150.000 144.033  1.00  0.00    -0.502 OA
ATOM     23  H   UNL     1     153.806 149.482 143.992  1.00  0.00     0.293 HD
ENDBRANCH   2  22
BRANCH   6  24
ATOM     24  O   UNL     1     148.938 152.887 142.019  1.00  0.00    -0.507 OA
ATOM     25  H   UNL     1     148.809 151.940 142.342  1.00  0.00     0.293 HD
ENDBRANCH   6  24
BRANCH   8  26
ATOM     26  O   UNL     1     151.206 157.008 141.139  1.00  0.00    -0.508 OA
ATOM     27  H   UNL     1     151.793 157.343 140.384  1.00  0.00     0.293 HD
ENDBRANCH   8  26
TORSDOF 6
ENDMDL
MODEL 4
REMARK VINA RESULT:    -5.545      2.439      7.216
REMARK INTER + INTRA:          -6.964
REMARK INTER:                  -6.668
REMARK INTRA:                  -0.296
REMARK UNBOUND:                -0.285
REMARK SMILES O=c1c(O)c(-c2ccc(O)c(O)c2)oc2cc(O)cc(O)c12
REMARK SMILES IDX 5 1 3 2 2 3 1 4 22 5 20 6 19 7 17 8 16 9 15 10 14 11 6 12
REMARK SMILES IDX 7 13 8 14 9 15 13 16 11 17 10 18 12 20 4 22 21 24 18 26
REMARK H PARENT 10 19 12 21 4 23 21 25 18 27
REMARK Flexibility Score: inf
ROOT
ATOM      1  C   UNL     1     154.063 152.256 143.001  1.00  0.00     0.180 A 
ATOM      2  C   UNL     1     153.877 153.592 142.604  1.00  0.00     0.208 A 
ATOM      3  C   UNL     1     152.588 154.023 142.251  1.00  0.00     0.238 A 
ATOM      4  O   UNL     1     152.436 155.205 141.845  1.00  0.00    -0.285 OA
ATOM      5  C   UNL     1     151.500 153.120 142.315  1.00  0.00     0.111 A 
ATOM      6  C   UNL     1     150.146 153.461 142.019  1.00  0.00     0.134 A 
ATOM      7  C   UNL     1     149.172 152.454 141.990  1.00  0.00     0.093 A 
ATOM      8  C   UNL     1     149.489 151.135 142.308  1.00  0.00     0.123 A 
ATOM      9  C   UNL     1     150.799 150.801 142.656  1.00  0.00     0.094 A 
ATOM     10  C   UNL     1     151.799 151.776 142.660  1.00  0.00     0.146 A 
ATOM     11  O   UNL     1     153.035 151.416 142.987  1.00  0.00    -0.452 OA
ENDROOT
BRANCH   1  12
ATOM     12  C   UNL     1     155.386 151.733 143.411  1.00  0.00     0.025 A 
ATOM     13  C   UNL     1     155.920 152.007 144.682  1.00  0.00     0.016 A 
ATOM     14  C   UNL     1     157.159 151.483 145.056  1.00  0.00     0.051 A 
ATOM     15  C   UNL     1     157.878 150.668 144.175  1.00  0.00     0.157 A 
ATOM     16  C   UNL     1     156.102 150.899 142.536  1.00  0.00     0.062 A 
ATOM     17  C   UNL     1     157.346 150.371 142.910  1.00  0.00     0.158 A 
BRANCH  15  18
ATOM     18  O   UNL     1     159.114 150.161 144.577  1.00  0.00    -0.504 OA
ATOM     19  H   UNL     1     159.985 150.489 144.178  1.00  0.00     0.293 HD
ENDBRANCH  15  18
BRANCH  17  20
ATOM     20  O   UNL     1     158.054 149.555 142.029  1.00  0.00    -0.504 OA
ATOM     21  H   UNL     1     158.985 149.798 141.712  1.00  0.00     0.293 HD
ENDBRANCH  17  20
ENDBRANCH   1  12
BRANCH   2  22
ATOM     22  O   UNL     1     154.968 154.461 142.527  1.00  0.00    -0.502 OA
ATOM     23  H   UNL     1     155.891 154.151 142.248  1.00  0.00     0.293 HD
ENDBRANCH   2  22
BRANCH   6  24
ATOM     24  O   UNL     1     149.703 154.765 141.778  1.00  0.00    -0.507 OA
ATOM     25  H   UNL     1     149.760 155.523 142.440  1.00  0.00     0.293 HD
ENDBRANCH   6  24
BRANCH   8  26
ATOM     26  O   UNL     1     148.491 150.163 142.283  1.00  0.00    -0.508 OA
ATOM     27  H   UNL     1     148.222 149.701 141.421  1.00  0.00     0.293 HD
ENDBRANCH   8  26
TORSDOF 6
ENDMDL
MODEL 5
REMARK VINA RESULT:    -5.502      3.870      7.034
REMARK INTER + INTRA:          -6.913
REMARK INTER:                  -6.691
REMARK INTRA:                  -0.222
REMARK UNBOUND:                -0.285
REMARK SMILES O=c1c(O)c(-c2ccc(O)c(O)c2)oc2cc(O)cc(O)c12
REMARK SMILES IDX 5 1 3 2 2 3 1 4 22 5 20 6 19 7 17 8 16 9 15 10 14 11 6 12
REMARK SMILES IDX 7 13 8 14 9 15 13 16 11 17 10 18 12 20 4 22 21 24 18 26
REMARK H PARENT 10 19 12 21 4 23 21 25 18 27
REMARK Flexibility Score: inf
ROOT
ATOM      1  C   UNL     1     155.899 144.996 142.130  1.00  0.00     0.180 A 
ATOM      2  C   UNL     1     156.381 143.721 142.472  1.00  0.00     0.208 A 
ATOM      3  C   UNL     1     155.492 142.634 142.469  1.00  0.00     0.238 A 
ATOM      4  O   UNL     1     155.916 141.504 142.829  1.00  0.00    -0.285 OA
ATOM      5  C   UNL     1     154.137 142.832 142.109  1.00  0.00     0.111 A 
ATOM      6  C   UNL     1     153.159 141.796 142.033  1.00  0.00     0.134 A 
ATOM      7  C   UNL     1     151.820 142.128 141.792  1.00  0.00     0.093 A 
ATOM      8  C   UNL     1     151.434 143.447 141.561  1.00  0.00     0.123 A 
ATOM      9  C   UNL     1     152.393 144.462 141.575  1.00  0.00     0.094 A 
ATOM     10  C   UNL     1     153.731 144.167 141.847  1.00  0.00     0.146 A 
ATOM     11  O   UNL     1     154.610 145.162 141.861  1.00  0.00    -0.452 OA
ENDROOT
BRANCH   1  12
ATOM     12  C   UNL     1     156.781 146.186 142.087  1.00  0.00     0.025 A 
ATOM     13  C   UNL     1     157.792 146.313 141.119  1.00  0.00     0.016 A 
ATOM     14  C   UNL     1     158.595 147.454 141.082  1.00  0.00     0.051 A 
ATOM     15  C   UNL     1     158.394 148.491 141.998  1.00  0.00     0.157 A 
ATOM     16  C   UNL     1     156.568 147.237 142.994  1.00  0.00     0.062 A 
ATOM     17  C   UNL     1     157.373 148.385 142.957  1.00  0.00     0.158 A 
BRANCH  15  18
ATOM     18  O   UNL     1     159.214 149.619 141.938  1.00  0.00    -0.504 OA
ATOM     19  H   UNL     1     160.022 149.729 142.538  1.00  0.00     0.293 HD
ENDBRANCH  15  18
BRANCH  17  20
ATOM     20  O   UNL     1     157.163 149.417 143.871  1.00  0.00    -0.504 OA
ATOM     21  H   UNL     1     157.302 149.282 144.865  1.00  0.00     0.293 HD
ENDBRANCH  17  20
ENDBRANCH   1  12
BRANCH   2  22
ATOM     22  O   UNL     1     157.717 143.551 142.846  1.00  0.00    -0.502 OA
ATOM     23  H   UNL     1     158.487 143.879 142.276  1.00  0.00     0.293 HD
ENDBRANCH   2  22
BRANCH   6  24
ATOM     24  O   UNL     1     153.452 140.435 142.156  1.00  0.00    -0.507 OA
ATOM     25  H   UNL     1     153.223 139.733 141.469  1.00  0.00     0.293 HD
ENDBRANCH   6  24
BRANCH   8  26
ATOM     26  O   UNL     1     150.095 143.739 141.310  1.00  0.00    -0.508 OA
ATOM     27  H   UNL     1     149.371 143.036 141.413  1.00  0.00     0.293 HD
ENDBRANCH   8  26
TORSDOF 6
ENDMDL
MODEL 6
REMARK VINA RESULT:    -5.458      1.695      7.475
REMARK INTER + INTRA:          -6.860
REMARK INTER:                  -6.650
REMARK INTRA:                  -0.210
REMARK UNBOUND:                -0.285
REMARK SMILES O=c1c(O)c(-c2ccc(O)c(O)c2)oc2cc(O)cc(O)c12
REMARK SMILES IDX 5 1 3 2 2 3 1 4 22 5 20 6 19 7 17 8 16 9 15 10 14 11 6 12
REMARK SMILES IDX 7 13 8 14 9 15 13 16 11 17 10 18 12 20 4 22 21 24 18 26
REMARK H PARENT 10 19 12 21 4 23 21 25 18 27
REMARK Flexibility Score: inf
ROOT
ATOM      1  C   UNL     1     155.413 151.503 142.793  1.00  0.00     0.180 A 
ATOM      2  C   UNL     1     154.085 151.110 143.032  1.00  0.00     0.208 A 
ATOM      3  C   UNL     1     153.067 152.075 142.956  1.00  0.00     0.238 A 
ATOM      4  O   UNL     1     151.886 151.729 143.224  1.00  0.00    -0.285 OA
ATOM      5  C   UNL     1     153.387 153.414 142.627  1.00  0.00     0.111 A 
ATOM      6  C   UNL     1     152.431 154.463 142.484  1.00  0.00     0.134 A 
ATOM      7  C   UNL     1     152.873 155.778 142.284  1.00  0.00     0.093 A 
ATOM      8  C   UNL     1     154.230 156.070 142.159  1.00  0.00     0.123 A 
ATOM      9  C   UNL     1     155.171 155.042 142.239  1.00  0.00     0.094 A 
ATOM     10  C   UNL     1     154.763 153.727 142.473  1.00  0.00     0.146 A 
ATOM     11  O   UNL     1     155.690 152.779 142.552  1.00  0.00    -0.452 OA
ENDROOT
BRANCH   1  12
ATOM     12  C   UNL     1     156.538 150.540 142.831  1.00  0.00     0.025 A 
ATOM     13  C   UNL     1     156.653 149.512 141.880  1.00  0.00     0.016 A 
ATOM     14  C   UNL     1     157.735 148.630 141.920  1.00  0.00     0.051 A 
ATOM     15  C   UNL     1     158.725 148.767 142.898  1.00  0.00     0.157 A 
ATOM     16  C   UNL     1     157.544 150.688 143.800  1.00  0.00     0.062 A 
ATOM     17  C   UNL     1     158.631 149.804 143.842  1.00  0.00     0.158 A 
BRANCH  15  18
ATOM     18  O   UNL     1     159.793 147.870 142.914  1.00  0.00    -0.504 OA
ATOM     19  H   UNL     1     160.712 148.135 143.248  1.00  0.00     0.293 HD
ENDBRANCH  15  18
BRANCH  17  20
ATOM     20  O   UNL     1     159.617 149.952 144.817  1.00  0.00    -0.504 OA
ATOM     21  H   UNL     1     160.516 150.367 144.603  1.00  0.00     0.293 HD
ENDBRANCH  17  20
ENDBRANCH   1  12
BRANCH   2  22
ATOM     22  O   UNL     1     153.794 149.788 143.376  1.00  0.00    -0.502 OA
ATOM     23  H   UNL     1     154.501 149.143 143.708  1.00  0.00     0.293 HD
ENDBRANCH   2  22
BRANCH   6  24
ATOM     24  O   UNL     1     151.047 154.267 142.500  1.00  0.00    -0.507 OA
ATOM     25  H   UNL     1     150.595 153.369 142.578  1.00  0.00     0.293 HD
ENDBRANCH   6  24
BRANCH   8  26
ATOM     26  O   UNL     1     154.633 157.386 141.946  1.00  0.00    -0.508 OA
ATOM     27  H   UNL     1     155.552 157.606 141.577  1.00  0.00     0.293 HD
ENDBRANCH   8  26
TORSDOF 6
ENDMDL
MODEL 7
REMARK VINA RESULT:    -5.432      4.035      7.370
REMARK INTER + INTRA:          -6.828
REMARK INTER:                  -6.526
REMARK INTRA:                  -0.302
REMARK UNBOUND:                -0.285
REMARK SMILES O=c1c(O)c(-c2ccc(O)c(O)c2)oc2cc(O)cc(O)c12
REMARK SMILES IDX 5 1 3 2 2 3 1 4 22 5 20 6 19 7 17 8 16 9 15 10 14 11 6 12
REMARK SMILES IDX 7 13 8 14 9 15 13 16 11 17 10 18 12 20 4 22 21 24 18 26
REMARK H PARENT 10 19 12 21 4 23 21 25 18 27
REMARK Flexibility Score: inf
ROOT
ATOM      1  C   UNL     1     150.490 154.674 142.582  1.00  0.00     0.180 A 
ATOM      2  C   UNL     1     149.617 153.678 143.051  1.00  0.00     0.208 A 
ATOM      3  C   UNL     1     150.126 152.396 143.315  1.00  0.00     0.238 A 
ATOM      4  O   UNL     1     149.329 151.493 143.683  1.00  0.00    -0.285 OA
ATOM      5  C   UNL     1     151.504 152.131 143.124  1.00  0.00     0.111 A 
ATOM      6  C   UNL     1     152.134 150.881 143.398  1.00  0.00     0.134 A 
ATOM      7  C   UNL     1     153.477 150.694 143.048  1.00  0.00     0.093 A 
ATOM      8  C   UNL     1     154.228 151.729 142.494  1.00  0.00     0.123 A 
ATOM      9  C   UNL     1     153.637 152.974 142.276  1.00  0.00     0.094 A 
ATOM     10  C   UNL     1     152.290 153.181 142.582  1.00  0.00     0.146 A 
ATOM     11  O   UNL     1     151.763 154.378 142.349  1.00  0.00    -0.452 OA
ENDROOT
BRANCH   1  12
ATOM     12  C   UNL     1     150.033 156.055 142.304  1.00  0.00     0.025 A 
ATOM     13  C   UNL     1     149.396 156.385 141.095  1.00  0.00     0.016 A 
ATOM     14  C   UNL     1     148.951 157.689 140.864  1.00  0.00     0.051 A 
ATOM     15  C   UNL     1     149.121 158.678 141.838  1.00  0.00     0.157 A 
ATOM     16  C   UNL     1     150.184 157.046 143.288  1.00  0.00     0.062 A 
ATOM     17  C   UNL     1     149.737 158.355 143.058  1.00  0.00     0.158 A 
BRANCH  15  18
ATOM     18  O   UNL     1     148.667 159.971 141.578  1.00  0.00    -0.504 OA
ATOM     19  H   UNL     1     148.360 160.592 142.317  1.00  0.00     0.293 HD
ENDBRANCH  15  18
BRANCH  17  20
ATOM     20  O   UNL     1     149.904 159.334 144.037  1.00  0.00    -0.504 OA
ATOM     21  H   UNL     1     150.358 159.130 144.919  1.00  0.00     0.293 HD
ENDBRANCH  17  20
ENDBRANCH   1  12
BRANCH   2  22
ATOM     22  O   UNL     1     148.257 153.954 143.212  1.00  0.00    -0.502 OA
ATOM     23  H   UNL     1     147.643 154.145 142.429  1.00  0.00     0.293 HD
ENDBRANCH   2  22
BRANCH   6  24
ATOM     24  O   UNL     1     151.500 149.809 144.034  1.00  0.00    -0.507 OA
ATOM     25  H   UNL     1     151.897 149.273 144.790  1.00  0.00     0.293 HD
ENDBRANCH   6  24
BRANCH   8  26
ATOM     26  O   UNL     1     155.566 151.511 142.172  1.00  0.00    -0.508 OA
ATOM     27  H   UNL     1     155.920 150.581 141.977  1.00  0.00     0.293 HD
ENDBRANCH   8  26
TORSDOF 6
ENDMDL
MODEL 8
REMARK VINA RESULT:    -5.426      2.723      8.487
REMARK INTER + INTRA:          -6.822
REMARK INTER:                  -6.519
REMARK INTRA:                  -0.302
REMARK UNBOUND:                -0.285
REMARK SMILES O=c1c(O)c(-c2ccc(O)c(O)c2)oc2cc(O)cc(O)c12
REMARK SMILES IDX 5 1 3 2 2 3 1 4 22 5 20 6 19 7 17 8 16 9 15 10 14 11 6 12
REMARK SMILES IDX 7 13 8 14 9 15 13 16 11 17 10 18 12 20 4 22 21 24 18 26
REMARK H PARENT 10 19 12 21 4 23 21 25 18 27
REMARK Flexibility Score: inf
ROOT
ATOM      1  C   UNL     1     152.525 152.503 142.854  1.00  0.00     0.180 A 
ATOM      2  C   UNL     1     151.391 151.885 143.408  1.00  0.00     0.208 A 
ATOM      3  C   UNL     1     150.149 152.534 143.314  1.00  0.00     0.238 A 
ATOM      4  O   UNL     1     149.146 152.003 143.859  1.00  0.00    -0.285 OA
ATOM      5  C   UNL     1     150.054 153.784 142.654  1.00  0.00     0.111 A 
ATOM      6  C   UNL     1     148.841 154.510 142.466  1.00  0.00     0.134 A 
ATOM      7  C   UNL     1     148.886 155.797 141.914  1.00  0.00     0.093 A 
ATOM      8  C   UNL     1     150.088 156.356 141.485  1.00  0.00     0.123 A 
ATOM      9  C   UNL     1     151.274 155.629 141.610  1.00  0.00     0.094 A 
ATOM     10  C   UNL     1     151.266 154.358 142.190  1.00  0.00     0.146 A 
ATOM     11  O   UNL     1     152.417 153.705 142.300  1.00  0.00    -0.452 OA
ENDROOT
BRANCH   1  12
ATOM     12  C   UNL     1     153.864 151.870 142.892  1.00  0.00     0.025 A 
ATOM     13  C   UNL     1     154.217 150.850 141.992  1.00  0.00     0.016 A 
ATOM     14  C   UNL     1     155.493 150.284 142.030  1.00  0.00     0.051 A 
ATOM     15  C   UNL     1     156.440 150.735 142.955  1.00  0.00     0.157 A 
ATOM     16  C   UNL     1     154.823 152.335 143.806  1.00  0.00     0.062 A 
ATOM     17  C   UNL     1     156.106 151.769 143.846  1.00  0.00     0.158 A 
BRANCH  15  18
ATOM     18  O   UNL     1     157.706 150.150 142.969  1.00  0.00    -0.504 OA
ATOM     19  H   UNL     1     158.540 150.679 143.195  1.00  0.00     0.293 HD
ENDBRANCH  15  18
BRANCH  17  20
ATOM     20  O   UNL     1     157.047 152.228 144.766  1.00  0.00    -0.504 OA
ATOM     21  H   UNL     1     157.936 151.760 144.894  1.00  0.00     0.293 HD
ENDBRANCH  17  20
ENDBRANCH   1  12
BRANCH   2  22
ATOM     22  O   UNL     1     151.510 150.663 144.074  1.00  0.00    -0.502 OA
ATOM     23  H   UNL     1     150.833 149.917 143.967  1.00  0.00     0.293 HD
ENDBRANCH   2  22
BRANCH   6  24
ATOM     24  O   UNL     1     147.573 154.007 142.775  1.00  0.00    -0.507 OA
ATOM     25  H   UNL     1     147.402 153.154 143.284  1.00  0.00     0.293 HD
ENDBRANCH   6  24
BRANCH   8  26
ATOM     26  O   UNL     1     150.093 157.632 140.926  1.00  0.00    -0.508 OA
ATOM     27  H   UNL     1     149.696 157.811 140.010  1.00  0.00     0.293 HD
ENDBRANCH   8  26
TORSDOF 6
ENDMDL
