MODEL 1
REMARK VINA RESULT:    -6.960      0.000      0.000
REMARK INTER + INTRA:         -11.513
REMARK INTER:                 -10.622
REMARK INTRA:                  -0.891
REMARK UNBOUND:                -0.891
REMARK SMILES C[C@@H]1O[C@H](Oc2c(-c3ccc(O)cc3)oc3cc(O[C@@H]4O[C@@H](C)[C@@H](O)[C@@H](O)[C@H]4O)cc(O)c3c2=O)[C@H](O)[C@@H](O)[C@@H]1O
REMARK SMILES IDX 18 1 30 2 31 3 33 4 16 5 17 6 15 7 7 8 6 9 34 10 35 11 19 12
REMARK SMILES IDX 20 13 23 14 22 15 24 16 21 17 26 18 28 19 25 20 27 22 29 24
REMARK SMILES IDX 32 26 8 28 9 29 14 30 10 31 13 32 11 33 12 34 5 36 4 37
REMARK SMILES IDX 36 38 3 39 38 40 2 41 40 42 1 43 37 44 39 46 41 48
REMARK H PARENT 25 21 27 23 29 25 32 27 12 35 37 45 39 47 41 49
REMARK Flexibility Score: inf
ROOT
ATOM      1  C   UNL     1      16.092  -0.190   6.448  1.00  0.00     0.130 A 
ATOM      2  C   UNL     1      14.837  -0.690   6.840  1.00  0.00     0.093 A 
ATOM      3  C   UNL     1      13.708  -0.512   6.026  1.00  0.00     0.134 A 
ATOM      4  C   UNL     1      13.828   0.177   4.795  1.00  0.00     0.111 A 
ATOM      5  C   UNL     1      15.091   0.674   4.410  1.00  0.00     0.146 A 
ATOM      6  C   UNL     1      16.204   0.489   5.233  1.00  0.00     0.094 A 
ATOM      7  O   UNL     1      15.241   1.322   3.262  1.00  0.00    -0.452 OA
ATOM      8  C   UNL     1      14.241   1.559   2.420  1.00  0.00     0.180 A 
ATOM      9  C   UNL     1      12.940   1.101   2.716  1.00  0.00     0.214 A 
ATOM     10  C   UNL     1      12.738   0.398   3.925  1.00  0.00     0.239 A 
ATOM     11  O   UNL     1      11.592  -0.023   4.229  1.00  0.00    -0.285 OA
ENDROOT
BRANCH   1  12
ATOM     12  O   UNL     1      17.249  -0.331   7.232  1.00  0.00    -0.462 OA
BRANCH  12  13
ATOM     13  C   UNL     1      18.315   0.620   7.339  1.00  0.00     0.339 C 
ATOM     14  C   UNL     1      20.764  -1.125   5.210  1.00  0.00     0.042 C 
ATOM     15  C   UNL     1      19.876  -0.887   6.431  1.00  0.00     0.151 C 
ATOM     16  C   UNL     1      20.683  -1.009   7.745  1.00  0.00     0.174 C 
ATOM     17  O   UNL     1      19.281   0.398   6.320  1.00  0.00    -0.335 OA
ATOM     18  C   UNL     1      19.736  -0.741   8.929  1.00  0.00     0.180 C 
ATOM     19  C   UNL     1      18.969   0.585   8.743  1.00  0.00     0.214 C 
BRANCH  16  20
ATOM     20  O   UNL     1      21.744  -0.084   7.755  1.00  0.00    -0.388 OA
ATOM     21  H   UNL     1      22.561  -0.579   8.025  1.00  0.00     0.211 HD
ENDBRANCH  16  20
BRANCH  18  22
ATOM     22  O   UNL     1      20.414  -0.784  10.162  1.00  0.00    -0.387 OA
ATOM     23  H   UNL     1      21.205  -1.375  10.061  1.00  0.00     0.211 HD
ENDBRANCH  18  22
BRANCH  19  24
ATOM     24  O   UNL     1      19.841   1.677   8.885  1.00  0.00    -0.384 OA
ATOM     25  H   UNL     1      19.502   2.219   9.644  1.00  0.00     0.211 HD
ENDBRANCH  19  24
ENDBRANCH  12  13
ENDBRANCH   1  12
BRANCH   3  26
ATOM     26  O   UNL     1      12.478  -1.019   6.449  1.00  0.00    -0.507 OA
ATOM     27  H   UNL     1      11.776  -0.428   6.880  1.00  0.00     0.293 HD
ENDBRANCH   3  26
BRANCH   8  28
ATOM     28  C   UNL     1      14.556   2.259   1.154  1.00  0.00     0.021 A 
ATOM     29  C   UNL     1      15.005   3.592   1.143  1.00  0.00     0.016 A 
ATOM     30  C   UNL     1      14.438   1.568  -0.063  1.00  0.00     0.016 A 
ATOM     31  C   UNL     1      15.292   4.232  -0.066  1.00  0.00     0.047 A 
ATOM     32  C   UNL     1      14.727   2.210  -1.271  1.00  0.00     0.047 A 
ATOM     33  C   UNL     1      15.150   3.542  -1.278  1.00  0.00     0.115 A 
BRANCH  33  34
ATOM     34  O   UNL     1      15.429   4.170  -2.490  1.00  0.00    -0.508 OA
ATOM     35  H   UNL     1      15.010   5.059  -2.734  1.00  0.00     0.293 HD
ENDBRANCH  33  34
ENDBRANCH   8  28
BRANCH   9  36
ATOM     36  O   UNL     1      11.912   1.356   1.787  1.00  0.00    -0.454 OA
BRANCH  36  37
ATOM     37  C   UNL     1      10.771   0.534   1.527  1.00  0.00     0.339 C 
ATOM     38  C   UNL     1      10.828  -0.010   0.091  1.00  0.00     0.214 C 
ATOM     39  O   UNL     1       9.548   1.211   1.795  1.00  0.00    -0.335 OA
ATOM     40  C   UNL     1      10.626   1.129  -0.914  1.00  0.00     0.180 C 
ATOM     41  C   UNL     1       9.258   2.279   0.901  1.00  0.00     0.151 C 
ATOM     42  C   UNL     1       9.315   1.857  -0.590  1.00  0.00     0.174 C 
ATOM     43  C   UNL     1      10.062   3.547   1.226  1.00  0.00     0.042 C 
BRANCH  38  44
ATOM     44  O   UNL     1      12.072  -0.627  -0.120  1.00  0.00    -0.384 OA
ATOM     45  H   UNL     1      12.622   0.005  -0.651  1.00  0.00     0.211 HD
ENDBRANCH  38  44
BRANCH  40  46
ATOM     46  O   UNL     1      10.565   0.596  -2.213  1.00  0.00    -0.387 OA
ATOM     47  H   UNL     1       9.713   0.908  -2.614  1.00  0.00     0.211 HD
ENDBRANCH  40  46
BRANCH  42  48
ATOM     48  O   UNL     1       9.174   2.973  -1.432  1.00  0.00    -0.388 OA
ATOM     49  H   UNL     1       8.203   3.174  -1.480  1.00  0.00     0.211 HD
ENDBRANCH  42  48
ENDBRANCH  36  37
ENDBRANCH   9  36
TORSDOF 13
ENDMDL
MODEL 2
REMARK VINA RESULT:    -5.882      1.687      2.836
REMARK INTER + INTRA:          -9.867
REMARK INTER:                  -9.755
REMARK INTRA:                  -0.113
REMARK UNBOUND:                -0.891
REMARK SMILES C[C@@H]1O[C@H](Oc2c(-c3ccc(O)cc3)oc3cc(O[C@@H]4O[C@@H](C)[C@@H](O)[C@@H](O)[C@H]4O)cc(O)c3c2=O)[C@H](O)[C@@H](O)[C@@H]1O
REMARK SMILES IDX 18 1 30 2 31 3 33 4 16 5 17 6 15 7 7 8 6 9 34 10 35 11 19 12
REMARK SMILES IDX 20 13 23 14 22 15 24 16 21 17 26 18 28 19 25 20 27 22 29 24
REMARK SMILES IDX 32 26 8 28 9 29 14 30 10 31 13 32 11 33 12 34 5 36 4 37
REMARK SMILES IDX 36 38 3 39 38 40 2 41 40 42 1 43 37 44 39 46 41 48
REMARK H PARENT 25 21 27 23 29 25 32 27 12 35 37 45 39 47 41 49
REMARK Flexibility Score: inf
ROOT
ATOM      1  C   UNL     1      15.080  -0.702   4.630  1.00  0.00     0.130 A 
ATOM      2  C   UNL     1      13.794  -1.038   5.089  1.00  0.00     0.093 A 
ATOM      3  C   UNL     1      12.650  -0.584   4.415  1.00  0.00     0.134 A 
ATOM      4  C   UNL     1      12.787   0.222   3.258  1.00  0.00     0.111 A 
ATOM      5  C   UNL     1      14.082   0.552   2.805  1.00  0.00     0.146 A 
ATOM      6  C   UNL     1      15.209   0.092   3.490  1.00  0.00     0.094 A 
ATOM      7  O   UNL     1      14.248   1.302   1.724  1.00  0.00    -0.452 OA
ATOM      8  C   UNL     1      13.240   1.798   1.015  1.00  0.00     0.180 A 
ATOM      9  C   UNL     1      11.907   1.523   1.388  1.00  0.00     0.214 A 
ATOM     10  C   UNL     1      11.686   0.719   2.529  1.00  0.00     0.239 A 
ATOM     11  O   UNL     1      10.513   0.454   2.899  1.00  0.00    -0.285 OA
ENDROOT
BRANCH   1  12
ATOM     12  O   UNL     1      16.255  -1.122   5.277  1.00  0.00    -0.462 OA
BRANCH  12  13
ATOM     13  C   UNL     1      16.610  -0.848   6.638  1.00  0.00     0.339 C 
ATOM     14  C   UNL     1      16.432   2.829   6.477  1.00  0.00     0.042 C 
ATOM     15  C   UNL     1      16.976   1.430   6.183  1.00  0.00     0.151 C 
ATOM     16  C   UNL     1      18.496   1.350   6.451  1.00  0.00     0.174 C 
ATOM     17  O   UNL     1      16.271   0.489   6.979  1.00  0.00    -0.335 OA
ATOM     18  C   UNL     1      18.973  -0.084   6.153  1.00  0.00     0.180 C 
ATOM     19  C   UNL     1      18.112  -1.125   6.898  1.00  0.00     0.214 C 
BRANCH  16  20
ATOM     20  O   UNL     1      18.774   1.684   7.789  1.00  0.00    -0.388 OA
ATOM     21  H   UNL     1      18.849   0.833   8.295  1.00  0.00     0.211 HD
ENDBRANCH  16  20
BRANCH  18  22
ATOM     22  O   UNL     1      20.344  -0.247   6.426  1.00  0.00    -0.387 OA
ATOM     23  H   UNL     1      20.448  -1.009   7.053  1.00  0.00     0.211 HD
ENDBRANCH  18  22
BRANCH  19  24
ATOM     24  O   UNL     1      18.369  -1.072   8.279  1.00  0.00    -0.384 OA
ATOM     25  H   UNL     1      18.112  -1.954   8.654  1.00  0.00     0.211 HD
ENDBRANCH  19  24
ENDBRANCH  12  13
ENDBRANCH   1  12
BRANCH   3  26
ATOM     26  O   UNL     1      11.389  -0.934   4.901  1.00  0.00    -0.507 OA
ATOM     27  H   UNL     1      11.187  -0.958   5.894  1.00  0.00     0.293 HD
ENDBRANCH   3  26
BRANCH   8  28
ATOM     28  C   UNL     1      13.568   2.587  -0.193  1.00  0.00     0.021 A 
ATOM     29  C   UNL     1      12.745   2.564  -1.334  1.00  0.00     0.016 A 
ATOM     30  C   UNL     1      14.708   3.408  -0.192  1.00  0.00     0.016 A 
ATOM     31  C   UNL     1      13.080   3.315  -2.464  1.00  0.00     0.047 A 
ATOM     32  C   UNL     1      15.040   4.160  -1.322  1.00  0.00     0.047 A 
ATOM     33  C   UNL     1      14.232   4.113  -2.462  1.00  0.00     0.115 A 
BRANCH  33  34
ATOM     34  O   UNL     1      14.577   4.865  -3.582  1.00  0.00    -0.508 OA
ATOM     35  H   UNL     1      15.401   5.454  -3.591  1.00  0.00     0.293 HD
ENDBRANCH  33  34
ENDBRANCH   8  28
BRANCH   9  36
ATOM     36  O   UNL     1      10.867   2.050   0.598  1.00  0.00    -0.454 OA
BRANCH  36  37
ATOM     37  C   UNL     1       9.544   2.376   1.032  1.00  0.00     0.339 C 
ATOM     38  C   UNL     1       8.691   2.823  -0.166  1.00  0.00     0.214 C 
ATOM     39  O   UNL     1       9.543   3.338   2.079  1.00  0.00    -0.335 OA
ATOM     40  C   UNL     1       9.187   4.174  -0.693  1.00  0.00     0.180 C 
ATOM     41  C   UNL     1       9.971   4.637   1.686  1.00  0.00     0.151 C 
ATOM     42  C   UNL     1       9.199   5.188   0.459  1.00  0.00     0.174 C 
ATOM     43  C   UNL     1      11.499   4.734   1.562  1.00  0.00     0.042 C 
BRANCH  38  44
ATOM     44  O   UNL     1       8.768   1.851  -1.178  1.00  0.00    -0.384 OA
ATOM     45  H   UNL     1       7.873   1.803  -1.601  1.00  0.00     0.211 HD
ENDBRANCH  38  44
BRANCH  40  46
ATOM     46  O   UNL     1       8.325   4.620  -1.709  1.00  0.00    -0.387 OA
ATOM     47  H   UNL     1       7.899   3.813  -2.102  1.00  0.00     0.211 HD
ENDBRANCH  40  46
BRANCH  42  48
ATOM     48  O   UNL     1       9.758   6.398   0.017  1.00  0.00    -0.388 OA
ATOM     49  H   UNL     1       9.000   7.010  -0.176  1.00  0.00     0.211 HD
ENDBRANCH  42  48
ENDBRANCH  36  37
ENDBRANCH   9  36
TORSDOF 13
ENDMDL
MODEL 3
REMARK VINA RESULT:    -4.434      0.885      1.837
REMARK INTER + INTRA:          -7.658
REMARK INTER:                  -7.094
REMARK INTRA:                  -0.564
REMARK UNBOUND:                -0.891
REMARK SMILES C[C@@H]1O[C@H](Oc2c(-c3ccc(O)cc3)oc3cc(O[C@@H]4O[C@@H](C)[C@@H](O)[C@@H](O)[C@H]4O)cc(O)c3c2=O)[C@H](O)[C@@H](O)[C@@H]1O
REMARK SMILES IDX 18 1 30 2 31 3 33 4 16 5 17 6 15 7 7 8 6 9 34 10 35 11 19 12
REMARK SMILES IDX 20 13 23 14 22 15 24 16 21 17 26 18 28 19 25 20 27 22 29 24
REMARK SMILES IDX 32 26 8 28 9 29 14 30 10 31 13 32 11 33 12 34 5 36 4 37
REMARK SMILES IDX 36 38 3 39 38 40 2 41 40 42 1 43 37 44 39 46 41 48
REMARK H PARENT 25 21 27 23 29 25 32 27 12 35 37 45 39 47 41 49
REMARK Flexibility Score: inf
ROOT
ATOM      1  C   UNL     1      15.710  -0.329   6.663  1.00  0.00     0.130 A 
ATOM      2  C   UNL     1      14.430  -0.812   6.987  1.00  0.00     0.093 A 
ATOM      3  C   UNL     1      13.350  -0.627   6.110  1.00  0.00     0.134 A 
ATOM      4  C   UNL     1      13.546   0.053   4.884  1.00  0.00     0.111 A 
ATOM      5  C   UNL     1      14.835   0.533   4.567  1.00  0.00     0.146 A 
ATOM      6  C   UNL     1      15.898   0.341   5.453  1.00  0.00     0.094 A 
ATOM      7  O   UNL     1      15.056   1.173   3.426  1.00  0.00    -0.452 OA
ATOM      8  C   UNL     1      14.108   1.415   2.528  1.00  0.00     0.180 A 
ATOM      9  C   UNL     1      12.787   0.975   2.753  1.00  0.00     0.214 A 
ATOM     10  C   UNL     1      12.510   0.281   3.953  1.00  0.00     0.239 A 
ATOM     11  O   UNL     1      11.344  -0.125   4.195  1.00  0.00    -0.285 OA
ENDROOT
BRANCH   1  12
ATOM     12  O   UNL     1      16.820  -0.478   7.511  1.00  0.00    -0.462 OA
BRANCH  12  13
ATOM     13  C   UNL     1      18.082  -1.055   7.154  1.00  0.00     0.339 C 
ATOM     14  C   UNL     1      19.981   0.003  10.130  1.00  0.00     0.042 C 
ATOM     15  C   UNL     1      19.216   0.164   8.816  1.00  0.00     0.151 C 
ATOM     16  C   UNL     1      20.016   1.010   7.800  1.00  0.00     0.174 C 
ATOM     17  O   UNL     1      18.933  -1.125   8.290  1.00  0.00    -0.335 OA
ATOM     18  C   UNL     1      19.199   1.118   6.498  1.00  0.00     0.180 C 
ATOM     19  C   UNL     1      18.757  -0.274   6.000  1.00  0.00     0.214 C 
BRANCH  16  20
ATOM     20  O   UNL     1      21.263   0.413   7.540  1.00  0.00    -0.388 OA
ATOM     21  H   UNL     1      21.833   0.566   8.338  1.00  0.00     0.211 HD
ENDBRANCH  16  20
BRANCH  18  22
ATOM     22  O   UNL     1      19.890   1.834   5.504  1.00  0.00    -0.387 OA
ATOM     23  H   UNL     1      19.836   1.322   4.656  1.00  0.00     0.211 HD
ENDBRANCH  18  22
BRANCH  19  24
ATOM     24  O   UNL     1      19.865  -0.996   5.525  1.00  0.00    -0.384 OA
ATOM     25  H   UNL     1      19.764  -1.927   5.854  1.00  0.00     0.211 HD
ENDBRANCH  19  24
ENDBRANCH  12  13
ENDBRANCH   1  12
BRANCH   3  26
ATOM     26  O   UNL     1      12.092  -1.117   6.466  1.00  0.00    -0.507 OA
ATOM     27  H   UNL     1      11.325  -1.149   5.804  1.00  0.00     0.293 HD
ENDBRANCH   3  26
BRANCH   8  28
ATOM     28  C   UNL     1      14.501   2.104   1.278  1.00  0.00     0.021 A 
ATOM     29  C   UNL     1      14.632   1.408   0.063  1.00  0.00     0.016 A 
ATOM     30  C   UNL     1      14.716   3.493   1.295  1.00  0.00     0.016 A 
ATOM     31  C   UNL     1      15.008   2.082  -1.102  1.00  0.00     0.047 A 
ATOM     32  C   UNL     1      15.091   4.165   0.128  1.00  0.00     0.047 A 
ATOM     33  C   UNL     1      15.243   3.463  -1.071  1.00  0.00     0.115 A 
BRANCH  33  34
ATOM     34  O   UNL     1      15.622   4.146  -2.225  1.00  0.00    -0.508 OA
ATOM     35  H   UNL     1      15.042   4.143  -3.056  1.00  0.00     0.293 HD
ENDBRANCH  33  34
ENDBRANCH   8  28
BRANCH   9  36
ATOM     36  O   UNL     1      11.816   1.235   1.767  1.00  0.00    -0.454 OA
BRANCH  36  37
ATOM     37  C   UNL     1      10.641   0.465   1.498  1.00  0.00     0.339 C 
ATOM     38  C   UNL     1      10.650  -0.021   0.040  1.00  0.00     0.214 C 
ATOM     39  O   UNL     1       9.449   1.171   1.820  1.00  0.00    -0.335 OA
ATOM     40  C   UNL     1      10.468   1.165  -0.913  1.00  0.00     0.180 C 
ATOM     41  C   UNL     1       9.178   2.285   0.977  1.00  0.00     0.151 C 
ATOM     42  C   UNL     1       9.190   1.924  -0.531  1.00  0.00     0.174 C 
ATOM     43  C   UNL     1      10.034   3.510   1.337  1.00  0.00     0.042 C 
BRANCH  38  44
ATOM     44  O   UNL     1      11.867  -0.672  -0.223  1.00  0.00    -0.384 OA
ATOM     45  H   UNL     1      11.644  -1.548  -0.632  1.00  0.00     0.211 HD
ENDBRANCH  38  44
BRANCH  40  46
ATOM     46  O   UNL     1      10.362   0.689  -2.230  1.00  0.00    -0.387 OA
ATOM     47  H   UNL     1      10.880  -0.157  -2.275  1.00  0.00     0.211 HD
ENDBRANCH  40  46
BRANCH  42  48
ATOM     48  O   UNL     1       9.071   3.078  -1.323  1.00  0.00    -0.388 OA
ATOM     49  H   UNL     1       9.540   2.888  -2.178  1.00  0.00     0.211 HD
ENDBRANCH  42  48
ENDBRANCH  36  37
ENDBRANCH   9  36
TORSDOF 13
ENDMDL
MODEL 4
REMARK VINA RESULT:    -4.088     15.702     19.897
REMARK INTER + INTRA:          -7.130
REMARK INTER:                  -7.309
REMARK INTRA:                   0.179
REMARK UNBOUND:                -0.891
REMARK SMILES C[C@@H]1O[C@H](Oc2c(-c3ccc(O)cc3)oc3cc(O[C@@H]4O[C@@H](C)[C@@H](O)[C@@H](O)[C@H]4O)cc(O)c3c2=O)[C@H](O)[C@@H](O)[C@@H]1O
REMARK SMILES IDX 18 1 30 2 31 3 33 4 16 5 17 6 15 7 7 8 6 9 34 10 35 11 19 12
REMARK SMILES IDX 20 13 23 14 22 15 24 16 21 17 26 18 28 19 25 20 27 22 29 24
REMARK SMILES IDX 32 26 8 28 9 29 14 30 10 31 13 32 11 33 12 34 5 36 4 37
REMARK SMILES IDX 36 38 3 39 38 40 2 41 40 42 1 43 37 44 39 46 41 48
REMARK H PARENT 25 21 27 23 29 25 32 27 12 35 37 45 39 47 41 49
REMARK Flexibility Score: inf
ROOT
ATOM      1  C   UNL     1      18.278  17.449   0.638  1.00  0.00     0.130 A 
ATOM      2  C   UNL     1      19.504  16.964   0.147  1.00  0.00     0.093 A 
ATOM      3  C   UNL     1      20.575  16.712   1.017  1.00  0.00     0.134 A 
ATOM      4  C   UNL     1      20.426  16.946   2.406  1.00  0.00     0.111 A 
ATOM      5  C   UNL     1      19.192  17.432   2.888  1.00  0.00     0.146 A 
ATOM      6  C   UNL     1      18.137  17.679   2.007  1.00  0.00     0.094 A 
ATOM      7  O   UNL     1      19.016  17.661   4.183  1.00  0.00    -0.452 OA
ATOM      8  C   UNL     1      19.963  17.470   5.095  1.00  0.00     0.180 A 
ATOM      9  C   UNL     1      21.231  16.985   4.712  1.00  0.00     0.214 A 
ATOM     10  C   UNL     1      21.458  16.719   3.342  1.00  0.00     0.239 A 
ATOM     11  O   UNL     1      22.576  16.291   2.957  1.00  0.00    -0.285 OA
ENDROOT
BRANCH   1  12
ATOM     12  O   UNL     1      17.181  17.729  -0.193  1.00  0.00    -0.462 OA
BRANCH  12  13
ATOM     13  C   UNL     1      16.296  16.762  -0.774  1.00  0.00     0.339 C 
ATOM     14  C   UNL     1      14.517  19.024  -3.075  1.00  0.00     0.042 C 
ATOM     15  C   UNL     1      14.947  18.433  -1.732  1.00  0.00     0.151 C 
ATOM     16  C   UNL     1      13.724  18.104  -0.845  1.00  0.00     0.174 C 
ATOM     17  O   UNL     1      15.726  17.271  -1.972  1.00  0.00    -0.335 OA
ATOM     18  C   UNL     1      14.226  17.498   0.479  1.00  0.00     0.180 C 
ATOM     19  C   UNL     1      15.196  16.326   0.225  1.00  0.00     0.214 C 
BRANCH  16  20
ATOM     20  O   UNL     1      12.875  17.194  -1.502  1.00  0.00    -0.388 OA
ATOM     21  H   UNL     1      13.230  16.284  -1.328  1.00  0.00     0.211 HD
ENDBRANCH  16  20
BRANCH  18  22
ATOM     22  O   UNL     1      13.162  17.124   1.320  1.00  0.00    -0.387 OA
ATOM     23  H   UNL     1      13.472  16.384   1.904  1.00  0.00     0.211 HD
ENDBRANCH  18  22
BRANCH  19  24
ATOM     24  O   UNL     1      14.500  15.221  -0.292  1.00  0.00    -0.384 OA
ATOM     25  H   UNL     1      13.638  15.169   0.196  1.00  0.00     0.211 HD
ENDBRANCH  19  24
ENDBRANCH  12  13
ENDBRANCH   1  12
BRANCH   3  26
ATOM     26  O   UNL     1      21.778  16.233   0.495  1.00  0.00    -0.507 OA
ATOM     27  H   UNL     1      21.938  16.165  -0.503  1.00  0.00     0.293 HD
ENDBRANCH   3  26
BRANCH   8  28
ATOM     28  C   UNL     1      19.619  17.728   6.512  1.00  0.00     0.021 A 
ATOM     29  C   UNL     1      20.190  18.796   7.225  1.00  0.00     0.016 A 
ATOM     30  C   UNL     1      18.674  16.908   7.151  1.00  0.00     0.016 A 
ATOM     31  C   UNL     1      19.851  19.015   8.563  1.00  0.00     0.047 A 
ATOM     32  C   UNL     1      18.335  17.130   8.489  1.00  0.00     0.047 A 
ATOM     33  C   UNL     1      18.924  18.179   9.200  1.00  0.00     0.115 A 
BRANCH  33  34
ATOM     34  O   UNL     1      18.580  18.385  10.534  1.00  0.00    -0.508 OA
ATOM     35  H   UNL     1      18.343  17.613  11.145  1.00  0.00     0.293 HD
ENDBRANCH  33  34
ENDBRANCH   8  28
BRANCH   9  36
ATOM     36  O   UNL     1      22.201  16.777   5.712  1.00  0.00    -0.454 OA
BRANCH  36  37
ATOM     37  C   UNL     1      23.042  17.768   6.308  1.00  0.00     0.339 C 
ATOM     38  C   UNL     1      23.788  18.553   5.217  1.00  0.00     0.214 C 
ATOM     39  O   UNL     1      23.930  17.212   7.271  1.00  0.00    -0.335 OA
ATOM     40  C   UNL     1      24.815  17.649   4.526  1.00  0.00     0.180 C 
ATOM     41  C   UNL     1      24.938  16.369   6.725  1.00  0.00     0.151 C 
ATOM     42  C   UNL     1      25.745  17.044   5.585  1.00  0.00     0.174 C 
ATOM     43  C   UNL     1      24.401  14.973   6.373  1.00  0.00     0.042 C 
BRANCH  38  44
ATOM     44  O   UNL     1      22.861  19.038   4.280  1.00  0.00    -0.384 OA
ATOM     45  H   UNL     1      23.177  19.936   3.999  1.00  0.00     0.211 HD
ENDBRANCH  38  44
BRANCH  40  46
ATOM     46  O   UNL     1      25.565  18.412   3.615  1.00  0.00    -0.387 OA
ATOM     47  H   UNL     1      25.986  17.775   2.981  1.00  0.00     0.211 HD
ENDBRANCH  40  46
BRANCH  42  48
ATOM     48  O   UNL     1      26.618  16.125   4.979  1.00  0.00    -0.388 OA
ATOM     49  H   UNL     1      26.626  16.336   4.009  1.00  0.00     0.211 HD
ENDBRANCH  42  48
ENDBRANCH  36  37
ENDBRANCH   9  36
TORSDOF 13
ENDMDL
