MODEL 1
REMARK VINA RESULT:     1.506      0.000      0.000
REMARK INTER + INTRA:           1.597
REMARK INTER:                   2.034
REMARK INTRA:                  -0.437
REMARK UNBOUND:                -0.437
REMARK SMILES CC[C@@H](CC[C@H](C)[C@H]1CC[C@@H]2[C@@H]3CC(=O)C4=CC(=O)CC[C@@]4(C)[C@H]3CC[C@]21C)C(C)C
REMARK SMILES IDX 4 1 3 2 2 3 1 4 29 5 30 6 31 7 5 8 6 9 7 10 8 11 9 12 27 13
REMARK SMILES IDX 10 14 11 15 26 16 28 17 12 18 25 19 24 20 13 21 22 22 14 23
REMARK SMILES IDX 16 24 21 25 23 26 15 27 17 28 20 29 18 30 19 31
REMARK H PARENT
REMARK Flexibility Score: inf
ROOT
ATOM      1  C   UNL     1      25.264 -12.012  36.692  1.00  0.00     0.004 C 
ENDROOT
BRANCH   1   2
ATOM      2  C   UNL     1      24.915 -10.520  36.947  1.00  0.00    -0.009 C 
BRANCH   2   3
ATOM      3  C   UNL     1      25.780  -9.905  38.090  1.00  0.00     0.000 C 
ATOM      4  C   UNL     1      27.294  -9.876  37.839  1.00  0.00     0.004 C 
ENDBRANCH   2   3
BRANCH   2   5
ATOM      5  C   UNL     1      23.378 -10.242  37.078  1.00  0.00    -0.014 C 
ATOM      6  C   UNL     1      22.667  -9.975  35.744  1.00  0.00     0.007 C 
ATOM      7  C   UNL     1      22.650 -11.359  37.847  1.00  0.00     0.007 C 
ENDBRANCH   2   5
ENDBRANCH   1   2
BRANCH   1   8
ATOM      8  C   UNL     1      25.143 -12.433  35.211  1.00  0.00     0.004 C 
BRANCH   8   9
ATOM      9  C   UNL     1      26.516 -12.437  34.478  1.00  0.00    -0.011 C 
ATOM     10  C   UNL     1      26.727 -11.096  33.741  1.00  0.00     0.008 C 
BRANCH   9  11
ATOM     11  C   UNL     1      26.655 -13.710  33.562  1.00  0.00    -0.002 C 
ATOM     12  C   UNL     1      25.285 -14.245  33.047  1.00  0.00     0.005 C 
ATOM     13  C   UNL     1      27.564 -13.641  32.280  1.00  0.00    -0.026 C 
ATOM     14  C   UNL     1      25.307 -14.189  31.512  1.00  0.00     0.005 C 
ATOM     15  C   UNL     1      26.525 -13.339  31.185  1.00  0.00    -0.001 C 
ATOM     16  C   UNL     1      28.720 -12.573  32.232  1.00  0.00     0.007 C 
ATOM     17  C   UNL     1      28.198 -15.062  32.113  1.00  0.00     0.012 C 
ATOM     18  C   UNL     1      27.058 -13.282  29.725  1.00  0.00     0.004 C 
ATOM     19  C   UNL     1      28.861 -11.852  30.861  1.00  0.00     0.005 C 
ATOM     20  C   UNL     1      28.533 -12.787  29.667  1.00  0.00     0.003 C 
ATOM     21  C   UNL     1      26.929 -14.570  28.892  1.00  0.00     0.085 C 
ATOM     22  C   UNL     1      28.893 -12.241  28.233  1.00  0.00    -0.000 C 
ATOM     23  C   UNL     1      27.515 -14.358  27.518  1.00  0.00     0.159 C 
ATOM     24  C   UNL     1      28.155 -13.061  27.160  1.00  0.00     0.005 C 
ATOM     25  C   UNL     1      28.504 -10.742  28.072  1.00  0.00     0.020 C 
ATOM     26  C   UNL     1      30.418 -12.414  28.003  1.00  0.00     0.017 C 
ATOM     27  O   UNL     1      27.417 -15.276  26.659  1.00  0.00    -0.295 OA
ATOM     28  C   UNL     1      27.991 -12.571  25.920  1.00  0.00     0.055 C 
ATOM     29  C   UNL     1      28.775 -10.209  26.653  1.00  0.00     0.081 C 
ATOM     30  C   UNL     1      28.339 -11.178  25.590  1.00  0.00     0.156 C 
ATOM     31  O   UNL     1      28.268 -10.791  24.394  1.00  0.00    -0.295 OA
ENDBRANCH   9  11
ENDBRANCH   8   9
ENDBRANCH   1   8
TORSDOF 6
ENDMDL
MODEL 2
REMARK VINA RESULT:     4.148      3.232      7.990
REMARK INTER + INTRA:           5.166
REMARK INTER:                   4.202
REMARK INTRA:                   0.964
REMARK UNBOUND:                -0.437
REMARK SMILES CC[C@@H](CC[C@H](C)[C@H]1CC[C@@H]2[C@@H]3CC(=O)C4=CC(=O)CC[C@@]4(C)[C@H]3CC[C@]21C)C(C)C
REMARK SMILES IDX 4 1 3 2 2 3 1 4 29 5 30 6 31 7 5 8 6 9 7 10 8 11 9 12 27 13
REMARK SMILES IDX 10 14 11 15 26 16 28 17 12 18 25 19 24 20 13 21 22 22 14 23
REMARK SMILES IDX 16 24 21 25 23 26 15 27 17 28 20 29 18 30 19 31
REMARK H PARENT
REMARK Flexibility Score: inf
ROOT
ATOM      1  C   UNL     1      26.696 -12.573  27.979  1.00  0.00     0.004 C 
ENDROOT
BRANCH   1   2
ATOM      2  C   UNL     1      26.322 -14.077  27.874  1.00  0.00    -0.009 C 
BRANCH   2   3
ATOM      3  C   UNL     1      26.208 -14.547  26.391  1.00  0.00     0.000 C 
ATOM      4  C   UNL     1      27.479 -15.157  25.784  1.00  0.00     0.004 C 
ENDBRANCH   2   3
BRANCH   2   5
ATOM      5  C   UNL     1      25.113 -14.495  28.780  1.00  0.00    -0.014 C 
ATOM      6  C   UNL     1      24.145 -15.489  28.125  1.00  0.00     0.007 C 
ATOM      7  C   UNL     1      25.573 -15.031  30.147  1.00  0.00     0.007 C 
ENDBRANCH   2   5
ENDBRANCH   1   2
BRANCH   1   8
ATOM      8  C   UNL     1      27.774 -12.128  26.968  1.00  0.00     0.004 C 
BRANCH   8   9
ATOM      9  C   UNL     1      29.219 -12.321  27.514  1.00  0.00    -0.011 C 
ATOM     10  C   UNL     1      29.473 -13.813  27.823  1.00  0.00     0.008 C 
BRANCH   9  11
ATOM     11  C   UNL     1      29.493 -11.352  28.723  1.00  0.00    -0.002 C 
ATOM     12  C   UNL     1      28.729  -9.999  28.607  1.00  0.00     0.005 C 
ATOM     13  C   UNL     1      29.207 -11.847  30.188  1.00  0.00    -0.026 C 
ATOM     14  C   UNL     1      27.802  -9.878  29.826  1.00  0.00     0.005 C 
ATOM     15  C   UNL     1      27.802 -11.270  30.436  1.00  0.00    -0.001 C 
ATOM     16  C   UNL     1      29.211 -13.395  30.475  1.00  0.00     0.007 C 
ATOM     17  C   UNL     1      30.287 -11.175  31.099  1.00  0.00     0.012 C 
ATOM     18  C   UNL     1      27.206 -11.492  31.855  1.00  0.00     0.004 C 
ATOM     19  C   UNL     1      28.062 -13.869  31.411  1.00  0.00     0.005 C 
ATOM     20  C   UNL     1      27.714 -12.817  32.496  1.00  0.00     0.003 C 
ATOM     21  C   UNL     1      27.387 -10.345  32.867  1.00  0.00     0.085 C 
ATOM     22  C   UNL     1      26.753 -13.295  33.651  1.00  0.00    -0.000 C 
ATOM     23  C   UNL     1      26.782 -10.727  34.196  1.00  0.00     0.159 C 
ATOM     24  C   UNL     1      26.179 -12.075  34.393  1.00  0.00     0.005 C 
ATOM     25  C   UNL     1      25.572 -14.147  33.102  1.00  0.00     0.020 C 
ATOM     26  C   UNL     1      27.575 -14.132  34.667  1.00  0.00     0.017 C 
ATOM     27  O   UNL     1      26.751  -9.876  35.125  1.00  0.00    -0.295 OA
ATOM     28  C   UNL     1      25.072 -12.193  35.143  1.00  0.00     0.055 C 
ATOM     29  C   UNL     1      24.577 -14.560  34.202  1.00  0.00     0.081 C 
ATOM     30  C   UNL     1      24.266 -13.426  35.139  1.00  0.00     0.156 C 
ATOM     31  O   UNL     1      23.295 -13.532  35.934  1.00  0.00    -0.295 OA
ENDBRANCH   9  11
ENDBRANCH   8   9
ENDBRANCH   1   8
TORSDOF 6
ENDMDL
