MODEL 1
REMARK VINA RESULT:    46.879      0.000      0.000
REMARK INTER + INTRA:          70.201
REMARK INTER:                  68.803
REMARK INTRA:                   1.397
REMARK UNBOUND:                 1.397
REMARK SMILES Cc1cc2c(C(C)C)c(O)c(O)c(C=O)c2c(O)c1-c1c(C)cc2c(C(C)C)c(O)c(O)c(C=O)c2c1O
REMARK SMILES IDX 1 1 2 2 3 3 4 4 16 5 13 6 11 7 9 8 5 9 17 10 19 11 20 12
REMARK SMILES IDX 37 13 21 14 36 15 23 16 22 17 24 18 33 19 25 20 31 21 29 22
REMARK SMILES IDX 38 23 34 25 35 26 26 27 27 28 28 29 32 30 30 32 18 34 6 36
REMARK SMILES IDX 7 37 8 38 14 39 15 40 10 41 12 43
REMARK H PARENT 38 24 32 31 30 33 18 35 10 42 12 44
REMARK Flexibility Score: inf
ROOT
ATOM      1  C   UNL     1      12.587 -29.923  16.647  1.00  0.00     0.045 C 
ATOM      2  C   UNL     1      11.900 -31.019  15.870  1.00  0.00    -0.039 A 
ATOM      3  C   UNL     1      10.610 -31.408  16.232  1.00  0.00     0.013 A 
ATOM      4  C   UNL     1       9.907 -32.416  15.542  1.00  0.00    -0.006 A 
ATOM      5  C   UNL     1      10.578 -33.114  14.490  1.00  0.00     0.039 A 
ATOM      6  C   UNL     1       9.941 -34.242  13.892  1.00  0.00     0.072 A 
ATOM      7  C   UNL     1       8.657 -34.634  14.320  1.00  0.00     0.169 A 
ATOM      8  C   UNL     1       7.970 -33.887  15.281  1.00  0.00     0.162 A 
ATOM      9  C   UNL     1       8.556 -32.750  15.879  1.00  0.00     0.008 A 
ATOM     10  C   UNL     1      11.856 -32.645  14.056  1.00  0.00     0.132 A 
ATOM     11  C   UNL     1      12.514 -31.614  14.757  1.00  0.00     0.031 A 
ENDROOT
BRANCH  11  12
ATOM     12  C   UNL     1      13.860 -31.154  14.324  1.00  0.00     0.031 A 
ATOM     13  C   UNL     1      15.011 -31.889  14.684  1.00  0.00     0.132 A 
ATOM     14  C   UNL     1      13.983 -29.993  13.545  1.00  0.00    -0.039 A 
ATOM     15  C   UNL     1      16.302 -31.474  14.237  1.00  0.00     0.039 A 
ATOM     16  C   UNL     1      15.253 -29.528  13.199  1.00  0.00     0.013 A 
ATOM     17  C   UNL     1      12.766 -29.212  13.115  1.00  0.00     0.045 C 
ATOM     18  C   UNL     1      16.427 -30.210  13.586  1.00  0.00    -0.006 A 
ATOM     19  C   UNL     1      17.471 -32.268  14.433  1.00  0.00     0.072 A 
ATOM     20  C   UNL     1      17.720 -29.669  13.312  1.00  0.00     0.008 A 
ATOM     21  C   UNL     1      18.722 -31.797  13.981  1.00  0.00     0.169 A 
ATOM     22  C   UNL     1      18.844 -30.514  13.436  1.00  0.00     0.162 A 
BRANCH  13  23
ATOM     23  O   UNL     1      14.875 -33.012  15.508  1.00  0.00    -0.507 OA
ATOM     24  H   UNL     1      14.303 -33.035  16.343  1.00  0.00     0.293 HD
ENDBRANCH  13  23
BRANCH  19  25
ATOM     25  C   UNL     1      17.402 -33.626  15.011  1.00  0.00     0.264 C 
ATOM     26  O   UNL     1      17.138 -33.791  16.232  1.00  0.00    -0.298 OA
ENDBRANCH  19  25
BRANCH  20  27
ATOM     27  C   UNL     1      17.908 -28.205  12.876  1.00  0.00     0.017 C 
ATOM     28  C   UNL     1      19.218 -27.633  13.428  1.00  0.00     0.012 C 
ATOM     29  C   UNL     1      16.711 -27.299  13.217  1.00  0.00     0.012 C 
ENDBRANCH  20  27
BRANCH  21  30
ATOM     30  O   UNL     1      19.871 -32.594  14.040  1.00  0.00    -0.504 OA
ATOM     31  H   UNL     1      19.858 -33.603  14.101  1.00  0.00     0.293 HD
ENDBRANCH  21  30
BRANCH  22  32
ATOM     32  O   UNL     1      20.093 -30.079  12.987  1.00  0.00    -0.504 OA
ATOM     33  H   UNL     1      20.780 -29.646  13.594  1.00  0.00     0.293 HD
ENDBRANCH  22  32
ENDBRANCH  11  12
BRANCH  10  34
ATOM     34  O   UNL     1      12.456 -33.180  12.910  1.00  0.00    -0.507 OA
ATOM     35  H   UNL     1      11.943 -33.606  12.148  1.00  0.00     0.293 HD
ENDBRANCH  10  34
BRANCH   9  36
ATOM     36  C   UNL     1       7.688 -31.940  16.864  1.00  0.00     0.017 C 
ATOM     37  C   UNL     1       6.188 -32.082  16.565  1.00  0.00     0.012 C 
ATOM     38  C   UNL     1       8.035 -32.163  18.351  1.00  0.00     0.012 C 
ENDBRANCH   9  36
BRANCH   6  39
ATOM     39  C   UNL     1      10.624 -35.078  12.881  1.00  0.00     0.264 C 
ATOM     40  O   UNL     1      11.448 -35.965  13.232  1.00  0.00    -0.298 OA
ENDBRANCH   6  39
BRANCH   8  41
ATOM     41  O   UNL     1       6.686 -34.292  15.666  1.00  0.00    -0.504 OA
ATOM     42  H   UNL     1       6.355 -35.245  15.575  1.00  0.00     0.293 HD
ENDBRANCH   8  41
BRANCH   7  43
ATOM     43  O   UNL     1       8.037 -35.786  13.821  1.00  0.00    -0.504 OA
ATOM     44  H   UNL     1       8.277 -36.727  14.101  1.00  0.00     0.293 HD
ENDBRANCH   7  43
TORSDOF 11
ENDMDL
MODEL 2
REMARK VINA RESULT:    48.680      1.805      3.153
REMARK INTER + INTRA:          72.844
REMARK INTER:                  72.145
REMARK INTRA:                   0.699
REMARK UNBOUND:                 1.397
REMARK SMILES Cc1cc2c(C(C)C)c(O)c(O)c(C=O)c2c(O)c1-c1c(C)cc2c(C(C)C)c(O)c(O)c(C=O)c2c1O
REMARK SMILES IDX 1 1 2 2 3 3 4 4 16 5 13 6 11 7 9 8 5 9 17 10 19 11 20 12
REMARK SMILES IDX 37 13 21 14 36 15 23 16 22 17 24 18 33 19 25 20 31 21 29 22
REMARK SMILES IDX 38 23 34 25 35 26 26 27 27 28 28 29 32 30 30 32 18 34 6 36
REMARK SMILES IDX 7 37 8 38 14 39 15 40 10 41 12 43
REMARK H PARENT 38 24 32 31 30 33 18 35 10 42 12 44
REMARK Flexibility Score: inf
ROOT
ATOM      1  C   UNL     1      11.888 -33.944  12.875  1.00  0.00     0.045 C 
ATOM      2  C   UNL     1      11.115 -33.401  14.052  1.00  0.00    -0.039 A 
ATOM      3  C   UNL     1       9.958 -34.058  14.472  1.00  0.00     0.013 A 
ATOM      4  C   UNL     1       9.196 -33.612  15.570  1.00  0.00    -0.006 A 
ATOM      5  C   UNL     1       9.584 -32.399  16.219  1.00  0.00     0.039 A 
ATOM      6  C   UNL     1       8.734 -31.848  17.224  1.00  0.00     0.072 A 
ATOM      7  C   UNL     1       7.548 -32.518  17.584  1.00  0.00     0.169 A 
ATOM      8  C   UNL     1       7.227 -33.752  17.013  1.00  0.00     0.162 A 
ATOM      9  C   UNL     1       8.054 -34.341  16.033  1.00  0.00     0.008 A 
ATOM     10  C   UNL     1      10.824 -31.787  15.854  1.00  0.00     0.132 A 
ATOM     11  C   UNL     1      11.571 -32.282  14.765  1.00  0.00     0.031 A 
ENDROOT
BRANCH  11  12
ATOM     12  C   UNL     1      12.841 -31.620  14.367  1.00  0.00     0.031 A 
ATOM     13  C   UNL     1      14.080 -32.146  14.795  1.00  0.00     0.132 A 
ATOM     14  C   UNL     1      12.806 -30.478  13.552  1.00  0.00    -0.039 A 
ATOM     15  C   UNL     1      15.304 -31.537  14.381  1.00  0.00     0.039 A 
ATOM     16  C   UNL     1      13.997 -29.820  13.237  1.00  0.00     0.013 A 
ATOM     17  C   UNL     1      11.497 -29.920  13.049  1.00  0.00     0.045 C 
ATOM     18  C   UNL     1      15.249 -30.289  13.691  1.00  0.00    -0.006 A 
ATOM     19  C   UNL     1      16.577 -32.122  14.649  1.00  0.00     0.072 A 
ATOM     20  C   UNL     1      16.446 -29.551  13.447  1.00  0.00     0.008 A 
ATOM     21  C   UNL     1      17.752 -31.465  14.227  1.00  0.00     0.169 A 
ATOM     22  C   UNL     1      17.687 -30.196  13.642  1.00  0.00     0.162 A 
BRANCH  13  23
ATOM     23  O   UNL     1      14.094 -33.252  15.653  1.00  0.00    -0.507 OA
ATOM     24  H   UNL     1      13.398 -33.986  15.639  1.00  0.00     0.293 HD
ENDBRANCH  13  23
BRANCH  19  25
ATOM     25  C   UNL     1      16.706 -33.456  15.271  1.00  0.00     0.264 C 
ATOM     26  O   UNL     1      17.556 -34.283  14.844  1.00  0.00    -0.298 OA
ENDBRANCH  19  25
BRANCH  20  27
ATOM     27  C   UNL     1      16.412 -28.089  12.966  1.00  0.00     0.017 C 
ATOM     28  C   UNL     1      17.817 -27.478  12.972  1.00  0.00     0.012 C 
ATOM     29  C   UNL     1      15.412 -27.208  13.738  1.00  0.00     0.012 C 
ENDBRANCH  20  27
BRANCH  21  30
ATOM     30  O   UNL     1      19.013 -32.061  14.357  1.00  0.00    -0.504 OA
ATOM     31  H   UNL     1      19.172 -32.963  14.785  1.00  0.00     0.293 HD
ENDBRANCH  21  30
BRANCH  22  32
ATOM     32  O   UNL     1      18.866 -29.574  13.225  1.00  0.00    -0.504 OA
ATOM     33  H   UNL     1      19.115 -29.456  12.250  1.00  0.00     0.293 HD
ENDBRANCH  22  32
ENDBRANCH  11  12
BRANCH  10  34
ATOM     34  O   UNL     1      11.328 -30.711  16.593  1.00  0.00    -0.507 OA
ATOM     35  H   UNL     1      11.565 -30.761  17.576  1.00  0.00     0.293 HD
ENDBRANCH  10  34
BRANCH   9  36
ATOM     36  C   UNL     1       7.663 -35.745  15.526  1.00  0.00     0.017 C 
ATOM     37  C   UNL     1       7.077 -36.621  16.642  1.00  0.00     0.012 C 
ATOM     38  C   UNL     1       6.807 -35.742  14.242  1.00  0.00     0.012 C 
ENDBRANCH   9  36
BRANCH   6  39
ATOM     39  C   UNL     1       9.016 -30.540  17.852  1.00  0.00     0.264 C 
ATOM     40  O   UNL     1       9.726 -30.466  18.891  1.00  0.00    -0.298 OA
ENDBRANCH   6  39
BRANCH   8  41
ATOM     41  O   UNL     1       6.051 -34.400  17.412  1.00  0.00    -0.504 OA
ATOM     42  H   UNL     1       5.435 -34.878  16.765  1.00  0.00     0.293 HD
ENDBRANCH   8  41
BRANCH   7  43
ATOM     43  O   UNL     1       6.644 -31.966  18.501  1.00  0.00    -0.504 OA
ATOM     44  H   UNL     1       6.858 -31.789  19.474  1.00  0.00     0.293 HD
ENDBRANCH   7  43
TORSDOF 11
ENDMDL
