MODEL 1
REMARK VINA RESULT:    27.213      0.000      0.000
REMARK INTER + INTRA:          31.714
REMARK INTER:                  31.986
REMARK INTRA:                  -0.272
REMARK UNBOUND:                -0.272
REMARK SMILES O=c1cc(-c2ccc(O)c(O)c2)oc2cc(O)cc(O)c12
REMARK SMILES IDX 4 1 3 2 2 3 1 4 21 5 19 6 18 7 16 8 15 9 14 10 13 11 5 12
REMARK SMILES IDX 6 13 7 14 8 15 12 16 10 17 9 18 11 20 20 22 17 24
REMARK H PARENT 9 19 11 21 20 23 17 25
REMARK Flexibility Score: inf
ROOT
ATOM      1  C   UNL     1       9.268   1.432   9.019  1.00  0.00     0.138 A 
ATOM      2  C   UNL     1      10.051   0.363   8.565  1.00  0.00     0.100 A 
ATOM      3  C   UNL     1      11.129   0.609   7.713  1.00  0.00     0.197 A 
ATOM      4  O   UNL     1      11.778  -0.378   7.278  1.00  0.00    -0.289 OA
ATOM      5  C   UNL     1      11.445   1.938   7.343  1.00  0.00     0.107 A 
ATOM      6  C   UNL     1      12.540   2.313   6.509  1.00  0.00     0.134 A 
ATOM      7  C   UNL     1      12.694   3.653   6.132  1.00  0.00     0.093 A 
ATOM      8  C   UNL     1      11.826   4.640   6.607  1.00  0.00     0.123 A 
ATOM      9  C   UNL     1      10.785   4.291   7.463  1.00  0.00     0.094 A 
ATOM     10  C   UNL     1      10.583   2.959   7.829  1.00  0.00     0.146 A 
ATOM     11  O   UNL     1       9.566   2.668   8.633  1.00  0.00    -0.456 OA
ENDROOT
BRANCH   1  12
ATOM     12  C   UNL     1       8.112   1.228   9.929  1.00  0.00     0.021 A 
ATOM     13  C   UNL     1       8.344   0.980  11.294  1.00  0.00     0.016 A 
ATOM     14  C   UNL     1       7.274   0.792  12.173  1.00  0.00     0.051 A 
ATOM     15  C   UNL     1       5.956   0.859  11.706  1.00  0.00     0.157 A 
ATOM     16  C   UNL     1       6.783   1.306   9.469  1.00  0.00     0.062 A 
ATOM     17  C   UNL     1       5.710   1.120  10.353  1.00  0.00     0.158 A 
BRANCH  15  18
ATOM     18  O   UNL     1       4.887   0.670  12.580  1.00  0.00    -0.504 OA
ATOM     19  H   UNL     1       4.046   0.183  12.293  1.00  0.00     0.293 HD
ENDBRANCH  15  18
BRANCH  17  20
ATOM     20  O   UNL     1       4.396   1.196   9.894  1.00  0.00    -0.504 OA
ATOM     21  H   UNL     1       3.762   1.916  10.218  1.00  0.00     0.293 HD
ENDBRANCH  17  20
ENDBRANCH   1  12
BRANCH   6  22
ATOM     22  O   UNL     1      13.511   1.422   6.042  1.00  0.00    -0.507 OA
ATOM     23  H   UNL     1      14.491   1.637   5.933  1.00  0.00     0.293 HD
ENDBRANCH   6  22
BRANCH   8  24
ATOM     24  O   UNL     1      11.997   5.973   6.239  1.00  0.00    -0.508 OA
ATOM     25  H   UNL     1      12.091   6.706   6.932  1.00  0.00     0.293 HD
ENDBRANCH   8  24
TORSDOF 5
ENDMDL
MODEL 2
REMARK VINA RESULT:    27.813      1.339      7.095
REMARK INTER + INTRA:          32.419
REMARK INTER:                  32.685
REMARK INTRA:                  -0.266
REMARK UNBOUND:                -0.272
REMARK SMILES O=c1cc(-c2ccc(O)c(O)c2)oc2cc(O)cc(O)c12
REMARK SMILES IDX 4 1 3 2 2 3 1 4 21 5 19 6 18 7 16 8 15 9 14 10 13 11 5 12
REMARK SMILES IDX 6 13 7 14 8 15 12 16 10 17 9 18 11 20 20 22 17 24
REMARK H PARENT 9 19 11 21 20 23 17 25
REMARK Flexibility Score: inf
ROOT
ATOM      1  C   UNL     1       8.931   1.616   9.216  1.00  0.00     0.138 A 
ATOM      2  C   UNL     1       9.049   1.318  10.580  1.00  0.00     0.100 A 
ATOM      3  C   UNL     1       7.899   1.104  11.342  1.00  0.00     0.197 A 
ATOM      4  O   UNL     1       8.036   0.895  12.575  1.00  0.00    -0.289 OA
ATOM      5  C   UNL     1       6.626   1.153  10.725  1.00  0.00     0.107 A 
ATOM      6  C   UNL     1       5.387   0.918  11.394  1.00  0.00     0.134 A 
ATOM      7  C   UNL     1       4.185   1.092  10.699  1.00  0.00     0.093 A 
ATOM      8  C   UNL     1       4.176   1.435   9.345  1.00  0.00     0.123 A 
ATOM      9  C   UNL     1       5.381   1.617   8.671  1.00  0.00     0.094 A 
ATOM     10  C   UNL     1       6.598   1.486   9.344  1.00  0.00     0.146 A 
ATOM     11  O   UNL     1       7.723   1.686   8.667  1.00  0.00    -0.456 OA
ENDROOT
BRANCH   1  12
ATOM     12  C   UNL     1      10.120   1.849   8.357  1.00  0.00     0.021 A 
ATOM     13  C   UNL     1      10.835   0.747   7.854  1.00  0.00     0.016 A 
ATOM     14  C   UNL     1      11.953   0.938   7.039  1.00  0.00     0.051 A 
ATOM     15  C   UNL     1      12.369   2.232   6.703  1.00  0.00     0.157 A 
ATOM     16  C   UNL     1      10.538   3.147   8.005  1.00  0.00     0.062 A 
ATOM     17  C   UNL     1      11.659   3.338   7.184  1.00  0.00     0.158 A 
BRANCH  15  18
ATOM     18  O   UNL     1      13.485   2.426   5.890  1.00  0.00    -0.504 OA
ATOM     19  H   UNL     1      14.260   3.010   6.183  1.00  0.00     0.293 HD
ENDBRANCH  15  18
BRANCH  17  20
ATOM     20  O   UNL     1      12.070   4.625   6.839  1.00  0.00    -0.504 OA
ATOM     21  H   UNL     1      12.089   4.935   5.875  1.00  0.00     0.293 HD
ENDBRANCH  17  20
ENDBRANCH   1  12
BRANCH   6  22
ATOM     22  O   UNL     1       5.282   0.495  12.722  1.00  0.00    -0.507 OA
ATOM     23  H   UNL     1       5.672   0.977  13.517  1.00  0.00     0.293 HD
ENDBRANCH   6  22
BRANCH   8  24
ATOM     24  O   UNL     1       2.975   1.590   8.658  1.00  0.00    -0.508 OA
ATOM     25  H   UNL     1       2.620   2.506   8.409  1.00  0.00     0.293 HD
ENDBRANCH   8  24
TORSDOF 5
ENDMDL
MODEL 3
REMARK VINA RESULT:    27.905      1.106      2.625
REMARK INTER + INTRA:          32.527
REMARK INTER:                  32.790
REMARK INTRA:                  -0.263
REMARK UNBOUND:                -0.272
REMARK SMILES O=c1cc(-c2ccc(O)c(O)c2)oc2cc(O)cc(O)c12
REMARK SMILES IDX 4 1 3 2 2 3 1 4 21 5 19 6 18 7 16 8 15 9 14 10 13 11 5 12
REMARK SMILES IDX 6 13 7 14 8 15 12 16 10 17 9 18 11 20 20 22 17 24
REMARK H PARENT 9 19 11 21 20 23 17 25
REMARK Flexibility Score: inf
ROOT
ATOM      1  C   UNL     1       9.253   2.139   8.979  1.00  0.00     0.138 A 
ATOM      2  C   UNL     1       9.292   3.463   8.523  1.00  0.00     0.100 A 
ATOM      3  C   UNL     1      10.331   3.877   7.689  1.00  0.00     0.197 A 
ATOM      4  O   UNL     1      10.368   5.086   7.342  1.00  0.00    -0.289 OA
ATOM      5  C   UNL     1      11.319   2.948   7.281  1.00  0.00     0.107 A 
ATOM      6  C   UNL     1      12.406   3.247   6.405  1.00  0.00     0.134 A 
ATOM      7  C   UNL     1      13.376   2.270   6.152  1.00  0.00     0.093 A 
ATOM      8  C   UNL     1      13.268   0.987   6.695  1.00  0.00     0.123 A 
ATOM      9  C   UNL     1      12.184   0.671   7.510  1.00  0.00     0.094 A 
ATOM     10  C   UNL     1      11.217   1.634   7.811  1.00  0.00     0.146 A 
ATOM     11  O   UNL     1      10.209   1.295   8.607  1.00  0.00    -0.456 OA
ENDROOT
BRANCH   1  12
ATOM     12  C   UNL     1       8.169   1.645   9.865  1.00  0.00     0.021 A 
ATOM     13  C   UNL     1       8.472   1.280  11.189  1.00  0.00     0.016 A 
ATOM     14  C   UNL     1       7.469   0.819  12.046  1.00  0.00     0.051 A 
ATOM     15  C   UNL     1       6.146   0.724  11.598  1.00  0.00     0.157 A 
ATOM     16  C   UNL     1       6.834   1.558   9.425  1.00  0.00     0.062 A 
ATOM     17  C   UNL     1       5.827   1.097  10.287  1.00  0.00     0.158 A 
BRANCH  15  18
ATOM     18  O   UNL     1       5.144   0.263  12.449  1.00  0.00    -0.504 OA
ATOM     19  H   UNL     1       4.461   0.893  12.855  1.00  0.00     0.293 HD
ENDBRANCH  15  18
BRANCH  17  20
ATOM     20  O   UNL     1       4.507   1.011   9.847  1.00  0.00    -0.504 OA
ATOM     21  H   UNL     1       4.012   0.128   9.823  1.00  0.00     0.293 HD
ENDBRANCH  17  20
ENDBRANCH   1  12
BRANCH   6  22
ATOM     22  O   UNL     1      12.568   4.469   5.746  1.00  0.00    -0.507 OA
ATOM     23  H   UNL     1      11.986   4.805   4.994  1.00  0.00     0.293 HD
ENDBRANCH   6  22
BRANCH   8  24
ATOM     24  O   UNL     1      14.230   0.017   6.425  1.00  0.00    -0.508 OA
ATOM     25  H   UNL     1      13.972  -0.922   6.146  1.00  0.00     0.293 HD
ENDBRANCH   8  24
TORSDOF 5
ENDMDL
MODEL 4
REMARK VINA RESULT:    29.635      4.740      8.172
REMARK INTER + INTRA:          34.561
REMARK INTER:                  34.832
REMARK INTRA:                  -0.271
REMARK UNBOUND:                -0.272
REMARK SMILES O=c1cc(-c2ccc(O)c(O)c2)oc2cc(O)cc(O)c12
REMARK SMILES IDX 4 1 3 2 2 3 1 4 21 5 19 6 18 7 16 8 15 9 14 10 13 11 5 12
REMARK SMILES IDX 6 13 7 14 8 15 12 16 10 17 9 18 11 20 20 22 17 24
REMARK H PARENT 9 19 11 21 20 23 17 25
REMARK Flexibility Score: inf
ROOT
ATOM      1  C   UNL     1      14.835   3.726   9.127  1.00  0.00     0.138 A 
ATOM      2  C   UNL     1      14.069   4.818   8.696  1.00  0.00     0.100 A 
ATOM      3  C   UNL     1      13.006   4.611   7.815  1.00  0.00     0.197 A 
ATOM      4  O   UNL     1      12.374   5.618   7.403  1.00  0.00    -0.289 OA
ATOM      5  C   UNL     1      12.686   3.299   7.393  1.00  0.00     0.107 A 
ATOM      6  C   UNL     1      11.604   2.963   6.525  1.00  0.00     0.134 A 
ATOM      7  C   UNL     1      11.447   1.639   6.099  1.00  0.00     0.093 A 
ATOM      8  C   UNL     1      12.296   0.628   6.555  1.00  0.00     0.123 A 
ATOM      9  C   UNL     1      13.324   0.937   7.443  1.00  0.00     0.094 A 
ATOM     10  C   UNL     1      13.529   2.254   7.859  1.00  0.00     0.146 A 
ATOM     11  O   UNL     1      14.533   2.508   8.692  1.00  0.00    -0.456 OA
ENDROOT
BRANCH   1  12
ATOM     12  C   UNL     1      15.974   3.888  10.066  1.00  0.00     0.021 A 
ATOM     13  C   UNL     1      15.718   4.078  11.435  1.00  0.00     0.016 A 
ATOM     14  C   UNL     1      16.772   4.225  12.340  1.00  0.00     0.051 A 
ATOM     15  C   UNL     1      18.099   4.175  11.895  1.00  0.00     0.157 A 
ATOM     16  C   UNL     1      17.311   3.827   9.626  1.00  0.00     0.062 A 
ATOM     17  C   UNL     1      18.369   3.972  10.536  1.00  0.00     0.158 A 
BRANCH  15  18
ATOM     18  O   UNL     1      19.152   4.323  12.795  1.00  0.00    -0.504 OA
ATOM     19  H   UNL     1      19.000   4.303  13.797  1.00  0.00     0.293 HD
ENDBRANCH  15  18
BRANCH  17  20
ATOM     20  O   UNL     1      19.690   3.912  10.098  1.00  0.00    -0.504 OA
ATOM     21  H   UNL     1      20.021   4.486   9.332  1.00  0.00     0.293 HD
ENDBRANCH  17  20
ENDBRANCH   1  12
BRANCH   6  22
ATOM     22  O   UNL     1      10.649   3.879   6.072  1.00  0.00    -0.507 OA
ATOM     23  H   UNL     1       9.964   4.337   6.652  1.00  0.00     0.293 HD
ENDBRANCH   6  22
BRANCH   8  24
ATOM     24  O   UNL     1      12.122  -0.690   6.139  1.00  0.00    -0.508 OA
ATOM     25  H   UNL     1      12.841  -1.182   5.621  1.00  0.00     0.293 HD
ENDBRANCH   8  24
TORSDOF 5
ENDMDL
