MODEL 1
REMARK VINA RESULT:    -3.289      0.000      0.000
REMARK INTER + INTRA:          -5.675
REMARK INTER:                  -5.019
REMARK INTRA:                  -0.656
REMARK UNBOUND:                -0.656
REMARK SMILES O=C([O-])CCCCCCCCC(=O)[O-]
REMARK SMILES IDX 7 1 6 2 5 3 4 4 2 5 1 6 3 7 8 8 9 9 10 10 11 11 12 12 13 13
REMARK SMILES IDX 14 14
REMARK H PARENT
REMARK Flexibility Score: inf
ROOT
ATOM      1  C   UNL     1     -43.702 -46.496  70.147  1.00  0.00     0.000 C 
ENDROOT
BRANCH   1   2
ATOM      2  C   UNL     1     -43.495 -45.393  71.192  1.00  0.00     0.000 C 
BRANCH   2   3
ATOM      3  C   UNL     1     -43.961 -45.856  72.581  1.00  0.00     0.006 C 
BRANCH   3   4
ATOM      4  C   UNL     1     -43.066 -45.316  73.703  1.00  0.00     0.053 C 
BRANCH   4   5
ATOM      5  C   UNL     1     -43.771 -44.284  74.531  1.00  0.00     0.041 C 
ATOM      6  O   UNL     1     -43.892 -43.106  74.106  1.00  0.00    -0.550 OA
ATOM      7  O   UNL     1     -44.264 -44.618  75.785  1.00  0.00    -0.550 OA
ENDBRANCH   4   5
ENDBRANCH   3   4
ENDBRANCH   2   3
ENDBRANCH   1   2
BRANCH   1   8
ATOM      8  C   UNL     1     -43.336 -47.872  70.722  1.00  0.00     0.000 C 
BRANCH   8   9
ATOM      9  C   UNL     1     -44.347 -48.963  70.335  1.00  0.00     0.000 C 
BRANCH   9  10
ATOM     10  C   UNL     1     -45.687 -48.382  69.851  1.00  0.00     0.006 C 
BRANCH  10  11
ATOM     11  C   UNL     1     -46.849 -48.757  70.780  1.00  0.00     0.053 C 
BRANCH  11  12
ATOM     12  C   UNL     1     -47.905 -47.694  70.806  1.00  0.00     0.041 C 
ATOM     13  O   UNL     1     -47.686 -46.570  70.282  1.00  0.00    -0.550 OA
ATOM     14  O   UNL     1     -49.117 -47.932  71.441  1.00  0.00    -0.550 OA
ENDBRANCH  11  12
ENDBRANCH  10  11
ENDBRANCH   9  10
ENDBRANCH   8   9
ENDBRANCH   1   8
TORSDOF 9
ENDMDL
MODEL 2
REMARK VINA RESULT:    -3.279      1.518      6.242
REMARK INTER + INTRA:          -5.661
REMARK INTER:                  -5.123
REMARK INTRA:                  -0.537
REMARK UNBOUND:                -0.656
REMARK SMILES O=C([O-])CCCCCCCCC(=O)[O-]
REMARK SMILES IDX 7 1 6 2 5 3 4 4 2 5 1 6 3 7 8 8 9 9 10 10 11 11 12 12 13 13
REMARK SMILES IDX 14 14
REMARK H PARENT
REMARK Flexibility Score: inf
ROOT
ATOM      1  C   UNL     1     -44.837 -47.826  70.742  1.00  0.00     0.000 C 
ENDROOT
BRANCH   1   2
ATOM      2  C   UNL     1     -46.095 -47.100  71.233  1.00  0.00     0.000 C 
BRANCH   2   3
ATOM      3  C   UNL     1     -47.281 -47.352  70.289  1.00  0.00     0.006 C 
BRANCH   3   4
ATOM      4  C   UNL     1     -48.363 -48.224  70.937  1.00  0.00     0.053 C 
BRANCH   4   5
ATOM      5  C   UNL     1     -48.252 -49.657  70.511  1.00  0.00     0.041 C 
ATOM      6  O   UNL     1     -48.928 -50.545  71.092  1.00  0.00    -0.550 OA
ATOM      7  O   UNL     1     -47.376 -50.013  69.494  1.00  0.00    -0.550 OA
ENDBRANCH   4   5
ENDBRANCH   3   4
ENDBRANCH   2   3
ENDBRANCH   1   2
BRANCH   1   8
ATOM      8  C   UNL     1     -43.569 -47.047  71.122  1.00  0.00     0.000 C 
BRANCH   8   9
ATOM      9  C   UNL     1     -43.881 -45.698  71.789  1.00  0.00     0.000 C 
BRANCH   9  10
ATOM     10  C   UNL     1     -43.215 -45.551  73.168  1.00  0.00     0.006 C 
BRANCH  10  11
ATOM     11  C   UNL     1     -44.230 -45.207  74.267  1.00  0.00     0.053 C 
BRANCH  11  12
ATOM     12  C   UNL     1     -43.969 -43.856  74.861  1.00  0.00     0.041 C 
ATOM     13  O   UNL     1     -44.349 -43.596  76.033  1.00  0.00    -0.550 OA
ATOM     14  O   UNL     1     -43.340 -42.874  74.107  1.00  0.00    -0.550 OA
ENDBRANCH  11  12
ENDBRANCH  10  11
ENDBRANCH   9  10
ENDBRANCH   8   9
ENDBRANCH   1   8
TORSDOF 9
ENDMDL
MODEL 3
REMARK VINA RESULT:    -3.220      1.280      5.183
REMARK INTER + INTRA:          -5.570
REMARK INTER:                  -4.872
REMARK INTRA:                  -0.698
REMARK UNBOUND:                -0.656
REMARK SMILES O=C([O-])CCCCCCCCC(=O)[O-]
REMARK SMILES IDX 7 1 6 2 5 3 4 4 2 5 1 6 3 7 8 8 9 9 10 10 11 11 12 12 13 13
REMARK SMILES IDX 14 14
REMARK H PARENT
REMARK Flexibility Score: inf
ROOT
ATOM      1  C   UNL     1     -42.611 -48.460  70.745  1.00  0.00     0.000 C 
ENDROOT
BRANCH   1   2
ATOM      2  C   UNL     1     -44.109 -48.578  70.442  1.00  0.00     0.000 C 
BRANCH   2   3
ATOM      3  C   UNL     1     -44.754 -47.190  70.305  1.00  0.00     0.006 C 
BRANCH   3   4
ATOM      4  C   UNL     1     -45.902 -46.982  71.301  1.00  0.00     0.053 C 
BRANCH   4   5
ATOM      5  C   UNL     1     -47.218 -47.419  70.731  1.00  0.00     0.041 C 
ATOM      6  O   UNL     1     -47.940 -46.600  70.104  1.00  0.00    -0.550 OA
ATOM      7  O   UNL     1     -47.660 -48.721  70.924  1.00  0.00    -0.550 OA
ENDBRANCH   4   5
ENDBRANCH   3   4
ENDBRANCH   2   3
ENDBRANCH   1   2
BRANCH   1   8
ATOM      8  C   UNL     1     -42.255 -47.042  71.217  1.00  0.00     0.000 C 
BRANCH   8   9
ATOM      9  C   UNL     1     -41.425 -47.039  72.510  1.00  0.00     0.000 C 
BRANCH   9  10
ATOM     10  C   UNL     1     -41.964 -46.050  73.558  1.00  0.00     0.006 C 
BRANCH  10  11
ATOM     11  C   UNL     1     -43.192 -45.283  73.052  1.00  0.00     0.053 C 
BRANCH  11  12
ATOM     12  C   UNL     1     -43.894 -44.561  74.162  1.00  0.00     0.041 C 
ATOM     13  O   UNL     1     -43.957 -43.304  74.160  1.00  0.00    -0.550 OA
ATOM     14  O   UNL     1     -44.446 -45.276  75.217  1.00  0.00    -0.550 OA
ENDBRANCH  11  12
ENDBRANCH  10  11
ENDBRANCH   9  10
ENDBRANCH   8   9
ENDBRANCH   1   8
TORSDOF 9
ENDMDL
MODEL 4
REMARK VINA RESULT:    -3.198      1.587      2.093
REMARK INTER + INTRA:          -5.536
REMARK INTER:                  -5.010
REMARK INTRA:                  -0.526
REMARK UNBOUND:                -0.656
REMARK SMILES O=C([O-])CCCCCCCCC(=O)[O-]
REMARK SMILES IDX 7 1 6 2 5 3 4 4 2 5 1 6 3 7 8 8 9 9 10 10 11 11 12 12 13 13
REMARK SMILES IDX 14 14
REMARK H PARENT
REMARK Flexibility Score: inf
ROOT
ATOM      1  C   UNL     1     -44.074 -47.592  70.871  1.00  0.00     0.000 C 
ENDROOT
BRANCH   1   2
ATOM      2  C   UNL     1     -44.070 -46.074  71.083  1.00  0.00     0.000 C 
BRANCH   2   3
ATOM      3  C   UNL     1     -43.336 -45.700  72.380  1.00  0.00     0.006 C 
BRANCH   3   4
ATOM      4  C   UNL     1     -44.299 -45.520  73.560  1.00  0.00     0.053 C 
BRANCH   4   5
ATOM      5  C   UNL     1     -43.948 -44.320  74.387  1.00  0.00     0.041 C 
ATOM      6  O   UNL     1     -43.430 -43.308  73.847  1.00  0.00    -0.550 OA
ATOM      7  O   UNL     1     -44.164 -44.335  75.759  1.00  0.00    -0.550 OA
ENDBRANCH   4   5
ENDBRANCH   3   4
ENDBRANCH   2   3
ENDBRANCH   1   2
BRANCH   1   8
ATOM      8  C   UNL     1     -45.509 -48.132  70.788  1.00  0.00     0.000 C 
BRANCH   8   9
ATOM      9  C   UNL     1     -46.563 -47.064  71.119  1.00  0.00     0.000 C 
BRANCH   9  10
ATOM     10  C   UNL     1     -48.003 -47.589  70.981  1.00  0.00     0.006 C 
BRANCH  10  11
ATOM     11  C   UNL     1     -48.043 -49.091  70.673  1.00  0.00     0.053 C 
BRANCH  11  12
ATOM     12  C   UNL     1     -48.818 -49.381  69.423  1.00  0.00     0.041 C 
ATOM     13  O   UNL     1     -50.059 -49.173  69.384  1.00  0.00    -0.550 OA
ATOM     14  O   UNL     1     -48.175 -49.916  68.314  1.00  0.00    -0.550 OA
ENDBRANCH  11  12
ENDBRANCH  10  11
ENDBRANCH   9  10
ENDBRANCH   8   9
ENDBRANCH   1   8
TORSDOF 9
ENDMDL
MODEL 5
REMARK VINA RESULT:    -3.197      4.024      6.143
REMARK INTER + INTRA:          -5.534
REMARK INTER:                  -4.604
REMARK INTRA:                  -0.930
REMARK UNBOUND:                -0.656
REMARK SMILES O=C([O-])CCCCCCCCC(=O)[O-]
REMARK SMILES IDX 7 1 6 2 5 3 4 4 2 5 1 6 3 7 8 8 9 9 10 10 11 11 12 12 13 13
REMARK SMILES IDX 14 14
REMARK H PARENT
REMARK Flexibility Score: inf
ROOT
ATOM      1  C   UNL     1     -46.993 -48.824  67.110  1.00  0.00     0.000 C 
ENDROOT
BRANCH   1   2
ATOM      2  C   UNL     1     -45.955 -48.727  68.233  1.00  0.00     0.000 C 
BRANCH   2   3
ATOM      3  C   UNL     1     -46.397 -49.534  69.464  1.00  0.00     0.006 C 
BRANCH   3   4
ATOM      4  C   UNL     1     -46.480 -48.668  70.727  1.00  0.00     0.053 C 
BRANCH   4   5
ATOM      5  C   UNL     1     -47.706 -47.806  70.731  1.00  0.00     0.041 C 
ATOM      6  O   UNL     1     -48.801 -48.263  71.149  1.00  0.00    -0.550 OA
ATOM      7  O   UNL     1     -47.644 -46.508  70.240  1.00  0.00    -0.550 OA
ENDBRANCH   4   5
ENDBRANCH   3   4
ENDBRANCH   2   3
ENDBRANCH   1   2
BRANCH   1   8
ATOM      8  C   UNL     1     -48.222 -49.627  67.565  1.00  0.00     0.000 C 
BRANCH   8   9
ATOM      9  C   UNL     1     -49.513 -48.794  67.545  1.00  0.00     0.000 C 
BRANCH   9  10
ATOM     10  C   UNL     1     -49.261 -47.319  67.183  1.00  0.00     0.006 C 
BRANCH  10  11
ATOM     11  C   UNL     1     -50.320 -46.771  66.218  1.00  0.00     0.053 C 
BRANCH  11  12
ATOM     12  C   UNL     1     -49.775 -46.597  64.833  1.00  0.00     0.041 C 
ATOM     13  O   UNL     1     -49.022 -47.475  64.335  1.00  0.00    -0.550 OA
ATOM     14  O   UNL     1     -50.068 -45.450  64.109  1.00  0.00    -0.550 OA
ENDBRANCH  11  12
ENDBRANCH  10  11
ENDBRANCH   9  10
ENDBRANCH   8   9
ENDBRANCH   1   8
TORSDOF 9
ENDMDL
MODEL 6
REMARK VINA RESULT:    -3.135      3.188      7.038
REMARK INTER + INTRA:          -5.441
REMARK INTER:                  -4.873
REMARK INTRA:                  -0.568
REMARK UNBOUND:                -0.656
REMARK SMILES O=C([O-])CCCCCCCCC(=O)[O-]
REMARK SMILES IDX 7 1 6 2 5 3 4 4 2 5 1 6 3 7 8 8 9 9 10 10 11 11 12 12 13 13
REMARK SMILES IDX 14 14
REMARK H PARENT
REMARK Flexibility Score: inf
ROOT
ATOM      1  C   UNL     1     -48.066 -48.977  70.441  1.00  0.00     0.000 C 
ENDROOT
BRANCH   1   2
ATOM      2  C   UNL     1     -48.847 -49.024  69.123  1.00  0.00     0.000 C 
BRANCH   2   3
ATOM      3  C   UNL     1     -48.709 -47.700  68.354  1.00  0.00     0.006 C 
BRANCH   3   4
ATOM      4  C   UNL     1     -48.717 -47.908  66.834  1.00  0.00     0.053 C 
BRANCH   4   5
ATOM      5  C   UNL     1     -49.722 -47.027  66.157  1.00  0.00     0.041 C 
ATOM      6  O   UNL     1     -50.749 -46.645  66.777  1.00  0.00    -0.550 OA
ATOM      7  O   UNL     1     -49.540 -46.656  64.831  1.00  0.00    -0.550 OA
ENDBRANCH   4   5
ENDBRANCH   3   4
ENDBRANCH   2   3
ENDBRANCH   1   2
BRANCH   1   8
ATOM      8  C   UNL     1     -47.967 -47.539  70.971  1.00  0.00     0.000 C 
BRANCH   8   9
ATOM      9  C   UNL     1     -46.522 -47.125  71.292  1.00  0.00     0.000 C 
BRANCH   9  10
ATOM     10  C   UNL     1     -45.493 -47.801  70.368  1.00  0.00     0.006 C 
BRANCH  10  11
ATOM     11  C   UNL     1     -44.055 -47.609  70.867  1.00  0.00     0.053 C 
BRANCH  11  12
ATOM     12  C   UNL     1     -43.772 -46.179  71.212  1.00  0.00     0.041 C 
ATOM     13  O   UNL     1     -43.712 -45.308  70.305  1.00  0.00    -0.550 OA
ATOM     14  O   UNL     1     -43.539 -45.815  72.532  1.00  0.00    -0.550 OA
ENDBRANCH  11  12
ENDBRANCH  10  11
ENDBRANCH   9  10
ENDBRANCH   8   9
ENDBRANCH   1   8
TORSDOF 9
ENDMDL
MODEL 7
REMARK VINA RESULT:    -3.132      2.433      3.227
REMARK INTER + INTRA:          -5.436
REMARK INTER:                  -4.918
REMARK INTRA:                  -0.518
REMARK UNBOUND:                -0.656
REMARK SMILES O=C([O-])CCCCCCCCC(=O)[O-]
REMARK SMILES IDX 7 1 6 2 5 3 4 4 2 5 1 6 3 7 8 8 9 9 10 10 11 11 12 12 13 13
REMARK SMILES IDX 14 14
REMARK H PARENT
REMARK Flexibility Score: inf
ROOT
ATOM      1  C   UNL     1     -44.058 -47.822  70.765  1.00  0.00     0.000 C 
ENDROOT
BRANCH   1   2
ATOM      2  C   UNL     1     -44.076 -46.485  71.514  1.00  0.00     0.000 C 
BRANCH   2   3
ATOM      3  C   UNL     1     -42.852 -45.631  71.149  1.00  0.00     0.006 C 
BRANCH   3   4
ATOM      4  C   UNL     1     -43.052 -44.860  69.838  1.00  0.00     0.053 C 
BRANCH   4   5
ATOM      5  C   UNL     1     -43.111 -43.380  70.067  1.00  0.00     0.041 C 
ATOM      6  O   UNL     1     -42.480 -42.861  71.024  1.00  0.00    -0.550 OA
ATOM      7  O   UNL     1     -43.892 -42.580  69.243  1.00  0.00    -0.550 OA
ENDBRANCH   4   5
ENDBRANCH   3   4
ENDBRANCH   2   3
ENDBRANCH   1   2
BRANCH   1   8
ATOM      8  C   UNL     1     -45.486 -48.321  70.496  1.00  0.00     0.000 C 
BRANCH   8   9
ATOM      9  C   UNL     1     -46.557 -47.415  71.123  1.00  0.00     0.000 C 
BRANCH   9  10
ATOM     10  C   UNL     1     -47.698 -47.083  70.146  1.00  0.00     0.006 C 
BRANCH  10  11
ATOM     11  C   UNL     1     -48.373 -48.345  69.594  1.00  0.00     0.053 C 
BRANCH  11  12
ATOM     12  C   UNL     1     -48.980 -49.173  70.685  1.00  0.00     0.041 C 
ATOM     13  O   UNL     1     -49.949 -48.728  71.354  1.00  0.00    -0.550 OA
ATOM     14  O   UNL     1     -48.451 -50.421  70.988  1.00  0.00    -0.550 OA
ENDBRANCH  11  12
ENDBRANCH  10  11
ENDBRANCH   9  10
ENDBRANCH   8   9
ENDBRANCH   1   8
TORSDOF 9
ENDMDL
MODEL 8
REMARK VINA RESULT:    -3.116      3.787      5.384
REMARK INTER + INTRA:          -5.412
REMARK INTER:                  -4.512
REMARK INTRA:                  -0.899
REMARK UNBOUND:                -0.656
REMARK SMILES O=C([O-])CCCCCCCCC(=O)[O-]
REMARK SMILES IDX 7 1 6 2 5 3 4 4 2 5 1 6 3 7 8 8 9 9 10 10 11 11 12 12 13 13
REMARK SMILES IDX 14 14
REMARK H PARENT
REMARK Flexibility Score: inf
ROOT
ATOM      1  C   UNL     1     -48.034 -48.959  70.692  1.00  0.00     0.000 C 
ENDROOT
BRANCH   1   2
ATOM      2  C   UNL     1     -47.801 -47.490  71.061  1.00  0.00     0.000 C 
BRANCH   2   3
ATOM      3  C   UNL     1     -46.304 -47.143  71.024  1.00  0.00     0.006 C 
BRANCH   3   4
ATOM      4  C   UNL     1     -45.432 -48.367  70.718  1.00  0.00     0.053 C 
BRANCH   4   5
ATOM      5  C   UNL     1     -44.435 -48.084  69.636  1.00  0.00     0.041 C 
ATOM      6  O   UNL     1     -43.310 -47.598  69.923  1.00  0.00    -0.550 OA
ATOM      7  O   UNL     1     -44.763 -48.326  68.308  1.00  0.00    -0.550 OA
ENDBRANCH   4   5
ENDBRANCH   3   4
ENDBRANCH   2   3
ENDBRANCH   1   2
BRANCH   1   8
ATOM      8  C   UNL     1     -49.101 -49.087  69.593  1.00  0.00     0.000 C 
BRANCH   8   9
ATOM      9  C   UNL     1     -48.504 -49.483  68.234  1.00  0.00     0.000 C 
BRANCH   9  10
ATOM     10  C   UNL     1     -48.145 -48.263  67.367  1.00  0.00     0.006 C 
BRANCH  10  11
ATOM     11  C   UNL     1     -49.107 -47.089  67.593  1.00  0.00     0.053 C 
BRANCH  11  12
ATOM     12  C   UNL     1     -50.234 -47.096  66.606  1.00  0.00     0.041 C 
ATOM     13  O   UNL     1     -51.310 -47.691  66.877  1.00  0.00    -0.550 OA
ATOM     14  O   UNL     1     -50.083 -46.477  65.371  1.00  0.00    -0.550 OA
ENDBRANCH  11  12
ENDBRANCH  10  11
ENDBRANCH   9  10
ENDBRANCH   8   9
ENDBRANCH   1   8
TORSDOF 9
ENDMDL
MODEL 9
REMARK VINA RESULT:    -3.109      2.126      3.210
REMARK INTER + INTRA:          -5.401
REMARK INTER:                  -4.818
REMARK INTRA:                  -0.583
REMARK UNBOUND:                -0.656
REMARK SMILES O=C([O-])CCCCCCCCC(=O)[O-]
REMARK SMILES IDX 7 1 6 2 5 3 4 4 2 5 1 6 3 7 8 8 9 9 10 10 11 11 12 12 13 13
REMARK SMILES IDX 14 14
REMARK H PARENT
REMARK Flexibility Score: inf
ROOT
ATOM      1  C   UNL     1     -45.601 -48.335  70.757  1.00  0.00     0.000 C 
ENDROOT
BRANCH   1   2
ATOM      2  C   UNL     1     -44.148 -47.847  70.730  1.00  0.00     0.000 C 
BRANCH   2   3
ATOM      3  C   UNL     1     -44.081 -46.312  70.764  1.00  0.00     0.006 C 
BRANCH   3   4
ATOM      4  C   UNL     1     -43.270 -45.793  71.958  1.00  0.00     0.053 C 
BRANCH   4   5
ATOM      5  C   UNL     1     -42.790 -44.391  71.737  1.00  0.00     0.041 C 
ATOM      6  O   UNL     1     -42.933 -43.522  72.637  1.00  0.00    -0.550 OA
ATOM      7  O   UNL     1     -42.216 -44.036  70.523  1.00  0.00    -0.550 OA
ENDBRANCH   4   5
ENDBRANCH   3   4
ENDBRANCH   2   3
ENDBRANCH   1   2
BRANCH   1   8
ATOM      8  C   UNL     1     -46.555 -47.198  71.152  1.00  0.00     0.000 C 
BRANCH   8   9
ATOM      9  C   UNL     1     -48.033 -47.607  71.061  1.00  0.00     0.000 C 
BRANCH   9  10
ATOM     10  C   UNL     1     -48.232 -48.951  70.337  1.00  0.00     0.006 C 
BRANCH  10  11
ATOM     11  C   UNL     1     -49.150 -48.821  69.116  1.00  0.00     0.053 C 
BRANCH  11  12
ATOM     12  C   UNL     1     -48.513 -48.015  68.025  1.00  0.00     0.041 C 
ATOM     13  O   UNL     1     -49.159 -47.096  67.456  1.00  0.00    -0.550 OA
ATOM     14  O   UNL     1     -47.219 -48.304  67.611  1.00  0.00    -0.550 OA
ENDBRANCH  11  12
ENDBRANCH  10  11
ENDBRANCH   9  10
ENDBRANCH   8   9
ENDBRANCH   1   8
TORSDOF 9
ENDMDL
