MODEL 1
REMARK VINA RESULT:    -6.348      0.000      0.000
REMARK INTER + INTRA:          -6.348
REMARK INTER:                  -6.348
REMARK INTRA:                   0.000
REMARK UNBOUND:                 0.000
REMARK SMILES C=C1CCC[C@@]2(C)CC(=O)C(=C(C)C)C[C@@H]12
REMARK SMILES IDX 13 1 12 2 11 3 15 4 16 5 2 6 1 7 3 8 4 9 5 10 6 11 8 12 9 13
REMARK SMILES IDX 10 14 7 15 14 16
REMARK H PARENT
REMARK Flexibility Score: inf
ROOT
ATOM      1  C   UNL     1      20.312  26.403  37.334  1.00  0.00     0.039 C 
ATOM      2  C   UNL     1      20.520  27.813  36.832  1.00  0.00    -0.070 C 
ATOM      3  C   UNL     1      21.587  28.558  37.248  1.00  0.00    -0.006 C 
ATOM      4  C   UNL     1      22.651  27.994  38.176  1.00  0.00     0.047 C 
ATOM      5  C   UNL     1      23.219  29.086  39.118  1.00  0.00     0.025 C 
ATOM      6  C   UNL     1      24.258  28.449  40.034  1.00  0.00    -0.073 C 
ATOM      7  C   UNL     1      23.878  27.880  41.190  1.00  0.00     0.008 C 
ATOM      8  C   UNL     1      25.710  28.362  39.624  1.00  0.00     0.031 C 
ATOM      9  C   UNL     1      25.995  29.147  38.344  1.00  0.00     0.005 C 
ATOM     10  C   UNL     1      25.307  30.511  38.405  1.00  0.00     0.008 C 
ATOM     11  C   UNL     1      23.750  30.387  38.367  1.00  0.00    -0.018 C 
ATOM     12  C   UNL     1      23.294  30.420  36.876  1.00  0.00     0.088 C 
ATOM     13  C   UNL     1      21.893  29.915  36.726  1.00  0.00     0.159 C 
ATOM     14  O   UNL     1      21.014  30.658  36.211  1.00  0.00    -0.295 OA
ATOM     15  C   UNL     1      23.167  31.639  39.067  1.00  0.00     0.012 C 
ATOM     16  C   UNL     1      19.523  28.342  35.826  1.00  0.00     0.039 C 
ENDROOT
TORSDOF 0
ENDMDL
MODEL 2
REMARK VINA RESULT:    -5.978      1.753      4.657
REMARK INTER + INTRA:          -5.978
REMARK INTER:                  -5.978
REMARK INTRA:                   0.000
REMARK UNBOUND:                 0.000
REMARK SMILES C=C1CCC[C@@]2(C)CC(=O)C(=C(C)C)C[C@@H]12
REMARK SMILES IDX 13 1 12 2 11 3 15 4 16 5 2 6 1 7 3 8 4 9 5 10 6 11 8 12 9 13
REMARK SMILES IDX 10 14 7 15 14 16
REMARK H PARENT
REMARK Flexibility Score: inf
ROOT
ATOM      1  C   UNL     1      23.727  27.158  41.514  1.00  0.00     0.039 C 
ATOM      2  C   UNL     1      24.476  28.250  40.785  1.00  0.00    -0.070 C 
ATOM      3  C   UNL     1      23.934  28.869  39.695  1.00  0.00    -0.006 C 
ATOM      4  C   UNL     1      22.534  28.546  39.198  1.00  0.00     0.047 C 
ATOM      5  C   UNL     1      22.436  28.669  37.657  1.00  0.00     0.025 C 
ATOM      6  C   UNL     1      21.019  28.308  37.226  1.00  0.00    -0.073 C 
ATOM      7  C   UNL     1      20.695  27.028  36.981  1.00  0.00     0.008 C 
ATOM      8  C   UNL     1      19.934  29.358  37.156  1.00  0.00     0.031 C 
ATOM      9  C   UNL     1      20.485  30.770  37.356  1.00  0.00     0.005 C 
ATOM     10  C   UNL     1      21.765  30.949  36.539  1.00  0.00     0.008 C 
ATOM     11  C   UNL     1      22.936  30.067  37.079  1.00  0.00    -0.018 C 
ATOM     12  C   UNL     1      23.714  30.890  38.151  1.00  0.00     0.088 C 
ATOM     13  C   UNL     1      24.581  30.004  38.990  1.00  0.00     0.159 C 
ATOM     14  O   UNL     1      25.824  30.215  39.040  1.00  0.00    -0.295 OA
ATOM     15  C   UNL     1      23.900  29.801  35.896  1.00  0.00     0.012 C 
ATOM     16  C   UNL     1      25.825  28.649  41.339  1.00  0.00     0.039 C 
ENDROOT
TORSDOF 0
ENDMDL
MODEL 3
REMARK VINA RESULT:    -5.962      2.399      5.278
REMARK INTER + INTRA:          -5.962
REMARK INTER:                  -5.962
REMARK INTRA:                   0.000
REMARK UNBOUND:                 0.000
REMARK SMILES C=C1CCC[C@@]2(C)CC(=O)C(=C(C)C)C[C@@H]12
REMARK SMILES IDX 13 1 12 2 11 3 15 4 16 5 2 6 1 7 3 8 4 9 5 10 6 11 8 12 9 13
REMARK SMILES IDX 10 14 7 15 14 16
REMARK H PARENT
REMARK Flexibility Score: inf
ROOT
ATOM      1  C   UNL     1      22.758  33.484  35.097  1.00  0.00     0.039 C 
ATOM      2  C   UNL     1      23.460  32.174  35.377  1.00  0.00    -0.070 C 
ATOM      3  C   UNL     1      22.774  31.098  35.863  1.00  0.00    -0.006 C 
ATOM      4  C   UNL     1      21.270  31.133  36.082  1.00  0.00     0.047 C 
ATOM      5  C   UNL     1      20.853  30.264  37.296  1.00  0.00     0.025 C 
ATOM      6  C   UNL     1      19.342  30.364  37.473  1.00  0.00    -0.073 C 
ATOM      7  C   UNL     1      18.815  31.356  38.209  1.00  0.00     0.008 C 
ATOM      8  C   UNL     1      18.408  29.416  36.757  1.00  0.00     0.031 C 
ATOM      9  C   UNL     1      19.162  28.287  36.054  1.00  0.00     0.005 C 
ATOM     10  C   UNL     1      20.245  27.729  36.978  1.00  0.00     0.008 C 
ATOM     11  C   UNL     1      21.386  28.764  37.240  1.00  0.00    -0.018 C 
ATOM     12  C   UNL     1      22.476  28.578  36.141  1.00  0.00     0.088 C 
ATOM     13  C   UNL     1      23.388  29.762  36.077  1.00  0.00     0.159 C 
ATOM     14  O   UNL     1      24.627  29.605  36.247  1.00  0.00    -0.295 OA
ATOM     15  C   UNL     1      22.026  28.412  38.606  1.00  0.00     0.012 C 
ATOM     16  C   UNL     1      24.936  32.102  35.061  1.00  0.00     0.039 C 
ENDROOT
TORSDOF 0
ENDMDL
MODEL 4
REMARK VINA RESULT:    -5.890      2.038      4.149
REMARK INTER + INTRA:          -5.890
REMARK INTER:                  -5.890
REMARK INTRA:                   0.000
REMARK UNBOUND:                 0.000
REMARK SMILES C=C1CCC[C@@]2(C)CC(=O)C(=C(C)C)C[C@@H]12
REMARK SMILES IDX 13 1 12 2 11 3 15 4 16 5 2 6 1 7 3 8 4 9 5 10 6 11 8 12 9 13
REMARK SMILES IDX 10 14 7 15 14 16
REMARK H PARENT
REMARK Flexibility Score: inf
ROOT
ATOM      1  C   UNL     1      19.105  28.501  35.869  1.00  0.00     0.039 C 
ATOM      2  C   UNL     1      20.344  28.201  36.681  1.00  0.00    -0.070 C 
ATOM      3  C   UNL     1      21.126  29.208  37.172  1.00  0.00    -0.006 C 
ATOM      4  C   UNL     1      20.762  30.672  36.989  1.00  0.00     0.047 C 
ATOM      5  C   UNL     1      22.026  31.558  36.849  1.00  0.00     0.025 C 
ATOM      6  C   UNL     1      21.589  33.004  36.644  1.00  0.00    -0.073 C 
ATOM      7  C   UNL     1      21.330  33.461  35.408  1.00  0.00     0.008 C 
ATOM      8  C   UNL     1      21.350  33.921  37.822  1.00  0.00     0.031 C 
ATOM      9  C   UNL     1      21.793  33.289  39.142  1.00  0.00     0.005 C 
ATOM     10  C   UNL     1      23.156  32.619  38.968  1.00  0.00     0.008 C 
ATOM     11  C   UNL     1      23.086  31.377  38.023  1.00  0.00    -0.018 C 
ATOM     12  C   UNL     1      22.776  30.120  38.893  1.00  0.00     0.088 C 
ATOM     13  C   UNL     1      22.305  28.979  38.047  1.00  0.00     0.159 C 
ATOM     14  O   UNL     1      22.935  27.887  38.064  1.00  0.00    -0.295 OA
ATOM     15  C   UNL     1      24.492  31.188  37.402  1.00  0.00     0.012 C 
ATOM     16  C   UNL     1      20.653  26.747  36.956  1.00  0.00     0.039 C 
ENDROOT
TORSDOF 0
ENDMDL
MODEL 5
REMARK VINA RESULT:    -5.878      2.097      5.014
REMARK INTER + INTRA:          -5.878
REMARK INTER:                  -5.878
REMARK INTRA:                   0.000
REMARK UNBOUND:                 0.000
REMARK SMILES C=C1CCC[C@@]2(C)CC(=O)C(=C(C)C)C[C@@H]12
REMARK SMILES IDX 13 1 12 2 11 3 15 4 16 5 2 6 1 7 3 8 4 9 5 10 6 11 8 12 9 13
REMARK SMILES IDX 10 14 7 15 14 16
REMARK H PARENT
REMARK Flexibility Score: inf
ROOT
ATOM      1  C   UNL     1      24.058  28.282  39.759  1.00  0.00     0.039 C 
ATOM      2  C   UNL     1      24.189  29.707  39.270  1.00  0.00    -0.070 C 
ATOM      3  C   UNL     1      23.162  30.325  38.615  1.00  0.00    -0.006 C 
ATOM      4  C   UNL     1      21.818  29.647  38.403  1.00  0.00     0.047 C 
ATOM      5  C   UNL     1      21.169  30.079  37.065  1.00  0.00     0.025 C 
ATOM      6  C   UNL     1      19.842  29.346  36.905  1.00  0.00    -0.073 C 
ATOM      7  C   UNL     1      19.810  28.128  36.339  1.00  0.00     0.008 C 
ATOM      8  C   UNL     1      18.560  29.924  37.457  1.00  0.00     0.031 C 
ATOM      9  C   UNL     1      18.746  31.353  37.968  1.00  0.00     0.005 C 
ATOM     10  C   UNL     1      19.571  32.161  36.966  1.00  0.00     0.008 C 
ATOM     11  C   UNL     1      21.047  31.656  36.876  1.00  0.00    -0.018 C 
ATOM     12  C   UNL     1      21.893  32.432  37.932  1.00  0.00     0.088 C 
ATOM     13  C   UNL     1      23.199  31.747  38.188  1.00  0.00     0.159 C 
ATOM     14  O   UNL     1      24.278  32.370  37.996  1.00  0.00    -0.295 OA
ATOM     15  C   UNL     1      21.581  32.034  35.472  1.00  0.00     0.012 C 
ATOM     16  C   UNL     1      25.487  30.423  39.572  1.00  0.00     0.039 C 
ENDROOT
TORSDOF 0
ENDMDL
MODEL 6
REMARK VINA RESULT:    -5.648      2.736      4.800
REMARK INTER + INTRA:          -5.648
REMARK INTER:                  -5.648
REMARK INTRA:                   0.000
REMARK UNBOUND:                 0.000
REMARK SMILES C=C1CCC[C@@]2(C)CC(=O)C(=C(C)C)C[C@@H]12
REMARK SMILES IDX 13 1 12 2 11 3 15 4 16 5 2 6 1 7 3 8 4 9 5 10 6 11 8 12 9 13
REMARK SMILES IDX 10 14 7 15 14 16
REMARK H PARENT
REMARK Flexibility Score: inf
ROOT
ATOM      1  C   UNL     1      22.829  28.255  38.549  1.00  0.00     0.039 C 
ATOM      2  C   UNL     1      21.523  28.228  37.787  1.00  0.00    -0.070 C 
ATOM      3  C   UNL     1      20.878  29.385  37.454  1.00  0.00    -0.006 C 
ATOM      4  C   UNL     1      21.464  30.753  37.765  1.00  0.00     0.047 C 
ATOM      5  C   UNL     1      20.355  31.789  38.075  1.00  0.00     0.025 C 
ATOM      6  C   UNL     1      21.011  33.126  38.402  1.00  0.00    -0.073 C 
ATOM      7  C   UNL     1      21.391  33.399  39.661  1.00  0.00     0.008 C 
ATOM      8  C   UNL     1      21.329  34.125  37.313  1.00  0.00     0.031 C 
ATOM      9  C   UNL     1      20.738  33.714  35.965  1.00  0.00     0.005 C 
ATOM     10  C   UNL     1      19.299  33.232  36.152  1.00  0.00     0.008 C 
ATOM     11  C   UNL     1      19.227  31.894  36.956  1.00  0.00    -0.018 C 
ATOM     12  C   UNL     1      19.305  30.711  35.943  1.00  0.00     0.088 C 
ATOM     13  C   UNL     1      19.640  29.427  36.634  1.00  0.00     0.159 C 
ATOM     14  O   UNL     1      18.854  28.446  36.542  1.00  0.00    -0.295 OA
ATOM     15  C   UNL     1      17.838  31.839  37.640  1.00  0.00     0.012 C 
ATOM     16  C   UNL     1      20.989  26.873  37.382  1.00  0.00     0.039 C 
ENDROOT
TORSDOF 0
ENDMDL
MODEL 7
REMARK VINA RESULT:    -5.625      1.887      3.366
REMARK INTER + INTRA:          -5.625
REMARK INTER:                  -5.625
REMARK INTRA:                   0.000
REMARK UNBOUND:                 0.000
REMARK SMILES C=C1CCC[C@@]2(C)CC(=O)C(=C(C)C)C[C@@H]12
REMARK SMILES IDX 13 1 12 2 11 3 15 4 16 5 2 6 1 7 3 8 4 9 5 10 6 11 8 12 9 13
REMARK SMILES IDX 10 14 7 15 14 16
REMARK H PARENT
REMARK Flexibility Score: inf
ROOT
ATOM      1  C   UNL     1      18.331  31.557  38.049  1.00  0.00     0.039 C 
ATOM      2  C   UNL     1      18.978  30.355  37.400  1.00  0.00    -0.070 C 
ATOM      3  C   UNL     1      20.335  30.193  37.412  1.00  0.00    -0.006 C 
ATOM      4  C   UNL     1      21.256  31.167  38.128  1.00  0.00     0.047 C 
ATOM      5  C   UNL     1      22.614  31.308  37.395  1.00  0.00     0.025 C 
ATOM      6  C   UNL     1      23.476  32.313  38.150  1.00  0.00    -0.073 C 
ATOM      7  C   UNL     1      23.377  33.624  37.876  1.00  0.00     0.008 C 
ATOM      8  C   UNL     1      24.383  31.873  39.276  1.00  0.00     0.031 C 
ATOM      9  C   UNL     1      24.463  30.350  39.389  1.00  0.00     0.005 C 
ATOM     10  C   UNL     1      24.628  29.734  38.000  1.00  0.00     0.008 C 
ATOM     11  C   UNL     1      23.353  29.924  37.116  1.00  0.00    -0.018 C 
ATOM     12  C   UNL     1      22.409  28.706  37.352  1.00  0.00     0.088 C 
ATOM     13  C   UNL     1      21.022  28.994  36.868  1.00  0.00     0.159 C 
ATOM     14  O   UNL     1      20.500  28.250  35.994  1.00  0.00    -0.295 OA
ATOM     15  C   UNL     1      23.807  29.891  35.635  1.00  0.00     0.012 C 
ATOM     16  C   UNL     1      18.059  29.329  36.778  1.00  0.00     0.039 C 
ENDROOT
TORSDOF 0
ENDMDL
MODEL 8
REMARK VINA RESULT:    -5.570      2.117      3.869
REMARK INTER + INTRA:          -5.570
REMARK INTER:                  -5.570
REMARK INTRA:                   0.000
REMARK UNBOUND:                 0.000
REMARK SMILES C=C1CCC[C@@]2(C)CC(=O)C(=C(C)C)C[C@@H]12
REMARK SMILES IDX 13 1 12 2 11 3 15 4 16 5 2 6 1 7 3 8 4 9 5 10 6 11 8 12 9 13
REMARK SMILES IDX 10 14 7 15 14 16
REMARK H PARENT
REMARK Flexibility Score: inf
ROOT
ATOM      1  C   UNL     1      25.051  27.495  41.762  1.00  0.00     0.039 C 
ATOM      2  C   UNL     1      23.871  27.929  40.922  1.00  0.00    -0.070 C 
ATOM      3  C   UNL     1      24.051  28.641  39.769  1.00  0.00    -0.006 C 
ATOM      4  C   UNL     1      25.435  28.974  39.235  1.00  0.00     0.047 C 
ATOM      5  C   UNL     1      25.449  30.344  38.512  1.00  0.00     0.025 C 
ATOM      6  C   UNL     1      26.867  30.626  38.026  1.00  0.00    -0.073 C 
ATOM      7  C   UNL     1      27.749  31.229  38.838  1.00  0.00     0.008 C 
ATOM      8  C   UNL     1      27.333  30.155  36.668  1.00  0.00     0.031 C 
ATOM      9  C   UNL     1      26.187  29.588  35.830  1.00  0.00     0.005 C 
ATOM     10  C   UNL     1      24.964  30.499  35.936  1.00  0.00     0.008 C 
ATOM     11  C   UNL     1      24.348  30.493  37.371  1.00  0.00    -0.018 C 
ATOM     12  C   UNL     1      23.285  29.354  37.441  1.00  0.00     0.088 C 
ATOM     13  C   UNL     1      22.941  29.021  38.859  1.00  0.00     0.159 C 
ATOM     14  O   UNL     1      21.745  29.112  39.248  1.00  0.00    -0.295 OA
ATOM     15  C   UNL     1      23.609  31.841  37.564  1.00  0.00     0.012 C 
ATOM     16  C   UNL     1      22.498  27.509  41.393  1.00  0.00     0.039 C 
ENDROOT
TORSDOF 0
ENDMDL
MODEL 9
REMARK VINA RESULT:    -5.296      1.716      4.345
REMARK INTER + INTRA:          -5.296
REMARK INTER:                  -5.296
REMARK INTRA:                   0.000
REMARK UNBOUND:                 0.000
REMARK SMILES C=C1CCC[C@@]2(C)CC(=O)C(=C(C)C)C[C@@H]12
REMARK SMILES IDX 13 1 12 2 11 3 15 4 16 5 2 6 1 7 3 8 4 9 5 10 6 11 8 12 9 13
REMARK SMILES IDX 10 14 7 15 14 16
REMARK H PARENT
REMARK Flexibility Score: inf
ROOT
ATOM      1  C   UNL     1      24.367  34.391  39.394  1.00  0.00     0.039 C 
ATOM      2  C   UNL     1      23.121  33.876  38.709  1.00  0.00    -0.070 C 
ATOM      3  C   UNL     1      22.889  32.536  38.583  1.00  0.00    -0.006 C 
ATOM      4  C   UNL     1      23.826  31.497  39.177  1.00  0.00     0.047 C 
ATOM      5  C   UNL     1      23.883  30.218  38.303  1.00  0.00     0.025 C 
ATOM      6  C   UNL     1      24.856  29.233  38.940  1.00  0.00    -0.073 C 
ATOM      7  C   UNL     1      26.165  29.294  38.647  1.00  0.00     0.008 C 
ATOM      8  C   UNL     1      24.390  28.235  39.975  1.00  0.00     0.031 C 
ATOM      9  C   UNL     1      22.868  28.219  40.114  1.00  0.00     0.005 C 
ATOM     10  C   UNL     1      22.218  28.233  38.731  1.00  0.00     0.008 C 
ATOM     11  C   UNL     1      22.459  29.582  37.981  1.00  0.00    -0.018 C 
ATOM     12  C   UNL     1      21.296  30.556  38.343  1.00  0.00     0.088 C 
ATOM     13  C   UNL     1      21.646  31.970  37.999  1.00  0.00     0.159 C 
ATOM     14  O   UNL     1      20.914  32.618  37.202  1.00  0.00    -0.295 OA
ATOM     15  C   UNL     1      22.375  29.290  36.462  1.00  0.00     0.012 C 
ATOM     16  C   UNL     1      22.132  34.906  38.211  1.00  0.00     0.039 C 
ENDROOT
TORSDOF 0
ENDMDL
