MODEL 1
REMARK VINA RESULT:    -4.751      0.000      0.000
REMARK INTER + INTRA:          -5.990
REMARK INTER:                  -5.723
REMARK INTRA:                  -0.266
REMARK UNBOUND:                -0.266
REMARK SMILES NC(=O)C[C@H]([NH3+])C(=O)[O-]
REMARK SMILES IDX 4 1 5 2 6 3 7 7 8 8 9 9 2 10 3 11 1 12
REMARK H PARENT 6 4 6 5 6 6 1 13 1 14
REMARK Flexibility Score: inf
ROOT
ATOM      1  C   UNL     1     -19.453 -13.380  14.149  1.00  0.00     0.171 C 
ENDROOT
BRANCH   1   2
ATOM      2  C   UNL     1     -18.488 -12.926  13.036  1.00  0.00     0.237 C 
BRANCH   2   3
ATOM      3  N   UNL     1     -18.662 -13.724  11.814  1.00  0.00    -0.350 N 
ATOM      4  H   UNL     1     -19.681 -13.826  11.600  1.00  0.00     0.345 HD
ATOM      5  H   UNL     1     -18.267 -14.682  11.953  1.00  0.00     0.345 HD
ATOM      6  H   UNL     1     -18.184 -13.269  11.003  1.00  0.00     0.345 HD
ENDBRANCH   2   3
BRANCH   2   7
ATOM      7  C   UNL     1     -17.066 -13.019  13.523  1.00  0.00     0.100 C 
ATOM      8  O   UNL     1     -16.155 -13.428  12.755  1.00  0.00    -0.544 OA
ATOM      9  O   UNL     1     -16.755 -12.670  14.830  1.00  0.00    -0.544 OA
ENDBRANCH   2   7
ENDBRANCH   1   2
BRANCH   1  10
ATOM     10  C   UNL     1     -20.889 -13.217  13.742  1.00  0.00     0.223 C 
ATOM     11  O   UNL     1     -21.213 -12.291  12.952  1.00  0.00    -0.275 OA
ATOM     12  N   UNL     1     -21.884 -14.125  14.214  1.00  0.00    -0.369 N 
ATOM     13  H   UNL     1     -22.880 -14.015  13.919  1.00  0.00     0.159 HD
ATOM     14  H   UNL     1     -21.629 -14.913  14.850  1.00  0.00     0.159 HD
ENDBRANCH   1  10
TORSDOF 4
ENDMDL
MODEL 2
REMARK VINA RESULT:    -4.726     19.949     20.712
REMARK INTER + INTRA:          -5.960
REMARK INTER:                  -5.771
REMARK INTRA:                  -0.189
REMARK UNBOUND:                -0.266
REMARK SMILES NC(=O)C[C@H]([NH3+])C(=O)[O-]
REMARK SMILES IDX 4 1 5 2 6 3 7 7 8 8 9 9 2 10 3 11 1 12
REMARK H PARENT 6 4 6 5 6 6 1 13 1 14
REMARK Flexibility Score: inf
ROOT
ATOM      1  C   UNL     1     -13.138   3.541  21.724  1.00  0.00     0.171 C 
ENDROOT
BRANCH   1   2
ATOM      2  C   UNL     1     -13.264   4.783  22.628  1.00  0.00     0.237 C 
BRANCH   2   3
ATOM      3  N   UNL     1     -12.198   4.825  23.638  1.00  0.00    -0.350 N 
ATOM      4  H   UNL     1     -12.398   4.128  24.393  1.00  0.00     0.345 HD
ATOM      5  H   UNL     1     -12.158   5.772  24.080  1.00  0.00     0.345 HD
ATOM      6  H   UNL     1     -11.270   4.606  23.207  1.00  0.00     0.345 HD
ENDBRANCH   2   3
BRANCH   2   7
ATOM      7  C   UNL     1     -14.614   4.796  23.294  1.00  0.00     0.100 C 
ATOM      8  O   UNL     1     -14.954   3.861  24.066  1.00  0.00    -0.544 OA
ATOM      9  O   UNL     1     -15.502   5.835  23.044  1.00  0.00    -0.544 OA
ENDBRANCH   2   7
ENDBRANCH   1   2
BRANCH   1  10
ATOM     10  C   UNL     1     -12.377   3.843  20.466  1.00  0.00     0.223 C 
ATOM     11  O   UNL     1     -11.182   4.236  20.537  1.00  0.00    -0.275 OA
ATOM     12  N   UNL     1     -12.984   3.655  19.188  1.00  0.00    -0.369 N 
ATOM     13  H   UNL     1     -12.447   3.856  18.315  1.00  0.00     0.159 HD
ATOM     14  H   UNL     1     -13.966   3.307  19.109  1.00  0.00     0.159 HD
ENDBRANCH   1  10
TORSDOF 4
ENDMDL
MODEL 3
REMARK VINA RESULT:    -4.668      1.744      3.985
REMARK INTER + INTRA:          -5.890
REMARK INTER:                  -5.671
REMARK INTRA:                  -0.219
REMARK UNBOUND:                -0.266
REMARK SMILES NC(=O)C[C@H]([NH3+])C(=O)[O-]
REMARK SMILES IDX 4 1 5 2 6 3 7 7 8 8 9 9 2 10 3 11 1 12
REMARK H PARENT 6 4 6 5 6 6 1 13 1 14
REMARK Flexibility Score: inf
ROOT
ATOM      1  C   UNL     1     -18.049 -12.168  13.463  1.00  0.00     0.171 C 
ENDROOT
BRANCH   1   2
ATOM      2  C   UNL     1     -18.912 -13.347  12.973  1.00  0.00     0.237 C 
BRANCH   2   3
ATOM      3  N   UNL     1     -18.636 -13.668  11.565  1.00  0.00    -0.350 N 
ATOM      4  H   UNL     1     -18.267 -14.645  11.491  1.00  0.00     0.345 HD
ATOM      5  H   UNL     1     -17.906 -13.022  11.187  1.00  0.00     0.345 HD
ATOM      6  H   UNL     1     -19.504 -13.584  10.989  1.00  0.00     0.345 HD
ENDBRANCH   2   3
BRANCH   2   7
ATOM      7  C   UNL     1     -20.370 -13.025  13.158  1.00  0.00     0.100 C 
ATOM      8  O   UNL     1     -20.872 -12.005  12.616  1.00  0.00    -0.544 OA
ATOM      9  O   UNL     1     -21.168 -13.845  13.946  1.00  0.00    -0.544 OA
ENDBRANCH   2   7
ENDBRANCH   1   2
BRANCH   1  10
ATOM     10  C   UNL     1     -16.775 -12.639  14.104  1.00  0.00     0.223 C 
ATOM     11  O   UNL     1     -16.050 -13.479  13.510  1.00  0.00    -0.275 OA
ATOM     12  N   UNL     1     -16.362 -12.115  15.367  1.00  0.00    -0.369 N 
ATOM     13  H   UNL     1     -15.470 -12.437  15.804  1.00  0.00     0.159 HD
ATOM     14  H   UNL     1     -16.939 -11.400  15.863  1.00  0.00     0.159 HD
ENDBRANCH   1  10
TORSDOF 4
ENDMDL
MODEL 4
REMARK VINA RESULT:    -4.619      1.711      2.418
REMARK INTER + INTRA:          -5.830
REMARK INTER:                  -5.729
REMARK INTRA:                  -0.101
REMARK UNBOUND:                -0.266
REMARK SMILES NC(=O)C[C@H]([NH3+])C(=O)[O-]
REMARK SMILES IDX 4 1 5 2 6 3 7 7 8 8 9 9 2 10 3 11 1 12
REMARK H PARENT 6 4 6 5 6 6 1 13 1 14
REMARK Flexibility Score: inf
ROOT
ATOM      1  C   UNL     1     -18.765 -11.857  12.771  1.00  0.00     0.171 C 
ENDROOT
BRANCH   1   2
ATOM      2  C   UNL     1     -18.316 -13.056  13.630  1.00  0.00     0.237 C 
BRANCH   2   3
ATOM      3  N   UNL     1     -19.287 -13.351  14.693  1.00  0.00    -0.350 N 
ATOM      4  H   UNL     1     -19.979 -14.059  14.353  1.00  0.00     0.345 HD
ATOM      5  H   UNL     1     -19.816 -12.485  14.946  1.00  0.00     0.345 HD
ATOM      6  H   UNL     1     -18.805 -13.722  15.543  1.00  0.00     0.345 HD
ENDBRANCH   2   3
BRANCH   2   7
ATOM      7  C   UNL     1     -16.960 -12.780  14.224  1.00  0.00     0.100 C 
ATOM      8  O   UNL     1     -15.920 -13.236  13.680  1.00  0.00    -0.544 OA
ATOM      9  O   UNL     1     -16.852 -12.033  15.390  1.00  0.00    -0.544 OA
ENDBRANCH   2   7
ENDBRANCH   1   2
BRANCH   1  10
ATOM     10  C   UNL     1     -19.256 -12.293  11.421  1.00  0.00     0.223 C 
ATOM     11  O   UNL     1     -20.011 -11.535  10.756  1.00  0.00    -0.275 OA
ATOM     12  N   UNL     1     -18.847 -13.544  10.870  1.00  0.00    -0.369 N 
ATOM     13  H   UNL     1     -19.182 -13.839   9.926  1.00  0.00     0.159 HD
ATOM     14  H   UNL     1     -18.202 -14.175  11.397  1.00  0.00     0.159 HD
ENDBRANCH   1  10
TORSDOF 4
ENDMDL
MODEL 5
REMARK VINA RESULT:    -4.610     19.895     20.392
REMARK INTER + INTRA:          -5.819
REMARK INTER:                  -5.533
REMARK INTRA:                  -0.286
REMARK UNBOUND:                -0.266
REMARK SMILES NC(=O)C[C@H]([NH3+])C(=O)[O-]
REMARK SMILES IDX 4 1 5 2 6 3 7 7 8 8 9 9 2 10 3 11 1 12
REMARK H PARENT 6 4 6 5 6 6 1 13 1 14
REMARK Flexibility Score: inf
ROOT
ATOM      1  C   UNL     1     -14.053   3.624  22.033  1.00  0.00     0.171 C 
ENDROOT
BRANCH   1   2
ATOM      2  C   UNL     1     -12.539   3.902  22.126  1.00  0.00     0.237 C 
BRANCH   2   3
ATOM      3  N   UNL     1     -12.257   5.069  22.972  1.00  0.00    -0.350 N 
ATOM      4  H   UNL     1     -13.065   5.246  23.613  1.00  0.00     0.345 HD
ATOM      5  H   UNL     1     -12.127   5.920  22.378  1.00  0.00     0.345 HD
ATOM      6  H   UNL     1     -11.394   4.913  23.543  1.00  0.00     0.345 HD
ENDBRANCH   2   3
BRANCH   2   7
ATOM      7  C   UNL     1     -11.972   4.107  20.747  1.00  0.00     0.100 C 
ATOM      8  O   UNL     1     -11.039   4.932  20.557  1.00  0.00    -0.544 OA
ATOM      9  O   UNL     1     -12.488   3.398  19.670  1.00  0.00    -0.544 OA
ENDBRANCH   2   7
ENDBRANCH   1   2
BRANCH   1  10
ATOM     10  C   UNL     1     -14.811   4.295  23.142  1.00  0.00     0.223 C 
ATOM     11  O   UNL     1     -15.169   5.496  23.017  1.00  0.00    -0.275 OA
ATOM     12  N   UNL     1     -15.159   3.573  24.323  1.00  0.00    -0.369 N 
ATOM     13  H   UNL     1     -15.696   4.040  25.087  1.00  0.00     0.159 HD
ATOM     14  H   UNL     1     -14.891   2.569  24.433  1.00  0.00     0.159 HD
ENDBRANCH   1  10
TORSDOF 4
ENDMDL
MODEL 6
REMARK VINA RESULT:    -4.474     19.346     19.937
REMARK INTER + INTRA:          -5.655
REMARK INTER:                  -5.430
REMARK INTRA:                  -0.226
REMARK UNBOUND:                -0.266
REMARK SMILES NC(=O)C[C@H]([NH3+])C(=O)[O-]
REMARK SMILES IDX 4 1 5 2 6 3 7 7 8 8 9 9 2 10 3 11 1 12
REMARK H PARENT 6 4 6 5 6 6 1 13 1 14
REMARK Flexibility Score: inf
ROOT
ATOM      1  C   UNL     1     -13.495   3.336  22.087  1.00  0.00     0.171 C 
ENDROOT
BRANCH   1   2
ATOM      2  C   UNL     1     -13.366   3.618  20.577  1.00  0.00     0.237 C 
BRANCH   2   3
ATOM      3  N   UNL     1     -14.195   2.698  19.785  1.00  0.00    -0.350 N 
ATOM      4  H   UNL     1     -14.896   3.242  19.230  1.00  0.00     0.345 HD
ATOM      5  H   UNL     1     -14.719   2.053  20.418  1.00  0.00     0.345 HD
ATOM      6  H   UNL     1     -13.603   2.135  19.131  1.00  0.00     0.345 HD
ENDBRANCH   2   3
BRANCH   2   7
ATOM      7  C   UNL     1     -11.924   3.513  20.158  1.00  0.00     0.100 C 
ATOM      8  O   UNL     1     -11.513   2.498  19.535  1.00  0.00    -0.544 OA
ATOM      9  O   UNL     1     -11.033   4.530  20.474  1.00  0.00    -0.544 OA
ENDBRANCH   2   7
ENDBRANCH   1   2
BRANCH   1  10
ATOM     10  C   UNL     1     -13.325   4.586  22.903  1.00  0.00     0.223 C 
ATOM     11  O   UNL     1     -14.303   5.360  23.071  1.00  0.00    -0.275 OA
ATOM     12  N   UNL     1     -12.072   4.885  23.518  1.00  0.00    -0.369 N 
ATOM     13  H   UNL     1     -11.961   5.749  24.094  1.00  0.00     0.159 HD
ATOM     14  H   UNL     1     -11.256   4.241  23.409  1.00  0.00     0.159 HD
ENDBRANCH   1  10
TORSDOF 4
ENDMDL
MODEL 7
REMARK VINA RESULT:    -4.251      2.775      4.088
REMARK INTER + INTRA:          -5.387
REMARK INTER:                  -5.122
REMARK INTRA:                  -0.265
REMARK UNBOUND:                -0.266
REMARK SMILES NC(=O)C[C@H]([NH3+])C(=O)[O-]
REMARK SMILES IDX 4 1 5 2 6 3 7 7 8 8 9 9 2 10 3 11 1 12
REMARK H PARENT 6 4 6 5 6 6 1 13 1 14
REMARK Flexibility Score: inf
ROOT
ATOM      1  C   UNL     1     -16.530 -12.702  14.668  1.00  0.00     0.171 C 
ENDROOT
BRANCH   1   2
ATOM      2  C   UNL     1     -17.850 -12.580  13.881  1.00  0.00     0.237 C 
BRANCH   2   3
ATOM      3  N   UNL     1     -18.995 -13.047  14.676  1.00  0.00    -0.350 N 
ATOM      4  H   UNL     1     -18.704 -13.179  15.672  1.00  0.00     0.345 HD
ATOM      5  H   UNL     1     -19.329 -13.970  14.315  1.00  0.00     0.345 HD
ATOM      6  H   UNL     1     -19.781 -12.358  14.636  1.00  0.00     0.345 HD
ENDBRANCH   2   3
BRANCH   2   7
ATOM      7  C   UNL     1     -17.754 -13.357  12.596  1.00  0.00     0.100 C 
ATOM      8  O   UNL     1     -16.654 -13.847  12.228  1.00  0.00    -0.544 OA
ATOM      9  O   UNL     1     -18.879 -13.523  11.799  1.00  0.00    -0.544 OA
ENDBRANCH   2   7
ENDBRANCH   1   2
BRANCH   1  10
ATOM     10  C   UNL     1     -16.315 -11.530  15.581  1.00  0.00     0.223 C 
ATOM     11  O   UNL     1     -17.274 -11.089  16.269  1.00  0.00    -0.275 OA
ATOM     12  N   UNL     1     -15.024 -10.933  15.703  1.00  0.00    -0.369 N 
ATOM     13  H   UNL     1     -14.877 -10.125  16.348  1.00  0.00     0.159 HD
ATOM     14  H   UNL     1     -14.212 -11.300  15.159  1.00  0.00     0.159 HD
ENDBRANCH   1  10
TORSDOF 4
ENDMDL
MODEL 8
REMARK VINA RESULT:    -4.172     19.416     20.162
REMARK INTER + INTRA:          -5.292
REMARK INTER:                  -5.200
REMARK INTRA:                  -0.092
REMARK UNBOUND:                -0.266
REMARK SMILES NC(=O)C[C@H]([NH3+])C(=O)[O-]
REMARK SMILES IDX 4 1 5 2 6 3 7 7 8 8 9 9 2 10 3 11 1 12
REMARK H PARENT 6 4 6 5 6 6 1 13 1 14
REMARK Flexibility Score: inf
ROOT
ATOM      1  C   UNL     1     -12.634   4.373  21.469  1.00  0.00     0.171 C 
ENDROOT
BRANCH   1   2
ATOM      2  C   UNL     1     -13.661   3.836  22.485  1.00  0.00     0.237 C 
BRANCH   2   3
ATOM      3  N   UNL     1     -14.850   4.698  22.555  1.00  0.00    -0.350 N 
ATOM      4  H   UNL     1     -14.950   5.237  21.664  1.00  0.00     0.345 HD
ATOM      5  H   UNL     1     -14.748   5.387  23.335  1.00  0.00     0.345 HD
ATOM      6  H   UNL     1     -15.713   4.128  22.710  1.00  0.00     0.345 HD
ENDBRANCH   2   3
BRANCH   2   7
ATOM      7  C   UNL     1     -13.022   3.717  23.843  1.00  0.00     0.100 C 
ATOM      8  O   UNL     1     -11.832   4.089  24.023  1.00  0.00    -0.544 OA
ATOM      9  O   UNL     1     -13.739   3.176  24.903  1.00  0.00    -0.544 OA
ENDBRANCH   2   7
ENDBRANCH   1   2
BRANCH   1  10
ATOM     10  C   UNL     1     -12.555   3.505  20.246  1.00  0.00     0.223 C 
ATOM     11  O   UNL     1     -11.442   3.049  19.874  1.00  0.00    -0.275 OA
ATOM     12  N   UNL     1     -13.737   3.164  19.522  1.00  0.00    -0.369 N 
ATOM     13  H   UNL     1     -13.679   2.551  18.679  1.00  0.00     0.159 HD
ATOM     14  H   UNL     1     -14.672   3.513  19.830  1.00  0.00     0.159 HD
ENDBRANCH   1  10
TORSDOF 4
ENDMDL
MODEL 9
REMARK VINA RESULT:    -4.102      2.007      2.446
REMARK INTER + INTRA:          -5.207
REMARK INTER:                  -5.005
REMARK INTRA:                  -0.203
REMARK UNBOUND:                -0.266
REMARK SMILES NC(=O)C[C@H]([NH3+])C(=O)[O-]
REMARK SMILES IDX 4 1 5 2 6 3 7 7 8 8 9 9 2 10 3 11 1 12
REMARK H PARENT 6 4 6 5 6 6 1 13 1 14
REMARK Flexibility Score: inf
ROOT
ATOM      1  C   UNL     1     -18.509 -11.969  13.985  1.00  0.00     0.171 C 
ENDROOT
BRANCH   1   2
ATOM      2  C   UNL     1     -17.251 -12.552  14.659  1.00  0.00     0.237 C 
BRANCH   2   3
ATOM      3  N   UNL     1     -16.729 -11.650  15.696  1.00  0.00    -0.350 N 
ATOM      4  H   UNL     1     -15.749 -11.369  15.460  1.00  0.00     0.345 HD
ATOM      5  H   UNL     1     -16.709 -12.139  16.620  1.00  0.00     0.345 HD
ATOM      6  H   UNL     1     -17.322 -10.792  15.774  1.00  0.00     0.345 HD
ENDBRANCH   2   3
BRANCH   2   7
ATOM      7  C   UNL     1     -16.194 -12.822  13.622  1.00  0.00     0.100 C 
ATOM      8  O   UNL     1     -16.248 -13.861  12.912  1.00  0.00    -0.544 OA
ATOM      9  O   UNL     1     -15.140 -11.933  13.456  1.00  0.00    -0.544 OA
ENDBRANCH   2   7
ENDBRANCH   1   2
BRANCH   1  10
ATOM     10  C   UNL     1     -19.422 -13.050  13.481  1.00  0.00     0.223 C 
ATOM     11  O   UNL     1     -20.327 -13.504  14.230  1.00  0.00    -0.275 OA
ATOM     12  N   UNL     1     -19.293 -13.544  12.148  1.00  0.00    -0.369 N 
ATOM     13  H   UNL     1     -19.937 -14.288  11.798  1.00  0.00     0.159 HD
ATOM     14  H   UNL     1     -18.564 -13.163  11.505  1.00  0.00     0.159 HD
ENDBRANCH   1  10
TORSDOF 4
ENDMDL
