MODEL 1
REMARK VINA RESULT:    -3.515      0.000      0.000
REMARK INTER + INTRA:          -5.803
REMARK INTER:                  -5.159
REMARK INTRA:                  -0.645
REMARK UNBOUND:                -0.645
REMARK SMILES C=C1C=C[C@H](C(C)C)CCC(C)=CCC1
REMARK SMILES IDX 3 1 4 2 5 3 9 4 10 5 11 6 12 7 13 8 6 10 7 11 8 12 2 13 1 14
REMARK SMILES IDX 15 15 14 16
REMARK H PARENT
REMARK Flexibility Score: 70.00
ROOT
ATOM      1  C   UNL     1     138.602 140.126 135.233  1.00  0.00    -0.001 C 
ATOM      2  C   UNL     1     137.566 140.707 134.608  1.00  0.00    -0.023 C 
ENDROOT
BRANCH   2   3
ATOM      3  C   UNL     1     136.421 139.941 133.968  1.00  0.00     0.014 C 
BRANCH   3   4
ATOM      4  C   UNL     1     135.089 140.125 134.743  1.00  0.00     0.012 C 
BRANCH   4   5
ATOM      5  C   UNL     1     135.240 140.453 136.249  1.00  0.00     0.031 C 
BRANCH   5   6
ATOM      6  C   UNL     1     135.109 139.263 137.187  1.00  0.00    -0.077 C 
ATOM      7  C   UNL     1     133.719 138.782 137.528  1.00  0.00     0.039 C 
ATOM      8  C   UNL     1     136.143 138.667 137.834  1.00  0.00    -0.028 CG0
ATOM      9  G   UNL     1     137.622 138.820 137.556  1.00  0.00     0.000 G0
ENDBRANCH   5   6
ENDBRANCH   4   5
ENDBRANCH   3   4
BRANCH   3  10
ATOM     10  C   UNL     1     136.270 140.269 132.449  1.00  0.00    -0.010 C 
ATOM     11  C   UNL     1     137.136 141.480 132.063  1.00  0.00     0.008 C 
ATOM     12  C   UNL     1     134.820 140.502 131.986  1.00  0.00     0.008 C 
ENDBRANCH   3  10
ENDBRANCH   2   3
BRANCH   1  13
ATOM     13  C   UNL     1     138.793 138.665 135.321  1.00  0.00    -0.055 C 
ATOM     14  C   UNL     1     139.488 138.042 134.364  1.00  0.00     0.012 C 
BRANCH  13  15
ATOM     15  C   UNL     1     138.224 137.883 136.485  1.00  0.00     0.039 C 
BRANCH  15  16
ATOM     16  C   UNL     1     137.641 138.815 137.570  1.00  0.00     0.032 CG0
ATOM     17  G   UNL     1     136.160 138.667 137.838  1.00  0.00     0.000 G0
ENDBRANCH  15  16
ENDBRANCH  13  15
ENDBRANCH   1  13
TORSDOF 1
ENDMDL
MODEL 2
REMARK VINA RESULT:    -3.430      2.422      5.375
REMARK INTER + INTRA:          -5.679
REMARK INTER:                  -4.994
REMARK INTRA:                  -0.686
REMARK UNBOUND:                -0.645
REMARK SMILES C=C1C=C[C@H](C(C)C)CCC(C)=CCC1
REMARK SMILES IDX 3 1 4 2 5 3 9 4 10 5 11 6 12 7 13 8 6 10 7 11 8 12 2 13 1 14
REMARK SMILES IDX 15 15 14 16
REMARK H PARENT
REMARK Flexibility Score: 70.00
ROOT
ATOM      1  C   UNL     1     132.581 138.538 135.451  1.00  0.00    -0.001 C 
ATOM      2  C   UNL     1     133.094 139.352 136.386  1.00  0.00    -0.023 C 
ENDROOT
BRANCH   2   3
ATOM      3  C   UNL     1     134.387 139.080 137.134  1.00  0.00     0.014 C 
BRANCH   3   4
ATOM      4  C   UNL     1     135.457 140.174 136.868  1.00  0.00     0.012 C 
BRANCH   4   5
ATOM      5  C   UNL     1     135.509 140.709 135.416  1.00  0.00     0.031 C 
BRANCH   5   6
ATOM      6  C   UNL     1     136.371 139.900 134.459  1.00  0.00    -0.077 C 
ATOM      7  C   UNL     1     137.865 140.119 134.498  1.00  0.00     0.039 C 
ATOM      8  C   UNL     1     135.895 139.077 133.490  1.00  0.00    -0.028 CG0
ATOM      9  G   UNL     1     134.487 138.544 133.338  1.00  0.00     0.000 G0
ENDBRANCH   5   6
ENDBRANCH   4   5
ENDBRANCH   3   4
BRANCH   3  10
ATOM     10  C   UNL     1     134.148 138.847 138.658  1.00  0.00    -0.010 C 
ATOM     11  C   UNL     1     135.148 139.659 139.499  1.00  0.00     0.008 C 
ATOM     12  C   UNL     1     134.186 137.370 139.094  1.00  0.00     0.008 C 
ENDBRANCH   3  10
ENDBRANCH   2   3
BRANCH   1  13
ATOM     13  C   UNL     1     133.177 137.240 135.076  1.00  0.00    -0.055 C 
ATOM     14  C   UNL     1     132.757 136.131 135.691  1.00  0.00     0.012 C 
BRANCH  13  15
ATOM     15  C   UNL     1     134.239 137.163 134.001  1.00  0.00     0.039 C 
BRANCH  15  16
ATOM     16  C   UNL     1     134.486 138.537 133.339  1.00  0.00     0.032 CG0
ATOM     17  G   UNL     1     135.887 139.090 133.472  1.00  0.00     0.000 G0
ENDBRANCH  15  16
ENDBRANCH  13  15
ENDBRANCH   1  13
TORSDOF 1
ENDMDL
MODEL 3
REMARK VINA RESULT:    -3.349      2.507      5.488
REMARK INTER + INTRA:          -5.560
REMARK INTER:                  -5.059
REMARK INTRA:                  -0.502
REMARK UNBOUND:                -0.645
REMARK SMILES C=C1C=C[C@H](C(C)C)CCC(C)=CCC1
REMARK SMILES IDX 3 1 4 2 5 3 9 4 10 5 11 6 12 7 13 8 6 10 7 11 8 12 2 13 1 14
REMARK SMILES IDX 15 15 14 16
REMARK H PARENT
REMARK Flexibility Score: 70.00
ROOT
ATOM      1  C   UNL     1     138.289 140.140 135.311  1.00  0.00    -0.001 C 
ATOM      2  C   UNL     1     139.203 139.759 136.217  1.00  0.00    -0.023 C 
ENDROOT
BRANCH   2   3
ATOM      3  C   UNL     1     139.149 138.447 136.981  1.00  0.00     0.014 C 
BRANCH   3   4
ATOM      4  C   UNL     1     140.472 137.644 136.858  1.00  0.00     0.012 C 
BRANCH   4   5
ATOM      5  C   UNL     1     140.942 137.363 135.410  1.00  0.00     0.031 C 
BRANCH   5   6
ATOM      6  C   UNL     1     140.098 136.360 134.638  1.00  0.00    -0.077 C 
ATOM      7  C   UNL     1     140.384 134.891 134.844  1.00  0.00     0.039 C 
ATOM      8  C   UNL     1     139.181 136.682 133.691  1.00  0.00    -0.028 CG0
ATOM      9  G   UNL     1     138.578 138.040 133.410  1.00  0.00     0.000 G0
ENDBRANCH   5   6
ENDBRANCH   4   5
ENDBRANCH   3   4
BRANCH   3  10
ATOM     10  C   UNL     1     138.717 138.649 138.467  1.00  0.00    -0.010 C 
ATOM     11  C   UNL     1     139.324 137.558 139.366  1.00  0.00     0.008 C 
ATOM     12  C   UNL     1     137.193 138.712 138.688  1.00  0.00     0.008 C 
ENDBRANCH   3  10
ENDBRANCH   2   3
BRANCH   1  13
ATOM     13  C   UNL     1     137.078 139.360 134.989  1.00  0.00    -0.055 C 
ATOM     14  C   UNL     1     135.931 139.656 135.606  1.00  0.00     0.012 C 
BRANCH  13  15
ATOM     15  C   UNL     1     137.129 138.248 133.963  1.00  0.00     0.039 C 
BRANCH  15  16
ATOM     16  C   UNL     1     138.560 138.036 133.419  1.00  0.00     0.032 CG0
ATOM     17  G   UNL     1     139.176 136.684 133.696  1.00  0.00     0.000 G0
ENDBRANCH  15  16
ENDBRANCH  13  15
ENDBRANCH   1  13
TORSDOF 1
ENDMDL
MODEL 4
REMARK VINA RESULT:    -3.348      1.928      4.426
REMARK INTER + INTRA:          -5.558
REMARK INTER:                  -4.933
REMARK INTRA:                  -0.625
REMARK UNBOUND:                -0.645
REMARK SMILES C=C1C=C[C@H](C(C)C)CCC(C)=CCC1
REMARK SMILES IDX 3 1 4 2 5 3 9 4 10 5 11 6 12 7 13 8 6 10 7 11 8 12 2 13 1 14
REMARK SMILES IDX 15 15 14 16
REMARK H PARENT
REMARK Flexibility Score: 70.00
ROOT
ATOM      1  C   UNL     1     140.274 137.768 137.076  1.00  0.00    -0.001 C 
ATOM      2  C   UNL     1     140.697 137.672 135.806  1.00  0.00    -0.023 C 
ENDROOT
BRANCH   2   3
ATOM      3  C   UNL     1     139.864 137.097 134.674  1.00  0.00     0.014 C 
BRANCH   3   4
ATOM      4  C   UNL     1     139.416 138.189 133.665  1.00  0.00     0.012 C 
BRANCH   4   5
ATOM      5  C   UNL     1     137.884 138.333 133.485  1.00  0.00     0.031 C 
BRANCH   5   6
ATOM      6  C   UNL     1     137.245 139.469 134.269  1.00  0.00    -0.077 C 
ATOM      7  C   UNL     1     137.042 140.788 133.561  1.00  0.00     0.039 C 
ATOM      8  C   UNL     1     136.944 139.427 135.592  1.00  0.00    -0.028 CG0
ATOM      9  G   UNL     1     136.878 138.211 136.488  1.00  0.00     0.000 G0
ENDBRANCH   5   6
ENDBRANCH   4   5
ENDBRANCH   3   4
BRANCH   3  10
ATOM     10  C   UNL     1     140.576 135.899 133.969  1.00  0.00    -0.010 C 
ATOM     11  C   UNL     1     140.379 135.967 132.445  1.00  0.00     0.008 C 
ATOM     12  C   UNL     1     140.152 134.511 134.484  1.00  0.00     0.008 C 
ENDBRANCH   3  10
ENDBRANCH   2   3
BRANCH   1  13
ATOM     13  C   UNL     1     138.968 137.267 137.546  1.00  0.00    -0.055 C 
ATOM     14  C   UNL     1     138.833 135.968 137.827  1.00  0.00     0.012 C 
BRANCH  13  15
ATOM     15  C   UNL     1     137.799 138.212 137.723  1.00  0.00     0.039 C 
BRANCH  15  16
ATOM     16  C   UNL     1     136.866 138.206 136.492  1.00  0.00     0.032 CG0
ATOM     17  G   UNL     1     136.943 139.424 135.600  1.00  0.00     0.000 G0
ENDBRANCH  15  16
ENDBRANCH  13  15
ENDBRANCH   1  13
TORSDOF 1
ENDMDL
MODEL 5
REMARK VINA RESULT:    -3.340      2.169      3.519
REMARK INTER + INTRA:          -5.546
REMARK INTER:                  -5.035
REMARK INTRA:                  -0.512
REMARK UNBOUND:                -0.645
REMARK SMILES C=C1C=C[C@H](C(C)C)CCC(C)=CCC1
REMARK SMILES IDX 3 1 4 2 5 3 9 4 10 5 11 6 12 7 13 8 6 10 7 11 8 12 2 13 1 14
REMARK SMILES IDX 15 15 14 16
REMARK H PARENT
REMARK Flexibility Score: 70.00
ROOT
ATOM      1  C   UNL     1     134.994 140.114 137.325  1.00  0.00    -0.001 C 
ATOM      2  C   UNL     1     135.017 140.572 136.064  1.00  0.00    -0.023 C 
ENDROOT
BRANCH   2   3
ATOM      3  C   UNL     1     135.634 139.820 134.897  1.00  0.00     0.014 C 
BRANCH   3   4
ATOM      4  C   UNL     1     134.610 139.565 133.759  1.00  0.00     0.012 C 
BRANCH   4   5
ATOM      5  C   UNL     1     134.340 138.075 133.434  1.00  0.00     0.031 C 
BRANCH   5   6
ATOM      6  C   UNL     1     133.294 137.401 134.308  1.00  0.00    -0.077 C 
ATOM      7  C   UNL     1     131.899 137.251 133.751  1.00  0.00     0.039 C 
ATOM      8  C   UNL     1     133.486 137.023 135.598  1.00  0.00    -0.028 CG0
ATOM      9  G   UNL     1     134.797 136.894 136.340  1.00  0.00     0.000 G0
ENDBRANCH   5   6
ENDBRANCH   4   5
ENDBRANCH   3   4
BRANCH   3  10
ATOM     10  C   UNL     1     136.935 140.507 134.376  1.00  0.00    -0.010 C 
ATOM     11  C   UNL     1     136.879 140.699 132.851  1.00  0.00     0.008 C 
ATOM     12  C   UNL     1     138.239 139.782 134.758  1.00  0.00     0.008 C 
ENDBRANCH   3  10
ENDBRANCH   2   3
BRANCH   1  13
ATOM     13  C   UNL     1     135.624 138.849 137.750  1.00  0.00    -0.055 C 
ATOM     14  C   UNL     1     136.901 138.858 138.142  1.00  0.00     0.012 C 
BRANCH  13  15
ATOM     15  C   UNL     1     134.832 137.559 137.756  1.00  0.00     0.039 C 
BRANCH  15  16
ATOM     16  C   UNL     1     134.803 136.898 136.361  1.00  0.00     0.032 CG0
ATOM     17  G   UNL     1     133.501 137.020 135.601  1.00  0.00     0.000 G0
ENDBRANCH  15  16
ENDBRANCH  13  15
ENDBRANCH   1  13
TORSDOF 1
ENDMDL
MODEL 6
REMARK VINA RESULT:    -3.283      4.023      5.644
REMARK INTER + INTRA:          -5.463
REMARK INTER:                  -4.742
REMARK INTRA:                  -0.722
REMARK UNBOUND:                -0.645
REMARK SMILES C=C1C=C[C@H](C(C)C)CCC(C)=CCC1
REMARK SMILES IDX 3 1 4 2 5 3 9 4 10 5 11 6 12 7 13 8 6 10 7 11 8 12 2 13 1 14
REMARK SMILES IDX 15 15 14 16
REMARK H PARENT
REMARK Flexibility Score: 70.00
ROOT
ATOM      1  C   UNL     1     139.587 133.336 136.388  1.00  0.00    -0.001 C 
ATOM      2  C   UNL     1     139.929 134.265 135.480  1.00  0.00    -0.023 C 
ENDROOT
BRANCH   2   3
ATOM      3  C   UNL     1     138.951 135.250 134.862  1.00  0.00     0.014 C 
BRANCH   3   4
ATOM      4  C   UNL     1     139.254 136.714 135.282  1.00  0.00     0.012 C 
BRANCH   4   5
ATOM      5  C   UNL     1     139.920 136.879 136.670  1.00  0.00     0.031 C 
BRANCH   5   6
ATOM      6  C   UNL     1     138.965 137.187 137.814  1.00  0.00    -0.077 C 
ATOM      7  C   UNL     1     138.548 138.624 138.018  1.00  0.00     0.039 C 
ATOM      8  C   UNL     1     138.545 136.287 138.738  1.00  0.00    -0.028 CG0
ATOM      9  G   UNL     1     138.658 134.780 138.682  1.00  0.00     0.000 G0
ENDBRANCH   5   6
ENDBRANCH   4   5
ENDBRANCH   3   4
BRANCH   3  10
ATOM     10  C   UNL     1     138.853 135.088 133.313  1.00  0.00    -0.010 C 
ATOM     11  C   UNL     1     138.209 133.741 132.944  1.00  0.00     0.008 C 
ATOM     12  C   UNL     1     140.192 135.242 132.568  1.00  0.00     0.008 C 
ENDBRANCH   3  10
ENDBRANCH   2   3
BRANCH   1  13
ATOM     13  C   UNL     1     138.204 133.112 136.852  1.00  0.00    -0.055 C 
ATOM     14  C   UNL     1     137.513 132.080 136.361  1.00  0.00     0.012 C 
BRANCH  13  15
ATOM     15  C   UNL     1     137.580 134.029 137.881  1.00  0.00     0.039 C 
BRANCH  15  16
ATOM     16  C   UNL     1     138.651 134.775 138.708  1.00  0.00     0.032 CG0
ATOM     17  G   UNL     1     138.530 136.282 138.736  1.00  0.00     0.000 G0
ENDBRANCH  15  16
ENDBRANCH  13  15
ENDBRANCH   1  13
TORSDOF 1
ENDMDL
MODEL 7
REMARK VINA RESULT:    -3.279      4.924      6.917
REMARK INTER + INTRA:          -5.457
REMARK INTER:                  -4.772
REMARK INTRA:                  -0.685
REMARK UNBOUND:                -0.645
REMARK SMILES C=C1C=C[C@H](C(C)C)CCC(C)=CCC1
REMARK SMILES IDX 3 1 4 2 5 3 9 4 10 5 11 6 12 7 13 8 6 10 7 11 8 12 2 13 1 14
REMARK SMILES IDX 15 15 14 16
REMARK H PARENT
REMARK Flexibility Score: 70.00
ROOT
ATOM      1  C   UNL     1     137.858 132.084 136.782  1.00  0.00    -0.001 C 
ATOM      2  C   UNL     1     137.425 131.933 135.522  1.00  0.00    -0.023 C 
ENDROOT
BRANCH   2   3
ATOM      3  C   UNL     1     136.870 133.063 134.671  1.00  0.00     0.014 C 
BRANCH   3   4
ATOM      4  C   UNL     1     137.911 133.587 133.646  1.00  0.00     0.012 C 
BRANCH   4   5
ATOM      5  C   UNL     1     138.102 135.124 133.626  1.00  0.00     0.031 C 
BRANCH   5   6
ATOM      6  C   UNL     1     139.421 135.619 134.200  1.00  0.00    -0.077 C 
ATOM      7  C   UNL     1     140.525 135.970 133.231  1.00  0.00     0.039 C 
ATOM      8  C   UNL     1     139.725 135.664 135.522  1.00  0.00    -0.028 CG0
ATOM      9  G   UNL     1     138.778 135.543 136.694  1.00  0.00     0.000 G0
ENDBRANCH   5   6
ENDBRANCH   4   5
ENDBRANCH   3   4
BRANCH   3  10
ATOM     10  C   UNL     1     135.516 132.680 133.995  1.00  0.00    -0.010 C 
ATOM     11  C   UNL     1     134.384 132.618 135.034  1.00  0.00     0.008 C 
ATOM     12  C   UNL     1     135.552 131.367 133.190  1.00  0.00     0.008 C 
ENDBRANCH   3  10
ENDBRANCH   2   3
BRANCH   1  13
ATOM     13  C   UNL     1     137.791 133.358 137.526  1.00  0.00    -0.055 C 
ATOM     14  C   UNL     1     136.661 133.680 138.162  1.00  0.00     0.012 C 
BRANCH  13  15
ATOM     15  C   UNL     1     138.989 134.281 137.581  1.00  0.00     0.039 C 
BRANCH  15  16
ATOM     16  C   UNL     1     138.787 135.535 136.701  1.00  0.00     0.032 CG0
ATOM     17  G   UNL     1     139.723 135.670 135.522  1.00  0.00     0.000 G0
ENDBRANCH  15  16
ENDBRANCH  13  15
ENDBRANCH   1  13
TORSDOF 1
ENDMDL
MODEL 8
REMARK VINA RESULT:    -3.163      3.334      5.734
REMARK INTER + INTRA:          -5.286
REMARK INTER:                  -4.536
REMARK INTRA:                  -0.751
REMARK UNBOUND:                -0.645
REMARK SMILES C=C1C=C[C@H](C(C)C)CCC(C)=CCC1
REMARK SMILES IDX 3 1 4 2 5 3 9 4 10 5 11 6 12 7 13 8 6 10 7 11 8 12 2 13 1 14
REMARK SMILES IDX 15 15 14 16
REMARK H PARENT
REMARK Flexibility Score: 70.00
ROOT
ATOM      1  C   UNL     1     140.633 137.836 136.379  1.00  0.00    -0.001 C 
ATOM      2  C   UNL     1     139.977 137.313 137.426  1.00  0.00    -0.023 C 
ENDROOT
BRANCH   2   3
ATOM      3  C   UNL     1     138.519 136.888 137.393  1.00  0.00     0.014 C 
BRANCH   3   4
ATOM      4  C   UNL     1     138.339 135.386 137.742  1.00  0.00     0.012 C 
BRANCH   4   5
ATOM      5  C   UNL     1     139.366 134.428 137.089  1.00  0.00     0.031 C 
BRANCH   5   6
ATOM      6  C   UNL     1     139.056 134.029 135.654  1.00  0.00    -0.077 C 
ATOM      7  C   UNL     1     138.064 132.912 135.431  1.00  0.00     0.039 C 
ATOM      8  C   UNL     1     139.686 134.521 134.557  1.00  0.00    -0.028 CG0
ATOM      9  G   UNL     1     140.573 135.743 134.469  1.00  0.00     0.000 G0
ENDBRANCH   5   6
ENDBRANCH   4   5
ENDBRANCH   3   4
BRANCH   3  10
ATOM     10  C   UNL     1     137.617 137.811 138.271  1.00  0.00    -0.010 C 
ATOM     11  C   UNL     1     136.872 138.836 137.400  1.00  0.00     0.008 C 
ATOM     12  C   UNL     1     138.361 138.540 139.406  1.00  0.00     0.008 C 
ENDBRANCH   3  10
ENDBRANCH   2   3
BRANCH   1  13
ATOM     13  C   UNL     1     140.000 138.126 135.077  1.00  0.00    -0.055 C 
ATOM     14  C   UNL     1     139.523 139.352 134.845  1.00  0.00     0.012 C 
BRANCH  13  15
ATOM     15  C   UNL     1     139.904 137.055 134.012  1.00  0.00     0.039 C 
BRANCH  15  16
ATOM     16  C   UNL     1     140.583 135.741 134.458  1.00  0.00     0.032 CG0
ATOM     17  G   UNL     1     139.683 134.529 134.541  1.00  0.00     0.000 G0
ENDBRANCH  15  16
ENDBRANCH  13  15
ENDBRANCH   1  13
TORSDOF 1
ENDMDL
MODEL 9
REMARK VINA RESULT:    -3.162      3.664      6.064
REMARK INTER + INTRA:          -5.285
REMARK INTER:                  -4.740
REMARK INTRA:                  -0.545
REMARK UNBOUND:                -0.645
REMARK SMILES C=C1C=C[C@H](C(C)C)CCC(C)=CCC1
REMARK SMILES IDX 3 1 4 2 5 3 9 4 10 5 11 6 12 7 13 8 6 10 7 11 8 12 2 13 1 14
REMARK SMILES IDX 15 15 14 16
REMARK H PARENT
REMARK Flexibility Score: 70.00
ROOT
ATOM      1  C   UNL     1     132.249 135.893 134.436  1.00  0.00    -0.001 C 
ATOM      2  C   UNL     1     132.328 136.093 135.761  1.00  0.00    -0.023 C 
ENDROOT
BRANCH   2   3
ATOM      3  C   UNL     1     133.634 136.233 136.524  1.00  0.00     0.014 C 
BRANCH   3   4
ATOM      4  C   UNL     1     133.783 137.636 137.173  1.00  0.00     0.012 C 
BRANCH   4   5
ATOM      5  C   UNL     1     133.178 138.807 136.362  1.00  0.00     0.031 C 
BRANCH   5   6
ATOM      6  C   UNL     1     134.147 139.517 135.429  1.00  0.00    -0.077 C 
ATOM      7  C   UNL     1     135.028 140.595 136.013  1.00  0.00     0.039 C 
ATOM      8  C   UNL     1     134.204 139.336 134.084  1.00  0.00    -0.028 CG0
ATOM      9  G   UNL     1     133.580 138.224 133.272  1.00  0.00     0.000 G0
ENDBRANCH   5   6
ENDBRANCH   4   5
ENDBRANCH   3   4
BRANCH   3  10
ATOM     10  C   UNL     1     133.840 135.080 137.556  1.00  0.00    -0.010 C 
ATOM     11  C   UNL     1     133.496 133.718 136.930  1.00  0.00     0.008 C 
ATOM     12  C   UNL     1     133.061 135.254 138.874  1.00  0.00     0.008 C 
ENDBRANCH   3  10
ENDBRANCH   2   3
BRANCH   1  13
ATOM     13  C   UNL     1     133.425 135.721 133.561  1.00  0.00    -0.055 C 
ATOM     14  C   UNL     1     133.655 134.526 133.009  1.00  0.00     0.012 C 
BRANCH  13  15
ATOM     15  C   UNL     1     134.352 136.883 133.279  1.00  0.00     0.039 C 
BRANCH  15  16
ATOM     16  C   UNL     1     133.595 138.230 133.268  1.00  0.00     0.032 CG0
ATOM     17  G   UNL     1     134.204 139.336 134.101  1.00  0.00     0.000 G0
ENDBRANCH  15  16
ENDBRANCH  13  15
ENDBRANCH   1  13
TORSDOF 1
ENDMDL
