MODEL 1
REMARK VINA RESULT:    -5.761      0.000      0.000
REMARK INTER + INTRA:         -14.389
REMARK INTER:                 -12.498
REMARK INTRA:                  -1.891
REMARK UNBOUND:                -1.891
REMARK SMILES CCCCCCCCCCCCCCCCCCCCCC(=O)[O-]
REMARK SMILES IDX 12 1 11 2 10 3 9 4 8 5 7 6 6 7 5 8 4 9 3 10 2 11 1 12 13 13
REMARK SMILES IDX 14 14 15 15 16 16 17 17 18 18 19 19 20 20 21 21 22 22 23 23
REMARK SMILES IDX 24 24
REMARK H PARENT
REMARK Flexibility Score: inf
ROOT
ATOM      1  C   UNL     1      18.116 -44.435 -26.030  1.00  0.00     0.000 C 
ENDROOT
BRANCH   1   2
ATOM      2  C   UNL     1      17.993 -45.655 -26.960  1.00  0.00     0.000 C 
BRANCH   2   3
ATOM      3  C   UNL     1      17.502 -45.284 -28.369  1.00  0.00     0.000 C 
BRANCH   3   4
ATOM      4  C   UNL     1      18.133 -46.160 -29.464  1.00  0.00    -0.000 C 
BRANCH   4   5
ATOM      5  C   UNL     1      17.592 -47.598 -29.458  1.00  0.00    -0.000 C 
BRANCH   5   6
ATOM      6  C   UNL     1      18.042 -48.357 -30.716  1.00  0.00    -0.000 C 
BRANCH   6   7
ATOM      7  C   UNL     1      18.938 -47.509 -31.633  1.00  0.00    -0.000 C 
BRANCH   7   8
ATOM      8  C   UNL     1      19.842 -48.367 -32.535  1.00  0.00    -0.000 C 
BRANCH   8   9
ATOM      9  C   UNL     1      20.254 -49.698 -31.877  1.00  0.00    -0.000 C 
BRANCH   9  10
ATOM     10  C   UNL     1      19.901 -50.965 -32.682  1.00  0.00    -0.000 C 
BRANCH  10  11
ATOM     11  C   UNL     1      21.054 -51.971 -32.848  1.00  0.00    -0.003 C 
ATOM     12  C   UNL     1      21.724 -51.885 -34.218  1.00  0.00     0.004 C 
ENDBRANCH  10  11
ENDBRANCH   9  10
ENDBRANCH   8   9
ENDBRANCH   7   8
ENDBRANCH   6   7
ENDBRANCH   5   6
ENDBRANCH   4   5
ENDBRANCH   3   4
ENDBRANCH   2   3
ENDBRANCH   1   2
BRANCH   1  13
ATOM     13  C   UNL     1      19.575 -44.053 -25.700  1.00  0.00     0.000 C 
BRANCH  13  14
ATOM     14  C   UNL     1      19.664 -43.071 -24.518  1.00  0.00     0.000 C 
BRANCH  14  15
ATOM     15  C   UNL     1      18.755 -41.846 -24.700  1.00  0.00     0.000 C 
BRANCH  15  16
ATOM     16  C   UNL     1      17.913 -41.545 -23.447  1.00  0.00     0.000 C 
BRANCH  16  17
ATOM     17  C   UNL     1      16.403 -41.600 -23.726  1.00  0.00     0.000 C 
BRANCH  17  18
ATOM     18  C   UNL     1      15.688 -42.670 -22.885  1.00  0.00     0.000 C 
BRANCH  18  19
ATOM     19  C   UNL     1      16.675 -43.740 -22.398  1.00  0.00     0.000 C 
BRANCH  19  20
ATOM     20  C   UNL     1      16.411 -45.127 -23.011  1.00  0.00     0.006 C 
BRANCH  20  21
ATOM     21  C   UNL     1      17.572 -46.122 -22.827  1.00  0.00     0.053 C 
BRANCH  21  22
ATOM     22  C   UNL     1      17.165 -47.346 -22.065  1.00  0.00     0.041 C 
ATOM     23  O   UNL     1      18.016 -48.231 -21.786  1.00  0.00    -0.550 OA
ATOM     24  O   UNL     1      15.839 -47.529 -21.691  1.00  0.00    -0.550 OA
ENDBRANCH  21  22
ENDBRANCH  20  21
ENDBRANCH  19  20
ENDBRANCH  18  19
ENDBRANCH  17  18
ENDBRANCH  16  17
ENDBRANCH  15  16
ENDBRANCH  14  15
ENDBRANCH  13  14
ENDBRANCH   1  13
TORSDOF 20
ENDMDL
MODEL 2
REMARK VINA RESULT:    -5.653      3.526      9.601
REMARK INTER + INTRA:         -14.153
REMARK INTER:                 -11.185
REMARK INTRA:                  -2.968
REMARK UNBOUND:                -1.891
REMARK SMILES CCCCCCCCCCCCCCCCCCCCCC(=O)[O-]
REMARK SMILES IDX 12 1 11 2 10 3 9 4 8 5 7 6 6 7 5 8 4 9 3 10 2 11 1 12 13 13
REMARK SMILES IDX 14 14 15 15 16 16 17 17 18 18 19 19 20 20 21 21 22 22 23 23
REMARK SMILES IDX 24 24
REMARK H PARENT
REMARK Flexibility Score: inf
ROOT
ATOM      1  C   UNL     1      17.950 -45.769 -21.796  1.00  0.00     0.000 C 
ENDROOT
BRANCH   1   2
ATOM      2  C   UNL     1      19.486 -45.831 -21.729  1.00  0.00     0.000 C 
BRANCH   2   3
ATOM      3  C   UNL     1      20.135 -44.442 -21.617  1.00  0.00     0.000 C 
BRANCH   3   4
ATOM      4  C   UNL     1      21.138 -44.165 -22.749  1.00  0.00    -0.000 C 
BRANCH   4   5
ATOM      5  C   UNL     1      20.560 -43.256 -23.845  1.00  0.00    -0.000 C 
BRANCH   5   6
ATOM      6  C   UNL     1      19.491 -42.315 -23.268  1.00  0.00    -0.000 C 
BRANCH   6   7
ATOM      7  C   UNL     1      18.610 -41.680 -24.355  1.00  0.00    -0.000 C 
BRANCH   7   8
ATOM      8  C   UNL     1      17.181 -41.389 -23.863  1.00  0.00    -0.000 C 
BRANCH   8   9
ATOM      9  C   UNL     1      16.638 -42.481 -22.922  1.00  0.00    -0.000 C 
BRANCH   9  10
ATOM     10  C   UNL     1      16.110 -41.975 -21.565  1.00  0.00    -0.000 C 
BRANCH  10  11
ATOM     11  C   UNL     1      17.019 -42.275 -20.361  1.00  0.00    -0.003 C 
ATOM     12  C   UNL     1      18.088 -41.204 -20.143  1.00  0.00     0.004 C 
ENDBRANCH  10  11
ENDBRANCH   9  10
ENDBRANCH   8   9
ENDBRANCH   7   8
ENDBRANCH   6   7
ENDBRANCH   5   6
ENDBRANCH   4   5
ENDBRANCH   3   4
ENDBRANCH   2   3
ENDBRANCH   1   2
BRANCH   1  13
ATOM     13  C   UNL     1      17.356 -46.446 -23.049  1.00  0.00     0.000 C 
BRANCH  13  14
ATOM     14  C   UNL     1      18.227 -46.221 -24.298  1.00  0.00     0.000 C 
BRANCH  14  15
ATOM     15  C   UNL     1      17.688 -45.099 -25.198  1.00  0.00     0.000 C 
BRANCH  15  16
ATOM     16  C   UNL     1      18.407 -45.035 -26.556  1.00  0.00     0.000 C 
BRANCH  16  17
ATOM     17  C   UNL     1      17.471 -45.348 -27.735  1.00  0.00     0.000 C 
BRANCH  17  18
ATOM     18  C   UNL     1      18.173 -46.139 -28.849  1.00  0.00     0.000 C 
BRANCH  18  19
ATOM     19  C   UNL     1      17.649 -45.730 -30.232  1.00  0.00     0.000 C 
BRANCH  19  20
ATOM     20  C   UNL     1      18.250 -46.565 -31.377  1.00  0.00     0.006 C 
BRANCH  20  21
ATOM     21  C   UNL     1      18.939 -47.860 -30.909  1.00  0.00     0.053 C 
BRANCH  21  22
ATOM     22  C   UNL     1      19.484 -48.666 -32.050  1.00  0.00     0.041 C 
ATOM     23  O   UNL     1      19.952 -48.089 -33.066  1.00  0.00    -0.550 OA
ATOM     24  O   UNL     1      19.444 -50.055 -32.007  1.00  0.00    -0.550 OA
ENDBRANCH  21  22
ENDBRANCH  20  21
ENDBRANCH  19  20
ENDBRANCH  18  19
ENDBRANCH  17  18
ENDBRANCH  16  17
ENDBRANCH  15  16
ENDBRANCH  14  15
ENDBRANCH  13  14
ENDBRANCH   1  13
TORSDOF 20
ENDMDL
MODEL 3
REMARK VINA RESULT:    -5.612      1.302      2.452
REMARK INTER + INTRA:         -14.065
REMARK INTER:                 -11.480
REMARK INTRA:                  -2.586
REMARK UNBOUND:                -1.891
REMARK SMILES CCCCCCCCCCCCCCCCCCCCCC(=O)[O-]
REMARK SMILES IDX 12 1 11 2 10 3 9 4 8 5 7 6 6 7 5 8 4 9 3 10 2 11 1 12 13 13
REMARK SMILES IDX 14 14 15 15 16 16 17 17 18 18 19 19 20 20 21 21 22 22 23 23
REMARK SMILES IDX 24 24
REMARK H PARENT
REMARK Flexibility Score: inf
ROOT
ATOM      1  C   UNL     1      20.476 -43.674 -24.407  1.00  0.00     0.000 C 
ENDROOT
BRANCH   1   2
ATOM      2  C   UNL     1      19.925 -44.123 -25.772  1.00  0.00     0.000 C 
BRANCH   2   3
ATOM      3  C   UNL     1      18.426 -44.464 -25.728  1.00  0.00     0.000 C 
BRANCH   3   4
ATOM      4  C   UNL     1      18.045 -45.581 -26.713  1.00  0.00    -0.000 C 
BRANCH   4   5
ATOM      5  C   UNL     1      17.301 -45.053 -27.950  1.00  0.00    -0.000 C 
BRANCH   5   6
ATOM      6  C   UNL     1      17.846 -45.699 -29.233  1.00  0.00    -0.000 C 
BRANCH   6   7
ATOM      7  C   UNL     1      17.062 -46.956 -29.645  1.00  0.00    -0.000 C 
BRANCH   7   8
ATOM      8  C   UNL     1      17.970 -48.058 -30.215  1.00  0.00    -0.000 C 
BRANCH   8   9
ATOM      9  C   UNL     1      19.174 -47.499 -30.995  1.00  0.00    -0.000 C 
BRANCH   9  10
ATOM     10  C   UNL     1      19.728 -48.421 -32.101  1.00  0.00    -0.000 C 
BRANCH  10  11
ATOM     11  C   UNL     1      19.274 -49.888 -32.010  1.00  0.00    -0.003 C 
ATOM     12  C   UNL     1      20.258 -50.855 -32.667  1.00  0.00     0.004 C 
ENDBRANCH  10  11
ENDBRANCH   9  10
ENDBRANCH   8   9
ENDBRANCH   7   8
ENDBRANCH   6   7
ENDBRANCH   5   6
ENDBRANCH   4   5
ENDBRANCH   3   4
ENDBRANCH   2   3
ENDBRANCH   1   2
BRANCH   1  13
ATOM     13  C   UNL     1      20.170 -42.199 -24.071  1.00  0.00     0.000 C 
BRANCH  13  14
ATOM     14  C   UNL     1      19.853 -41.998 -22.578  1.00  0.00     0.000 C 
BRANCH  14  15
ATOM     15  C   UNL     1      18.388 -41.605 -22.335  1.00  0.00     0.000 C 
BRANCH  15  16
ATOM     16  C   UNL     1      17.613 -41.377 -23.645  1.00  0.00     0.000 C 
BRANCH  16  17
ATOM     17  C   UNL     1      16.198 -41.977 -23.606  1.00  0.00     0.000 C 
BRANCH  17  18
ATOM     18  C   UNL     1      16.066 -43.103 -22.569  1.00  0.00     0.000 C 
BRANCH  18  19
ATOM     19  C   UNL     1      15.708 -44.435 -23.242  1.00  0.00     0.000 C 
BRANCH  19  20
ATOM     20  C   UNL     1      16.647 -45.586 -22.839  1.00  0.00     0.006 C 
BRANCH  20  21
ATOM     21  C   UNL     1      17.851 -45.140 -21.988  1.00  0.00     0.053 C 
BRANCH  21  22
ATOM     22  C   UNL     1      19.019 -46.072 -22.112  1.00  0.00     0.041 C 
ATOM     23  O   UNL     1      19.915 -46.085 -21.228  1.00  0.00    -0.550 OA
ATOM     24  O   UNL     1      19.137 -46.903 -23.220  1.00  0.00    -0.550 OA
ENDBRANCH  21  22
ENDBRANCH  20  21
ENDBRANCH  19  20
ENDBRANCH  18  19
ENDBRANCH  17  18
ENDBRANCH  16  17
ENDBRANCH  15  16
ENDBRANCH  14  15
ENDBRANCH  13  14
ENDBRANCH   1  13
TORSDOF 20
ENDMDL
MODEL 4
REMARK VINA RESULT:    -5.602      2.249      4.584
REMARK INTER + INTRA:         -14.042
REMARK INTER:                 -11.173
REMARK INTRA:                  -2.869
REMARK UNBOUND:                -1.891
REMARK SMILES CCCCCCCCCCCCCCCCCCCCCC(=O)[O-]
REMARK SMILES IDX 12 1 11 2 10 3 9 4 8 5 7 6 6 7 5 8 4 9 3 10 2 11 1 12 13 13
REMARK SMILES IDX 14 14 15 15 16 16 17 17 18 18 19 19 20 20 21 21 22 22 23 23
REMARK SMILES IDX 24 24
REMARK H PARENT
REMARK Flexibility Score: inf
ROOT
ATOM      1  C   UNL     1      19.173 -47.149 -22.253  1.00  0.00     0.000 C 
ENDROOT
BRANCH   1   2
ATOM      2  C   UNL     1      17.995 -47.081 -23.241  1.00  0.00     0.000 C 
BRANCH   2   3
ATOM      3  C   UNL     1      17.236 -45.745 -23.174  1.00  0.00     0.000 C 
BRANCH   3   4
ATOM      4  C   UNL     1      17.358 -44.931 -24.473  1.00  0.00    -0.000 C 
BRANCH   4   5
ATOM      5  C   UNL     1      18.021 -45.724 -25.610  1.00  0.00    -0.000 C 
BRANCH   5   6
ATOM      6  C   UNL     1      18.134 -44.868 -26.880  1.00  0.00    -0.000 C 
BRANCH   6   7
ATOM      7  C   UNL     1      17.296 -45.417 -28.045  1.00  0.00    -0.000 C 
BRANCH   7   8
ATOM      8  C   UNL     1      18.146 -46.174 -29.081  1.00  0.00    -0.000 C 
BRANCH   8   9
ATOM      9  C   UNL     1      17.304 -47.072 -30.006  1.00  0.00    -0.000 C 
BRANCH   9  10
ATOM     10  C   UNL     1      18.061 -48.257 -30.639  1.00  0.00    -0.000 C 
BRANCH  10  11
ATOM     11  C   UNL     1      19.456 -47.916 -31.191  1.00  0.00    -0.003 C 
ATOM     12  C   UNL     1      19.845 -48.774 -32.393  1.00  0.00     0.004 C 
ENDBRANCH  10  11
ENDBRANCH   9  10
ENDBRANCH   8   9
ENDBRANCH   7   8
ENDBRANCH   6   7
ENDBRANCH   5   6
ENDBRANCH   4   5
ENDBRANCH   3   4
ENDBRANCH   2   3
ENDBRANCH   1   2
BRANCH   1  13
ATOM     13  C   UNL     1      19.460 -45.812 -21.539  1.00  0.00     0.000 C 
BRANCH  13  14
ATOM     14  C   UNL     1      20.920 -45.360 -21.721  1.00  0.00     0.000 C 
BRANCH  14  15
ATOM     15  C   UNL     1      21.042 -44.094 -22.583  1.00  0.00     0.000 C 
BRANCH  15  16
ATOM     16  C   UNL     1      21.016 -44.402 -24.090  1.00  0.00     0.000 C 
BRANCH  16  17
ATOM     17  C   UNL     1      20.754 -43.151 -24.944  1.00  0.00     0.000 C 
BRANCH  17  18
ATOM     18  C   UNL     1      20.144 -42.000 -24.129  1.00  0.00     0.000 C 
BRANCH  18  19
ATOM     19  C   UNL     1      18.714 -41.691 -24.593  1.00  0.00     0.000 C 
BRANCH  19  20
ATOM     20  C   UNL     1      17.776 -41.298 -23.438  1.00  0.00     0.006 C 
BRANCH  20  21
ATOM     21  C   UNL     1      18.013 -42.095 -22.142  1.00  0.00     0.053 C 
BRANCH  21  22
ATOM     22  C   UNL     1      16.778 -42.205 -21.301  1.00  0.00     0.041 C 
ATOM     23  O   UNL     1      16.867 -42.498 -20.079  1.00  0.00    -0.550 OA
ATOM     24  O   UNL     1      15.524 -42.017 -21.870  1.00  0.00    -0.550 OA
ENDBRANCH  21  22
ENDBRANCH  20  21
ENDBRANCH  19  20
ENDBRANCH  18  19
ENDBRANCH  17  18
ENDBRANCH  16  17
ENDBRANCH  15  16
ENDBRANCH  14  15
ENDBRANCH  13  14
ENDBRANCH   1  13
TORSDOF 20
ENDMDL
MODEL 5
REMARK VINA RESULT:    -5.572      4.030     10.377
REMARK INTER + INTRA:         -13.978
REMARK INTER:                 -12.070
REMARK INTRA:                  -1.908
REMARK UNBOUND:                -1.891
REMARK SMILES CCCCCCCCCCCCCCCCCCCCCC(=O)[O-]
REMARK SMILES IDX 12 1 11 2 10 3 9 4 8 5 7 6 6 7 5 8 4 9 3 10 2 11 1 12 13 13
REMARK SMILES IDX 14 14 15 15 16 16 17 17 18 18 19 19 20 20 21 21 22 22 23 23
REMARK SMILES IDX 24 24
REMARK H PARENT
REMARK Flexibility Score: inf
ROOT
ATOM      1  C   UNL     1      17.988 -45.744 -26.610  1.00  0.00     0.000 C 
ENDROOT
BRANCH   1   2
ATOM      2  C   UNL     1      18.278 -44.483 -25.777  1.00  0.00     0.000 C 
BRANCH   2   3
ATOM      3  C   UNL     1      19.710 -44.455 -25.215  1.00  0.00     0.000 C 
BRANCH   3   4
ATOM      4  C   UNL     1      20.076 -45.748 -24.468  1.00  0.00    -0.000 C 
BRANCH   4   5
ATOM      5  C   UNL     1      19.340 -45.887 -23.127  1.00  0.00    -0.000 C 
BRANCH   5   6
ATOM      6  C   UNL     1      18.435 -47.129 -23.125  1.00  0.00    -0.000 C 
BRANCH   6   7
ATOM      7  C   UNL     1      17.015 -46.829 -22.619  1.00  0.00    -0.000 C 
BRANCH   7   8
ATOM      8  C   UNL     1      16.835 -45.361 -22.197  1.00  0.00    -0.000 C 
BRANCH   8   9
ATOM      9  C   UNL     1      15.892 -44.581 -23.131  1.00  0.00    -0.000 C 
BRANCH   9  10
ATOM     10  C   UNL     1      15.987 -43.045 -23.029  1.00  0.00    -0.000 C 
BRANCH  10  11
ATOM     11  C   UNL     1      17.417 -42.489 -22.915  1.00  0.00    -0.003 C 
ATOM     12  C   UNL     1      17.689 -41.344 -23.890  1.00  0.00     0.004 C 
ENDBRANCH  10  11
ENDBRANCH   9  10
ENDBRANCH   8   9
ENDBRANCH   7   8
ENDBRANCH   6   7
ENDBRANCH   5   6
ENDBRANCH   4   5
ENDBRANCH   3   4
ENDBRANCH   2   3
ENDBRANCH   1   2
BRANCH   1  13
ATOM     13  C   UNL     1      17.626 -45.445 -28.080  1.00  0.00     0.000 C 
BRANCH  13  14
ATOM     14  C   UNL     1      17.781 -46.684 -28.980  1.00  0.00     0.000 C 
BRANCH  14  15
ATOM     15  C   UNL     1      18.849 -46.492 -30.068  1.00  0.00     0.000 C 
BRANCH  15  16
ATOM     16  C   UNL     1      18.349 -46.901 -31.464  1.00  0.00     0.000 C 
BRANCH  16  17
ATOM     17  C   UNL     1      19.413 -47.662 -32.272  1.00  0.00     0.000 C 
BRANCH  17  18
ATOM     18  C   UNL     1      19.572 -49.119 -31.810  1.00  0.00     0.000 C 
BRANCH  18  19
ATOM     19  C   UNL     1      20.238 -49.973 -32.896  1.00  0.00     0.000 C 
BRANCH  19  20
ATOM     20  C   UNL     1      20.344 -51.461 -32.513  1.00  0.00     0.006 C 
BRANCH  20  21
ATOM     21  C   UNL     1      21.008 -52.337 -33.591  1.00  0.00     0.053 C 
BRANCH  21  22
ATOM     22  C   UNL     1      20.513 -53.751 -33.567  1.00  0.00     0.041 C 
ATOM     23  O   UNL     1      21.312 -54.706 -33.756  1.00  0.00    -0.550 OA
ATOM     24  O   UNL     1      19.163 -54.017 -33.370  1.00  0.00    -0.550 OA
ENDBRANCH  21  22
ENDBRANCH  20  21
ENDBRANCH  19  20
ENDBRANCH  18  19
ENDBRANCH  17  18
ENDBRANCH  16  17
ENDBRANCH  15  16
ENDBRANCH  14  15
ENDBRANCH  13  14
ENDBRANCH   1  13
TORSDOF 20
ENDMDL
MODEL 6
REMARK VINA RESULT:    -5.550      4.121     10.340
REMARK INTER + INTRA:         -13.930
REMARK INTER:                 -12.160
REMARK INTRA:                  -1.770
REMARK UNBOUND:                -1.891
REMARK SMILES CCCCCCCCCCCCCCCCCCCCCC(=O)[O-]
REMARK SMILES IDX 12 1 11 2 10 3 9 4 8 5 7 6 6 7 5 8 4 9 3 10 2 11 1 12 13 13
REMARK SMILES IDX 14 14 15 15 16 16 17 17 18 18 19 19 20 20 21 21 22 22 23 23
REMARK SMILES IDX 24 24
REMARK H PARENT
REMARK Flexibility Score: inf
ROOT
ATOM      1  C   UNL     1      18.466 -45.216 -26.333  1.00  0.00     0.000 C 
ENDROOT
BRANCH   1   2
ATOM      2  C   UNL     1      18.132 -44.043 -25.395  1.00  0.00     0.000 C 
BRANCH   2   3
ATOM      3  C   UNL     1      19.386 -43.316 -24.879  1.00  0.00     0.000 C 
BRANCH   3   4
ATOM      4  C   UNL     1      19.071 -41.917 -24.325  1.00  0.00    -0.000 C 
BRANCH   4   5
ATOM      5  C   UNL     1      17.564 -41.623 -24.276  1.00  0.00    -0.000 C 
BRANCH   5   6
ATOM      6  C   UNL     1      17.127 -41.238 -22.855  1.00  0.00    -0.000 C 
BRANCH   6   7
ATOM      7  C   UNL     1      18.226 -41.483 -21.808  1.00  0.00    -0.000 C 
BRANCH   7   8
ATOM      8  C   UNL     1      17.906 -42.669 -20.881  1.00  0.00    -0.000 C 
BRANCH   8   9
ATOM      9  C   UNL     1      17.244 -43.846 -21.622  1.00  0.00    -0.000 C 
BRANCH   9  10
ATOM     10  C   UNL     1      18.099 -45.125 -21.721  1.00  0.00    -0.000 C 
BRANCH  10  11
ATOM     11  C   UNL     1      17.322 -46.400 -22.089  1.00  0.00    -0.003 C 
ATOM     12  C   UNL     1      17.997 -47.209 -23.196  1.00  0.00     0.004 C 
ENDBRANCH  10  11
ENDBRANCH   9  10
ENDBRANCH   8   9
ENDBRANCH   7   8
ENDBRANCH   6   7
ENDBRANCH   5   6
ENDBRANCH   4   5
ENDBRANCH   3   4
ENDBRANCH   2   3
ENDBRANCH   1   2
BRANCH   1  13
ATOM     13  C   UNL     1      17.522 -45.324 -27.549  1.00  0.00     0.000 C 
BRANCH  13  14
ATOM     14  C   UNL     1      18.194 -46.020 -28.746  1.00  0.00     0.000 C 
BRANCH  14  15
ATOM     15  C   UNL     1      17.281 -47.064 -29.409  1.00  0.00     0.000 C 
BRANCH  15  16
ATOM     16  C   UNL     1      18.018 -47.903 -30.468  1.00  0.00     0.000 C 
BRANCH  16  17
ATOM     17  C   UNL     1      18.636 -47.040 -31.579  1.00  0.00     0.000 C 
BRANCH  17  18
ATOM     18  C   UNL     1      19.629 -47.826 -32.450  1.00  0.00     0.000 C 
BRANCH  18  19
ATOM     19  C   UNL     1      19.789 -49.265 -31.944  1.00  0.00     0.000 C 
BRANCH  19  20
ATOM     20  C   UNL     1      20.260 -50.240 -33.038  1.00  0.00     0.006 C 
BRANCH  20  21
ATOM     21  C   UNL     1      20.627 -51.640 -32.511  1.00  0.00     0.053 C 
BRANCH  21  22
ATOM     22  C   UNL     1      21.191 -52.527 -33.579  1.00  0.00     0.041 C 
ATOM     23  O   UNL     1      21.916 -52.043 -34.488  1.00  0.00    -0.550 OA
ATOM     24  O   UNL     1      20.891 -53.884 -33.593  1.00  0.00    -0.550 OA
ENDBRANCH  21  22
ENDBRANCH  20  21
ENDBRANCH  19  20
ENDBRANCH  18  19
ENDBRANCH  17  18
ENDBRANCH  16  17
ENDBRANCH  15  16
ENDBRANCH  14  15
ENDBRANCH  13  14
ENDBRANCH   1  13
TORSDOF 20
ENDMDL
MODEL 7
REMARK VINA RESULT:    -5.540      3.444      8.546
REMARK INTER + INTRA:         -13.908
REMARK INTER:                 -11.284
REMARK INTRA:                  -2.625
REMARK UNBOUND:                -1.891
REMARK SMILES CCCCCCCCCCCCCCCCCCCCCC(=O)[O-]
REMARK SMILES IDX 12 1 11 2 10 3 9 4 8 5 7 6 6 7 5 8 4 9 3 10 2 11 1 12 13 13
REMARK SMILES IDX 14 14 15 15 16 16 17 17 18 18 19 19 20 20 21 21 22 22 23 23
REMARK SMILES IDX 24 24
REMARK H PARENT
REMARK Flexibility Score: inf
ROOT
ATOM      1  C   UNL     1      19.489 -41.661 -24.075  1.00  0.00     0.000 C 
ENDROOT
BRANCH   1   2
ATOM      2  C   UNL     1      18.034 -41.229 -24.333  1.00  0.00     0.000 C 
BRANCH   2   3
ATOM      3  C   UNL     1      17.107 -41.515 -23.139  1.00  0.00     0.000 C 
BRANCH   3   4
ATOM      4  C   UNL     1      17.834 -42.223 -21.984  1.00  0.00    -0.000 C 
BRANCH   4   5
ATOM      5  C   UNL     1      17.224 -43.594 -21.652  1.00  0.00    -0.000 C 
BRANCH   5   6
ATOM      6  C   UNL     1      16.311 -44.077 -22.789  1.00  0.00    -0.000 C 
BRANCH   6   7
ATOM      7  C   UNL     1      16.434 -45.587 -23.049  1.00  0.00    -0.000 C 
BRANCH   7   8
ATOM      8  C   UNL     1      17.066 -46.341 -21.867  1.00  0.00    -0.000 C 
BRANCH   8   9
ATOM      9  C   UNL     1      18.187 -47.304 -22.301  1.00  0.00    -0.000 C 
BRANCH   9  10
ATOM     10  C   UNL     1      19.595 -46.952 -21.779  1.00  0.00    -0.000 C 
BRANCH  10  11
ATOM     11  C   UNL     1      20.352 -45.901 -22.609  1.00  0.00    -0.003 C 
ATOM     12  C   UNL     1      20.692 -44.645 -21.809  1.00  0.00     0.004 C 
ENDBRANCH  10  11
ENDBRANCH   9  10
ENDBRANCH   8   9
ENDBRANCH   7   8
ENDBRANCH   6   7
ENDBRANCH   5   6
ENDBRANCH   4   5
ENDBRANCH   3   4
ENDBRANCH   2   3
ENDBRANCH   1   2
BRANCH   1  13
ATOM     13  C   UNL     1      20.272 -41.995 -25.362  1.00  0.00     0.000 C 
BRANCH  13  14
ATOM     14  C   UNL     1      20.194 -43.490 -25.718  1.00  0.00     0.000 C 
BRANCH  14  15
ATOM     15  C   UNL     1      18.831 -44.108 -25.370  1.00  0.00     0.000 C 
BRANCH  15  16
ATOM     16  C   UNL     1      18.614 -45.475 -26.041  1.00  0.00     0.000 C 
BRANCH  16  17
ATOM     17  C   UNL     1      17.555 -45.424 -27.154  1.00  0.00     0.000 C 
BRANCH  17  18
ATOM     18  C   UNL     1      18.136 -45.764 -28.535  1.00  0.00     0.000 C 
BRANCH  18  19
ATOM     19  C   UNL     1      17.084 -46.436 -29.428  1.00  0.00     0.000 C 
BRANCH  19  20
ATOM     20  C   UNL     1      17.626 -47.665 -30.179  1.00  0.00     0.006 C 
BRANCH  20  21
ATOM     21  C   UNL     1      19.051 -47.479 -30.734  1.00  0.00     0.053 C 
BRANCH  21  22
ATOM     22  C   UNL     1      19.355 -48.417 -31.862  1.00  0.00     0.041 C 
ATOM     23  O   UNL     1      19.112 -49.648 -31.746  1.00  0.00    -0.550 OA
ATOM     24  O   UNL     1      19.936 -47.941 -33.031  1.00  0.00    -0.550 OA
ENDBRANCH  21  22
ENDBRANCH  20  21
ENDBRANCH  19  20
ENDBRANCH  18  19
ENDBRANCH  17  18
ENDBRANCH  16  17
ENDBRANCH  15  16
ENDBRANCH  14  15
ENDBRANCH  13  14
ENDBRANCH   1  13
TORSDOF 20
ENDMDL
MODEL 8
REMARK VINA RESULT:    -5.468      2.521      4.365
REMARK INTER + INTRA:         -13.753
REMARK INTER:                 -11.402
REMARK INTRA:                  -2.351
REMARK UNBOUND:                -1.891
REMARK SMILES CCCCCCCCCCCCCCCCCCCCCC(=O)[O-]
REMARK SMILES IDX 12 1 11 2 10 3 9 4 8 5 7 6 6 7 5 8 4 9 3 10 2 11 1 12 13 13
REMARK SMILES IDX 14 14 15 15 16 16 17 17 18 18 19 19 20 20 21 21 22 22 23 23
REMARK SMILES IDX 24 24
REMARK H PARENT
REMARK Flexibility Score: inf
ROOT
ATOM      1  C   UNL     1      20.305 -44.182 -22.809  1.00  0.00     0.000 C 
ENDROOT
BRANCH   1   2
ATOM      2  C   UNL     1      20.205 -43.329 -24.086  1.00  0.00     0.000 C 
BRANCH   2   3
ATOM      3  C   UNL     1      19.965 -44.172 -25.350  1.00  0.00     0.000 C 
BRANCH   3   4
ATOM      4  C   UNL     1      18.492 -44.168 -25.791  1.00  0.00    -0.000 C 
BRANCH   4   5
ATOM      5  C   UNL     1      18.076 -45.475 -26.484  1.00  0.00    -0.000 C 
BRANCH   5   6
ATOM      6  C   UNL     1      17.337 -45.186 -27.799  1.00  0.00    -0.000 C 
BRANCH   6   7
ATOM      7  C   UNL     1      17.999 -45.857 -29.013  1.00  0.00    -0.000 C 
BRANCH   7   8
ATOM      8  C   UNL     1      17.848 -47.388 -28.998  1.00  0.00    -0.000 C 
BRANCH   8   9
ATOM      9  C   UNL     1      17.711 -47.989 -30.410  1.00  0.00    -0.000 C 
BRANCH   9  10
ATOM     10  C   UNL     1      18.865 -47.663 -31.379  1.00  0.00    -0.000 C 
BRANCH  10  11
ATOM     11  C   UNL     1      19.731 -48.867 -31.788  1.00  0.00    -0.003 C 
ATOM     12  C   UNL     1      20.309 -48.731 -33.195  1.00  0.00     0.004 C 
ENDBRANCH  10  11
ENDBRANCH   9  10
ENDBRANCH   8   9
ENDBRANCH   7   8
ENDBRANCH   6   7
ENDBRANCH   5   6
ENDBRANCH   4   5
ENDBRANCH   3   4
ENDBRANCH   2   3
ENDBRANCH   1   2
BRANCH   1  13
ATOM     13  C   UNL     1      20.503 -45.687 -23.084  1.00  0.00     0.000 C 
BRANCH  13  14
ATOM     14  C   UNL     1      19.333 -46.533 -22.551  1.00  0.00     0.000 C 
BRANCH  14  15
ATOM     15  C   UNL     1      18.152 -45.673 -22.077  1.00  0.00     0.000 C 
BRANCH  15  16
ATOM     16  C   UNL     1      16.835 -46.038 -22.784  1.00  0.00     0.000 C 
BRANCH  16  17
ATOM     17  C   UNL     1      15.971 -44.805 -23.094  1.00  0.00     0.000 C 
BRANCH  17  18
ATOM     18  C   UNL     1      16.696 -43.486 -22.787  1.00  0.00     0.000 C 
BRANCH  18  19
ATOM     19  C   UNL     1      15.698 -42.329 -22.638  1.00  0.00     0.000 C 
BRANCH  19  20
ATOM     20  C   UNL     1      16.075 -41.349 -21.512  1.00  0.00     0.006 C 
BRANCH  20  21
ATOM     21  C   UNL     1      16.775 -42.015 -20.312  1.00  0.00     0.053 C 
BRANCH  21  22
ATOM     22  C   UNL     1      16.042 -41.793 -19.024  1.00  0.00     0.041 C 
ATOM     23  O   UNL     1      14.807 -41.549 -19.031  1.00  0.00    -0.550 OA
ATOM     24  O   UNL     1      16.728 -41.822 -17.815  1.00  0.00    -0.550 OA
ENDBRANCH  21  22
ENDBRANCH  20  21
ENDBRANCH  19  20
ENDBRANCH  18  19
ENDBRANCH  17  18
ENDBRANCH  16  17
ENDBRANCH  15  16
ENDBRANCH  14  15
ENDBRANCH  13  14
ENDBRANCH   1  13
TORSDOF 20
ENDMDL
MODEL 9
REMARK VINA RESULT:    -5.448      3.864      9.379
REMARK INTER + INTRA:         -13.708
REMARK INTER:                 -11.083
REMARK INTRA:                  -2.625
REMARK UNBOUND:                -1.891
REMARK SMILES CCCCCCCCCCCCCCCCCCCCCC(=O)[O-]
REMARK SMILES IDX 12 1 11 2 10 3 9 4 8 5 7 6 6 7 5 8 4 9 3 10 2 11 1 12 13 13
REMARK SMILES IDX 14 14 15 15 16 16 17 17 18 18 19 19 20 20 21 21 22 22 23 23
REMARK SMILES IDX 24 24
REMARK H PARENT
REMARK Flexibility Score: inf
ROOT
ATOM      1  C   UNL     1      17.746 -45.329 -21.889  1.00  0.00     0.000 C 
ENDROOT
BRANCH   1   2
ATOM      2  C   UNL     1      19.216 -45.747 -21.707  1.00  0.00     0.000 C 
BRANCH   2   3
ATOM      3  C   UNL     1      20.189 -44.560 -21.790  1.00  0.00     0.000 C 
BRANCH   3   4
ATOM      4  C   UNL     1      21.360 -44.821 -22.752  1.00  0.00    -0.000 C 
BRANCH   4   5
ATOM      5  C   UNL     1      21.687 -43.606 -23.633  1.00  0.00    -0.000 C 
BRANCH   5   6
ATOM      6  C   UNL     1      20.612 -42.518 -23.486  1.00  0.00    -0.000 C 
BRANCH   6   7
ATOM      7  C   UNL     1      19.767 -42.343 -24.758  1.00  0.00    -0.000 C 
BRANCH   7   8
ATOM      8  C   UNL     1      18.708 -41.236 -24.616  1.00  0.00    -0.000 C 
BRANCH   8   9
ATOM      9  C   UNL     1      17.373 -41.753 -24.048  1.00  0.00    -0.000 C 
BRANCH   9  10
ATOM     10  C   UNL     1      17.197 -41.581 -22.525  1.00  0.00    -0.000 C 
BRANCH  10  11
ATOM     11  C   UNL     1      15.808 -41.964 -21.985  1.00  0.00    -0.003 C 
ATOM     12  C   UNL     1      14.823 -42.337 -23.092  1.00  0.00     0.004 C 
ENDBRANCH  10  11
ENDBRANCH   9  10
ENDBRANCH   8   9
ENDBRANCH   7   8
ENDBRANCH   6   7
ENDBRANCH   5   6
ENDBRANCH   4   5
ENDBRANCH   3   4
ENDBRANCH   2   3
ENDBRANCH   1   2
BRANCH   1  13
ATOM     13  C   UNL     1      17.080 -45.933 -23.142  1.00  0.00     0.000 C 
BRANCH  13  14
ATOM     14  C   UNL     1      17.307 -45.069 -24.395  1.00  0.00     0.000 C 
BRANCH  14  15
ATOM     15  C   UNL     1      18.350 -45.675 -25.347  1.00  0.00     0.000 C 
BRANCH  15  16
ATOM     16  C   UNL     1      18.305 -45.043 -26.750  1.00  0.00     0.000 C 
BRANCH  16  17
ATOM     17  C   UNL     1      17.334 -45.771 -27.693  1.00  0.00     0.000 C 
BRANCH  17  18
ATOM     18  C   UNL     1      17.553 -45.396 -29.167  1.00  0.00     0.000 C 
BRANCH  18  19
ATOM     19  C   UNL     1      18.742 -46.164 -29.761  1.00  0.00     0.000 C 
BRANCH  19  20
ATOM     20  C   UNL     1      18.317 -47.409 -30.561  1.00  0.00     0.006 C 
BRANCH  20  21
ATOM     21  C   UNL     1      19.467 -48.071 -31.342  1.00  0.00     0.053 C 
BRANCH  21  22
ATOM     22  C   UNL     1      19.492 -47.664 -32.784  1.00  0.00     0.041 C 
ATOM     23  O   UNL     1      19.942 -48.451 -33.657  1.00  0.00    -0.550 OA
ATOM     24  O   UNL     1      19.048 -46.402 -33.163  1.00  0.00    -0.550 OA
ENDBRANCH  21  22
ENDBRANCH  20  21
ENDBRANCH  19  20
ENDBRANCH  18  19
ENDBRANCH  17  18
ENDBRANCH  16  17
ENDBRANCH  15  16
ENDBRANCH  14  15
ENDBRANCH  13  14
ENDBRANCH   1  13
TORSDOF 20
ENDMDL
