MODEL 1
REMARK VINA RESULT:    -3.930      0.000      0.000
REMARK INTER + INTRA:          -6.131
REMARK INTER:                  -5.998
REMARK INTRA:                  -0.133
REMARK UNBOUND:                -0.133
REMARK SMILES CC1=CCC[C@H](C)C(=O)C[C@H](C(C)C)C(=O)C1
REMARK SMILES IDX 8 1 9 2 6 3 7 4 5 5 4 6 3 7 2 8 1 9 10 11 11 12 15 13 16 14
REMARK SMILES IDX 17 15 12 17 13 18 14 19
REMARK H PARENT
REMARK Flexibility Score: 70.00
ROOT
ATOM      1  C   UNL     1     -15.177  15.146 -31.735  1.00  0.00     0.136 C 
ATOM      2  O   UNL     1     -15.918  14.945 -32.687  1.00  0.00    -0.299 OA
ENDROOT
BRANCH   1   3
ATOM      3  C   UNL     1     -14.027  16.131 -31.862  1.00  0.00     0.053 C 
ATOM      4  C   UNL     1     -13.624  16.743 -30.511  1.00  0.00     0.016 C 
BRANCH   3   5
ATOM      5  C   UNL     1     -12.816  15.547 -32.628  1.00  0.00     0.015 C 
BRANCH   5   6
ATOM      6  C   UNL     1     -12.675  14.011 -32.702  1.00  0.00     0.028 C 
BRANCH   6   7
ATOM      7  C   UNL     1     -11.605  13.369 -31.849  1.00  0.00    -0.028 C 
ATOM      8  C   UNL     1     -11.755  12.884 -30.593  1.00  0.00    -0.070 CG0
ATOM      9  C   UNL     1     -10.601  12.120 -29.993  1.00  0.00     0.039 C 
ATOM     10  G   UNL     1     -12.977  13.130 -29.732  1.00  0.00     0.000 G0
ENDBRANCH   6   7
ENDBRANCH   5   6
ENDBRANCH   3   5
ENDBRANCH   1   3
BRANCH   1  11
ATOM     11  C   UNL     1     -15.426  14.386 -30.448  1.00  0.00     0.087 C 
BRANCH  11  12
ATOM     12  C   UNL     1     -15.446  12.841 -30.620  1.00  0.00     0.066 C 
BRANCH  12  13
ATOM     13  C   UNL     1     -14.132  12.244 -30.149  1.00  0.00     0.140 C 
ATOM     14  O   UNL     1     -14.008  11.028 -30.109  1.00  0.00    -0.299 OA
BRANCH  13  15
ATOM     15  C   UNL     1     -12.984  13.118 -29.699  1.00  0.00     0.106 CG0
ATOM     16  G   UNL     1     -11.777  12.882 -30.584  1.00  0.00     0.000 G0
ENDBRANCH  13  15
ENDBRANCH  12  13
BRANCH  12  17
ATOM     17  C   UNL     1     -16.655  12.182 -29.883  1.00  0.00    -0.006 C 
ATOM     18  C   UNL     1     -17.994  12.624 -30.504  1.00  0.00     0.008 C 
ATOM     19  C   UNL     1     -16.669  12.515 -28.381  1.00  0.00     0.008 C 
ENDBRANCH  12  17
ENDBRANCH  11  12
ENDBRANCH   1  11
TORSDOF 1
ENDMDL
MODEL 2
REMARK VINA RESULT:    -3.792      1.695      3.742
REMARK INTER + INTRA:          -5.919
REMARK INTER:                  -5.734
REMARK INTRA:                  -0.186
REMARK UNBOUND:                -0.133
REMARK SMILES CC1=CCC[C@H](C)C(=O)C[C@H](C(C)C)C(=O)C1
REMARK SMILES IDX 8 1 9 2 6 3 7 4 5 5 4 6 3 7 2 8 1 9 10 11 11 12 15 13 16 14
REMARK SMILES IDX 17 15 12 17 13 18 14 19
REMARK H PARENT
REMARK Flexibility Score: 70.00
ROOT
ATOM      1  C   UNL     1     -13.197  11.843 -29.003  1.00  0.00     0.136 C 
ATOM      2  O   UNL     1     -12.250  11.120 -29.281  1.00  0.00    -0.299 OA
ENDROOT
BRANCH   1   3
ATOM      3  C   UNL     1     -13.095  12.817 -27.841  1.00  0.00     0.053 C 
ATOM      4  C   UNL     1     -12.758  12.118 -26.515  1.00  0.00     0.016 C 
BRANCH   3   5
ATOM      5  C   UNL     1     -12.153  14.010 -28.135  1.00  0.00     0.015 C 
BRANCH   5   6
ATOM      6  C   UNL     1     -11.590  14.155 -29.566  1.00  0.00     0.028 C 
BRANCH   6   7
ATOM      7  C   UNL     1     -12.131  15.284 -30.414  1.00  0.00    -0.028 C 
ATOM      8  C   UNL     1     -13.081  15.190 -31.375  1.00  0.00    -0.070 CG0
ATOM      9  C   UNL     1     -13.603  16.473 -31.973  1.00  0.00     0.039 C 
ATOM     10  G   UNL     1     -13.589  13.878 -31.936  1.00  0.00     0.000 G0
ENDBRANCH   6   7
ENDBRANCH   5   6
ENDBRANCH   3   5
ENDBRANCH   1   3
BRANCH   1  11
ATOM     11  C   UNL     1     -14.462  11.732 -29.831  1.00  0.00     0.087 C 
BRANCH  11  12
ATOM     12  C   UNL     1     -15.220  13.077 -30.009  1.00  0.00     0.066 C 
BRANCH  12  13
ATOM     13  C   UNL     1     -14.993  13.626 -31.407  1.00  0.00     0.140 C 
ATOM     14  O   UNL     1     -15.956  13.841 -32.129  1.00  0.00    -0.299 OA
BRANCH  13  15
ATOM     15  C   UNL     1     -13.601  13.882 -31.938  1.00  0.00     0.106 CG0
ATOM     16  G   UNL     1     -13.066  15.184 -31.378  1.00  0.00     0.000 G0
ENDBRANCH  13  15
ENDBRANCH  12  13
BRANCH  12  17
ATOM     17  C   UNL     1     -16.746  12.938 -29.705  1.00  0.00    -0.006 C 
ATOM     18  C   UNL     1     -17.098  13.550 -28.336  1.00  0.00     0.008 C 
ATOM     19  C   UNL     1     -17.210  11.471 -29.730  1.00  0.00     0.008 C 
ENDBRANCH  12  17
ENDBRANCH  11  12
ENDBRANCH   1  11
TORSDOF 1
ENDMDL
MODEL 3
REMARK VINA RESULT:    -3.741      1.830      5.151
REMARK INTER + INTRA:          -5.842
REMARK INTER:                  -6.150
REMARK INTRA:                   0.308
REMARK UNBOUND:                -0.133
REMARK SMILES CC1=CCC[C@H](C)C(=O)C[C@H](C(C)C)C(=O)C1
REMARK SMILES IDX 8 1 9 2 6 3 7 4 5 5 4 6 3 7 2 8 1 9 10 11 11 12 15 13 16 14
REMARK SMILES IDX 17 15 12 17 13 18 14 19
REMARK H PARENT
REMARK Flexibility Score: 70.00
ROOT
ATOM      1  C   UNL     1     -12.936  12.448 -29.516  1.00  0.00     0.136 C 
ATOM      2  O   UNL     1     -12.543  11.732 -30.426  1.00  0.00    -0.299 OA
ENDROOT
BRANCH   1   3
ATOM      3  C   UNL     1     -13.022  11.902 -28.101  1.00  0.00     0.053 C 
ATOM      4  C   UNL     1     -12.619  12.940 -27.043  1.00  0.00     0.016 C 
BRANCH   3   5
ATOM      5  C   UNL     1     -14.388  11.245 -27.791  1.00  0.00     0.015 C 
BRANCH   5   6
ATOM      6  C   UNL     1     -15.510  12.139 -27.217  1.00  0.00     0.028 C 
BRANCH   6   7
ATOM      7  C   UNL     1     -16.806  12.209 -27.991  1.00  0.00    -0.028 C 
ATOM      8  C   UNL     1     -17.072  13.004 -29.055  1.00  0.00    -0.070 CG0
ATOM      9  C   UNL     1     -18.370  12.783 -29.790  1.00  0.00     0.039 C 
ATOM     10  G   UNL     1     -16.182  14.148 -29.498  1.00  0.00     0.000 G0
ENDBRANCH   6   7
ENDBRANCH   5   6
ENDBRANCH   3   5
ENDBRANCH   1   3
BRANCH   1  11
ATOM     11  C   UNL     1     -13.342  13.873 -29.837  1.00  0.00     0.087 C 
BRANCH  11  12
ATOM     12  C   UNL     1     -14.144  14.018 -31.161  1.00  0.00     0.066 C 
BRANCH  12  13
ATOM     13  C   UNL     1     -15.634  13.934 -30.883  1.00  0.00     0.140 C 
ATOM     14  O   UNL     1     -16.401  13.690 -31.804  1.00  0.00    -0.299 OA
BRANCH  13  15
ATOM     15  C   UNL     1     -16.194  14.175 -29.500  1.00  0.00     0.106 CG0
ATOM     16  G   UNL     1     -17.059  13.003 -29.081  1.00  0.00     0.000 G0
ENDBRANCH  13  15
ENDBRANCH  12  13
BRANCH  12  17
ATOM     17  C   UNL     1     -13.791  15.337 -31.921  1.00  0.00    -0.006 C 
ATOM     18  C   UNL     1     -12.384  15.260 -32.543  1.00  0.00     0.008 C 
ATOM     19  C   UNL     1     -13.865  16.571 -31.005  1.00  0.00     0.008 C 
ENDBRANCH  12  17
ENDBRANCH  11  12
ENDBRANCH   1  11
TORSDOF 1
ENDMDL
MODEL 4
REMARK VINA RESULT:    -3.623      1.966      3.714
REMARK INTER + INTRA:          -5.661
REMARK INTER:                  -5.642
REMARK INTRA:                  -0.020
REMARK UNBOUND:                -0.133
REMARK SMILES CC1=CCC[C@H](C)C(=O)C[C@H](C(C)C)C(=O)C1
REMARK SMILES IDX 8 1 9 2 6 3 7 4 5 5 4 6 3 7 2 8 1 9 10 11 11 12 15 13 16 14
REMARK SMILES IDX 17 15 12 17 13 18 14 19
REMARK H PARENT
REMARK Flexibility Score: 70.00
ROOT
ATOM      1  C   UNL     1     -12.113  13.709 -28.491  1.00  0.00     0.136 C 
ATOM      2  O   UNL     1     -12.254  14.335 -27.450  1.00  0.00    -0.299 OA
ENDROOT
BRANCH   1   3
ATOM      3  C   UNL     1     -11.064  14.140 -29.502  1.00  0.00     0.053 C 
ATOM      4  C   UNL     1     -10.295  12.951 -30.097  1.00  0.00     0.016 C 
BRANCH   3   5
ATOM      5  C   UNL     1     -11.628  15.082 -30.593  1.00  0.00     0.015 C 
BRANCH   5   6
ATOM      6  C   UNL     1     -12.937  15.845 -30.287  1.00  0.00     0.028 C 
BRANCH   6   7
ATOM      7  C   UNL     1     -14.037  15.777 -31.321  1.00  0.00    -0.028 C 
ATOM      8  C   UNL     1     -14.688  14.665 -31.739  1.00  0.00    -0.070 CG0
ATOM      9  C   UNL     1     -15.879  14.847 -32.646  1.00  0.00     0.039 C 
ATOM     10  G   UNL     1     -14.243  13.254 -31.413  1.00  0.00     0.000 G0
ENDBRANCH   6   7
ENDBRANCH   5   6
ENDBRANCH   3   5
ENDBRANCH   1   3
BRANCH   1  11
ATOM     11  C   UNL     1     -13.013  12.517 -28.749  1.00  0.00     0.087 C 
BRANCH  11  12
ATOM     12  C   UNL     1     -14.524  12.871 -28.831  1.00  0.00     0.066 C 
BRANCH  12  13
ATOM     13  C   UNL     1     -15.028  12.693 -30.252  1.00  0.00     0.140 C 
ATOM     14  O   UNL     1     -16.068  12.079 -30.446  1.00  0.00    -0.299 OA
BRANCH  13  15
ATOM     15  C   UNL     1     -14.257  13.231 -31.437  1.00  0.00     0.106 CG0
ATOM     16  G   UNL     1     -14.685  14.655 -31.728  1.00  0.00     0.000 G0
ENDBRANCH  13  15
ENDBRANCH  12  13
BRANCH  12  17
ATOM     17  C   UNL     1     -15.380  12.037 -27.826  1.00  0.00    -0.006 C 
ATOM     18  C   UNL     1     -16.491  12.896 -27.194  1.00  0.00     0.008 C 
ATOM     19  C   UNL     1     -14.523  11.425 -26.704  1.00  0.00     0.008 C 
ENDBRANCH  12  17
ENDBRANCH  11  12
ENDBRANCH   1  11
TORSDOF 1
ENDMDL
MODEL 5
REMARK VINA RESULT:    -3.580      1.913      5.028
REMARK INTER + INTRA:          -5.596
REMARK INTER:                  -5.391
REMARK INTRA:                  -0.205
REMARK UNBOUND:                -0.133
REMARK SMILES CC1=CCC[C@H](C)C(=O)C[C@H](C(C)C)C(=O)C1
REMARK SMILES IDX 8 1 9 2 6 3 7 4 5 5 4 6 3 7 2 8 1 9 10 11 11 12 15 13 16 14
REMARK SMILES IDX 17 15 12 17 13 18 14 19
REMARK H PARENT
REMARK Flexibility Score: 70.00
ROOT
ATOM      1  C   UNL     1     -12.308  13.976 -29.286  1.00  0.00     0.136 C 
ATOM      2  O   UNL     1     -11.768  14.358 -28.258  1.00  0.00    -0.299 OA
ENDROOT
BRANCH   1   3
ATOM      3  C   UNL     1     -12.308  12.499 -29.643  1.00  0.00     0.053 C 
ATOM      4  C   UNL     1     -10.945  11.834 -29.397  1.00  0.00     0.016 C 
BRANCH   3   5
ATOM      5  C   UNL     1     -13.471  11.719 -28.983  1.00  0.00     0.015 C 
BRANCH   5   6
ATOM      6  C   UNL     1     -14.549  12.527 -28.227  1.00  0.00     0.028 C 
BRANCH   6   7
ATOM      7  C   UNL     1     -15.953  12.505 -28.787  1.00  0.00    -0.028 C 
ATOM      8  C   UNL     1     -16.467  13.349 -29.715  1.00  0.00    -0.070 CG0
ATOM      9  C   UNL     1     -17.835  13.035 -30.267  1.00  0.00     0.039 C 
ATOM     10  G   UNL     1     -15.784  14.623 -30.169  1.00  0.00     0.000 G0
ENDBRANCH   6   7
ENDBRANCH   5   6
ENDBRANCH   3   5
ENDBRANCH   1   3
BRANCH   1  11
ATOM     11  C   UNL     1     -12.958  15.005 -30.190  1.00  0.00     0.087 C 
BRANCH  11  12
ATOM     12  C   UNL     1     -13.523  14.417 -31.513  1.00  0.00     0.066 C 
BRANCH  12  13
ATOM     13  C   UNL     1     -15.040  14.387 -31.468  1.00  0.00     0.140 C 
ATOM     14  O   UNL     1     -15.666  14.184 -32.498  1.00  0.00    -0.299 OA
BRANCH  13  15
ATOM     15  C   UNL     1     -15.797  14.634 -30.182  1.00  0.00     0.106 CG0
ATOM     16  G   UNL     1     -16.465  13.354 -29.722  1.00  0.00     0.000 G0
ENDBRANCH  13  15
ENDBRANCH  12  13
BRANCH  12  17
ATOM     17  C   UNL     1     -13.017  15.198 -32.768  1.00  0.00    -0.006 C 
ATOM     18  C   UNL     1     -11.519  14.943 -33.015  1.00  0.00     0.008 C 
ATOM     19  C   UNL     1     -13.251  16.713 -32.640  1.00  0.00     0.008 C 
ENDBRANCH  12  17
ENDBRANCH  11  12
ENDBRANCH   1  11
TORSDOF 1
ENDMDL
MODEL 6
REMARK VINA RESULT:    -3.556      1.895      4.288
REMARK INTER + INTRA:          -5.560
REMARK INTER:                  -5.698
REMARK INTRA:                   0.138
REMARK UNBOUND:                -0.133
REMARK SMILES CC1=CCC[C@H](C)C(=O)C[C@H](C(C)C)C(=O)C1
REMARK SMILES IDX 8 1 9 2 6 3 7 4 5 5 4 6 3 7 2 8 1 9 10 11 11 12 15 13 16 14
REMARK SMILES IDX 17 15 12 17 13 18 14 19
REMARK H PARENT
REMARK Flexibility Score: 70.00
ROOT
ATOM      1  C   UNL     1     -16.223  13.679 -30.912  1.00  0.00     0.136 C 
ATOM      2  O   UNL     1     -16.533  14.240 -31.953  1.00  0.00    -0.299 OA
ENDROOT
BRANCH   1   3
ATOM      3  C   UNL     1     -17.215  13.604 -29.764  1.00  0.00     0.053 C 
ATOM      4  C   UNL     1     -18.342  12.593 -30.024  1.00  0.00     0.016 C 
BRANCH   3   5
ATOM      5  C   UNL     1     -16.533  13.384 -28.391  1.00  0.00     0.015 C 
BRANCH   5   6
ATOM      6  C   UNL     1     -16.319  11.932 -27.911  1.00  0.00     0.028 C 
BRANCH   6   7
ATOM      7  C   UNL     1     -15.150  11.670 -26.990  1.00  0.00    -0.028 C 
ATOM      8  C   UNL     1     -13.839  11.651 -27.331  1.00  0.00    -0.070 CG0
ATOM      9  C   UNL     1     -12.826  11.549 -26.219  1.00  0.00     0.039 C 
ATOM     10  G   UNL     1     -13.338  11.647 -28.761  1.00  0.00     0.000 G0
ENDBRANCH   6   7
ENDBRANCH   5   6
ENDBRANCH   3   5
ENDBRANCH   1   3
BRANCH   1  11
ATOM     11  C   UNL     1     -14.835  13.080 -30.795  1.00  0.00     0.087 C 
BRANCH  11  12
ATOM     12  C   UNL     1     -13.844  13.941 -29.963  1.00  0.00     0.066 C 
BRANCH  12  13
ATOM     13  C   UNL     1     -12.911  13.046 -29.167  1.00  0.00     0.140 C 
ATOM     14  O   UNL     1     -11.799  13.456 -28.866  1.00  0.00    -0.299 OA
BRANCH  13  15
ATOM     15  C   UNL     1     -13.315  11.645 -28.764  1.00  0.00     0.106 CG0
ATOM     16  G   UNL     1     -13.829  11.646 -27.339  1.00  0.00     0.000 G0
ENDBRANCH  13  15
ENDBRANCH  12  13
BRANCH  12  17
ATOM     17  C   UNL     1     -13.035  14.936 -30.855  1.00  0.00    -0.006 C 
ATOM     18  C   UNL     1     -13.766  16.285 -30.987  1.00  0.00     0.008 C 
ATOM     19  C   UNL     1     -12.774  14.371 -32.262  1.00  0.00     0.008 C 
ENDBRANCH  12  17
ENDBRANCH  11  12
ENDBRANCH   1  11
TORSDOF 1
ENDMDL
MODEL 7
REMARK VINA RESULT:    -3.543      1.728      2.460
REMARK INTER + INTRA:          -5.540
REMARK INTER:                  -5.476
REMARK INTRA:                  -0.064
REMARK UNBOUND:                -0.133
REMARK SMILES CC1=CCC[C@H](C)C(=O)C[C@H](C(C)C)C(=O)C1
REMARK SMILES IDX 8 1 9 2 6 3 7 4 5 5 4 6 3 7 2 8 1 9 10 11 11 12 15 13 16 14
REMARK SMILES IDX 17 15 12 17 13 18 14 19
REMARK H PARENT
REMARK Flexibility Score: 70.00
ROOT
ATOM      1  C   UNL     1     -13.621  15.657 -31.073  1.00  0.00     0.136 C 
ATOM      2  O   UNL     1     -13.649  16.871 -31.213  1.00  0.00    -0.299 OA
ENDROOT
BRANCH   1   3
ATOM      3  C   UNL     1     -12.414  14.864 -31.547  1.00  0.00     0.053 C 
ATOM      4  C   UNL     1     -11.850  15.388 -32.877  1.00  0.00     0.016 C 
BRANCH   3   5
ATOM      5  C   UNL     1     -11.322  14.722 -30.460  1.00  0.00     0.015 C 
BRANCH   5   6
ATOM      6  C   UNL     1     -11.764  14.736 -28.980  1.00  0.00     0.028 C 
BRANCH   6   7
ATOM      7  C   UNL     1     -11.798  13.411 -28.253  1.00  0.00    -0.028 C 
ATOM      8  C   UNL     1     -12.865  12.586 -28.124  1.00  0.00    -0.070 CG0
ATOM      9  C   UNL     1     -12.631  11.226 -27.514  1.00  0.00     0.039 C 
ATOM     10  G   UNL     1     -14.284  12.977 -28.483  1.00  0.00     0.000 G0
ENDBRANCH   6   7
ENDBRANCH   5   6
ENDBRANCH   3   5
ENDBRANCH   1   3
BRANCH   1  11
ATOM     11  C   UNL     1     -14.813  14.971 -30.435  1.00  0.00     0.087 C 
BRANCH  11  12
ATOM     12  C   UNL     1     -15.056  13.523 -30.944  1.00  0.00     0.066 C 
BRANCH  12  13
ATOM     13  C   UNL     1     -14.634  12.518 -29.888  1.00  0.00     0.140 C 
ATOM     14  O   UNL     1     -14.583  11.331 -30.178  1.00  0.00    -0.299 OA
BRANCH  13  15
ATOM     15  C   UNL     1     -14.305  12.948 -28.476  1.00  0.00     0.106 CG0
ATOM     16  G   UNL     1     -12.876  12.574 -28.142  1.00  0.00     0.000 G0
ENDBRANCH  13  15
ENDBRANCH  12  13
BRANCH  12  17
ATOM     17  C   UNL     1     -16.540  13.291 -31.374  1.00  0.00    -0.006 C 
ATOM     18  C   UNL     1     -16.998  14.357 -32.388  1.00  0.00     0.008 C 
ATOM     19  C   UNL     1     -17.500  13.302 -30.171  1.00  0.00     0.008 C 
ENDBRANCH  12  17
ENDBRANCH  11  12
ENDBRANCH   1  11
TORSDOF 1
ENDMDL
MODEL 8
REMARK VINA RESULT:    -3.338      1.268      1.651
REMARK INTER + INTRA:          -5.226
REMARK INTER:                  -5.749
REMARK INTRA:                   0.523
REMARK UNBOUND:                -0.133
REMARK SMILES CC1=CCC[C@H](C)C(=O)C[C@H](C(C)C)C(=O)C1
REMARK SMILES IDX 8 1 9 2 6 3 7 4 5 5 4 6 3 7 2 8 1 9 10 11 11 12 15 13 16 14
REMARK SMILES IDX 17 15 12 17 13 18 14 19
REMARK H PARENT
REMARK Flexibility Score: 70.00
ROOT
ATOM      1  C   UNL     1     -15.524  14.692 -31.553  1.00  0.00     0.136 C 
ATOM      2  O   UNL     1     -16.240  14.278 -32.454  1.00  0.00    -0.299 OA
ENDROOT
BRANCH   1   3
ATOM      3  C   UNL     1     -14.290  15.516 -31.880  1.00  0.00     0.053 C 
ATOM      4  C   UNL     1     -13.784  16.323 -30.675  1.00  0.00     0.016 C 
BRANCH   3   5
ATOM      5  C   UNL     1     -13.167  14.682 -32.543  1.00  0.00     0.015 C 
BRANCH   5   6
ATOM      6  C   UNL     1     -12.734  13.369 -31.854  1.00  0.00     0.028 C 
BRANCH   6   7
ATOM      7  C   UNL     1     -12.381  13.439 -30.386  1.00  0.00    -0.028 C 
ATOM      8  C   UNL     1     -12.826  12.616 -29.406  1.00  0.00    -0.070 CG0
ATOM      9  C   UNL     1     -12.205  12.752 -28.039  1.00  0.00     0.039 C 
ATOM     10  G   UNL     1     -13.960  11.626 -29.584  1.00  0.00     0.000 G0
ENDBRANCH   6   7
ENDBRANCH   5   6
ENDBRANCH   3   5
ENDBRANCH   1   3
BRANCH   1  11
ATOM     11  C   UNL     1     -15.888  14.352 -30.121  1.00  0.00     0.087 C 
BRANCH  11  12
ATOM     12  C   UNL     1     -16.263  12.860 -29.902  1.00  0.00     0.066 C 
BRANCH  12  13
ATOM     13  C   UNL     1     -15.236  12.186 -29.011  1.00  0.00     0.140 C 
ATOM     14  O   UNL     1     -15.440  12.118 -27.807  1.00  0.00    -0.299 OA
BRANCH  13  15
ATOM     15  C   UNL     1     -13.949  11.625 -29.573  1.00  0.00     0.106 CG0
ATOM     16  G   UNL     1     -12.830  12.632 -29.406  1.00  0.00     0.000 G0
ENDBRANCH  13  15
ENDBRANCH  12  13
BRANCH  12  17
ATOM     17  C   UNL     1     -17.703  12.695 -29.318  1.00  0.00    -0.006 C 
ATOM     18  C   UNL     1     -18.012  11.218 -29.010  1.00  0.00     0.008 C 
ATOM     19  C   UNL     1     -18.780  13.241 -30.271  1.00  0.00     0.008 C 
ENDBRANCH  12  17
ENDBRANCH  11  12
ENDBRANCH   1  11
TORSDOF 1
ENDMDL
MODEL 9
REMARK VINA RESULT:    -3.300      1.749      2.209
REMARK INTER + INTRA:          -5.169
REMARK INTER:                  -4.797
REMARK INTRA:                  -0.372
REMARK UNBOUND:                -0.133
REMARK SMILES CC1=CCC[C@H](C)C(=O)C[C@H](C(C)C)C(=O)C1
REMARK SMILES IDX 8 1 9 2 6 3 7 4 5 5 4 6 3 7 2 8 1 9 10 11 11 12 15 13 16 14
REMARK SMILES IDX 17 15 12 17 13 18 14 19
REMARK H PARENT
REMARK Flexibility Score: 70.00
ROOT
ATOM      1  C   UNL     1     -13.719  15.350 -30.917  1.00  0.00     0.136 C 
ATOM      2  O   UNL     1     -14.168  16.486 -30.850  1.00  0.00    -0.299 OA
ENDROOT
BRANCH   1   3
ATOM      3  C   UNL     1     -13.341  14.760 -32.265  1.00  0.00     0.053 C 
ATOM      4  C   UNL     1     -14.552  14.593 -33.195  1.00  0.00     0.016 C 
BRANCH   3   5
ATOM      5  C   UNL     1     -12.175  15.515 -32.947  1.00  0.00     0.015 C 
BRANCH   5   6
ATOM      6  C   UNL     1     -10.735  15.195 -32.487  1.00  0.00     0.028 C 
BRANCH   6   7
ATOM      7  C   UNL     1     -10.324  13.741 -32.453  1.00  0.00    -0.028 C 
ATOM      8  C   UNL     1     -10.436  12.893 -31.403  1.00  0.00    -0.070 CG0
ATOM      9  C   UNL     1     -10.133  11.435 -31.643  1.00  0.00     0.039 C 
ATOM     10  G   UNL     1     -10.770  13.334 -29.992  1.00  0.00     0.000 G0
ENDBRANCH   6   7
ENDBRANCH   5   6
ENDBRANCH   3   5
ENDBRANCH   1   3
BRANCH   1  11
ATOM     11  C   UNL     1     -13.567  14.552 -29.637  1.00  0.00     0.087 C 
BRANCH  11  12
ATOM     12  C   UNL     1     -13.390  13.025 -29.861  1.00  0.00     0.066 C 
BRANCH  12  13
ATOM     13  C   UNL     1     -11.992  12.594 -29.456  1.00  0.00     0.140 C 
ATOM     14  O   UNL     1     -11.855  11.656 -28.683  1.00  0.00    -0.299 OA
BRANCH  13  15
ATOM     15  C   UNL     1     -10.765  13.317 -29.963  1.00  0.00     0.106 CG0
ATOM     16  G   UNL     1     -10.454  12.879 -31.380  1.00  0.00     0.000 G0
ENDBRANCH  13  15
ENDBRANCH  12  13
BRANCH  12  17
ATOM     17  C   UNL     1     -14.473  12.189 -29.106  1.00  0.00    -0.006 C 
ATOM     18  C   UNL     1     -14.997  11.036 -29.983  1.00  0.00     0.008 C 
ATOM     19  C   UNL     1     -15.663  13.055 -28.657  1.00  0.00     0.008 C 
ENDBRANCH  12  17
ENDBRANCH  11  12
ENDBRANCH   1  11
TORSDOF 1
ENDMDL
