MODEL 1
REMARK VINA RESULT:    -2.964      0.000      0.000
REMARK INTER + INTRA:          -8.791
REMARK INTER:                  -5.737
REMARK INTRA:                  -3.054
REMARK UNBOUND:                -3.054
REMARK SMILES CCCCCCCCCCCCCCCCCC(=O)[O-]
REMARK SMILES IDX 10 1 11 2 12 3 13 4 14 5 15 6 16 7 17 8 18 9 19 10 20 11
REMARK SMILES IDX 9 12 8 13 7 14 6 15 5 16 4 17 3 18 2 19 1 20
REMARK H PARENT
REMARK Flexibility Score: inf
ROOT
ATOM      1  C   UNL     1      11.376  44.052 152.223  1.00  0.00     0.000 C 
ENDROOT
BRANCH   1   2
ATOM      2  C   UNL     1      10.996  44.077 153.714  1.00  0.00     0.000 C 
BRANCH   2   3
ATOM      3  C   UNL     1      11.457  42.820 154.468  1.00  0.00     0.000 C 
BRANCH   3   4
ATOM      4  C   UNL     1      10.394  42.368 155.480  1.00  0.00     0.000 C 
BRANCH   4   5
ATOM      5  C   UNL     1       9.145  43.265 155.469  1.00  0.00     0.000 C 
BRANCH   5   6
ATOM      6  C   UNL     1       8.664  43.625 156.886  1.00  0.00     0.000 C 
BRANCH   6   7
ATOM      7  C   UNL     1       8.568  45.141 157.110  1.00  0.00     0.006 C 
BRANCH   7   8
ATOM      8  C   UNL     1       8.536  45.936 155.798  1.00  0.00     0.053 C 
BRANCH   8   9
ATOM      9  C   UNL     1       9.495  47.084 155.862  1.00  0.00     0.041 C 
ATOM     10  O   UNL     1       9.603  47.761 156.917  1.00  0.00    -0.550 OA
ATOM     11  O   UNL     1      10.226  47.442 154.734  1.00  0.00    -0.550 OA
ENDBRANCH   8   9
ENDBRANCH   7   8
ENDBRANCH   6   7
ENDBRANCH   5   6
ENDBRANCH   4   5
ENDBRANCH   3   4
ENDBRANCH   2   3
ENDBRANCH   1   2
BRANCH   1  12
ATOM     12  C   UNL     1      12.425  42.989 151.831  1.00  0.00     0.000 C 
BRANCH  12  13
ATOM     13  C   UNL     1      12.260  42.388 150.423  1.00  0.00    -0.000 C 
BRANCH  13  14
ATOM     14  C   UNL     1      11.441  41.085 150.422  1.00  0.00    -0.000 C 
BRANCH  14  15
ATOM     15  C   UNL     1      11.522  40.327 151.761  1.00  0.00    -0.000 C 
BRANCH  15  16
ATOM     16  C   UNL     1      10.163  40.024 152.424  1.00  0.00    -0.000 C 
BRANCH  16  17
ATOM     17  C   UNL     1       8.932  40.570 151.675  1.00  0.00    -0.000 C 
BRANCH  17  18
ATOM     18  C   UNL     1       8.251  41.762 152.381  1.00  0.00    -0.000 C 
BRANCH  18  19
ATOM     19  C   UNL     1       7.982  42.935 151.426  1.00  0.00    -0.003 C 
ATOM     20  C   UNL     1       7.578  44.189 152.196  1.00  0.00     0.004 C 
ENDBRANCH  18  19
ENDBRANCH  17  18
ENDBRANCH  16  17
ENDBRANCH  15  16
ENDBRANCH  14  15
ENDBRANCH  13  14
ENDBRANCH  12  13
ENDBRANCH   1  12
TORSDOF 16
ENDMDL
MODEL 2
REMARK VINA RESULT:    -2.931      1.442      1.994
REMARK INTER + INTRA:          -8.727
REMARK INTER:                  -5.923
REMARK INTRA:                  -2.804
REMARK UNBOUND:                -3.054
REMARK SMILES CCCCCCCCCCCCCCCCCC(=O)[O-]
REMARK SMILES IDX 10 1 11 2 12 3 13 4 14 5 15 6 16 7 17 8 18 9 19 10 20 11
REMARK SMILES IDX 9 12 8 13 7 14 6 15 5 16 4 17 3 18 2 19 1 20
REMARK H PARENT
REMARK Flexibility Score: inf
ROOT
ATOM      1  C   UNL     1      10.791  43.227 150.713  1.00  0.00     0.000 C 
ENDROOT
BRANCH   1   2
ATOM      2  C   UNL     1      10.605  43.424 152.228  1.00  0.00     0.000 C 
BRANCH   2   3
ATOM      3  C   UNL     1      11.939  43.531 152.982  1.00  0.00     0.000 C 
BRANCH   3   4
ATOM      4  C   UNL     1      11.846  42.853 154.358  1.00  0.00     0.000 C 
BRANCH   4   5
ATOM      5  C   UNL     1      10.473  42.205 154.607  1.00  0.00     0.000 C 
BRANCH   5   6
ATOM      6  C   UNL     1       9.772  42.772 155.854  1.00  0.00     0.000 C 
BRANCH   6   7
ATOM      7  C   UNL     1       8.603  43.705 155.502  1.00  0.00     0.006 C 
BRANCH   7   8
ATOM      8  C   UNL     1       8.879  45.169 155.868  1.00  0.00     0.053 C 
BRANCH   8   9
ATOM      9  C   UNL     1       9.244  45.951 154.645  1.00  0.00     0.041 C 
ATOM     10  O   UNL     1       8.489  45.941 153.638  1.00  0.00    -0.550 OA
ATOM     11  O   UNL     1      10.449  46.643 154.597  1.00  0.00    -0.550 OA
ENDBRANCH   8   9
ENDBRANCH   7   8
ENDBRANCH   6   7
ENDBRANCH   5   6
ENDBRANCH   4   5
ENDBRANCH   3   4
ENDBRANCH   2   3
ENDBRANCH   1   2
BRANCH   1  12
ATOM     12  C   UNL     1      12.060  42.448 150.304  1.00  0.00     0.000 C 
BRANCH  12  13
ATOM     13  C   UNL     1      11.841  40.961 149.971  1.00  0.00    -0.000 C 
BRANCH  13  14
ATOM     14  C   UNL     1      12.007  40.044 151.196  1.00  0.00    -0.000 C 
BRANCH  14  15
ATOM     15  C   UNL     1      10.673  39.758 151.913  1.00  0.00    -0.000 C 
BRANCH  15  16
ATOM     16  C   UNL     1       9.452  39.599 150.985  1.00  0.00    -0.000 C 
BRANCH  16  17
ATOM     17  C   UNL     1       8.202  40.395 151.406  1.00  0.00    -0.000 C 
BRANCH  17  18
ATOM     18  C   UNL     1       8.011  40.494 152.934  1.00  0.00    -0.000 C 
BRANCH  18  19
ATOM     19  C   UNL     1       6.532  40.431 153.347  1.00  0.00    -0.003 C 
ATOM     20  C   UNL     1       6.002  41.815 153.707  1.00  0.00     0.004 C 
ENDBRANCH  18  19
ENDBRANCH  17  18
ENDBRANCH  16  17
ENDBRANCH  15  16
ENDBRANCH  14  15
ENDBRANCH  13  14
ENDBRANCH  12  13
ENDBRANCH   1  12
TORSDOF 16
ENDMDL
MODEL 3
REMARK VINA RESULT:    -2.836      1.464      3.901
REMARK INTER + INTRA:          -8.543
REMARK INTER:                  -5.705
REMARK INTRA:                  -2.839
REMARK UNBOUND:                -3.054
REMARK SMILES CCCCCCCCCCCCCCCCCC(=O)[O-]
REMARK SMILES IDX 10 1 11 2 12 3 13 4 14 5 15 6 16 7 17 8 18 9 19 10 20 11
REMARK SMILES IDX 9 12 8 13 7 14 6 15 5 16 4 17 3 18 2 19 1 20
REMARK H PARENT
REMARK Flexibility Score: inf
ROOT
ATOM      1  C   UNL     1       8.272  43.233 155.965  1.00  0.00     0.000 C 
ENDROOT
BRANCH   1   2
ATOM      2  C   UNL     1       9.727  42.729 156.010  1.00  0.00     0.000 C 
BRANCH   2   3
ATOM      3  C   UNL     1      10.238  42.262 154.639  1.00  0.00     0.000 C 
BRANCH   3   4
ATOM      4  C   UNL     1      11.677  42.744 154.398  1.00  0.00     0.000 C 
BRANCH   4   5
ATOM      5  C   UNL     1      11.736  44.059 153.602  1.00  0.00     0.000 C 
BRANCH   5   6
ATOM      6  C   UNL     1      10.493  44.270 152.720  1.00  0.00     0.000 C 
BRANCH   6   7
ATOM      7  C   UNL     1       9.818  45.628 152.963  1.00  0.00     0.006 C 
BRANCH   7   8
ATOM      8  C   UNL     1      10.175  46.234 154.327  1.00  0.00     0.053 C 
BRANCH   8   9
ATOM      9  C   UNL     1       9.018  47.015 154.868  1.00  0.00     0.041 C 
ATOM     10  O   UNL     1       8.557  46.755 156.011  1.00  0.00    -0.550 OA
ATOM     11  O   UNL     1       8.411  47.991 154.085  1.00  0.00    -0.550 OA
ENDBRANCH   8   9
ENDBRANCH   7   8
ENDBRANCH   6   7
ENDBRANCH   5   6
ENDBRANCH   4   5
ENDBRANCH   3   4
ENDBRANCH   2   3
ENDBRANCH   1   2
BRANCH   1  12
ATOM     12  C   UNL     1       7.578  43.108 154.591  1.00  0.00     0.000 C 
BRANCH  12  13
ATOM     13  C   UNL     1       6.341  42.192 154.560  1.00  0.00    -0.000 C 
BRANCH  13  14
ATOM     14  C   UNL     1       6.304  41.281 153.320  1.00  0.00    -0.000 C 
BRANCH  14  15
ATOM     15  C   UNL     1       7.597  40.463 153.140  1.00  0.00    -0.000 C 
BRANCH  15  16
ATOM     16  C   UNL     1       8.055  40.276 151.679  1.00  0.00    -0.000 C 
BRANCH  16  17
ATOM     17  C   UNL     1       9.491  40.745 151.377  1.00  0.00    -0.000 C 
BRANCH  17  18
ATOM     18  C   UNL     1      10.582  39.787 151.899  1.00  0.00    -0.000 C 
BRANCH  18  19
ATOM     19  C   UNL     1      11.989  40.183 151.425  1.00  0.00    -0.003 C 
ATOM     20  C   UNL     1      11.978  41.558 150.762  1.00  0.00     0.004 C 
ENDBRANCH  18  19
ENDBRANCH  17  18
ENDBRANCH  16  17
ENDBRANCH  15  16
ENDBRANCH  14  15
ENDBRANCH  13  14
ENDBRANCH  12  13
ENDBRANCH   1  12
TORSDOF 16
ENDMDL
MODEL 4
REMARK VINA RESULT:    -2.803      4.617      7.011
REMARK INTER + INTRA:          -8.479
REMARK INTER:                  -5.482
REMARK INTRA:                  -2.997
REMARK UNBOUND:                -3.054
REMARK SMILES CCCCCCCCCCCCCCCCCC(=O)[O-]
REMARK SMILES IDX 10 1 11 2 12 3 13 4 14 5 15 6 16 7 17 8 18 9 19 10 20 11
REMARK SMILES IDX 9 12 8 13 7 14 6 15 5 16 4 17 3 18 2 19 1 20
REMARK H PARENT
REMARK Flexibility Score: inf
ROOT
ATOM      1  C   UNL     1       8.868  45.070 151.097  1.00  0.00     0.000 C 
ENDROOT
BRANCH   1   2
ATOM      2  C   UNL     1       8.519  43.582 150.914  1.00  0.00     0.000 C 
BRANCH   2   3
ATOM      3  C   UNL     1       7.288  43.154 151.728  1.00  0.00     0.000 C 
BRANCH   3   4
ATOM      4  C   UNL     1       7.119  41.628 151.704  1.00  0.00     0.000 C 
BRANCH   4   5
ATOM      5  C   UNL     1       7.776  40.978 150.474  1.00  0.00     0.000 C 
BRANCH   5   6
ATOM      6  C   UNL     1       8.190  39.518 150.730  1.00  0.00     0.000 C 
BRANCH   6   7
ATOM      7  C   UNL     1       9.010  38.926 149.573  1.00  0.00     0.006 C 
BRANCH   7   8
ATOM      8  C   UNL     1      10.102  37.959 150.052  1.00  0.00     0.053 C 
BRANCH   8   9
ATOM      9  C   UNL     1       9.661  36.541 149.862  1.00  0.00     0.041 C 
ATOM     10  O   UNL     1      10.455  35.593 150.099  1.00  0.00    -0.550 OA
ATOM     11  O   UNL     1       8.390  36.269 149.366  1.00  0.00    -0.550 OA
ENDBRANCH   8   9
ENDBRANCH   7   8
ENDBRANCH   6   7
ENDBRANCH   5   6
ENDBRANCH   4   5
ENDBRANCH   3   4
ENDBRANCH   2   3
ENDBRANCH   1   2
BRANCH   1  12
ATOM     12  C   UNL     1      10.147  45.348 151.915  1.00  0.00     0.000 C 
BRANCH  12  13
ATOM     13  C   UNL     1      10.212  44.658 153.290  1.00  0.00    -0.000 C 
BRANCH  13  14
ATOM     14  C   UNL     1      11.640  44.242 153.683  1.00  0.00    -0.000 C 
BRANCH  14  15
ATOM     15  C   UNL     1      11.745  42.754 154.069  1.00  0.00    -0.000 C 
BRANCH  15  16
ATOM     16  C   UNL     1      10.461  41.930 153.852  1.00  0.00    -0.000 C 
BRANCH  16  17
ATOM     17  C   UNL     1      10.582  40.786 152.827  1.00  0.00    -0.000 C 
BRANCH  17  18
ATOM     18  C   UNL     1      11.832  40.886 151.927  1.00  0.00    -0.000 C 
BRANCH  18  19
ATOM     19  C   UNL     1      11.540  41.589 150.593  1.00  0.00    -0.003 C 
ATOM     20  C   UNL     1      12.481  42.771 150.377  1.00  0.00     0.004 C 
ENDBRANCH  18  19
ENDBRANCH  17  18
ENDBRANCH  16  17
ENDBRANCH  15  16
ENDBRANCH  14  15
ENDBRANCH  13  14
ENDBRANCH  12  13
ENDBRANCH   1  12
TORSDOF 16
ENDMDL
MODEL 5
REMARK VINA RESULT:    -2.778      3.752      6.618
REMARK INTER + INTRA:          -8.430
REMARK INTER:                  -5.326
REMARK INTRA:                  -3.104
REMARK UNBOUND:                -3.054
REMARK SMILES CCCCCCCCCCCCCCCCCC(=O)[O-]
REMARK SMILES IDX 10 1 11 2 12 3 13 4 14 5 15 6 16 7 17 8 18 9 19 10 20 11
REMARK SMILES IDX 9 12 8 13 7 14 6 15 5 16 4 17 3 18 2 19 1 20
REMARK H PARENT
REMARK Flexibility Score: inf
ROOT
ATOM      1  C   UNL     1      10.565  42.351 155.199  1.00  0.00     0.000 C 
ENDROOT
BRANCH   1   2
ATOM      2  C   UNL     1      11.519  43.216 154.354  1.00  0.00     0.000 C 
BRANCH   2   3
ATOM      3  C   UNL     1      12.058  42.476 153.121  1.00  0.00     0.000 C 
BRANCH   3   4
ATOM      4  C   UNL     1      12.399  43.465 151.995  1.00  0.00     0.000 C 
BRANCH   4   5
ATOM      5  C   UNL     1      12.636  42.766 150.645  1.00  0.00     0.000 C 
BRANCH   5   6
ATOM      6  C   UNL     1      12.145  41.308 150.642  1.00  0.00     0.000 C 
BRANCH   6   7
ATOM      7  C   UNL     1      11.371  40.947 149.365  1.00  0.00     0.006 C 
BRANCH   7   8
ATOM      8  C   UNL     1      11.886  39.664 148.699  1.00  0.00     0.053 C 
BRANCH   8   9
ATOM      9  C   UNL     1      12.001  38.564 149.708  1.00  0.00     0.041 C 
ATOM     10  O   UNL     1      13.124  38.058 149.969  1.00  0.00    -0.550 OA
ATOM     11  O   UNL     1      10.858  38.058 150.317  1.00  0.00    -0.550 OA
ENDBRANCH   8   9
ENDBRANCH   7   8
ENDBRANCH   6   7
ENDBRANCH   5   6
ENDBRANCH   4   5
ENDBRANCH   3   4
ENDBRANCH   2   3
ENDBRANCH   1   2
BRANCH   1  12
ATOM     12  C   UNL     1       9.189  42.988 155.490  1.00  0.00     0.000 C 
BRANCH  12  13
ATOM     13  C   UNL     1       8.922  44.332 154.787  1.00  0.00    -0.000 C 
BRANCH  13  14
ATOM     14  C   UNL     1       7.509  44.420 154.185  1.00  0.00    -0.000 C 
BRANCH  14  15
ATOM     15  C   UNL     1       7.522  44.643 152.660  1.00  0.00    -0.000 C 
BRANCH  15  16
ATOM     16  C   UNL     1       8.873  44.369 151.970  1.00  0.00    -0.000 C 
BRANCH  16  17
ATOM     17  C   UNL     1       8.853  43.250 150.911  1.00  0.00    -0.000 C 
BRANCH  17  18
ATOM     18  C   UNL     1       8.013  42.020 151.320  1.00  0.00    -0.000 C 
BRANCH  18  19
ATOM     19  C   UNL     1       8.796  41.044 152.211  1.00  0.00    -0.003 C 
ATOM     20  C   UNL     1       7.872  40.342 153.202  1.00  0.00     0.004 C 
ENDBRANCH  18  19
ENDBRANCH  17  18
ENDBRANCH  16  17
ENDBRANCH  15  16
ENDBRANCH  14  15
ENDBRANCH  13  14
ENDBRANCH  12  13
ENDBRANCH   1  12
TORSDOF 16
ENDMDL
MODEL 6
REMARK VINA RESULT:    -2.762      1.450      4.139
REMARK INTER + INTRA:          -8.400
REMARK INTER:                  -5.437
REMARK INTRA:                  -2.963
REMARK UNBOUND:                -3.054
REMARK SMILES CCCCCCCCCCCCCCCCCC(=O)[O-]
REMARK SMILES IDX 10 1 11 2 12 3 13 4 14 5 15 6 16 7 17 8 18 9 19 10 20 11
REMARK SMILES IDX 9 12 8 13 7 14 6 15 5 16 4 17 3 18 2 19 1 20
REMARK H PARENT
REMARK Flexibility Score: inf
ROOT
ATOM      1  C   UNL     1      10.835  40.251 151.230  1.00  0.00     0.000 C 
ENDROOT
BRANCH   1   2
ATOM      2  C   UNL     1      10.188  40.077 152.616  1.00  0.00     0.000 C 
BRANCH   2   3
ATOM      3  C   UNL     1       8.798  40.724 152.709  1.00  0.00     0.000 C 
BRANCH   3   4
ATOM      4  C   UNL     1       8.080  40.677 151.351  1.00  0.00     0.000 C 
BRANCH   4   5
ATOM      5  C   UNL     1       7.766  42.077 150.798  1.00  0.00     0.000 C 
BRANCH   5   6
ATOM      6  C   UNL     1       7.824  43.166 151.885  1.00  0.00     0.000 C 
BRANCH   6   7
ATOM      7  C   UNL     1       8.564  44.429 151.417  1.00  0.00     0.006 C 
BRANCH   7   8
ATOM      8  C   UNL     1       8.549  45.550 152.465  1.00  0.00     0.053 C 
BRANCH   8   9
ATOM      9  C   UNL     1       9.608  46.562 152.158  1.00  0.00     0.041 C 
ATOM     10  O   UNL     1      10.268  46.485 151.088  1.00  0.00    -0.550 OA
ATOM     11  O   UNL     1       9.907  47.557 153.083  1.00  0.00    -0.550 OA
ENDBRANCH   8   9
ENDBRANCH   7   8
ENDBRANCH   6   7
ENDBRANCH   5   6
ENDBRANCH   4   5
ENDBRANCH   3   4
ENDBRANCH   2   3
ENDBRANCH   1   2
BRANCH   1  12
ATOM     12  C   UNL     1      12.015  41.246 151.177  1.00  0.00     0.000 C 
BRANCH  12  13
ATOM     13  C   UNL     1      11.620  42.727 151.025  1.00  0.00    -0.000 C 
BRANCH  13  14
ATOM     14  C   UNL     1      12.186  43.614 152.148  1.00  0.00    -0.000 C 
BRANCH  14  15
ATOM     15  C   UNL     1      12.077  42.960 153.539  1.00  0.00    -0.000 C 
BRANCH  15  16
ATOM     16  C   UNL     1      10.817  43.337 154.343  1.00  0.00    -0.000 C 
BRANCH  16  17
ATOM     17  C   UNL     1      10.499  42.413 155.535  1.00  0.00    -0.000 C 
BRANCH  17  18
ATOM     18  C   UNL     1       9.369  42.937 156.446  1.00  0.00    -0.000 C 
BRANCH  18  19
ATOM     19  C   UNL     1       8.514  44.014 155.761  1.00  0.00    -0.003 C 
ATOM     20  C   UNL     1       8.583  45.336 156.519  1.00  0.00     0.004 C 
ENDBRANCH  18  19
ENDBRANCH  17  18
ENDBRANCH  16  17
ENDBRANCH  15  16
ENDBRANCH  14  15
ENDBRANCH  13  14
ENDBRANCH  12  13
ENDBRANCH   1  12
TORSDOF 16
ENDMDL
MODEL 7
REMARK VINA RESULT:    -2.762      3.548      6.622
REMARK INTER + INTRA:          -8.400
REMARK INTER:                  -5.596
REMARK INTRA:                  -2.804
REMARK UNBOUND:                -3.054
REMARK SMILES CCCCCCCCCCCCCCCCCC(=O)[O-]
REMARK SMILES IDX 10 1 11 2 12 3 13 4 14 5 15 6 16 7 17 8 18 9 19 10 20 11
REMARK SMILES IDX 9 12 8 13 7 14 6 15 5 16 4 17 3 18 2 19 1 20
REMARK H PARENT
REMARK Flexibility Score: inf
ROOT
ATOM      1  C   UNL     1       9.247  42.797 154.205  1.00  0.00     0.000 C 
ENDROOT
BRANCH   1   2
ATOM      2  C   UNL     1      10.538  42.361 154.921  1.00  0.00     0.000 C 
BRANCH   2   3
ATOM      3  C   UNL     1      11.790  43.059 154.368  1.00  0.00     0.000 C 
BRANCH   3   4
ATOM      4  C   UNL     1      11.514  43.662 152.983  1.00  0.00     0.000 C 
BRANCH   4   5
ATOM      5  C   UNL     1      12.390  43.042 151.881  1.00  0.00     0.000 C 
BRANCH   5   6
ATOM      6  C   UNL     1      11.658  41.937 151.098  1.00  0.00     0.000 C 
BRANCH   6   7
ATOM      7  C   UNL     1      11.862  40.544 151.712  1.00  0.00     0.006 C 
BRANCH   7   8
ATOM      8  C   UNL     1      10.551  39.760 151.860  1.00  0.00     0.053 C 
BRANCH   8   9
ATOM      9  C   UNL     1      10.294  38.941 150.634  1.00  0.00     0.041 C 
ATOM     10  O   UNL     1      11.256  38.465 149.975  1.00  0.00    -0.550 OA
ATOM     11  O   UNL     1       8.991  38.753 150.185  1.00  0.00    -0.550 OA
ENDBRANCH   8   9
ENDBRANCH   7   8
ENDBRANCH   6   7
ENDBRANCH   5   6
ENDBRANCH   4   5
ENDBRANCH   3   4
ENDBRANCH   2   3
ENDBRANCH   1   2
BRANCH   1  12
ATOM     12  C   UNL     1       8.080  43.188 155.137  1.00  0.00     0.000 C 
BRANCH  12  13
ATOM     13  C   UNL     1       7.835  44.701 155.285  1.00  0.00    -0.000 C 
BRANCH  13  14
ATOM     14  C   UNL     1       8.768  45.359 156.316  1.00  0.00    -0.000 C 
BRANCH  14  15
ATOM     15  C   UNL     1       9.334  46.709 155.835  1.00  0.00    -0.000 C 
BRANCH  15  16
ATOM     16  C   UNL     1      10.198  46.639 154.560  1.00  0.00    -0.000 C 
BRANCH  16  17
ATOM     17  C   UNL     1       9.632  47.397 153.343  1.00  0.00    -0.000 C 
BRANCH  17  18
ATOM     18  C   UNL     1       9.698  46.596 152.025  1.00  0.00    -0.000 C 
BRANCH  18  19
ATOM     19  C   UNL     1       8.460  45.711 151.812  1.00  0.00    -0.003 C 
ATOM     20  C   UNL     1       8.731  44.627 150.773  1.00  0.00     0.004 C 
ENDBRANCH  18  19
ENDBRANCH  17  18
ENDBRANCH  16  17
ENDBRANCH  15  16
ENDBRANCH  14  15
ENDBRANCH  13  14
ENDBRANCH  12  13
ENDBRANCH   1  12
TORSDOF 16
ENDMDL
MODEL 8
REMARK VINA RESULT:    -2.754      4.471      7.086
REMARK INTER + INTRA:          -8.383
REMARK INTER:                  -6.237
REMARK INTRA:                  -2.146
REMARK UNBOUND:                -3.054
REMARK SMILES CCCCCCCCCCCCCCCCCC(=O)[O-]
REMARK SMILES IDX 10 1 11 2 12 3 13 4 14 5 15 6 16 7 17 8 18 9 19 10 20 11
REMARK SMILES IDX 9 12 8 13 7 14 6 15 5 16 4 17 3 18 2 19 1 20
REMARK H PARENT
REMARK Flexibility Score: inf
ROOT
ATOM      1  C   UNL     1      12.006  40.260 151.209  1.00  0.00     0.000 C 
ENDROOT
BRANCH   1   2
ATOM      2  C   UNL     1      10.716  39.450 151.432  1.00  0.00     0.000 C 
BRANCH   2   3
ATOM      3  C   UNL     1       9.750  40.128 152.416  1.00  0.00     0.000 C 
BRANCH   3   4
ATOM      4  C   UNL     1       8.705  40.968 151.666  1.00  0.00     0.000 C 
BRANCH   4   5
ATOM      5  C   UNL     1       7.467  40.149 151.262  1.00  0.00     0.000 C 
BRANCH   5   6
ATOM      6  C   UNL     1       7.407  39.879 149.748  1.00  0.00     0.000 C 
BRANCH   6   7
ATOM      7  C   UNL     1       7.391  38.379 149.415  1.00  0.00     0.006 C 
BRANCH   7   8
ATOM      8  C   UNL     1       8.791  37.815 149.140  1.00  0.00     0.053 C 
BRANCH   8   9
ATOM      9  C   UNL     1       8.871  36.386 149.578  1.00  0.00     0.041 C 
ATOM     10  O   UNL     1       9.960  35.911 149.994  1.00  0.00    -0.550 OA
ATOM     11  O   UNL     1       7.755  35.562 149.471  1.00  0.00    -0.550 OA
ENDBRANCH   8   9
ENDBRANCH   7   8
ENDBRANCH   6   7
ENDBRANCH   5   6
ENDBRANCH   4   5
ENDBRANCH   3   4
ENDBRANCH   2   3
ENDBRANCH   1   2
BRANCH   1  12
ATOM     12  C   UNL     1      12.035  41.104 149.917  1.00  0.00     0.000 C 
BRANCH  12  13
ATOM     13  C   UNL     1      12.387  42.591 150.109  1.00  0.00    -0.000 C 
BRANCH  13  14
ATOM     14  C   UNL     1      11.741  43.200 151.366  1.00  0.00    -0.000 C 
BRANCH  14  15
ATOM     15  C   UNL     1      12.776  43.782 152.348  1.00  0.00    -0.000 C 
BRANCH  15  16
ATOM     16  C   UNL     1      12.540  43.430 153.830  1.00  0.00    -0.000 C 
BRANCH  16  17
ATOM     17  C   UNL     1      11.426  42.399 154.090  1.00  0.00    -0.000 C 
BRANCH  17  18
ATOM     18  C   UNL     1      10.608  42.674 155.370  1.00  0.00    -0.000 C 
BRANCH  18  19
ATOM     19  C   UNL     1       9.094  42.690 155.108  1.00  0.00    -0.003 C 
ATOM     20  C   UNL     1       8.726  43.755 154.079  1.00  0.00     0.004 C 
ENDBRANCH  18  19
ENDBRANCH  17  18
ENDBRANCH  16  17
ENDBRANCH  15  16
ENDBRANCH  14  15
ENDBRANCH  13  14
ENDBRANCH  12  13
ENDBRANCH   1  12
TORSDOF 16
ENDMDL
MODEL 9
REMARK VINA RESULT:    -2.720      2.568      4.417
REMARK INTER + INTRA:          -8.318
REMARK INTER:                  -5.362
REMARK INTRA:                  -2.956
REMARK UNBOUND:                -3.054
REMARK SMILES CCCCCCCCCCCCCCCCCC(=O)[O-]
REMARK SMILES IDX 10 1 11 2 12 3 13 4 14 5 15 6 16 7 17 8 18 9 19 10 20 11
REMARK SMILES IDX 9 12 8 13 7 14 6 15 5 16 4 17 3 18 2 19 1 20
REMARK H PARENT
REMARK Flexibility Score: inf
ROOT
ATOM      1  C   UNL     1       9.984  42.022 154.515  1.00  0.00     0.000 C 
ENDROOT
BRANCH   1   2
ATOM      2  C   UNL     1       9.725  40.888 153.508  1.00  0.00     0.000 C 
BRANCH   2   3
ATOM      3  C   UNL     1       8.231  40.571 153.338  1.00  0.00     0.000 C 
BRANCH   3   4
ATOM      4  C   UNL     1       7.526  41.673 152.532  1.00  0.00     0.000 C 
BRANCH   4   5
ATOM      5  C   UNL     1       8.196  41.933 151.172  1.00  0.00     0.000 C 
BRANCH   5   6
ATOM      6  C   UNL     1       8.723  43.372 151.040  1.00  0.00     0.000 C 
BRANCH   6   7
ATOM      7  C   UNL     1       8.204  44.297 152.152  1.00  0.00     0.006 C 
BRANCH   7   8
ATOM      8  C   UNL     1       9.151  45.468 152.444  1.00  0.00     0.053 C 
BRANCH   8   9
ATOM      9  C   UNL     1       9.366  46.284 151.208  1.00  0.00     0.041 C 
ATOM     10  O   UNL     1       8.418  46.949 150.714  1.00  0.00    -0.550 OA
ATOM     11  O   UNL     1      10.600  46.262 150.567  1.00  0.00    -0.550 OA
ENDBRANCH   8   9
ENDBRANCH   7   8
ENDBRANCH   6   7
ENDBRANCH   5   6
ENDBRANCH   4   5
ENDBRANCH   3   4
ENDBRANCH   2   3
ENDBRANCH   1   2
BRANCH   1  12
ATOM     12  C   UNL     1      11.172  42.946 154.171  1.00  0.00     0.000 C 
BRANCH  12  13
ATOM     13  C   UNL     1      12.106  42.431 153.060  1.00  0.00    -0.000 C 
BRANCH  13  14
ATOM     14  C   UNL     1      12.334  43.466 151.944  1.00  0.00    -0.000 C 
BRANCH  14  15
ATOM     15  C   UNL     1      12.782  42.826 150.616  1.00  0.00    -0.000 C 
BRANCH  15  16
ATOM     16  C   UNL     1      11.692  42.025 149.877  1.00  0.00    -0.000 C 
BRANCH  16  17
ATOM     17  C   UNL     1      12.062  40.566 149.547  1.00  0.00    -0.000 C 
BRANCH  17  18
ATOM     18  C   UNL     1      11.833  39.585 150.717  1.00  0.00    -0.000 C 
BRANCH  18  19
ATOM     19  C   UNL     1      10.433  38.953 150.688  1.00  0.00    -0.003 C 
ATOM     20  C   UNL     1      10.459  37.591 149.999  1.00  0.00     0.004 C 
ENDBRANCH  18  19
ENDBRANCH  17  18
ENDBRANCH  16  17
ENDBRANCH  15  16
ENDBRANCH  14  15
ENDBRANCH  13  14
ENDBRANCH  12  13
ENDBRANCH   1  12
TORSDOF 16
ENDMDL
