MODEL 1
REMARK VINA RESULT:    -3.643      0.000      0.000
REMARK INTER + INTRA:          -6.124
REMARK INTER:                  -5.559
REMARK INTRA:                  -0.565
REMARK UNBOUND:                -0.565
REMARK SMILES CC1=CCC[C@@H](C)C(=O)C[C@H](C(C)C)C(=O)C1
REMARK SMILES IDX 8 1 9 2 6 3 7 4 5 5 4 6 3 7 2 8 1 9 10 11 11 12 15 13 16 14
REMARK SMILES IDX 17 15 12 17 13 18 14 19
REMARK H PARENT
REMARK Flexibility Score: 70.00
ROOT
ATOM      1  C   UNL     1       9.055  34.957 -11.953  1.00  0.00     0.136 C 
ATOM      2  O   UNL     1       8.242  35.861 -11.826  1.00  0.00    -0.299 OA
ENDROOT
BRANCH   1   3
ATOM      3  C   UNL     1       9.345  34.036 -10.749  1.00  0.00     0.053 C 
ATOM      4  C   UNL     1      10.481  34.579  -9.871  1.00  0.00     0.016 C 
BRANCH   3   5
ATOM      5  C   UNL     1       9.698  32.682 -11.329  1.00  0.00     0.015 C 
BRANCH   5   6
ATOM      6  C   UNL     1      11.000  31.945 -11.146  1.00  0.00     0.028 C 
BRANCH   6   7
ATOM      7  C   UNL     1      11.254  31.075 -12.379  1.00  0.00    -0.028 C 
ATOM      8  C   UNL     1      11.951  31.375 -13.530  1.00  0.00    -0.070 CG0
ATOM      9  C   UNL     1      11.920  30.329 -14.619  1.00  0.00     0.039 C 
ATOM     10  G   UNL     1      12.774  32.653 -13.811  1.00  0.00     0.000 G0
ENDBRANCH   6   7
ENDBRANCH   5   6
ENDBRANCH   3   5
ENDBRANCH   1   3
BRANCH   1  11
ATOM     11  C   UNL     1       9.714  34.763 -13.333  1.00  0.00     0.087 C 
BRANCH  11  12
ATOM     12  C   UNL     1      11.295  34.861 -13.360  1.00  0.00     0.066 C 
BRANCH  12  13
ATOM     13  C   UNL     1      11.948  33.844 -14.325  1.00  0.00     0.140 C 
ATOM     14  O   UNL     1      11.807  33.988 -15.530  1.00  0.00    -0.299 OA
BRANCH  13  15
ATOM     15  C   UNL     1      12.775  32.651 -13.832  1.00  0.00     0.106 CG0
ATOM     16  G   UNL     1      11.948  31.385 -13.515  1.00  0.00     0.000 G0
ENDBRANCH  13  15
ENDBRANCH  12  13
BRANCH  12  17
ATOM     17  C   UNL     1      11.828  36.298 -13.658  1.00  0.00    -0.006 C 
ATOM     18  C   UNL     1      10.858  37.179 -14.470  1.00  0.00     0.008 C 
ATOM     19  C   UNL     1      12.255  37.026 -12.372  1.00  0.00     0.008 C 
ENDBRANCH  12  17
ENDBRANCH  11  12
ENDBRANCH   1  11
TORSDOF 1
ENDMDL
MODEL 2
REMARK VINA RESULT:    -3.592      2.440      4.542
REMARK INTER + INTRA:          -6.047
REMARK INTER:                  -5.459
REMARK INTRA:                  -0.588
REMARK UNBOUND:                -0.565
REMARK SMILES CC1=CCC[C@@H](C)C(=O)C[C@H](C(C)C)C(=O)C1
REMARK SMILES IDX 8 1 9 2 6 3 7 4 5 5 4 6 3 7 2 8 1 9 10 11 11 12 15 13 16 14
REMARK SMILES IDX 17 15 12 17 13 18 14 19
REMARK H PARENT
REMARK Flexibility Score: 70.00
ROOT
ATOM      1  C   UNL     1      10.696  33.609 -10.877  1.00  0.00     0.136 C 
ATOM      2  O   UNL     1      11.875  33.285 -10.908  1.00  0.00    -0.299 OA
ENDROOT
BRANCH   1   3
ATOM      3  C   UNL     1      10.252  34.892 -11.610  1.00  0.00     0.053 C 
ATOM      4  C   UNL     1       8.736  35.111 -11.516  1.00  0.00     0.016 C 
BRANCH   3   5
ATOM      5  C   UNL     1      10.695  34.729 -13.050  1.00  0.00     0.015 C 
BRANCH   5   6
ATOM      6  C   UNL     1      10.118  33.770 -14.059  1.00  0.00     0.028 C 
BRANCH   6   7
ATOM      7  C   UNL     1      11.166  32.704 -14.385  1.00  0.00    -0.028 C 
ATOM      8  C   UNL     1      11.197  31.373 -14.027  1.00  0.00    -0.070 CG0
ATOM      9  C   UNL     1      12.441  30.608 -14.413  1.00  0.00     0.039 C 
ATOM     10  G   UNL     1      10.088  30.581 -13.297  1.00  0.00     0.000 G0
ENDBRANCH   6   7
ENDBRANCH   5   6
ENDBRANCH   3   5
ENDBRANCH   1   3
BRANCH   1  11
ATOM     11  C   UNL     1       9.710  32.684 -10.137  1.00  0.00     0.087 C 
BRANCH  11  12
ATOM     12  C   UNL     1       9.039  31.551 -11.016  1.00  0.00     0.066 C 
BRANCH  12  13
ATOM     13  C   UNL     1      10.069  30.688 -11.782  1.00  0.00     0.140 C 
ATOM     14  O   UNL     1      10.909  30.062 -11.153  1.00  0.00    -0.299 OA
BRANCH  13  15
ATOM     15  C   UNL     1      10.083  30.580 -13.310  1.00  0.00     0.106 CG0
ATOM     16  G   UNL     1      11.210  31.382 -14.000  1.00  0.00     0.000 G0
ENDBRANCH  13  15
ENDBRANCH  12  13
BRANCH  12  17
ATOM     17  C   UNL     1       8.064  30.631 -10.214  1.00  0.00    -0.006 C 
ATOM     18  C   UNL     1       7.289  31.353  -9.094  1.00  0.00     0.008 C 
ATOM     19  C   UNL     1       7.086  29.890 -11.141  1.00  0.00     0.008 C 
ENDBRANCH  12  17
ENDBRANCH  11  12
ENDBRANCH   1  11
TORSDOF 1
ENDMDL
MODEL 3
REMARK VINA RESULT:    -3.550     16.201     17.385
REMARK INTER + INTRA:          -5.983
REMARK INTER:                  -6.004
REMARK INTRA:                   0.022
REMARK UNBOUND:                -0.565
REMARK SMILES CC1=CCC[C@@H](C)C(=O)C[C@H](C(C)C)C(=O)C1
REMARK SMILES IDX 8 1 9 2 6 3 7 4 5 5 4 6 3 7 2 8 1 9 10 11 11 12 15 13 16 14
REMARK SMILES IDX 17 15 12 17 13 18 14 19
REMARK H PARENT
REMARK Flexibility Score: 70.00
ROOT
ATOM      1  C   UNL     1       1.867  31.633 -26.413  1.00  0.00     0.136 C 
ATOM      2  O   UNL     1       2.063  31.336 -27.583  1.00  0.00    -0.299 OA
ENDROOT
BRANCH   1   3
ATOM      3  C   UNL     1       2.863  31.148 -25.340  1.00  0.00     0.053 C 
ATOM      4  C   UNL     1       4.109  30.502 -25.964  1.00  0.00     0.016 C 
BRANCH   3   5
ATOM      5  C   UNL     1       2.107  30.159 -24.477  1.00  0.00     0.015 C 
BRANCH   5   6
ATOM      6  C   UNL     1       1.495  30.437 -23.128  1.00  0.00     0.028 C 
BRANCH   6   7
ATOM      7  C   UNL     1       0.102  29.806 -23.076  1.00  0.00    -0.028 C 
ATOM      8  C   UNL     1      -1.121  30.366 -23.380  1.00  0.00    -0.070 CG0
ATOM      9  C   UNL     1      -2.332  29.505 -23.112  1.00  0.00     0.039 C 
ATOM     10  G   UNL     1      -1.378  31.766 -23.985  1.00  0.00     0.000 G0
ENDBRANCH   6   7
ENDBRANCH   5   6
ENDBRANCH   3   5
ENDBRANCH   1   3
BRANCH   1  11
ATOM     11  C   UNL     1       0.648  32.519 -26.085  1.00  0.00     0.087 C 
BRANCH  11  12
ATOM     12  C   UNL     1      -0.748  31.992 -26.614  1.00  0.00     0.066 C 
BRANCH  12  13
ATOM     13  C   UNL     1      -1.769  31.738 -25.481  1.00  0.00     0.140 C 
ATOM     14  O   UNL     1      -2.935  31.512 -25.768  1.00  0.00    -0.299 OA
BRANCH  13  15
ATOM     15  C   UNL     1      -1.380  31.757 -23.999  1.00  0.00     0.106 CG0
ATOM     16  G   UNL     1      -1.126  30.361 -23.386  1.00  0.00     0.000 G0
ENDBRANCH  13  15
ENDBRANCH  12  13
BRANCH  12  17
ATOM     17  C   UNL     1      -1.384  32.901 -27.713  1.00  0.00    -0.006 C 
ATOM     18  C   UNL     1      -0.359  33.620 -28.613  1.00  0.00     0.008 C 
ATOM     19  C   UNL     1      -2.397  32.129 -28.576  1.00  0.00     0.008 C 
ENDBRANCH  12  17
ENDBRANCH  11  12
ENDBRANCH   1  11
TORSDOF 1
ENDMDL
MODEL 4
REMARK VINA RESULT:    -3.432     16.621     18.042
REMARK INTER + INTRA:          -5.802
REMARK INTER:                  -5.294
REMARK INTRA:                  -0.509
REMARK UNBOUND:                -0.565
REMARK SMILES CC1=CCC[C@@H](C)C(=O)C[C@H](C(C)C)C(=O)C1
REMARK SMILES IDX 8 1 9 2 6 3 7 4 5 5 4 6 3 7 2 8 1 9 10 11 11 12 15 13 16 14
REMARK SMILES IDX 17 15 12 17 13 18 14 19
REMARK H PARENT
REMARK Flexibility Score: 70.00
ROOT
ATOM      1  C   UNL     1      -4.631  25.822 -15.624  1.00  0.00     0.136 C 
ATOM      2  O   UNL     1      -4.556  27.020 -15.855  1.00  0.00    -0.299 OA
ENDROOT
BRANCH   1   3
ATOM      3  C   UNL     1      -5.979  25.102 -15.833  1.00  0.00     0.053 C 
ATOM      4  C   UNL     1      -7.063  26.054 -16.359  1.00  0.00     0.016 C 
BRANCH   3   5
ATOM      5  C   UNL     1      -6.364  24.525 -14.485  1.00  0.00     0.015 C 
BRANCH   5   6
ATOM      6  C   UNL     1      -6.481  23.063 -14.140  1.00  0.00     0.028 C 
BRANCH   6   7
ATOM      7  C   UNL     1      -5.963  22.847 -12.717  1.00  0.00    -0.028 C 
ATOM      8  C   UNL     1      -4.675  22.612 -12.284  1.00  0.00    -0.070 CG0
ATOM      9  C   UNL     1      -4.510  22.322 -10.811  1.00  0.00     0.039 C 
ATOM     10  G   UNL     1      -3.388  22.637 -13.140  1.00  0.00     0.000 G0
ENDBRANCH   6   7
ENDBRANCH   5   6
ENDBRANCH   3   5
ENDBRANCH   1   3
BRANCH   1  11
ATOM     11  C   UNL     1      -3.351  25.089 -15.177  1.00  0.00     0.087 C 
BRANCH  11  12
ATOM     12  C   UNL     1      -2.957  25.260 -13.653  1.00  0.00     0.066 C 
BRANCH  12  13
ATOM     13  C   UNL     1      -2.554  23.929 -12.977  1.00  0.00     0.140 C 
ATOM     14  O   UNL     1      -1.541  23.887 -12.295  1.00  0.00    -0.299 OA
BRANCH  13  15
ATOM     15  C   UNL     1      -3.379  22.646 -13.124  1.00  0.00     0.106 CG0
ATOM     16  G   UNL     1      -4.673  22.615 -12.278  1.00  0.00     0.000 G0
ENDBRANCH  13  15
ENDBRANCH  12  13
BRANCH  12  17
ATOM     17  C   UNL     1      -1.852  26.337 -13.410  1.00  0.00    -0.006 C 
ATOM     18  C   UNL     1      -0.814  26.449 -14.544  1.00  0.00     0.008 C 
ATOM     19  C   UNL     1      -2.458  27.719 -13.110  1.00  0.00     0.008 C 
ENDBRANCH  12  17
ENDBRANCH  11  12
ENDBRANCH   1  11
TORSDOF 1
ENDMDL
MODEL 5
REMARK VINA RESULT:    -3.403     15.487     16.734
REMARK INTER + INTRA:          -5.757
REMARK INTER:                  -5.710
REMARK INTRA:                  -0.047
REMARK UNBOUND:                -0.565
REMARK SMILES CC1=CCC[C@@H](C)C(=O)C[C@H](C(C)C)C(=O)C1
REMARK SMILES IDX 8 1 9 2 6 3 7 4 5 5 4 6 3 7 2 8 1 9 10 11 11 12 15 13 16 14
REMARK SMILES IDX 17 15 12 17 13 18 14 19
REMARK H PARENT
REMARK Flexibility Score: 70.00
ROOT
ATOM      1  C   UNL     1       1.098  29.467 -22.705  1.00  0.00     0.136 C 
ATOM      2  O   UNL     1       1.049  29.073 -21.549  1.00  0.00    -0.299 OA
ENDROOT
BRANCH   1   3
ATOM      3  C   UNL     1       2.444  29.963 -23.272  1.00  0.00     0.053 C 
ATOM      4  C   UNL     1       2.978  31.179 -22.501  1.00  0.00     0.016 C 
BRANCH   3   5
ATOM      5  C   UNL     1       2.191  30.303 -24.726  1.00  0.00     0.015 C 
BRANCH   5   6
ATOM      6  C   UNL     1       2.571  31.584 -25.423  1.00  0.00     0.028 C 
BRANCH   6   7
ATOM      7  C   UNL     1       1.472  31.951 -26.421  1.00  0.00    -0.028 C 
ATOM      8  C   UNL     1       0.157  32.293 -26.184  1.00  0.00    -0.070 CG0
ATOM      9  C   UNL     1      -0.710  32.489 -27.404  1.00  0.00     0.039 C 
ATOM     10  G   UNL     1      -0.511  32.519 -24.808  1.00  0.00     0.000 G0
ENDBRANCH   6   7
ENDBRANCH   5   6
ENDBRANCH   3   5
ENDBRANCH   1   3
BRANCH   1  11
ATOM     11  C   UNL     1      -0.192  29.401 -23.548  1.00  0.00     0.087 C 
BRANCH  11  12
ATOM     12  C   UNL     1      -1.288  30.494 -23.214  1.00  0.00     0.066 C 
BRANCH  12  13
ATOM     13  C   UNL     1      -1.546  31.471 -24.385  1.00  0.00     0.140 C 
ATOM     14  O   UNL     1      -2.599  31.400 -25.001  1.00  0.00    -0.299 OA
BRANCH  13  15
ATOM     15  C   UNL     1      -0.529  32.536 -24.812  1.00  0.00     0.106 CG0
ATOM     16  G   UNL     1       0.146  32.268 -26.177  1.00  0.00     0.000 G0
ENDBRANCH  13  15
ENDBRANCH  12  13
BRANCH  12  17
ATOM     17  C   UNL     1      -2.639  29.892 -22.714  1.00  0.00    -0.006 C 
ATOM     18  C   UNL     1      -3.171  28.727 -23.571  1.00  0.00     0.008 C 
ATOM     19  C   UNL     1      -2.564  29.471 -21.236  1.00  0.00     0.008 C 
ENDBRANCH  12  17
ENDBRANCH  11  12
ENDBRANCH   1  11
TORSDOF 1
ENDMDL
MODEL 6
REMARK VINA RESULT:    -3.363     15.474     16.607
REMARK INTER + INTRA:          -5.698
REMARK INTER:                  -5.974
REMARK INTRA:                   0.276
REMARK UNBOUND:                -0.565
REMARK SMILES CC1=CCC[C@@H](C)C(=O)C[C@H](C(C)C)C(=O)C1
REMARK SMILES IDX 8 1 9 2 6 3 7 4 5 5 4 6 3 7 2 8 1 9 10 11 11 12 15 13 16 14
REMARK SMILES IDX 17 15 12 17 13 18 14 19
REMARK H PARENT
REMARK Flexibility Score: 70.00
ROOT
ATOM      1  C   UNL     1      -0.198  30.168 -23.255  1.00  0.00     0.136 C 
ATOM      2  O   UNL     1       0.211  29.148 -22.719  1.00  0.00    -0.299 OA
ENDROOT
BRANCH   1   3
ATOM      3  C   UNL     1      -1.717  30.438 -23.291  1.00  0.00     0.053 C 
ATOM      4  C   UNL     1      -2.533  29.142 -23.183  1.00  0.00     0.016 C 
BRANCH   3   5
ATOM      5  C   UNL     1      -1.989  31.151 -24.600  1.00  0.00     0.015 C 
BRANCH   5   6
ATOM      6  C   UNL     1      -1.425  32.482 -25.026  1.00  0.00     0.028 C 
BRANCH   6   7
ATOM      7  C   UNL     1      -1.062  32.414 -26.511  1.00  0.00    -0.028 C 
ATOM      8  C   UNL     1       0.177  32.499 -27.110  1.00  0.00    -0.070 CG0
ATOM      9  C   UNL     1       0.186  32.513 -28.620  1.00  0.00     0.039 C 
ATOM     10  G   UNL     1       1.550  32.558 -26.402  1.00  0.00     0.000 G0
ENDBRANCH   6   7
ENDBRANCH   5   6
ENDBRANCH   3   5
ENDBRANCH   1   3
BRANCH   1  11
ATOM     11  C   UNL     1       0.841  31.152 -23.828  1.00  0.00     0.087 C 
BRANCH  11  12
ATOM     12  C   UNL     1       1.994  30.505 -24.699  1.00  0.00     0.066 C 
BRANCH  12  13
ATOM     13  C   UNL     1       2.182  31.198 -26.068  1.00  0.00     0.140 C 
ATOM     14  O   UNL     1       2.854  30.648 -26.928  1.00  0.00    -0.299 OA
BRANCH  13  15
ATOM     15  C   UNL     1       1.555  32.556 -26.400  1.00  0.00     0.106 CG0
ATOM     16  G   UNL     1       0.184  32.473 -27.108  1.00  0.00     0.000 G0
ENDBRANCH  13  15
ENDBRANCH  12  13
BRANCH  12  17
ATOM     17  C   UNL     1       3.364  30.414 -23.954  1.00  0.00    -0.006 C 
ATOM     18  C   UNL     1       3.372  31.070 -22.559  1.00  0.00     0.008 C 
ATOM     19  C   UNL     1       3.869  28.964 -23.860  1.00  0.00     0.008 C 
ENDBRANCH  12  17
ENDBRANCH  11  12
ENDBRANCH   1  11
TORSDOF 1
ENDMDL
MODEL 7
REMARK VINA RESULT:    -3.239      2.873      5.604
REMARK INTER + INTRA:          -5.508
REMARK INTER:                  -4.980
REMARK INTRA:                  -0.529
REMARK UNBOUND:                -0.565
REMARK SMILES CC1=CCC[C@@H](C)C(=O)C[C@H](C(C)C)C(=O)C1
REMARK SMILES IDX 8 1 9 2 6 3 7 4 5 5 4 6 3 7 2 8 1 9 10 11 11 12 15 13 16 14
REMARK SMILES IDX 17 15 12 17 13 18 14 19
REMARK H PARENT
REMARK Flexibility Score: 70.00
ROOT
ATOM      1  C   UNL     1       8.938  29.527 -12.556  1.00  0.00     0.136 C 
ATOM      2  O   UNL     1       8.325  28.470 -12.613  1.00  0.00    -0.299 OA
ENDROOT
BRANCH   1   3
ATOM      3  C   UNL     1      10.228  29.689 -13.387  1.00  0.00     0.053 C 
ATOM      4  C   UNL     1      11.489  29.517 -12.528  1.00  0.00     0.016 C 
BRANCH   3   5
ATOM      5  C   UNL     1      10.165  31.074 -13.998  1.00  0.00     0.015 C 
BRANCH   5   6
ATOM      6  C   UNL     1      11.165  32.184 -13.799  1.00  0.00     0.028 C 
BRANCH   6   7
ATOM      7  C   UNL     1      10.415  33.513 -13.689  1.00  0.00    -0.028 C 
ATOM      8  C   UNL     1       9.982  34.180 -12.563  1.00  0.00    -0.070 CG0
ATOM      9  C   UNL     1       9.160  35.425 -12.801  1.00  0.00     0.039 C 
ATOM     10  G   UNL     1      10.267  33.801 -11.091  1.00  0.00     0.000 G0
ENDBRANCH   6   7
ENDBRANCH   5   6
ENDBRANCH   3   5
ENDBRANCH   1   3
BRANCH   1  11
ATOM     11  C   UNL     1       8.354  30.657 -11.686  1.00  0.00     0.087 C 
BRANCH  11  12
ATOM     12  C   UNL     1       9.343  31.285 -10.620  1.00  0.00     0.066 C 
BRANCH  12  13
ATOM     13  C   UNL     1       9.210  32.821 -10.501  1.00  0.00     0.140 C 
ATOM     14  O   UNL     1       8.245  33.294  -9.918  1.00  0.00    -0.299 OA
BRANCH  13  15
ATOM     15  C   UNL     1      10.246  33.788 -11.085  1.00  0.00     0.106 CG0
ATOM     16  G   UNL     1       9.998  34.178 -12.560  1.00  0.00     0.000 G0
ENDBRANCH  13  15
ENDBRANCH  12  13
BRANCH  12  17
ATOM     17  C   UNL     1       9.239  30.629  -9.207  1.00  0.00    -0.006 C 
ATOM     18  C   UNL     1       7.895  29.924  -8.932  1.00  0.00     0.008 C 
ATOM     19  C   UNL     1      10.407  29.665  -8.938  1.00  0.00     0.008 C 
ENDBRANCH  12  17
ENDBRANCH  11  12
ENDBRANCH   1  11
TORSDOF 1
ENDMDL
MODEL 8
REMARK VINA RESULT:    -3.195      2.104      5.250
REMARK INTER + INTRA:          -5.441
REMARK INTER:                  -5.154
REMARK INTRA:                  -0.287
REMARK UNBOUND:                -0.565
REMARK SMILES CC1=CCC[C@@H](C)C(=O)C[C@H](C(C)C)C(=O)C1
REMARK SMILES IDX 8 1 9 2 6 3 7 4 5 5 4 6 3 7 2 8 1 9 10 11 11 12 15 13 16 14
REMARK SMILES IDX 17 15 12 17 13 18 14 19
REMARK H PARENT
REMARK Flexibility Score: 70.00
ROOT
ATOM      1  C   UNL     1      11.029  31.257 -13.479  1.00  0.00     0.136 C 
ATOM      2  O   UNL     1      11.284  30.088 -13.226  1.00  0.00    -0.299 OA
ENDROOT
BRANCH   1   3
ATOM      3  C   UNL     1      11.916  32.015 -14.488  1.00  0.00     0.053 C 
ATOM      4  C   UNL     1      13.035  31.126 -15.050  1.00  0.00     0.016 C 
BRANCH   3   5
ATOM      5  C   UNL     1      12.484  33.205 -13.741  1.00  0.00     0.015 C 
BRANCH   5   6
ATOM      6  C   UNL     1      12.597  34.615 -14.261  1.00  0.00     0.028 C 
BRANCH   6   7
ATOM      7  C   UNL     1      11.210  35.261 -14.246  1.00  0.00    -0.028 C 
ATOM      8  C   UNL     1      10.326  35.402 -13.199  1.00  0.00    -0.070 CG0
ATOM      9  C   UNL     1       8.977  35.989 -13.541  1.00  0.00     0.039 C 
ATOM     10  G   UNL     1      10.577  35.047 -11.715  1.00  0.00     0.000 G0
ENDBRANCH   6   7
ENDBRANCH   5   6
ENDBRANCH   3   5
ENDBRANCH   1   3
BRANCH   1  11
ATOM     11  C   UNL     1       9.800  31.894 -12.801  1.00  0.00     0.087 C 
BRANCH  11  12
ATOM     12  C   UNL     1      10.027  32.430 -11.328  1.00  0.00     0.066 C 
BRANCH  12  13
ATOM     13  C   UNL     1       9.672  33.926 -11.166  1.00  0.00     0.140 C 
ATOM     14  O   UNL     1       8.644  34.236 -10.582  1.00  0.00    -0.299 OA
BRANCH  13  15
ATOM     15  C   UNL     1      10.563  35.050 -11.708  1.00  0.00     0.106 CG0
ATOM     16  G   UNL     1      10.330  35.390 -13.198  1.00  0.00     0.000 G0
ENDBRANCH  13  15
ENDBRANCH  12  13
BRANCH  12  17
ATOM     17  C   UNL     1       9.296  31.586 -10.236  1.00  0.00    -0.006 C 
ATOM     18  C   UNL     1       8.186  30.667 -10.782  1.00  0.00     0.008 C 
ATOM     19  C   UNL     1      10.287  30.773  -9.385  1.00  0.00     0.008 C 
ENDBRANCH  12  17
ENDBRANCH  11  12
ENDBRANCH   1  11
TORSDOF 1
ENDMDL
MODEL 9
REMARK VINA RESULT:    -3.026      1.923      4.306
REMARK INTER + INTRA:          -5.183
REMARK INTER:                  -5.264
REMARK INTRA:                   0.081
REMARK UNBOUND:                -0.565
REMARK SMILES CC1=CCC[C@@H](C)C(=O)C[C@H](C(C)C)C(=O)C1
REMARK SMILES IDX 8 1 9 2 6 3 7 4 5 5 4 6 3 7 2 8 1 9 10 11 11 12 15 13 16 14
REMARK SMILES IDX 17 15 12 17 13 18 14 19
REMARK H PARENT
REMARK Flexibility Score: 70.00
ROOT
ATOM      1  C   UNL     1      11.120  35.072 -13.785  1.00  0.00     0.136 C 
ATOM      2  O   UNL     1      12.066  35.762 -13.433  1.00  0.00    -0.299 OA
ENDROOT
BRANCH   1   3
ATOM      3  C   UNL     1       9.701  35.677 -13.759  1.00  0.00     0.053 C 
ATOM      4  C   UNL     1       9.723  37.200 -13.947  1.00  0.00     0.016 C 
BRANCH   3   5
ATOM      5  C   UNL     1       9.105  35.299 -12.418  1.00  0.00     0.015 C 
BRANCH   5   6
ATOM      6  C   UNL     1       9.866  34.858 -11.195  1.00  0.00     0.028 C 
BRANCH   6   7
ATOM      7  C   UNL     1       9.058  33.781 -10.468  1.00  0.00    -0.028 C 
ATOM      8  C   UNL     1       9.248  32.416 -10.443  1.00  0.00    -0.070 CG0
ATOM      9  C   UNL     1       8.196  31.611  -9.718  1.00  0.00     0.039 C 
ATOM     10  G   UNL     1      10.432  31.631 -11.054  1.00  0.00     0.000 G0
ENDBRANCH   6   7
ENDBRANCH   5   6
ENDBRANCH   3   5
ENDBRANCH   1   3
BRANCH   1  11
ATOM     11  C   UNL     1      11.412  33.641 -14.279  1.00  0.00     0.087 C 
BRANCH  11  12
ATOM     12  C   UNL     1      11.813  32.595 -13.160  1.00  0.00     0.066 C 
BRANCH  12  13
ATOM     13  C   UNL     1      10.598  31.842 -12.570  1.00  0.00     0.140 C 
ATOM     14  O   UNL     1       9.747  31.398 -13.325  1.00  0.00    -0.299 OA
BRANCH  13  15
ATOM     15  C   UNL     1      10.413  31.624 -11.064  1.00  0.00     0.106 CG0
ATOM     16  G   UNL     1       9.234  32.407 -10.443  1.00  0.00     0.000 G0
ENDBRANCH  13  15
ENDBRANCH  12  13
BRANCH  12  17
ATOM     17  C   UNL     1      12.902  31.575 -13.619  1.00  0.00    -0.006 C 
ATOM     18  C   UNL     1      12.861  30.225 -12.875  1.00  0.00     0.008 C 
ATOM     19  C   UNL     1      12.862  31.342 -15.140  1.00  0.00     0.008 C 
ENDBRANCH  12  17
ENDBRANCH  11  12
ENDBRANCH   1  11
TORSDOF 1
ENDMDL
