MODEL 1
REMARK VINA RESULT:    -4.977      0.000      0.000
REMARK INTER + INTRA:          -7.606
REMARK INTER:                  -7.013
REMARK INTRA:                  -0.593
REMARK UNBOUND:                -0.593
REMARK SMILES C=CCCCCCCC(=O)[O-]
REMARK SMILES IDX 6 1 7 2 8 3 9 4 10 5 11 6 5 7 4 8 3 9 2 10 1 11
REMARK H PARENT
REMARK Flexibility Score: inf
ROOT
ATOM      1  C   UNL     1       9.163 -54.640 -29.579  1.00  0.00     0.000 C 
ENDROOT
BRANCH   1   2
ATOM      2  C   UNL     1      10.022 -55.311 -30.662  1.00  0.00     0.006 C 
BRANCH   2   3
ATOM      3  C   UNL     1       9.901 -54.607 -32.018  1.00  0.00     0.053 C 
BRANCH   3   4
ATOM      4  C   UNL     1      10.374 -55.478 -33.142  1.00  0.00     0.041 C 
ATOM      5  O   UNL     1       9.583 -56.291 -33.688  1.00  0.00    -0.550 OA
ATOM      6  O   UNL     1      11.678 -55.367 -33.608  1.00  0.00    -0.550 OA
ENDBRANCH   3   4
ENDBRANCH   2   3
ENDBRANCH   1   2
BRANCH   1   7
ATOM      7  C   UNL     1       8.156 -55.634 -28.982  1.00  0.00     0.000 C 
BRANCH   7   8
ATOM      8  C   UNL     1       7.301 -56.327 -30.054  1.00  0.00     0.004 C 
BRANCH   8   9
ATOM      9  C   UNL     1       5.825 -55.907 -29.998  1.00  0.00     0.027 C 
BRANCH   9  10
ATOM     10  C   UNL     1       5.380 -55.310 -31.305  1.00  0.00    -0.035 C 
ATOM     11  C   UNL     1       6.257 -54.898 -32.225  1.00  0.00     0.004 C 
ENDBRANCH   9  10
ENDBRANCH   8   9
ENDBRANCH   7   8
ENDBRANCH   1   7
TORSDOF 7
ENDMDL
MODEL 2
REMARK VINA RESULT:    -4.924      1.199      2.883
REMARK INTER + INTRA:          -7.532
REMARK INTER:                  -6.816
REMARK INTRA:                  -0.717
REMARK UNBOUND:                -0.593
REMARK SMILES C=CCCCCCCC(=O)[O-]
REMARK SMILES IDX 6 1 7 2 8 3 9 4 10 5 11 6 5 7 4 8 3 9 2 10 1 11
REMARK H PARENT
REMARK Flexibility Score: inf
ROOT
ATOM      1  C   UNL     1       7.443 -54.908 -31.420  1.00  0.00     0.000 C 
ENDROOT
BRANCH   1   2
ATOM      2  C   UNL     1       8.747 -54.242 -31.884  1.00  0.00     0.006 C 
BRANCH   2   3
ATOM      3  C   UNL     1       9.931 -55.217 -31.879  1.00  0.00     0.053 C 
BRANCH   3   4
ATOM      4  C   UNL     1      10.339 -55.605 -33.268  1.00  0.00     0.041 C 
ATOM      5  O   UNL     1       9.544 -56.247 -34.004  1.00  0.00    -0.550 OA
ATOM      6  O   UNL     1      11.583 -55.229 -33.759  1.00  0.00    -0.550 OA
ENDBRANCH   3   4
ENDBRANCH   2   3
ENDBRANCH   1   2
BRANCH   1   7
ATOM      7  C   UNL     1       7.734 -56.128 -30.532  1.00  0.00     0.000 C 
BRANCH   7   8
ATOM      8  C   UNL     1       7.779 -55.775 -29.037  1.00  0.00     0.004 C 
BRANCH   8   9
ATOM      9  C   UNL     1       8.893 -56.519 -28.286  1.00  0.00     0.027 C 
BRANCH   9  10
ATOM     10  C   UNL     1      10.157 -55.705 -28.246  1.00  0.00    -0.035 C 
ATOM     11  C   UNL     1      10.136 -54.370 -28.300  1.00  0.00     0.004 C 
ENDBRANCH   9  10
ENDBRANCH   8   9
ENDBRANCH   7   8
ENDBRANCH   1   7
TORSDOF 7
ENDMDL
MODEL 3
REMARK VINA RESULT:    -4.842      2.726      4.465
REMARK INTER + INTRA:          -7.417
REMARK INTER:                  -6.656
REMARK INTRA:                  -0.760
REMARK UNBOUND:                -0.593
REMARK SMILES C=CCCCCCCC(=O)[O-]
REMARK SMILES IDX 6 1 7 2 8 3 9 4 10 5 11 6 5 7 4 8 3 9 2 10 1 11
REMARK H PARENT
REMARK Flexibility Score: inf
ROOT
ATOM      1  C   UNL     1       8.542 -55.932 -29.171  1.00  0.00     0.000 C 
ENDROOT
BRANCH   1   2
ATOM      2  C   UNL     1       7.032 -55.797 -28.922  1.00  0.00     0.006 C 
BRANCH   2   3
ATOM      3  C   UNL     1       6.199 -56.413 -30.052  1.00  0.00     0.053 C 
BRANCH   3   4
ATOM      4  C   UNL     1       5.151 -55.466 -30.552  1.00  0.00     0.041 C 
ATOM      5  O   UNL     1       5.196 -55.040 -31.736  1.00  0.00    -0.550 OA
ATOM      6  O   UNL     1       4.106 -55.081 -29.721  1.00  0.00    -0.550 OA
ENDBRANCH   3   4
ENDBRANCH   2   3
ENDBRANCH   1   2
BRANCH   1   7
ATOM      7  C   UNL     1       9.190 -54.555 -29.381  1.00  0.00     0.000 C 
BRANCH   7   8
ATOM      8  C   UNL     1       9.729 -54.366 -30.808  1.00  0.00     0.004 C 
BRANCH   8   9
ATOM      9  C   UNL     1       8.610 -54.203 -31.846  1.00  0.00     0.027 C 
BRANCH   9  10
ATOM     10  C   UNL     1       8.671 -55.288 -32.886  1.00  0.00    -0.035 C 
ATOM     11  C   UNL     1       9.487 -56.338 -32.759  1.00  0.00     0.004 C 
ENDBRANCH   9  10
ENDBRANCH   8   9
ENDBRANCH   7   8
ENDBRANCH   1   7
TORSDOF 7
ENDMDL
MODEL 4
REMARK VINA RESULT:    -4.774      2.337      4.073
REMARK INTER + INTRA:          -7.321
REMARK INTER:                  -6.658
REMARK INTRA:                  -0.663
REMARK UNBOUND:                -0.593
REMARK SMILES C=CCCCCCCC(=O)[O-]
REMARK SMILES IDX 6 1 7 2 8 3 9 4 10 5 11 6 5 7 4 8 3 9 2 10 1 11
REMARK H PARENT
REMARK Flexibility Score: inf
ROOT
ATOM      1  C   UNL     1       6.155 -55.603 -30.517  1.00  0.00     0.000 C 
ENDROOT
BRANCH   1   2
ATOM      2  C   UNL     1       7.479 -56.278 -30.128  1.00  0.00     0.006 C 
BRANCH   2   3
ATOM      3  C   UNL     1       8.027 -55.756 -28.794  1.00  0.00     0.053 C 
BRANCH   3   4
ATOM      4  C   UNL     1       9.322 -55.023 -28.973  1.00  0.00     0.041 C 
ATOM      5  O   UNL     1       9.321 -53.808 -29.303  1.00  0.00    -0.550 OA
ATOM      6  O   UNL     1      10.528 -55.674 -28.743  1.00  0.00    -0.550 OA
ENDBRANCH   3   4
ENDBRANCH   2   3
ENDBRANCH   1   2
BRANCH   1   7
ATOM      7  C   UNL     1       6.247 -54.980 -31.918  1.00  0.00     0.000 C 
BRANCH   7   8
ATOM      8  C   UNL     1       7.681 -54.576 -32.293  1.00  0.00     0.004 C 
BRANCH   8   9
ATOM      9  C   UNL     1       8.198 -55.316 -33.536  1.00  0.00     0.027 C 
BRANCH   9  10
ATOM     10  C   UNL     1       9.588 -55.846 -33.314  1.00  0.00    -0.035 C 
ATOM     11  C   UNL     1      10.475 -55.197 -32.553  1.00  0.00     0.004 C 
ENDBRANCH   9  10
ENDBRANCH   8   9
ENDBRANCH   7   8
ENDBRANCH   1   7
TORSDOF 7
ENDMDL
MODEL 5
REMARK VINA RESULT:    -4.767      3.619      5.404
REMARK INTER + INTRA:          -7.311
REMARK INTER:                  -6.633
REMARK INTRA:                  -0.678
REMARK UNBOUND:                -0.593
REMARK SMILES C=CCCCCCCC(=O)[O-]
REMARK SMILES IDX 6 1 7 2 8 3 9 4 10 5 11 6 5 7 4 8 3 9 2 10 1 11
REMARK H PARENT
REMARK Flexibility Score: inf
ROOT
ATOM      1  C   UNL     1       6.679 -55.010 -31.321  1.00  0.00     0.000 C 
ENDROOT
BRANCH   1   2
ATOM      2  C   UNL     1       6.868 -56.169 -30.331  1.00  0.00     0.006 C 
BRANCH   2   3
ATOM      3  C   UNL     1       6.058 -55.971 -29.043  1.00  0.00     0.053 C 
BRANCH   3   4
ATOM      4  C   UNL     1       4.583 -56.003 -29.303  1.00  0.00     0.041 C 
ATOM      5  O   UNL     1       3.890 -54.963 -29.149  1.00  0.00    -0.550 OA
ATOM      6  O   UNL     1       3.979 -57.173 -29.746  1.00  0.00    -0.550 OA
ENDBRANCH   3   4
ENDBRANCH   2   3
ENDBRANCH   1   2
BRANCH   1   7
ATOM      7  C   UNL     1       8.034 -54.413 -31.732  1.00  0.00     0.000 C 
BRANCH   7   8
ATOM      8  C   UNL     1       9.185 -54.880 -30.829  1.00  0.00     0.004 C 
BRANCH   8   9
ATOM      9  C   UNL     1       9.636 -53.798 -29.836  1.00  0.00     0.027 C 
BRANCH   9  10
ATOM     10  C   UNL     1       9.981 -54.397 -28.501  1.00  0.00    -0.035 C 
ATOM     11  C   UNL     1      10.101 -55.717 -28.332  1.00  0.00     0.004 C 
ENDBRANCH   9  10
ENDBRANCH   8   9
ENDBRANCH   7   8
ENDBRANCH   1   7
TORSDOF 7
ENDMDL
MODEL 6
REMARK VINA RESULT:    -4.755      2.394      3.691
REMARK INTER + INTRA:          -7.295
REMARK INTER:                  -6.595
REMARK INTRA:                  -0.699
REMARK UNBOUND:                -0.593
REMARK SMILES C=CCCCCCCC(=O)[O-]
REMARK SMILES IDX 6 1 7 2 8 3 9 4 10 5 11 6 5 7 4 8 3 9 2 10 1 11
REMARK H PARENT
REMARK Flexibility Score: inf
ROOT
ATOM      1  C   UNL     1       6.739 -55.011 -31.177  1.00  0.00     0.000 C 
ENDROOT
BRANCH   1   2
ATOM      2  C   UNL     1       7.527 -56.119 -30.462  1.00  0.00     0.006 C 
BRANCH   2   3
ATOM      3  C   UNL     1       8.197 -55.618 -29.177  1.00  0.00     0.053 C 
BRANCH   3   4
ATOM      4  C   UNL     1       9.680 -55.475 -29.341  1.00  0.00     0.041 C 
ATOM      5  O   UNL     1      10.449 -55.694 -28.368  1.00  0.00    -0.550 OA
ATOM      6  O   UNL     1      10.214 -55.134 -30.577  1.00  0.00    -0.550 OA
ENDBRANCH   3   4
ENDBRANCH   2   3
ENDBRANCH   1   2
BRANCH   1   7
ATOM      7  C   UNL     1       5.273 -55.422 -31.379  1.00  0.00     0.000 C 
BRANCH   7   8
ATOM      8  C   UNL     1       4.454 -55.354 -30.081  1.00  0.00     0.004 C 
BRANCH   8   9
ATOM      9  C   UNL     1       3.897 -56.722 -29.660  1.00  0.00     0.027 C 
BRANCH   9  10
ATOM     10  C   UNL     1       4.503 -57.179 -28.361  1.00  0.00    -0.035 C 
ATOM     11  C   UNL     1       5.019 -56.314 -27.483  1.00  0.00     0.004 C 
ENDBRANCH   9  10
ENDBRANCH   8   9
ENDBRANCH   7   8
ENDBRANCH   1   7
TORSDOF 7
ENDMDL
MODEL 7
REMARK VINA RESULT:    -4.742      3.010      3.584
REMARK INTER + INTRA:          -7.276
REMARK INTER:                  -6.966
REMARK INTRA:                  -0.310
REMARK UNBOUND:                -0.593
REMARK SMILES C=CCCCCCCC(=O)[O-]
REMARK SMILES IDX 6 1 7 2 8 3 9 4 10 5 11 6 5 7 4 8 3 9 2 10 1 11
REMARK H PARENT
REMARK Flexibility Score: inf
ROOT
ATOM      1  C   UNL     1       7.819 -54.675 -31.034  1.00  0.00     0.000 C 
ENDROOT
BRANCH   1   2
ATOM      2  C   UNL     1       9.162 -54.178 -30.479  1.00  0.00     0.006 C 
BRANCH   2   3
ATOM      3  C   UNL     1      10.022 -55.322 -29.929  1.00  0.00     0.053 C 
BRANCH   3   4
ATOM      4  C   UNL     1      10.245 -55.191 -28.452  1.00  0.00     0.041 C 
ATOM      5  O   UNL     1      10.192 -54.059 -27.903  1.00  0.00    -0.550 OA
ATOM      6  O   UNL     1      10.478 -56.322 -27.680  1.00  0.00    -0.550 OA
ENDBRANCH   3   4
ENDBRANCH   2   3
ENDBRANCH   1   2
BRANCH   1   7
ATOM      7  C   UNL     1       7.512 -56.097 -30.540  1.00  0.00     0.000 C 
BRANCH   7   8
ATOM      8  C   UNL     1       6.477 -56.118 -29.404  1.00  0.00     0.004 C 
BRANCH   8   9
ATOM      9  C   UNL     1       5.055 -56.409 -29.905  1.00  0.00     0.027 C 
BRANCH   9  10
ATOM     10  C   UNL     1       4.124 -55.271 -29.586  1.00  0.00    -0.035 C 
ATOM     11  C   UNL     1       3.388 -55.255 -28.471  1.00  0.00     0.004 C 
ENDBRANCH   9  10
ENDBRANCH   8   9
ENDBRANCH   7   8
ENDBRANCH   1   7
TORSDOF 7
ENDMDL
MODEL 8
REMARK VINA RESULT:    -4.740      1.422      2.210
REMARK INTER + INTRA:          -7.274
REMARK INTER:                  -6.799
REMARK INTRA:                  -0.475
REMARK UNBOUND:                -0.593
REMARK SMILES C=CCCCCCCC(=O)[O-]
REMARK SMILES IDX 6 1 7 2 8 3 9 4 10 5 11 6 5 7 4 8 3 9 2 10 1 11
REMARK H PARENT
REMARK Flexibility Score: inf
ROOT
ATOM      1  C   UNL     1       8.230 -55.959 -28.993  1.00  0.00     0.000 C 
ENDROOT
BRANCH   1   2
ATOM      2  C   UNL     1       8.866 -54.673 -29.542  1.00  0.00     0.006 C 
BRANCH   2   3
ATOM      3  C   UNL     1      10.125 -54.955 -30.369  1.00  0.00     0.053 C 
BRANCH   3   4
ATOM      4  C   UNL     1       9.922 -54.638 -31.820  1.00  0.00     0.041 C 
ATOM      5  O   UNL     1       8.957 -53.913 -32.179  1.00  0.00    -0.550 OA
ATOM      6  O   UNL     1      10.817 -55.114 -32.769  1.00  0.00    -0.550 OA
ENDBRANCH   3   4
ENDBRANCH   2   3
ENDBRANCH   1   2
BRANCH   1   7
ATOM      7  C   UNL     1       7.127 -56.471 -29.932  1.00  0.00     0.000 C 
BRANCH   7   8
ATOM      8  C   UNL     1       6.242 -55.340 -30.477  1.00  0.00     0.004 C 
BRANCH   8   9
ATOM      9  C   UNL     1       4.845 -55.827 -30.889  1.00  0.00     0.027 C 
BRANCH   9  10
ATOM     10  C   UNL     1       4.148 -56.510 -29.744  1.00  0.00    -0.035 C 
ATOM     11  C   UNL     1       3.393 -55.831 -28.876  1.00  0.00     0.004 C 
ENDBRANCH   9  10
ENDBRANCH   8   9
ENDBRANCH   7   8
ENDBRANCH   1   7
TORSDOF 7
ENDMDL
MODEL 9
REMARK VINA RESULT:    -4.570      3.942      5.997
REMARK INTER + INTRA:          -7.033
REMARK INTER:                  -6.539
REMARK INTRA:                  -0.493
REMARK UNBOUND:                -0.593
REMARK SMILES C=CCCCCCCC(=O)[O-]
REMARK SMILES IDX 6 1 7 2 8 3 9 4 10 5 11 6 5 7 4 8 3 9 2 10 1 11
REMARK H PARENT
REMARK Flexibility Score: inf
ROOT
ATOM      1  C   UNL     1       4.996 -55.399 -30.942  1.00  0.00     0.000 C 
ENDROOT
BRANCH   1   2
ATOM      2  C   UNL     1       4.544 -56.352 -29.826  1.00  0.00     0.006 C 
BRANCH   2   3
ATOM      3  C   UNL     1       3.664 -55.651 -28.784  1.00  0.00     0.053 C 
BRANCH   3   4
ATOM      4  C   UNL     1       4.239 -55.762 -27.404  1.00  0.00     0.041 C 
ATOM      5  O   UNL     1       3.758 -55.078 -26.462  1.00  0.00    -0.550 OA
ATOM      6  O   UNL     1       5.282 -56.644 -27.153  1.00  0.00    -0.550 OA
ENDBRANCH   3   4
ENDBRANCH   2   3
ENDBRANCH   1   2
BRANCH   1   7
ATOM      7  C   UNL     1       6.529 -55.321 -31.011  1.00  0.00     0.000 C 
BRANCH   7   8
ATOM      8  C   UNL     1       7.215 -56.317 -30.064  1.00  0.00     0.004 C 
BRANCH   8   9
ATOM      9  C   UNL     1       8.097 -55.623 -29.015  1.00  0.00     0.027 C 
BRANCH   9  10
ATOM     10  C   UNL     1       9.366 -55.102 -29.632  1.00  0.00    -0.035 C 
ATOM     11  C   UNL     1       9.643 -53.795 -29.671  1.00  0.00     0.004 C 
ENDBRANCH   9  10
ENDBRANCH   8   9
ENDBRANCH   7   8
ENDBRANCH   1   7
TORSDOF 7
ENDMDL
