MODEL 1
REMARK VINA RESULT:    -3.344      0.000      0.000
REMARK INTER + INTRA:          -4.227
REMARK INTER:                  -4.029
REMARK INTRA:                  -0.198
REMARK UNBOUND:                -0.198
REMARK SMILES OCC(O)CO
REMARK SMILES IDX 3 1 5 2 6 3 2 5 1 6 4 8
REMARK H PARENT 6 4 1 7 4 9
REMARK Flexibility Score: inf
ROOT
ATOM      1  C   UNL     1      -7.632 -17.377 -14.587  1.00  0.00     0.165 C 
ENDROOT
BRANCH   1   2
ATOM      2  C   UNL     1      -6.609 -18.443 -14.164  1.00  0.00     0.190 C 
BRANCH   2   3
ATOM      3  O   UNL     1      -7.015 -19.713 -14.600  1.00  0.00    -0.394 OA
ATOM      4  H   UNL     1      -6.766 -20.355 -13.885  1.00  0.00     0.210 HD
ENDBRANCH   2   3
ENDBRANCH   1   2
BRANCH   1   5
ATOM      5  C   UNL     1      -8.053 -17.553 -16.052  1.00  0.00     0.190 C 
BRANCH   5   6
ATOM      6  O   UNL     1      -9.274 -18.239 -16.146  1.00  0.00    -0.394 OA
ATOM      7  H   UNL     1      -9.949 -17.585 -16.465  1.00  0.00     0.210 HD
ENDBRANCH   5   6
ENDBRANCH   1   5
BRANCH   1   8
ATOM      8  O   UNL     1      -7.093 -16.092 -14.414  1.00  0.00    -0.388 OA
ATOM      9  H   UNL     1      -7.767 -15.447 -14.754  1.00  0.00     0.211 HD
ENDBRANCH   1   8
TORSDOF 5
ENDMDL
MODEL 2
REMARK VINA RESULT:    -3.328      1.645      3.070
REMARK INTER + INTRA:          -4.207
REMARK INTER:                  -4.205
REMARK INTRA:                  -0.003
REMARK UNBOUND:                -0.198
REMARK SMILES OCC(O)CO
REMARK SMILES IDX 3 1 5 2 6 3 2 5 1 6 4 8
REMARK H PARENT 6 4 1 7 4 9
REMARK Flexibility Score: inf
ROOT
ATOM      1  C   UNL     1      -6.532 -18.253 -13.925  1.00  0.00     0.165 C 
ENDROOT
BRANCH   1   2
ATOM      2  C   UNL     1      -7.427 -17.353 -14.791  1.00  0.00     0.190 C 
BRANCH   2   3
ATOM      3  O   UNL     1      -7.283 -16.009 -14.412  1.00  0.00    -0.394 OA
ATOM      4  H   UNL     1      -6.364 -15.909 -14.053  1.00  0.00     0.210 HD
ENDBRANCH   2   3
ENDBRANCH   1   2
BRANCH   1   5
ATOM      5  C   UNL     1      -6.280 -19.610 -14.598  1.00  0.00     0.190 C 
BRANCH   5   6
ATOM      6  O   UNL     1      -6.454 -20.663 -13.687  1.00  0.00    -0.394 OA
ATOM      7  H   UNL     1      -5.587 -21.142 -13.630  1.00  0.00     0.210 HD
ENDBRANCH   5   6
ENDBRANCH   1   5
BRANCH   1   8
ATOM      8  O   UNL     1      -7.126 -18.465 -12.669  1.00  0.00    -0.388 OA
ATOM      9  H   UNL     1      -6.425 -18.842 -12.076  1.00  0.00     0.211 HD
ENDBRANCH   1   8
TORSDOF 5
ENDMDL
MODEL 3
REMARK VINA RESULT:    -3.273      1.334      2.795
REMARK INTER + INTRA:          -4.141
REMARK INTER:                  -3.919
REMARK INTRA:                  -0.222
REMARK UNBOUND:                -0.198
REMARK SMILES OCC(O)CO
REMARK SMILES IDX 3 1 5 2 6 3 2 5 1 6 4 8
REMARK H PARENT 6 4 1 7 4 9
REMARK Flexibility Score: inf
ROOT
ATOM      1  C   UNL     1      -7.626 -18.004 -15.222  1.00  0.00     0.165 C 
ENDROOT
BRANCH   1   2
ATOM      2  C   UNL     1      -7.668 -17.026 -14.037  1.00  0.00     0.190 C 
BRANCH   2   3
ATOM      3  O   UNL     1      -6.684 -16.037 -14.183  1.00  0.00    -0.394 OA
ATOM      4  H   UNL     1      -6.997 -15.424 -14.898  1.00  0.00     0.210 HD
ENDBRANCH   2   3
ENDBRANCH   1   2
BRANCH   1   5
ATOM      5  C   UNL     1      -6.562 -19.092 -15.015  1.00  0.00     0.190 C 
BRANCH   5   6
ATOM      6  O   UNL     1      -5.658 -18.726 -14.005  1.00  0.00    -0.394 OA
ATOM      7  H   UNL     1      -5.157 -19.545 -13.755  1.00  0.00     0.210 HD
ENDBRANCH   5   6
ENDBRANCH   1   5
BRANCH   1   8
ATOM      8  O   UNL     1      -7.351 -17.312 -16.413  1.00  0.00    -0.388 OA
ATOM      9  H   UNL     1      -6.926 -17.961 -17.033  1.00  0.00     0.211 HD
ENDBRANCH   1   8
TORSDOF 5
ENDMDL
MODEL 4
REMARK VINA RESULT:    -3.270      9.276      9.691
REMARK INTER + INTRA:          -4.138
REMARK INTER:                  -4.110
REMARK INTRA:                  -0.027
REMARK UNBOUND:                -0.198
REMARK SMILES OCC(O)CO
REMARK SMILES IDX 3 1 5 2 6 3 2 5 1 6 4 8
REMARK H PARENT 6 4 1 7 4 9
REMARK Flexibility Score: inf
ROOT
ATOM      1  C   UNL     1      -1.211 -23.609 -11.246  1.00  0.00     0.165 C 
ENDROOT
BRANCH   1   2
ATOM      2  C   UNL     1      -2.210 -24.357 -12.142  1.00  0.00     0.190 C 
BRANCH   2   3
ATOM      3  O   UNL     1      -1.661 -25.572 -12.581  1.00  0.00    -0.394 OA
ATOM      4  H   UNL     1      -0.716 -25.584 -12.279  1.00  0.00     0.210 HD
ENDBRANCH   2   3
ENDBRANCH   1   2
BRANCH   1   5
ATOM      5  C   UNL     1      -0.741 -22.301 -11.900  1.00  0.00     0.190 C 
BRANCH   5   6
ATOM      6  O   UNL     1       0.382 -22.521 -12.712  1.00  0.00    -0.394 OA
ATOM      7  H   UNL     1       0.986 -23.130 -12.212  1.00  0.00     0.210 HD
ENDBRANCH   5   6
ENDBRANCH   1   5
BRANCH   1   8
ATOM      8  O   UNL     1      -0.094 -24.419 -10.982  1.00  0.00    -0.388 OA
ATOM      9  H   UNL     1       0.685 -23.813 -10.878  1.00  0.00     0.211 HD
ENDBRANCH   1   8
TORSDOF 5
ENDMDL
MODEL 5
REMARK VINA RESULT:    -3.262      3.399      4.499
REMARK INTER + INTRA:          -4.128
REMARK INTER:                  -3.904
REMARK INTRA:                  -0.224
REMARK UNBOUND:                -0.198
REMARK SMILES OCC(O)CO
REMARK SMILES IDX 3 1 5 2 6 3 2 5 1 6 4 8
REMARK H PARENT 6 4 1 7 4 9
REMARK Flexibility Score: inf
ROOT
ATOM      1  C   UNL     1      -5.791 -20.424 -11.727  1.00  0.00     0.165 C 
ENDROOT
BRANCH   1   2
ATOM      2  C   UNL     1      -5.835 -21.951 -11.897  1.00  0.00     0.190 C 
BRANCH   2   3
ATOM      3  O   UNL     1      -7.152 -22.382 -12.113  1.00  0.00    -0.394 OA
ATOM      4  H   UNL     1      -7.130 -23.374 -12.125  1.00  0.00     0.210 HD
ENDBRANCH   2   3
ENDBRANCH   1   2
BRANCH   1   5
ATOM      5  C   UNL     1      -5.628 -19.713 -13.077  1.00  0.00     0.190 C 
BRANCH   5   6
ATOM      6  O   UNL     1      -6.524 -20.226 -14.028  1.00  0.00    -0.394 OA
ATOM      7  H   UNL     1      -6.626 -21.195 -13.835  1.00  0.00     0.210 HD
ENDBRANCH   5   6
ENDBRANCH   1   5
BRANCH   1   8
ATOM      8  O   UNL     1      -4.727 -20.061 -10.883  1.00  0.00    -0.388 OA
ATOM      9  H   UNL     1      -3.888 -20.301 -11.356  1.00  0.00     0.211 HD
ENDBRANCH   1   8
TORSDOF 5
ENDMDL
MODEL 6
REMARK VINA RESULT:    -3.233      0.975      2.396
REMARK INTER + INTRA:          -4.093
REMARK INTER:                  -3.875
REMARK INTRA:                  -0.219
REMARK UNBOUND:                -0.198
REMARK SMILES OCC(O)CO
REMARK SMILES IDX 3 1 5 2 6 3 2 5 1 6 4 8
REMARK H PARENT 6 4 1 7 4 9
REMARK Flexibility Score: inf
ROOT
ATOM      1  C   UNL     1      -7.567 -17.894 -15.410  1.00  0.00     0.165 C 
ENDROOT
BRANCH   1   2
ATOM      2  C   UNL     1      -6.750 -19.112 -14.951  1.00  0.00     0.190 C 
BRANCH   2   3
ATOM      3  O   UNL     1      -5.708 -18.712 -14.102  1.00  0.00    -0.394 OA
ATOM      4  H   UNL     1      -5.143 -19.513 -13.944  1.00  0.00     0.210 HD
ENDBRANCH   2   3
ENDBRANCH   1   2
BRANCH   1   5
ATOM      5  C   UNL     1      -7.756 -16.883 -14.270  1.00  0.00     0.190 C 
BRANCH   5   6
ATOM      6  O   UNL     1      -6.653 -16.020 -14.175  1.00  0.00    -0.394 OA
ATOM      7  H   UNL     1      -6.995 -15.149 -13.844  1.00  0.00     0.210 HD
ENDBRANCH   5   6
ENDBRANCH   1   5
BRANCH   1   8
ATOM      8  O   UNL     1      -8.828 -18.303 -15.876  1.00  0.00    -0.388 OA
ATOM      9  H   UNL     1      -8.676 -19.077 -16.480  1.00  0.00     0.211 HD
ENDBRANCH   1   8
TORSDOF 5
ENDMDL
MODEL 7
REMARK VINA RESULT:    -3.198      0.467      2.301
REMARK INTER + INTRA:          -4.051
REMARK INTER:                  -3.827
REMARK INTRA:                  -0.224
REMARK UNBOUND:                -0.198
REMARK SMILES OCC(O)CO
REMARK SMILES IDX 3 1 5 2 6 3 2 5 1 6 4 8
REMARK H PARENT 6 4 1 7 4 9
REMARK Flexibility Score: inf
ROOT
ATOM      1  C   UNL     1      -6.899 -17.360 -15.018  1.00  0.00     0.165 C 
ENDROOT
BRANCH   1   2
ATOM      2  C   UNL     1      -7.825 -17.697 -16.197  1.00  0.00     0.190 C 
BRANCH   2   3
ATOM      3  O   UNL     1      -9.033 -18.240 -15.734  1.00  0.00    -0.394 OA
ATOM      4  H   UNL     1      -8.927 -18.381 -14.758  1.00  0.00     0.210 HD
ENDBRANCH   2   3
ENDBRANCH   1   2
BRANCH   1   5
ATOM      5  C   UNL     1      -6.974 -18.434 -13.922  1.00  0.00     0.190 C 
BRANCH   5   6
ATOM      6  O   UNL     1      -6.857 -19.720 -14.470  1.00  0.00    -0.394 OA
ATOM      7  H   UNL     1      -5.887 -19.913 -14.552  1.00  0.00     0.210 HD
ENDBRANCH   5   6
ENDBRANCH   1   5
BRANCH   1   8
ATOM      8  O   UNL     1      -7.248 -16.116 -14.467  1.00  0.00    -0.388 OA
ATOM      9  H   UNL     1      -7.981 -16.281 -13.818  1.00  0.00     0.211 HD
ENDBRANCH   1   8
TORSDOF 5
ENDMDL
MODEL 8
REMARK VINA RESULT:    -3.162      4.088      5.518
REMARK INTER + INTRA:          -4.008
REMARK INTER:                  -4.005
REMARK INTRA:                  -0.002
REMARK UNBOUND:                -0.198
REMARK SMILES OCC(O)CO
REMARK SMILES IDX 3 1 5 2 6 3 2 5 1 6 4 8
REMARK H PARENT 6 4 1 7 4 9
REMARK Flexibility Score: inf
ROOT
ATOM      1  C   UNL     1      -6.005 -21.870 -11.673  1.00  0.00     0.165 C 
ENDROOT
BRANCH   1   2
ATOM      2  C   UNL     1      -6.270 -21.548 -10.194  1.00  0.00     0.190 C 
BRANCH   2   3
ATOM      3  O   UNL     1      -7.082 -22.535  -9.615  1.00  0.00    -0.394 OA
ATOM      4  H   UNL     1      -7.637 -22.914 -10.345  1.00  0.00     0.210 HD
ENDBRANCH   2   3
ENDBRANCH   1   2
BRANCH   1   5
ATOM      5  C   UNL     1      -5.677 -20.602 -12.474  1.00  0.00     0.190 C 
BRANCH   5   6
ATOM      6  O   UNL     1      -6.443 -20.537 -13.648  1.00  0.00    -0.394 OA
ATOM      7  H   UNL     1      -7.383 -20.378 -13.372  1.00  0.00     0.210 HD
ENDBRANCH   5   6
ENDBRANCH   1   5
BRANCH   1   8
ATOM      8  O   UNL     1      -7.127 -22.497 -12.242  1.00  0.00    -0.388 OA
ATOM      9  H   UNL     1      -7.088 -23.454 -11.979  1.00  0.00     0.211 HD
ENDBRANCH   1   8
TORSDOF 5
ENDMDL
MODEL 9
REMARK VINA RESULT:    -3.102      3.615      5.132
REMARK INTER + INTRA:          -3.935
REMARK INTER:                  -3.715
REMARK INTRA:                  -0.220
REMARK UNBOUND:                -0.198
REMARK SMILES OCC(O)CO
REMARK SMILES IDX 3 1 5 2 6 3 2 5 1 6 4 8
REMARK H PARENT 6 4 1 7 4 9
REMARK Flexibility Score: inf
ROOT
ATOM      1  C   UNL     1      -5.177 -21.089 -11.914  1.00  0.00     0.165 C 
ENDROOT
BRANCH   1   2
ATOM      2  C   UNL     1      -5.644 -19.893 -12.759  1.00  0.00     0.190 C 
BRANCH   2   3
ATOM      3  O   UNL     1      -6.476 -20.326 -13.803  1.00  0.00    -0.394 OA
ATOM      4  H   UNL     1      -6.020 -20.085 -14.650  1.00  0.00     0.210 HD
ENDBRANCH   2   3
ENDBRANCH   1   2
BRANCH   1   5
ATOM      5  C   UNL     1      -6.352 -21.753 -11.183  1.00  0.00     0.190 C 
BRANCH   5   6
ATOM      6  O   UNL     1      -7.133 -22.510 -12.070  1.00  0.00    -0.394 OA
ATOM      7  H   UNL     1      -7.935 -21.966 -12.285  1.00  0.00     0.210 HD
ENDBRANCH   5   6
ENDBRANCH   1   5
BRANCH   1   8
ATOM      8  O   UNL     1      -4.223 -20.673 -10.970  1.00  0.00    -0.388 OA
ATOM      9  H   UNL     1      -4.204 -21.361 -10.255  1.00  0.00     0.211 HD
ENDBRANCH   1   8
TORSDOF 5
ENDMDL
