MODEL 1
REMARK VINA RESULT:    -3.668      0.000      0.000
REMARK INTER + INTRA:          -4.774
REMARK INTER:                  -4.418
REMARK INTRA:                  -0.356
REMARK UNBOUND:                -0.356
REMARK SMILES O=c1ccn([C@@H]2O[C@H](CO)[C@@H](O)[C@@H]2O)c(=O)[nH]1
REMARK SMILES IDX 6 1 13 2 11 3 8 4 7 5 5 6 3 7 4 8 2 9 17 10 1 11 15 12 16 14
REMARK SMILES IDX 14 15 12 17 9 19 10 20
REMARK H PARENT 17 13 14 16 12 18 10 21
REMARK Flexibility Score: inf
ROOT
ATOM      1  C   UNL     1     157.491 159.082 169.604  1.00  0.00     0.255 C 
ATOM      2  C   UNL     1     158.494 160.233 169.781  1.00  0.00     0.196 C 
ATOM      3  C   UNL     1     157.606 161.446 169.890  1.00  0.00     0.179 C 
ATOM      4  C   UNL     1     156.313 160.850 170.427  1.00  0.00     0.178 C 
ATOM      5  O   UNL     1     156.190 159.542 169.918  1.00  0.00    -0.347 OA
ENDROOT
BRANCH   1   6
ATOM      6  N   UNL     1     157.517 158.531 168.230  1.00  0.00    -0.271 N 
ATOM      7  C   UNL     1     156.635 158.493 165.999  1.00  0.00     0.090 A 
ATOM      8  C   UNL     1     156.613 158.975 167.303  1.00  0.00     0.099 A 
ATOM      9  C   UNL     1     157.604 157.558 165.651  1.00  0.00     0.253 A 
ATOM     10  N   UNL     1     158.506 157.143 166.577  1.00  0.00    -0.274 N 
ATOM     11  O   UNL     1     157.647 157.103 164.476  1.00  0.00    -0.269 OA
ATOM     12  C   UNL     1     158.478 157.624 167.852  1.00  0.00     0.330 A 
ATOM     13  H   UNL     1     159.239 156.448 166.305  1.00  0.00     0.175 HD
ATOM     14  O   UNL     1     159.348 157.227 168.676  1.00  0.00    -0.248 OA
ENDBRANCH   1   6
BRANCH   2  15
ATOM     15  O   UNL     1     159.381 160.343 168.697  1.00  0.00    -0.386 OA
ATOM     16  H   UNL     1     160.116 159.699 168.867  1.00  0.00     0.211 HD
ENDBRANCH   2  15
BRANCH   3  17
ATOM     17  O   UNL     1     158.129 162.390 170.788  1.00  0.00    -0.387 OA
ATOM     18  H   UNL     1     157.664 162.242 171.652  1.00  0.00     0.211 HD
ENDBRANCH   3  17
BRANCH   4  19
ATOM     19  C   UNL     1     155.091 161.689 170.032  1.00  0.00     0.191 C 
BRANCH  19  20
ATOM     20  O   UNL     1     155.307 163.040 170.335  1.00  0.00    -0.394 OA
ATOM     21  H   UNL     1     155.379 163.519 169.467  1.00  0.00     0.210 HD
ENDBRANCH  19  20
ENDBRANCH   4  19
TORSDOF 5
ENDMDL
MODEL 2
REMARK VINA RESULT:    -3.663     12.649     14.178
REMARK INTER + INTRA:          -4.768
REMARK INTER:                  -4.413
REMARK INTRA:                  -0.355
REMARK UNBOUND:                -0.356
REMARK SMILES O=c1ccn([C@@H]2O[C@H](CO)[C@@H](O)[C@@H]2O)c(=O)[nH]1
REMARK SMILES IDX 6 1 13 2 11 3 8 4 7 5 5 6 3 7 4 8 2 9 17 10 1 11 15 12 16 14
REMARK SMILES IDX 14 15 12 17 9 19 10 20
REMARK H PARENT 17 13 14 16 12 18 10 21
REMARK Flexibility Score: inf
ROOT
ATOM      1  C   UNL     1     171.484 157.436 169.634  1.00  0.00     0.255 C 
ATOM      2  C   UNL     1     170.334 158.442 169.794  1.00  0.00     0.196 C 
ATOM      3  C   UNL     1     169.117 157.558 169.890  1.00  0.00     0.179 C 
ATOM      4  C   UNL     1     169.702 156.265 170.437  1.00  0.00     0.178 C 
ATOM      5  O   UNL     1     171.016 156.137 169.945  1.00  0.00    -0.347 OA
ENDROOT
BRANCH   1   6
ATOM      6  N   UNL     1     172.052 157.457 168.267  1.00  0.00    -0.271 N 
ATOM      7  C   UNL     1     172.117 156.568 166.038  1.00  0.00     0.090 A 
ATOM      8  C   UNL     1     171.618 156.550 167.337  1.00  0.00     0.099 A 
ATOM      9  C   UNL     1     173.057 157.534 165.699  1.00  0.00     0.253 A 
ATOM     10  N   UNL     1     173.463 158.438 166.628  1.00  0.00    -0.274 N 
ATOM     11  O   UNL     1     173.528 157.574 164.530  1.00  0.00    -0.269 OA
ATOM     12  C   UNL     1     172.966 158.414 167.897  1.00  0.00     0.330 A 
ATOM     13  H   UNL     1     174.163 159.169 166.363  1.00  0.00     0.175 HD
ATOM     14  O   UNL     1     173.354 159.287 168.724  1.00  0.00    -0.248 OA
ENDBRANCH   1   6
BRANCH   2  15
ATOM     15  O   UNL     1     170.239 159.326 168.706  1.00  0.00    -0.386 OA
ATOM     16  H   UNL     1     170.570 158.832 167.912  1.00  0.00     0.211 HD
ENDBRANCH   2  15
BRANCH   3  17
ATOM     17  O   UNL     1     168.163 158.086 170.774  1.00  0.00    -0.387 OA
ATOM     18  H   UNL     1     167.484 158.544 170.214  1.00  0.00     0.211 HD
ENDBRANCH   3  17
BRANCH   4  19
ATOM     19  C   UNL     1     168.865 155.044 170.034  1.00  0.00     0.191 C 
BRANCH  19  20
ATOM     20  O   UNL     1     167.516 155.250 170.352  1.00  0.00    -0.394 OA
ATOM     21  H   UNL     1     167.002 154.533 169.896  1.00  0.00     0.210 HD
ENDBRANCH  19  20
ENDBRANCH   4  19
TORSDOF 5
ENDMDL
MODEL 3
REMARK VINA RESULT:    -3.643      4.711      8.785
REMARK INTER + INTRA:          -4.744
REMARK INTER:                  -4.405
REMARK INTRA:                  -0.339
REMARK UNBOUND:                -0.356
REMARK SMILES O=c1ccn([C@@H]2O[C@H](CO)[C@@H](O)[C@@H]2O)c(=O)[nH]1
REMARK SMILES IDX 6 1 13 2 11 3 8 4 7 5 5 6 3 7 4 8 2 9 17 10 1 11 15 12 16 14
REMARK SMILES IDX 14 15 12 17 9 19 10 20
REMARK H PARENT 17 13 14 16 12 18 10 21
REMARK Flexibility Score: inf
ROOT
ATOM      1  C   UNL     1     159.123 157.231 161.105  1.00  0.00     0.255 C 
ATOM      2  C   UNL     1     160.242 158.251 160.848  1.00  0.00     0.196 C 
ATOM      3  C   UNL     1     161.471 157.388 160.725  1.00  0.00     0.179 C 
ATOM      4  C   UNL     1     160.886 156.063 160.257  1.00  0.00     0.178 C 
ATOM      5  O   UNL     1     159.601 155.930 160.820  1.00  0.00    -0.347 OA
ENDROOT
BRANCH   1   6
ATOM      6  N   UNL     1     158.623 157.295 162.497  1.00  0.00    -0.271 N 
ATOM      7  C   UNL     1     158.671 156.476 164.753  1.00  0.00     0.090 A 
ATOM      8  C   UNL     1     159.105 156.418 163.432  1.00  0.00     0.099 A 
ATOM      9  C   UNL     1     157.747 157.452 165.108  1.00  0.00     0.253 A 
ATOM     10  N   UNL     1     157.293 158.326 164.172  1.00  0.00    -0.274 N 
ATOM     11  O   UNL     1     157.335 157.528 166.297  1.00  0.00    -0.269 OA
ATOM     12  C   UNL     1     157.727 158.263 162.882  1.00  0.00     0.330 A 
ATOM     13  H   UNL     1     156.606 159.065 164.449  1.00  0.00     0.175 HD
ATOM     14  O   UNL     1     157.296 159.108 162.048  1.00  0.00    -0.248 OA
ENDBRANCH   1   6
BRANCH   2  15
ATOM     15  O   UNL     1     160.372 159.179 161.896  1.00  0.00    -0.386 OA
ATOM     16  H   UNL     1     160.832 158.706 162.636  1.00  0.00     0.211 HD
ENDBRANCH   2  15
BRANCH   3  17
ATOM     17  O   UNL     1     162.368 157.899 159.773  1.00  0.00    -0.387 OA
ATOM     18  H   UNL     1     162.652 157.129 159.215  1.00  0.00     0.211 HD
ENDBRANCH   3  17
BRANCH   4  19
ATOM     19  C   UNL     1     161.767 154.875 160.664  1.00  0.00     0.191 C 
BRANCH  19  20
ATOM     20  O   UNL     1     163.078 155.058 160.201  1.00  0.00    -0.394 OA
ATOM     21  H   UNL     1     163.067 154.865 159.227  1.00  0.00     0.210 HD
ENDBRANCH  19  20
ENDBRANCH   4  19
TORSDOF 5
ENDMDL
MODEL 4
REMARK VINA RESULT:    -3.621     12.677     14.129
REMARK INTER + INTRA:          -4.718
REMARK INTER:                  -4.365
REMARK INTRA:                  -0.353
REMARK UNBOUND:                -0.356
REMARK SMILES O=c1ccn([C@@H]2O[C@H](CO)[C@@H](O)[C@@H]2O)c(=O)[nH]1
REMARK SMILES IDX 6 1 13 2 11 3 8 4 7 5 5 6 3 7 4 8 2 9 17 10 1 11 15 12 16 14
REMARK SMILES IDX 14 15 12 17 9 19 10 20
REMARK H PARENT 17 13 14 16 12 18 10 21
REMARK Flexibility Score: inf
ROOT
ATOM      1  C   UNL     1     157.295 171.528 161.184  1.00  0.00     0.255 C 
ATOM      2  C   UNL     1     158.323 170.418 160.913  1.00  0.00     0.196 C 
ATOM      3  C   UNL     1     157.465 169.192 160.736  1.00  0.00     0.179 C 
ATOM      4  C   UNL     1     156.148 169.788 160.262  1.00  0.00     0.178 C 
ATOM      5  O   UNL     1     156.001 171.055 160.860  1.00  0.00    -0.347 OA
ENDROOT
BRANCH   1   6
ATOM      6  N   UNL     1     157.331 171.985 162.592  1.00  0.00    -0.271 N 
ATOM      7  C   UNL     1     156.482 171.855 164.833  1.00  0.00     0.090 A 
ATOM      8  C   UNL     1     156.449 171.461 163.499  1.00  0.00     0.099 A 
ATOM      9  C   UNL     1     157.438 172.783 165.230  1.00  0.00     0.253 A 
ATOM     10  N   UNL     1     158.318 173.278 164.322  1.00  0.00    -0.274 N 
ATOM     11  O   UNL     1     157.491 173.159 166.432  1.00  0.00    -0.269 OA
ATOM     12  C   UNL     1     158.279 172.884 163.018  1.00  0.00     0.330 A 
ATOM     13  H   UNL     1     159.041 173.968 164.630  1.00  0.00     0.175 HD
ATOM     14  O   UNL     1     159.130 173.353 162.210  1.00  0.00    -0.248 OA
ENDBRANCH   1   6
BRANCH   2  15
ATOM     15  O   UNL     1     159.231 170.259 161.974  1.00  0.00    -0.386 OA
ATOM     16  H   UNL     1     159.974 170.895 161.808  1.00  0.00     0.211 HD
ENDBRANCH   2  15
BRANCH   3  17
ATOM     17  O   UNL     1     157.996 168.326 159.768  1.00  0.00    -0.387 OA
ATOM     18  H   UNL     1     157.688 167.413 160.010  1.00  0.00     0.211 HD
ENDBRANCH   3  17
BRANCH   4  19
ATOM     19  C   UNL     1     154.955 168.893 160.619  1.00  0.00     0.191 C 
BRANCH  19  20
ATOM     20  O   UNL     1     155.204 167.569 160.232  1.00  0.00    -0.394 OA
ATOM     21  H   UNL     1     156.182 167.423 160.327  1.00  0.00     0.210 HD
ENDBRANCH  19  20
ENDBRANCH   4  19
TORSDOF 5
ENDMDL
MODEL 5
REMARK VINA RESULT:    -3.586      3.225      5.625
REMARK INTER + INTRA:          -4.675
REMARK INTER:                  -4.643
REMARK INTRA:                  -0.032
REMARK UNBOUND:                -0.356
REMARK SMILES O=c1ccn([C@@H]2O[C@H](CO)[C@@H](O)[C@@H]2O)c(=O)[nH]1
REMARK SMILES IDX 6 1 13 2 11 3 8 4 7 5 5 6 3 7 4 8 2 9 17 10 1 11 15 12 16 14
REMARK SMILES IDX 14 15 12 17 9 19 10 20
REMARK H PARENT 17 13 14 16 12 18 10 21
REMARK Flexibility Score: inf
ROOT
ATOM      1  C   UNL     1     158.858 161.108 170.139  1.00  0.00     0.255 C 
ATOM      2  C   UNL     1     158.446 159.669 169.793  1.00  0.00     0.196 C 
ATOM      3  C   UNL     1     156.947 159.697 169.940  1.00  0.00     0.179 C 
ATOM      4  C   UNL     1     156.627 161.162 169.680  1.00  0.00     0.178 C 
ATOM      5  O   UNL     1     157.709 161.935 170.145  1.00  0.00    -0.347 OA
ENDROOT
BRANCH   1   6
ATOM      6  N   UNL     1     159.548 161.188 171.446  1.00  0.00    -0.271 N 
ATOM      7  C   UNL     1     159.455 161.117 173.844  1.00  0.00     0.090 A 
ATOM      8  C   UNL     1     158.825 161.072 172.604  1.00  0.00     0.099 A 
ATOM      9  C   UNL     1     160.837 161.269 173.884  1.00  0.00     0.253 A 
ATOM     10  N   UNL     1     161.541 161.363 172.726  1.00  0.00    -0.274 N 
ATOM     11  O   UNL     1     161.434 161.314 174.993  1.00  0.00    -0.269 OA
ATOM     12  C   UNL     1     160.915 161.315 171.517  1.00  0.00     0.330 A 
ATOM     13  H   UNL     1     162.581 161.466 172.764  1.00  0.00     0.175 HD
ATOM     14  O   UNL     1     161.609 161.384 170.464  1.00  0.00    -0.248 OA
ENDBRANCH   1   6
BRANCH   2  15
ATOM     15  O   UNL     1     159.027 158.723 170.656  1.00  0.00    -0.386 OA
ATOM     16  H   UNL     1     158.278 158.217 171.064  1.00  0.00     0.211 HD
ENDBRANCH   2  15
BRANCH   3  17
ATOM     17  O   UNL     1     156.319 158.875 168.991  1.00  0.00    -0.387 OA
ATOM     18  H   UNL     1     155.721 158.267 169.498  1.00  0.00     0.211 HD
ENDBRANCH   3  17
BRANCH   4  19
ATOM     19  C   UNL     1     155.330 161.595 170.376  1.00  0.00     0.191 C 
BRANCH  19  20
ATOM     20  O   UNL     1     155.212 162.992 170.363  1.00  0.00    -0.394 OA
ATOM     21  H   UNL     1     155.652 163.323 171.190  1.00  0.00     0.210 HD
ENDBRANCH  19  20
ENDBRANCH   4  19
TORSDOF 5
ENDMDL
MODEL 6
REMARK VINA RESULT:    -3.586     12.103     13.660
REMARK INTER + INTRA:          -4.675
REMARK INTER:                  -4.646
REMARK INTRA:                  -0.029
REMARK UNBOUND:                -0.356
REMARK SMILES O=c1ccn([C@@H]2O[C@H](CO)[C@@H](O)[C@@H]2O)c(=O)[nH]1
REMARK SMILES IDX 6 1 13 2 11 3 8 4 7 5 5 6 3 7 4 8 2 9 17 10 1 11 15 12 16 14
REMARK SMILES IDX 14 15 12 17 9 19 10 20
REMARK H PARENT 17 13 14 16 12 18 10 21
REMARK Flexibility Score: inf
ROOT
ATOM      1  C   UNL     1     169.500 158.802 170.132  1.00  0.00     0.255 C 
ATOM      2  C   UNL     1     170.939 158.384 169.794  1.00  0.00     0.196 C 
ATOM      3  C   UNL     1     170.903 156.884 169.937  1.00  0.00     0.179 C 
ATOM      4  C   UNL     1     169.438 156.572 169.667  1.00  0.00     0.178 C 
ATOM      5  O   UNL     1     168.668 157.657 170.130  1.00  0.00    -0.347 OA
ENDROOT
BRANCH   1   6
ATOM      6  N   UNL     1     169.415 159.489 171.440  1.00  0.00    -0.271 N 
ATOM      7  C   UNL     1     169.477 159.392 173.837  1.00  0.00     0.090 A 
ATOM      8  C   UNL     1     169.527 158.764 172.596  1.00  0.00     0.099 A 
ATOM      9  C   UNL     1     169.325 160.773 173.880  1.00  0.00     0.253 A 
ATOM     10  N   UNL     1     169.236 161.479 172.723  1.00  0.00    -0.274 N 
ATOM     11  O   UNL     1     169.277 161.368 174.990  1.00  0.00    -0.269 OA
ATOM     12  C   UNL     1     169.288 160.856 171.512  1.00  0.00     0.330 A 
ATOM     13  H   UNL     1     169.132 162.519 172.763  1.00  0.00     0.175 HD
ATOM     14  O   UNL     1     169.222 161.552 170.461  1.00  0.00    -0.248 OA
ENDBRANCH   1   6
BRANCH   2  15
ATOM     15  O   UNL     1     171.882 158.958 170.663  1.00  0.00    -0.386 OA
ATOM     16  H   UNL     1     172.437 158.212 171.010  1.00  0.00     0.211 HD
ENDBRANCH   2  15
BRANCH   3  17
ATOM     17  O   UNL     1     171.727 156.255 168.991  1.00  0.00    -0.387 OA
ATOM     18  H   UNL     1     171.705 155.285 169.202  1.00  0.00     0.211 HD
ENDBRANCH   3  17
BRANCH   4  19
ATOM     19  C   UNL     1     168.994 155.276 170.358  1.00  0.00     0.191 C 
BRANCH  19  20
ATOM     20  O   UNL     1     167.596 155.178 170.361  1.00  0.00    -0.394 OA
ATOM     21  H   UNL     1     167.362 154.402 169.787  1.00  0.00     0.210 HD
ENDBRANCH  19  20
ENDBRANCH   4  19
TORSDOF 5
ENDMDL
MODEL 7
REMARK VINA RESULT:    -3.564     13.308     13.907
REMARK INTER + INTRA:          -4.649
REMARK INTER:                  -4.622
REMARK INTRA:                  -0.027
REMARK UNBOUND:                -0.356
REMARK SMILES O=c1ccn([C@@H]2O[C@H](CO)[C@@H](O)[C@@H]2O)c(=O)[nH]1
REMARK SMILES IDX 6 1 13 2 11 3 8 4 7 5 5 6 3 7 4 8 2 9 17 10 1 11 15 12 16 14
REMARK SMILES IDX 14 15 12 17 9 19 10 20
REMARK H PARENT 17 13 14 16 12 18 10 21
REMARK Flexibility Score: inf
ROOT
ATOM      1  C   UNL     1     158.799 169.475 160.524  1.00  0.00     0.255 C 
ATOM      2  C   UNL     1     158.366 170.913 160.846  1.00  0.00     0.196 C 
ATOM      3  C   UNL     1     156.864 170.853 160.729  1.00  0.00     0.179 C 
ATOM      4  C   UNL     1     156.579 169.388 161.028  1.00  0.00     0.178 C 
ATOM      5  O   UNL     1     157.667 168.626 160.560  1.00  0.00    -0.347 OA
ENDROOT
BRANCH   1   6
ATOM      6  N   UNL     1     159.465 169.378 159.206  1.00  0.00    -0.271 N 
ATOM      7  C   UNL     1     159.327 169.405 156.810  1.00  0.00     0.090 A 
ATOM      8  C   UNL     1     158.720 169.466 158.061  1.00  0.00     0.099 A 
ATOM      9  C   UNL     1     160.709 169.267 156.746  1.00  0.00     0.253 A 
ATOM     10  N   UNL     1     161.435 169.202 157.892  1.00  0.00    -0.274 N 
ATOM     11  O   UNL     1     161.286 169.209 155.627  1.00  0.00    -0.269 OA
ATOM     12  C   UNL     1     160.832 169.264 159.112  1.00  0.00     0.330 A 
ATOM     13  H   UNL     1     162.476 169.108 157.836  1.00  0.00     0.175 HD
ATOM     14  O   UNL     1     161.547 169.222 160.152  1.00  0.00    -0.248 OA
ENDBRANCH   1   6
BRANCH   2  15
ATOM     15  O   UNL     1     158.911 171.850 159.951  1.00  0.00    -0.386 OA
ATOM     16  H   UNL     1     158.304 171.877 159.167  1.00  0.00     0.211 HD
ENDBRANCH   2  15
BRANCH   3  17
ATOM     17  O   UNL     1     156.239 171.683 161.672  1.00  0.00    -0.387 OA
ATOM     18  H   UNL     1     156.706 171.530 162.534  1.00  0.00     0.211 HD
ENDBRANCH   3  17
BRANCH   4  19
ATOM     19  C   UNL     1     155.278 168.914 160.368  1.00  0.00     0.191 C 
BRANCH  19  20
ATOM     20  O   UNL     1     155.265 167.516 160.263  1.00  0.00    -0.394 OA
ATOM     21  H   UNL     1     155.173 167.161 161.186  1.00  0.00     0.210 HD
ENDBRANCH  19  20
ENDBRANCH   4  19
TORSDOF 5
ENDMDL
MODEL 8
REMARK VINA RESULT:    -3.540     12.471     13.949
REMARK INTER + INTRA:          -4.619
REMARK INTER:                  -4.258
REMARK INTRA:                  -0.362
REMARK UNBOUND:                -0.356
REMARK SMILES O=c1ccn([C@@H]2O[C@H](CO)[C@@H](O)[C@@H]2O)c(=O)[nH]1
REMARK SMILES IDX 6 1 13 2 11 3 8 4 7 5 5 6 3 7 4 8 2 9 17 10 1 11 15 12 16 14
REMARK SMILES IDX 14 15 12 17 9 19 10 20
REMARK H PARENT 17 13 14 16 12 18 10 21
REMARK Flexibility Score: inf
ROOT
ATOM      1  C   UNL     1     159.091 172.823 169.736  1.00  0.00     0.255 C 
ATOM      2  C   UNL     1     160.206 171.775 169.874  1.00  0.00     0.196 C 
ATOM      3  C   UNL     1     161.451 172.614 170.002  1.00  0.00     0.179 C 
ATOM      4  C   UNL     1     160.905 173.910 170.583  1.00  0.00     0.178 C 
ATOM      5  O   UNL     1     159.599 174.096 170.088  1.00  0.00    -0.347 OA
ENDROOT
BRANCH   1   6
ATOM      6  N   UNL     1     158.531 172.859 168.366  1.00  0.00    -0.271 N 
ATOM      7  C   UNL     1     158.514 173.809 166.162  1.00  0.00     0.090 A 
ATOM      8  C   UNL     1     159.005 173.774 167.464  1.00  0.00     0.099 A 
ATOM      9  C   UNL     1     157.540 172.888 165.792  1.00  0.00     0.253 A 
ATOM     10  N   UNL     1     157.095 171.975 166.694  1.00  0.00    -0.274 N 
ATOM     11  O   UNL     1     157.077 172.898 164.620  1.00  0.00    -0.269 OA
ATOM     12  C   UNL     1     157.585 171.947 167.966  1.00  0.00     0.330 A 
ATOM     13  H   UNL     1     156.370 171.279 166.405  1.00  0.00     0.175 HD
ATOM     14  O   UNL     1     157.159 171.068 168.766  1.00  0.00    -0.248 OA
ENDBRANCH   1   6
BRANCH   2  15
ATOM     15  O   UNL     1     160.278 170.919 168.761  1.00  0.00    -0.386 OA
ATOM     16  H   UNL     1     161.242 170.808 168.553  1.00  0.00     0.211 HD
ENDBRANCH   2  15
BRANCH   3  17
ATOM     17  O   UNL     1     162.380 172.030 170.876  1.00  0.00    -0.387 OA
ATOM     18  H   UNL     1     162.708 171.207 170.428  1.00  0.00     0.211 HD
ENDBRANCH   3  17
BRANCH   4  19
ATOM     19  C   UNL     1     161.784 175.114 170.220  1.00  0.00     0.191 C 
BRANCH  19  20
ATOM     20  O   UNL     1     163.138 174.748 170.221  1.00  0.00    -0.394 OA
ATOM     21  H   UNL     1     163.178 173.803 169.917  1.00  0.00     0.210 HD
ENDBRANCH  19  20
ENDBRANCH   4  19
TORSDOF 5
ENDMDL
MODEL 9
REMARK VINA RESULT:    -3.507     18.082     19.741
REMARK INTER + INTRA:          -4.581
REMARK INTER:                  -4.214
REMARK INTRA:                  -0.367
REMARK UNBOUND:                -0.356
REMARK SMILES O=c1ccn([C@@H]2O[C@H](CO)[C@@H](O)[C@@H]2O)c(=O)[nH]1
REMARK SMILES IDX 6 1 13 2 11 3 8 4 7 5 5 6 3 7 4 8 2 9 17 10 1 11 15 12 16 14
REMARK SMILES IDX 14 15 12 17 9 19 10 20
REMARK H PARENT 17 13 14 16 12 18 10 21
REMARK Flexibility Score: inf
ROOT
ATOM      1  C   UNL     1     172.625 171.216 169.873  1.00  0.00     0.255 C 
ATOM      2  C   UNL     1     171.679 170.007 169.797  1.00  0.00     0.196 C 
ATOM      3  C   UNL     1     172.622 168.832 169.828  1.00  0.00     0.179 C 
ATOM      4  C   UNL     1     173.825 169.406 170.562  1.00  0.00     0.178 C 
ATOM      5  O   UNL     1     173.917 170.776 170.248  1.00  0.00    -0.347 OA
ENDROOT
BRANCH   1   6
ATOM      6  N   UNL     1     172.690 171.950 168.589  1.00  0.00    -0.271 N 
ATOM      7  C   UNL     1     173.732 172.301 166.456  1.00  0.00     0.090 A 
ATOM      8  C   UNL     1     173.667 171.643 167.681  1.00  0.00     0.099 A 
ATOM      9  C   UNL     1     172.775 173.268 166.168  1.00  0.00     0.253 A 
ATOM     10  N   UNL     1     171.801 173.546 167.072  1.00  0.00    -0.274 N 
ATOM     11  O   UNL     1     172.810 173.880 165.066  1.00  0.00    -0.269 OA
ATOM     12  C   UNL     1     171.745 172.895 168.268  1.00  0.00     0.330 A 
ATOM     13  H   UNL     1     171.079 174.267 166.844  1.00  0.00     0.175 HD
ATOM     14  O   UNL     1     170.810 173.169 169.071  1.00  0.00    -0.248 OA
ENDBRANCH   1   6
BRANCH   2  15
ATOM     15  O   UNL     1     170.901 170.008 168.627  1.00  0.00    -0.386 OA
ATOM     16  H   UNL     1     169.980 169.760 168.900  1.00  0.00     0.211 HD
ENDBRANCH   2  15
BRANCH   3  17
ATOM     17  O   UNL     1     172.077 167.751 170.537  1.00  0.00    -0.387 OA
ATOM     18  H   UNL     1     172.445 166.928 170.120  1.00  0.00     0.211 HD
ENDBRANCH   3  17
BRANCH   4  19
ATOM     19  C   UNL     1     175.125 168.687 170.179  1.00  0.00     0.191 C 
BRANCH  19  20
ATOM     20  O   UNL     1     174.944 167.298 170.218  1.00  0.00    -0.394 OA
ATOM     21  H   UNL     1     174.781 167.058 171.168  1.00  0.00     0.210 HD
ENDBRANCH  19  20
ENDBRANCH   4  19
TORSDOF 5
ENDMDL
