MODEL 1
REMARK VINA RESULT:    -4.542      0.000      0.000
REMARK INTER + INTRA:         -11.962
REMARK INTER:                  -9.852
REMARK INTRA:                  -2.110
REMARK UNBOUND:                -2.110
REMARK SMILES CCCCCCCCCCCCCCCCCCCCCC(=O)[O-]
REMARK SMILES IDX 12 1 11 2 10 3 9 4 8 5 7 6 6 7 5 8 4 9 3 10 2 11 1 12 13 13
REMARK SMILES IDX 14 14 15 15 16 16 17 17 18 18 19 19 20 20 21 21 22 22 23 23
REMARK SMILES IDX 24 24
REMARK H PARENT
REMARK Flexibility Score: inf
ROOT
ATOM      1  C   UNL     1      13.095  22.351 -22.153  1.00  0.00     0.000 C 
ENDROOT
BRANCH   1   2
ATOM      2  C   UNL     1      12.274  22.788 -23.379  1.00  0.00     0.000 C 
BRANCH   2   3
ATOM      3  C   UNL     1      13.101  22.806 -24.677  1.00  0.00     0.000 C 
BRANCH   3   4
ATOM      4  C   UNL     1      12.281  22.633 -25.968  1.00  0.00    -0.000 C 
BRANCH   4   5
ATOM      5  C   UNL     1      13.153  22.324 -27.194  1.00  0.00    -0.000 C 
BRANCH   5   6
ATOM      6  C   UNL     1      12.774  20.967 -27.807  1.00  0.00    -0.000 C 
BRANCH   6   7
ATOM      7  C   UNL     1      12.100  20.020 -26.798  1.00  0.00    -0.000 C 
BRANCH   7   8
ATOM      8  C   UNL     1      12.735  18.617 -26.692  1.00  0.00    -0.000 C 
BRANCH   8   9
ATOM      9  C   UNL     1      12.878  18.073 -25.260  1.00  0.00    -0.000 C 
BRANCH   9  10
ATOM     10  C   UNL     1      12.886  19.187 -24.199  1.00  0.00    -0.000 C 
BRANCH  10  11
ATOM     11  C   UNL     1      13.662  18.788 -22.935  1.00  0.00    -0.003 C 
ATOM     12  C   UNL     1      12.751  18.586 -21.724  1.00  0.00     0.004 C 
ENDBRANCH  10  11
ENDBRANCH   9  10
ENDBRANCH   8   9
ENDBRANCH   7   8
ENDBRANCH   6   7
ENDBRANCH   5   6
ENDBRANCH   4   5
ENDBRANCH   3   4
ENDBRANCH   2   3
ENDBRANCH   1   2
BRANCH   1  13
ATOM     13  C   UNL     1      13.017  23.364 -21.001  1.00  0.00     0.000 C 
BRANCH  13  14
ATOM     14  C   UNL     1      12.039  22.924 -19.897  1.00  0.00     0.000 C 
BRANCH  14  15
ATOM     15  C   UNL     1      12.296  21.484 -19.420  1.00  0.00     0.000 C 
BRANCH  15  16
ATOM     16  C   UNL     1      13.347  21.413 -18.300  1.00  0.00     0.000 C 
BRANCH  16  17
ATOM     17  C   UNL     1      14.709  20.909 -18.803  1.00  0.00     0.000 C 
BRANCH  17  18
ATOM     18  C   UNL     1      15.891  21.508 -18.021  1.00  0.00     0.000 C 
BRANCH  18  19
ATOM     19  C   UNL     1      17.079  20.528 -17.921  1.00  0.00     0.000 C 
BRANCH  19  20
ATOM     20  C   UNL     1      16.856  19.384 -16.915  1.00  0.00     0.006 C 
BRANCH  20  21
ATOM     21  C   UNL     1      16.716  18.013 -17.587  1.00  0.00     0.053 C 
BRANCH  21  22
ATOM     22  C   UNL     1      16.868  16.918 -16.580  1.00  0.00     0.041 C 
ATOM     23  O   UNL     1      17.867  16.896 -15.815  1.00  0.00    -0.550 OA
ATOM     24  O   UNL     1      15.890  15.937 -16.465  1.00  0.00    -0.550 OA
ENDBRANCH  21  22
ENDBRANCH  20  21
ENDBRANCH  19  20
ENDBRANCH  18  19
ENDBRANCH  17  18
ENDBRANCH  16  17
ENDBRANCH  15  16
ENDBRANCH  14  15
ENDBRANCH  13  14
ENDBRANCH   1  13
TORSDOF 20
ENDMDL
MODEL 2
REMARK VINA RESULT:    -4.435      1.521      2.521
REMARK INTER + INTRA:         -11.731
REMARK INTER:                  -9.052
REMARK INTRA:                  -2.679
REMARK UNBOUND:                -2.110
REMARK SMILES CCCCCCCCCCCCCCCCCCCCCC(=O)[O-]
REMARK SMILES IDX 12 1 11 2 10 3 9 4 8 5 7 6 6 7 5 8 4 9 3 10 2 11 1 12 13 13
REMARK SMILES IDX 14 14 15 15 16 16 17 17 18 18 19 19 20 20 21 21 22 22 23 23
REMARK SMILES IDX 24 24
REMARK H PARENT
REMARK Flexibility Score: inf
ROOT
ATOM      1  C   UNL     1      13.628  22.272 -23.608  1.00  0.00     0.000 C 
ENDROOT
BRANCH   1   2
ATOM      2  C   UNL     1      13.813  23.010 -24.945  1.00  0.00     0.000 C 
BRANCH   2   3
ATOM      3  C   UNL     1      13.175  22.267 -26.131  1.00  0.00     0.000 C 
BRANCH   3   4
ATOM      4  C   UNL     1      12.320  21.046 -25.745  1.00  0.00    -0.000 C 
BRANCH   4   5
ATOM      5  C   UNL     1      12.666  19.790 -26.557  1.00  0.00    -0.000 C 
BRANCH   5   6
ATOM      6  C   UNL     1      12.743  18.555 -25.647  1.00  0.00    -0.000 C 
BRANCH   6   7
ATOM      7  C   UNL     1      12.299  18.845 -24.202  1.00  0.00    -0.000 C 
BRANCH   7   8
ATOM      8  C   UNL     1      13.428  18.806 -23.151  1.00  0.00    -0.000 C 
BRANCH   8   9
ATOM      9  C   UNL     1      12.978  18.438 -21.725  1.00  0.00    -0.000 C 
BRANCH   9  10
ATOM     10  C   UNL     1      14.144  18.413 -20.722  1.00  0.00    -0.000 C 
BRANCH  10  11
ATOM     11  C   UNL     1      15.466  17.974 -21.369  1.00  0.00    -0.003 C 
ATOM     12  C   UNL     1      16.055  16.725 -20.713  1.00  0.00     0.004 C 
ENDBRANCH  10  11
ENDBRANCH   9  10
ENDBRANCH   8   9
ENDBRANCH   7   8
ENDBRANCH   6   7
ENDBRANCH   5   6
ENDBRANCH   4   5
ENDBRANCH   3   4
ENDBRANCH   2   3
ENDBRANCH   1   2
BRANCH   1  13
ATOM     13  C   UNL     1      12.661  23.002 -22.662  1.00  0.00     0.000 C 
BRANCH  13  14
ATOM     14  C   UNL     1      12.090  22.073 -21.575  1.00  0.00     0.000 C 
BRANCH  14  15
ATOM     15  C   UNL     1      12.275  22.639 -20.157  1.00  0.00     0.000 C 
BRANCH  15  16
ATOM     16  C   UNL     1      12.944  21.634 -19.204  1.00  0.00     0.000 C 
BRANCH  16  17
ATOM     17  C   UNL     1      14.478  21.666 -19.299  1.00  0.00     0.000 C 
BRANCH  17  18
ATOM     18  C   UNL     1      15.163  21.132 -18.028  1.00  0.00     0.000 C 
BRANCH  18  19
ATOM     19  C   UNL     1      16.459  20.358 -18.347  1.00  0.00     0.000 C 
BRANCH  19  20
ATOM     20  C   UNL     1      16.483  18.929 -17.776  1.00  0.00     0.006 C 
BRANCH  20  21
ATOM     21  C   UNL     1      17.080  18.857 -16.365  1.00  0.00     0.053 C 
BRANCH  21  22
ATOM     22  C   UNL     1      18.549  19.135 -16.403  1.00  0.00     0.041 C 
ATOM     23  O   UNL     1      19.009  20.180 -15.872  1.00  0.00    -0.550 OA
ATOM     24  O   UNL     1      19.416  18.225 -16.995  1.00  0.00    -0.550 OA
ENDBRANCH  21  22
ENDBRANCH  20  21
ENDBRANCH  19  20
ENDBRANCH  18  19
ENDBRANCH  17  18
ENDBRANCH  16  17
ENDBRANCH  15  16
ENDBRANCH  14  15
ENDBRANCH  13  14
ENDBRANCH   1  13
TORSDOF 20
ENDMDL
MODEL 3
REMARK VINA RESULT:    -4.411      2.223      7.470
REMARK INTER + INTRA:         -11.677
REMARK INTER:                  -9.416
REMARK INTRA:                  -2.262
REMARK UNBOUND:                -2.110
REMARK SMILES CCCCCCCCCCCCCCCCCCCCCC(=O)[O-]
REMARK SMILES IDX 12 1 11 2 10 3 9 4 8 5 7 6 6 7 5 8 4 9 3 10 2 11 1 12 13 13
REMARK SMILES IDX 14 14 15 15 16 16 17 17 18 18 19 19 20 20 21 21 22 22 23 23
REMARK SMILES IDX 24 24
REMARK H PARENT
REMARK Flexibility Score: inf
ROOT
ATOM      1  C   UNL     1      13.324  21.886 -22.312  1.00  0.00     0.000 C 
ENDROOT
BRANCH   1   2
ATOM      2  C   UNL     1      13.034  23.208 -21.580  1.00  0.00     0.000 C 
BRANCH   2   3
ATOM      3  C   UNL     1      12.241  23.007 -20.276  1.00  0.00     0.000 C 
BRANCH   3   4
ATOM      4  C   UNL     1      12.229  21.563 -19.743  1.00  0.00    -0.000 C 
BRANCH   4   5
ATOM      5  C   UNL     1      13.067  21.388 -18.468  1.00  0.00    -0.000 C 
BRANCH   5   6
ATOM      6  C   UNL     1      14.526  21.054 -18.814  1.00  0.00    -0.000 C 
BRANCH   6   7
ATOM      7  C   UNL     1      14.688  19.663 -19.454  1.00  0.00    -0.000 C 
BRANCH   7   8
ATOM      8  C   UNL     1      16.050  18.983 -19.204  1.00  0.00    -0.000 C 
BRANCH   8   9
ATOM      9  C   UNL     1      16.203  18.319 -17.824  1.00  0.00    -0.000 C 
BRANCH   9  10
ATOM     10  C   UNL     1      16.723  19.291 -16.751  1.00  0.00    -0.000 C 
BRANCH  10  11
ATOM     11  C   UNL     1      18.153  19.774 -17.040  1.00  0.00    -0.003 C 
ATOM     12  C   UNL     1      18.209  21.256 -17.410  1.00  0.00     0.004 C 
ENDBRANCH  10  11
ENDBRANCH   9  10
ENDBRANCH   8   9
ENDBRANCH   7   8
ENDBRANCH   6   7
ENDBRANCH   5   6
ENDBRANCH   4   5
ENDBRANCH   3   4
ENDBRANCH   2   3
ENDBRANCH   1   2
BRANCH   1  13
ATOM     13  C   UNL     1      13.394  22.062 -23.837  1.00  0.00     0.000 C 
BRANCH  13  14
ATOM     14  C   UNL     1      12.321  23.031 -24.366  1.00  0.00     0.000 C 
BRANCH  14  15
ATOM     15  C   UNL     1      12.269  23.074 -25.903  1.00  0.00     0.000 C 
BRANCH  15  16
ATOM     16  C   UNL     1      13.090  21.947 -26.552  1.00  0.00     0.000 C 
BRANCH  16  17
ATOM     17  C   UNL     1      12.303  21.200 -27.641  1.00  0.00     0.000 C 
BRANCH  17  18
ATOM     18  C   UNL     1      12.228  19.684 -27.385  1.00  0.00     0.000 C 
BRANCH  18  19
ATOM     19  C   UNL     1      12.005  19.355 -25.894  1.00  0.00     0.000 C 
BRANCH  19  20
ATOM     20  C   UNL     1      13.006  18.332 -25.329  1.00  0.00     0.006 C 
BRANCH  20  21
ATOM     21  C   UNL     1      12.825  18.081 -23.827  1.00  0.00     0.053 C 
BRANCH  21  22
ATOM     22  C   UNL     1      13.755  17.007 -23.359  1.00  0.00     0.041 C 
ATOM     23  O   UNL     1      14.096  16.081 -24.141  1.00  0.00    -0.550 OA
ATOM     24  O   UNL     1      14.270  17.045 -22.070  1.00  0.00    -0.550 OA
ENDBRANCH  21  22
ENDBRANCH  20  21
ENDBRANCH  19  20
ENDBRANCH  18  19
ENDBRANCH  17  18
ENDBRANCH  16  17
ENDBRANCH  15  16
ENDBRANCH  14  15
ENDBRANCH  13  14
ENDBRANCH   1  13
TORSDOF 20
ENDMDL
MODEL 4
REMARK VINA RESULT:    -4.408      3.084      8.830
REMARK INTER + INTRA:         -11.672
REMARK INTER:                 -10.187
REMARK INTRA:                  -1.485
REMARK UNBOUND:                -2.110
REMARK SMILES CCCCCCCCCCCCCCCCCCCCCC(=O)[O-]
REMARK SMILES IDX 12 1 11 2 10 3 9 4 8 5 7 6 6 7 5 8 4 9 3 10 2 11 1 12 13 13
REMARK SMILES IDX 14 14 15 15 16 16 17 17 18 18 19 19 20 20 21 21 22 22 23 23
REMARK SMILES IDX 24 24
REMARK H PARENT
REMARK Flexibility Score: inf
ROOT
ATOM      1  C   UNL     1      12.181  22.531 -20.113  1.00  0.00     0.000 C 
ENDROOT
BRANCH   1   2
ATOM      2  C   UNL     1      12.655  21.774 -18.860  1.00  0.00     0.000 C 
BRANCH   2   3
ATOM      3  C   UNL     1      13.970  21.008 -19.087  1.00  0.00     0.000 C 
BRANCH   3   4
ATOM      4  C   UNL     1      14.967  21.074 -17.916  1.00  0.00    -0.000 C 
BRANCH   4   5
ATOM      5  C   UNL     1      16.361  21.558 -18.342  1.00  0.00    -0.000 C 
BRANCH   5   6
ATOM      6  C   UNL     1      17.459  20.825 -17.557  1.00  0.00    -0.000 C 
BRANCH   6   7
ATOM      7  C   UNL     1      17.057  19.392 -17.160  1.00  0.00    -0.000 C 
BRANCH   7   8
ATOM      8  C   UNL     1      18.021  18.691 -16.179  1.00  0.00    -0.000 C 
BRANCH   8   9
ATOM      9  C   UNL     1      19.343  18.205 -16.801  1.00  0.00    -0.000 C 
BRANCH   9  10
ATOM     10  C   UNL     1      20.574  18.618 -15.977  1.00  0.00    -0.000 C 
BRANCH  10  11
ATOM     11  C   UNL     1      20.193  19.262 -14.635  1.00  0.00    -0.003 C 
ATOM     12  C   UNL     1      21.112  18.828 -13.493  1.00  0.00     0.004 C 
ENDBRANCH  10  11
ENDBRANCH   9  10
ENDBRANCH   8   9
ENDBRANCH   7   8
ENDBRANCH   6   7
ENDBRANCH   5   6
ENDBRANCH   4   5
ENDBRANCH   3   4
ENDBRANCH   2   3
ENDBRANCH   1   2
BRANCH   1  13
ATOM     13  C   UNL     1      13.349  23.016 -20.985  1.00  0.00     0.000 C 
BRANCH  13  14
ATOM     14  C   UNL     1      13.407  22.296 -22.345  1.00  0.00     0.000 C 
BRANCH  14  15
ATOM     15  C   UNL     1      12.245  22.690 -23.272  1.00  0.00     0.000 C 
BRANCH  15  16
ATOM     16  C   UNL     1      12.708  23.527 -24.475  1.00  0.00     0.000 C 
BRANCH  16  17
ATOM     17  C   UNL     1      13.557  22.714 -25.465  1.00  0.00     0.000 C 
BRANCH  17  18
ATOM     18  C   UNL     1      12.899  22.591 -26.851  1.00  0.00     0.000 C 
BRANCH  18  19
ATOM     19  C   UNL     1      12.697  21.120 -27.272  1.00  0.00     0.000 C 
BRANCH  19  20
ATOM     20  C   UNL     1      12.038  20.250 -26.187  1.00  0.00     0.006 C 
BRANCH  20  21
ATOM     21  C   UNL     1      12.479  18.782 -26.244  1.00  0.00     0.053 C 
BRANCH  21  22
ATOM     22  C   UNL     1      12.989  18.335 -24.911  1.00  0.00     0.041 C 
ATOM     23  O   UNL     1      12.911  19.101 -23.915  1.00  0.00    -0.550 OA
ATOM     24  O   UNL     1      13.521  17.061 -24.760  1.00  0.00    -0.550 OA
ENDBRANCH  21  22
ENDBRANCH  20  21
ENDBRANCH  19  20
ENDBRANCH  18  19
ENDBRANCH  17  18
ENDBRANCH  16  17
ENDBRANCH  15  16
ENDBRANCH  14  15
ENDBRANCH  13  14
ENDBRANCH   1  13
TORSDOF 20
ENDMDL
MODEL 5
REMARK VINA RESULT:    -4.331      2.527      4.228
REMARK INTER + INTRA:         -11.504
REMARK INTER:                  -8.307
REMARK INTRA:                  -3.197
REMARK UNBOUND:                -2.110
REMARK SMILES CCCCCCCCCCCCCCCCCCCCCC(=O)[O-]
REMARK SMILES IDX 12 1 11 2 10 3 9 4 8 5 7 6 6 7 5 8 4 9 3 10 2 11 1 12 13 13
REMARK SMILES IDX 14 14 15 15 16 16 17 17 18 18 19 19 20 20 21 21 22 22 23 23
REMARK SMILES IDX 24 24
REMARK H PARENT
REMARK Flexibility Score: inf
ROOT
ATOM      1  C   UNL     1      12.850  21.713 -18.636  1.00  0.00     0.000 C 
ENDROOT
BRANCH   1   2
ATOM      2  C   UNL     1      12.029  22.488 -19.681  1.00  0.00     0.000 C 
BRANCH   2   3
ATOM      3  C   UNL     1      12.909  23.276 -20.667  1.00  0.00     0.000 C 
BRANCH   3   4
ATOM      4  C   UNL     1      12.637  22.981 -22.154  1.00  0.00    -0.000 C 
BRANCH   4   5
ATOM      5  C   UNL     1      12.310  21.505 -22.422  1.00  0.00    -0.000 C 
BRANCH   5   6
ATOM      6  C   UNL     1      13.423  20.839 -23.245  1.00  0.00    -0.000 C 
BRANCH   6   7
ATOM      7  C   UNL     1      13.833  19.460 -22.695  1.00  0.00    -0.000 C 
BRANCH   7   8
ATOM      8  C   UNL     1      13.109  19.031 -21.402  1.00  0.00    -0.000 C 
BRANCH   8   9
ATOM      9  C   UNL     1      13.961  18.201 -20.424  1.00  0.00    -0.000 C 
BRANCH   9  10
ATOM     10  C   UNL     1      15.471  18.433 -20.606  1.00  0.00    -0.000 C 
BRANCH  10  11
ATOM     11  C   UNL     1      16.211  17.161 -21.046  1.00  0.00    -0.003 C 
ATOM     12  C   UNL     1      15.711  15.910 -20.323  1.00  0.00     0.004 C 
ENDBRANCH  10  11
ENDBRANCH   9  10
ENDBRANCH   8   9
ENDBRANCH   7   8
ENDBRANCH   6   7
ENDBRANCH   5   6
ENDBRANCH   4   5
ENDBRANCH   3   4
ENDBRANCH   2   3
ENDBRANCH   1   2
BRANCH   1  13
ATOM     13  C   UNL     1      14.336  21.611 -19.013  1.00  0.00     0.000 C 
BRANCH  13  14
ATOM     14  C   UNL     1      15.191  21.020 -17.877  1.00  0.00     0.000 C 
BRANCH  14  15
ATOM     15  C   UNL     1      16.696  21.063 -18.186  1.00  0.00     0.000 C 
BRANCH  15  16
ATOM     16  C   UNL     1      17.503  20.071 -17.332  1.00  0.00     0.000 C 
BRANCH  16  17
ATOM     17  C   UNL     1      16.767  18.737 -17.129  1.00  0.00     0.000 C 
BRANCH  17  18
ATOM     18  C   UNL     1      17.592  17.526 -17.599  1.00  0.00     0.000 C 
BRANCH  18  19
ATOM     19  C   UNL     1      17.768  16.472 -16.485  1.00  0.00     0.000 C 
BRANCH  19  20
ATOM     20  C   UNL     1      18.011  17.080 -15.092  1.00  0.00     0.006 C 
BRANCH  20  21
ATOM     21  C   UNL     1      19.499  17.233 -14.754  1.00  0.00     0.053 C 
BRANCH  21  22
ATOM     22  C   UNL     1      19.928  18.657 -14.907  1.00  0.00     0.041 C 
ATOM     23  O   UNL     1      20.902  18.949 -15.649  1.00  0.00    -0.550 OA
ATOM     24  O   UNL     1      19.232  19.668 -14.255  1.00  0.00    -0.550 OA
ENDBRANCH  21  22
ENDBRANCH  20  21
ENDBRANCH  19  20
ENDBRANCH  18  19
ENDBRANCH  17  18
ENDBRANCH  16  17
ENDBRANCH  15  16
ENDBRANCH  14  15
ENDBRANCH  13  14
ENDBRANCH   1  13
TORSDOF 20
ENDMDL
MODEL 6
REMARK VINA RESULT:    -4.271      2.861      7.971
REMARK INTER + INTRA:         -11.374
REMARK INTER:                  -9.329
REMARK INTRA:                  -2.045
REMARK UNBOUND:                -2.110
REMARK SMILES CCCCCCCCCCCCCCCCCCCCCC(=O)[O-]
REMARK SMILES IDX 12 1 11 2 10 3 9 4 8 5 7 6 6 7 5 8 4 9 3 10 2 11 1 12 13 13
REMARK SMILES IDX 14 14 15 15 16 16 17 17 18 18 19 19 20 20 21 21 22 22 23 23
REMARK SMILES IDX 24 24
REMARK H PARENT
REMARK Flexibility Score: inf
ROOT
ATOM      1  C   UNL     1      12.633  22.369 -19.578  1.00  0.00     0.000 C 
ENDROOT
BRANCH   1   2
ATOM      2  C   UNL     1      13.726  21.297 -19.733  1.00  0.00     0.000 C 
BRANCH   2   3
ATOM      3  C   UNL     1      15.043  21.683 -19.036  1.00  0.00     0.000 C 
BRANCH   3   4
ATOM      4  C   UNL     1      15.403  20.823 -17.811  1.00  0.00    -0.000 C 
BRANCH   4   5
ATOM      5  C   UNL     1      16.812  20.219 -17.897  1.00  0.00    -0.000 C 
BRANCH   5   6
ATOM      6  C   UNL     1      17.081  19.288 -16.704  1.00  0.00    -0.000 C 
BRANCH   6   7
ATOM      7  C   UNL     1      17.504  17.871 -17.133  1.00  0.00    -0.000 C 
BRANCH   7   8
ATOM      8  C   UNL     1      16.355  16.846 -17.229  1.00  0.00    -0.000 C 
BRANCH   8   9
ATOM      9  C   UNL     1      15.536  16.907 -18.531  1.00  0.00    -0.000 C 
BRANCH   9  10
ATOM     10  C   UNL     1      16.420  16.969 -19.788  1.00  0.00    -0.000 C 
BRANCH  10  11
ATOM     11  C   UNL     1      16.031  18.124 -20.723  1.00  0.00    -0.003 C 
ATOM     12  C   UNL     1      14.768  17.826 -21.531  1.00  0.00     0.004 C 
ENDBRANCH  10  11
ENDBRANCH   9  10
ENDBRANCH   8   9
ENDBRANCH   7   8
ENDBRANCH   6   7
ENDBRANCH   5   6
ENDBRANCH   4   5
ENDBRANCH   3   4
ENDBRANCH   2   3
ENDBRANCH   1   2
BRANCH   1  13
ATOM     13  C   UNL     1      12.460  23.220 -20.845  1.00  0.00     0.000 C 
BRANCH  13  14
ATOM     14  C   UNL     1      13.182  22.615 -22.063  1.00  0.00     0.000 C 
BRANCH  14  15
ATOM     15  C   UNL     1      12.269  22.502 -23.295  1.00  0.00     0.000 C 
BRANCH  15  16
ATOM     16  C   UNL     1      12.750  23.372 -24.468  1.00  0.00     0.000 C 
BRANCH  16  17
ATOM     17  C   UNL     1      13.493  22.556 -25.538  1.00  0.00     0.000 C 
BRANCH  17  18
ATOM     18  C   UNL     1      12.769  22.558 -26.896  1.00  0.00     0.000 C 
BRANCH  18  19
ATOM     19  C   UNL     1      12.646  21.140 -27.493  1.00  0.00     0.000 C 
BRANCH  19  20
ATOM     20  C   UNL     1      11.925  20.141 -26.570  1.00  0.00     0.006 C 
BRANCH  20  21
ATOM     21  C   UNL     1      12.635  18.784 -26.485  1.00  0.00     0.053 C 
BRANCH  21  22
ATOM     22  C   UNL     1      12.937  18.439 -25.061  1.00  0.00     0.041 C 
ATOM     23  O   UNL     1      13.102  19.352 -24.210  1.00  0.00    -0.550 OA
ATOM     24  O   UNL     1      13.004  17.108 -24.666  1.00  0.00    -0.550 OA
ENDBRANCH  21  22
ENDBRANCH  20  21
ENDBRANCH  19  20
ENDBRANCH  18  19
ENDBRANCH  17  18
ENDBRANCH  16  17
ENDBRANCH  15  16
ENDBRANCH  14  15
ENDBRANCH  13  14
ENDBRANCH   1  13
TORSDOF 20
ENDMDL
MODEL 7
REMARK VINA RESULT:    -4.255      2.428      7.363
REMARK INTER + INTRA:         -11.339
REMARK INTER:                  -9.067
REMARK INTRA:                  -2.273
REMARK UNBOUND:                -2.110
REMARK SMILES CCCCCCCCCCCCCCCCCCCCCC(=O)[O-]
REMARK SMILES IDX 12 1 11 2 10 3 9 4 8 5 7 6 6 7 5 8 4 9 3 10 2 11 1 12 13 13
REMARK SMILES IDX 14 14 15 15 16 16 17 17 18 18 19 19 20 20 21 21 22 22 23 23
REMARK SMILES IDX 24 24
REMARK H PARENT
REMARK Flexibility Score: inf
ROOT
ATOM      1  C   UNL     1      12.931  22.236 -22.198  1.00  0.00     0.000 C 
ENDROOT
BRANCH   1   2
ATOM      2  C   UNL     1      12.626  23.380 -21.216  1.00  0.00     0.000 C 
BRANCH   2   3
ATOM      3  C   UNL     1      12.418  22.888 -19.773  1.00  0.00     0.000 C 
BRANCH   3   4
ATOM      4  C   UNL     1      12.736  21.399 -19.544  1.00  0.00    -0.000 C 
BRANCH   4   5
ATOM      5  C   UNL     1      13.803  21.173 -18.464  1.00  0.00    -0.000 C 
BRANCH   5   6
ATOM      6  C   UNL     1      15.171  21.698 -18.928  1.00  0.00    -0.000 C 
BRANCH   6   7
ATOM      7  C   UNL     1      16.310  21.350 -17.952  1.00  0.00    -0.000 C 
BRANCH   7   8
ATOM      8  C   UNL     1      16.213  19.952 -17.307  1.00  0.00    -0.000 C 
BRANCH   8   9
ATOM      9  C   UNL     1      16.775  18.800 -18.160  1.00  0.00    -0.000 C 
BRANCH   9  10
ATOM     10  C   UNL     1      15.673  17.975 -18.845  1.00  0.00    -0.000 C 
BRANCH  10  11
ATOM     11  C   UNL     1      15.462  18.382 -20.311  1.00  0.00    -0.003 C 
ATOM     12  C   UNL     1      16.267  17.519 -21.283  1.00  0.00     0.004 C 
ENDBRANCH  10  11
ENDBRANCH   9  10
ENDBRANCH   8   9
ENDBRANCH   7   8
ENDBRANCH   6   7
ENDBRANCH   5   6
ENDBRANCH   4   5
ENDBRANCH   3   4
ENDBRANCH   2   3
ENDBRANCH   1   2
BRANCH   1  13
ATOM     13  C   UNL     1      12.230  22.421 -23.553  1.00  0.00     0.000 C 
BRANCH  13  14
ATOM     14  C   UNL     1      12.998  23.373 -24.487  1.00  0.00     0.000 C 
BRANCH  14  15
ATOM     15  C   UNL     1      13.549  22.661 -25.734  1.00  0.00     0.000 C 
BRANCH  15  16
ATOM     16  C   UNL     1      12.505  22.548 -26.858  1.00  0.00     0.000 C 
BRANCH  16  17
ATOM     17  C   UNL     1      12.267  21.093 -27.294  1.00  0.00     0.000 C 
BRANCH  17  18
ATOM     18  C   UNL     1      12.786  20.073 -26.265  1.00  0.00     0.000 C 
BRANCH  18  19
ATOM     19  C   UNL     1      12.225  18.656 -26.516  1.00  0.00     0.000 C 
BRANCH  19  20
ATOM     20  C   UNL     1      12.059  17.821 -25.234  1.00  0.00     0.006 C 
BRANCH  20  21
ATOM     21  C   UNL     1      13.041  18.220 -24.126  1.00  0.00     0.053 C 
BRANCH  21  22
ATOM     22  C   UNL     1      12.519  17.803 -22.788  1.00  0.00     0.041 C 
ATOM     23  O   UNL     1      12.293  18.667 -21.900  1.00  0.00    -0.550 OA
ATOM     24  O   UNL     1      12.253  16.464 -22.530  1.00  0.00    -0.550 OA
ENDBRANCH  21  22
ENDBRANCH  20  21
ENDBRANCH  19  20
ENDBRANCH  18  19
ENDBRANCH  17  18
ENDBRANCH  16  17
ENDBRANCH  15  16
ENDBRANCH  14  15
ENDBRANCH  13  14
ENDBRANCH   1  13
TORSDOF 20
ENDMDL
MODEL 8
REMARK VINA RESULT:    -4.254      2.297      3.420
REMARK INTER + INTRA:         -11.338
REMARK INTER:                  -8.626
REMARK INTRA:                  -2.712
REMARK UNBOUND:                -2.110
REMARK SMILES CCCCCCCCCCCCCCCCCCCCCC(=O)[O-]
REMARK SMILES IDX 12 1 11 2 10 3 9 4 8 5 7 6 6 7 5 8 4 9 3 10 2 11 1 12 13 13
REMARK SMILES IDX 14 14 15 15 16 16 17 17 18 18 19 19 20 20 21 21 22 22 23 23
REMARK SMILES IDX 24 24
REMARK H PARENT
REMARK Flexibility Score: inf
ROOT
ATOM      1  C   UNL     1      12.048  23.023 -20.124  1.00  0.00     0.000 C 
ENDROOT
BRANCH   1   2
ATOM      2  C   UNL     1      13.032  23.264 -21.282  1.00  0.00     0.000 C 
BRANCH   2   3
ATOM      3  C   UNL     1      12.540  22.673 -22.615  1.00  0.00     0.000 C 
BRANCH   3   4
ATOM      4  C   UNL     1      13.608  21.904 -23.415  1.00  0.00    -0.000 C 
BRANCH   4   5
ATOM      5  C   UNL     1      13.042  20.678 -24.146  1.00  0.00    -0.000 C 
BRANCH   5   6
ATOM      6  C   UNL     1      12.103  19.880 -23.228  1.00  0.00    -0.000 C 
BRANCH   6   7
ATOM      7  C   UNL     1      12.607  18.451 -22.950  1.00  0.00    -0.000 C 
BRANCH   7   8
ATOM      8  C   UNL     1      14.041  18.362 -22.387  1.00  0.00    -0.000 C 
BRANCH   8   9
ATOM      9  C   UNL     1      14.374  17.048 -21.658  1.00  0.00    -0.000 C 
BRANCH   9  10
ATOM     10  C   UNL     1      13.890  17.039 -20.198  1.00  0.00    -0.000 C 
BRANCH  10  11
ATOM     11  C   UNL     1      15.033  16.793 -19.202  1.00  0.00    -0.003 C 
ATOM     12  C   UNL     1      16.388  17.261 -19.735  1.00  0.00     0.004 C 
ENDBRANCH  10  11
ENDBRANCH   9  10
ENDBRANCH   8   9
ENDBRANCH   7   8
ENDBRANCH   6   7
ENDBRANCH   5   6
ENDBRANCH   4   5
ENDBRANCH   3   4
ENDBRANCH   2   3
ENDBRANCH   1   2
BRANCH   1  13
ATOM     13  C   UNL     1      12.603  22.049 -19.073  1.00  0.00     0.000 C 
BRANCH  13  14
ATOM     14  C   UNL     1      13.060  20.715 -19.693  1.00  0.00     0.000 C 
BRANCH  14  15
ATOM     15  C   UNL     1      14.557  20.442 -19.470  1.00  0.00     0.000 C 
BRANCH  15  16
ATOM     16  C   UNL     1      15.058  20.969 -18.115  1.00  0.00     0.000 C 
BRANCH  16  17
ATOM     17  C   UNL     1      16.415  21.682 -18.228  1.00  0.00     0.000 C 
BRANCH  17  18
ATOM     18  C   UNL     1      17.554  20.902 -17.549  1.00  0.00     0.000 C 
BRANCH  18  19
ATOM     19  C   UNL     1      17.063  19.577 -16.927  1.00  0.00     0.000 C 
BRANCH  19  20
ATOM     20  C   UNL     1      18.090  18.915 -15.991  1.00  0.00     0.006 C 
BRANCH  20  21
ATOM     21  C   UNL     1      19.464  18.727 -16.645  1.00  0.00     0.053 C 
BRANCH  21  22
ATOM     22  C   UNL     1      20.522  18.558 -15.602  1.00  0.00     0.041 C 
ATOM     23  O   UNL     1      20.536  19.303 -14.587  1.00  0.00    -0.550 OA
ATOM     24  O   UNL     1      21.476  17.556 -15.733  1.00  0.00    -0.550 OA
ENDBRANCH  21  22
ENDBRANCH  20  21
ENDBRANCH  19  20
ENDBRANCH  18  19
ENDBRANCH  17  18
ENDBRANCH  16  17
ENDBRANCH  15  16
ENDBRANCH  14  15
ENDBRANCH  13  14
ENDBRANCH   1  13
TORSDOF 20
ENDMDL
MODEL 9
REMARK VINA RESULT:    -4.220      2.334      7.843
REMARK INTER + INTRA:         -11.263
REMARK INTER:                  -9.410
REMARK INTRA:                  -1.853
REMARK UNBOUND:                -2.110
REMARK SMILES CCCCCCCCCCCCCCCCCCCCCC(=O)[O-]
REMARK SMILES IDX 12 1 11 2 10 3 9 4 8 5 7 6 6 7 5 8 4 9 3 10 2 11 1 12 13 13
REMARK SMILES IDX 14 14 15 15 16 16 17 17 18 18 19 19 20 20 21 21 22 22 23 23
REMARK SMILES IDX 24 24
REMARK H PARENT
REMARK Flexibility Score: inf
ROOT
ATOM      1  C   UNL     1      12.890  22.995 -20.700  1.00  0.00     0.000 C 
ENDROOT
BRANCH   1   2
ATOM      2  C   UNL     1      12.000  22.675 -19.487  1.00  0.00     0.000 C 
BRANCH   2   3
ATOM      3  C   UNL     1      12.719  21.824 -18.425  1.00  0.00     0.000 C 
BRANCH   3   4
ATOM      4  C   UNL     1      13.974  21.088 -18.928  1.00  0.00    -0.000 C 
BRANCH   4   5
ATOM      5  C   UNL     1      15.121  21.093 -17.907  1.00  0.00    -0.000 C 
BRANCH   5   6
ATOM      6  C   UNL     1      16.390  20.468 -18.507  1.00  0.00    -0.000 C 
BRANCH   6   7
ATOM      7  C   UNL     1      16.385  18.929 -18.453  1.00  0.00    -0.000 C 
BRANCH   7   8
ATOM      8  C   UNL     1      16.731  18.322 -17.077  1.00  0.00    -0.000 C 
BRANCH   8   9
ATOM      9  C   UNL     1      17.754  19.123 -16.251  1.00  0.00    -0.000 C 
BRANCH   9  10
ATOM     10  C   UNL     1      19.206  18.853 -16.679  1.00  0.00    -0.000 C 
BRANCH  10  11
ATOM     11  C   UNL     1      19.518  17.353 -16.786  1.00  0.00    -0.003 C 
ATOM     12  C   UNL     1      20.907  17.002 -16.253  1.00  0.00     0.004 C 
ENDBRANCH  10  11
ENDBRANCH   9  10
ENDBRANCH   8   9
ENDBRANCH   7   8
ENDBRANCH   6   7
ENDBRANCH   5   6
ENDBRANCH   4   5
ENDBRANCH   3   4
ENDBRANCH   2   3
ENDBRANCH   1   2
BRANCH   1  13
ATOM     13  C   UNL     1      12.317  22.440 -22.013  1.00  0.00     0.000 C 
BRANCH  13  14
ATOM     14  C   UNL     1      13.261  22.666 -23.208  1.00  0.00     0.000 C 
BRANCH  14  15
ATOM     15  C   UNL     1      12.702  23.679 -24.220  1.00  0.00     0.000 C 
BRANCH  15  16
ATOM     16  C   UNL     1      12.136  23.004 -25.480  1.00  0.00     0.000 C 
BRANCH  16  17
ATOM     17  C   UNL     1      13.180  22.137 -26.201  1.00  0.00     0.000 C 
BRANCH  17  18
ATOM     18  C   UNL     1      12.655  20.729 -26.535  1.00  0.00     0.000 C 
BRANCH  18  19
ATOM     19  C   UNL     1      11.968  20.061 -25.325  1.00  0.00     0.000 C 
BRANCH  19  20
ATOM     20  C   UNL     1      12.780  18.906 -24.712  1.00  0.00     0.006 C 
BRANCH  20  21
ATOM     21  C   UNL     1      12.256  18.466 -23.340  1.00  0.00     0.053 C 
BRANCH  21  22
ATOM     22  C   UNL     1      13.290  18.698 -22.285  1.00  0.00     0.041 C 
ATOM     23  O   UNL     1      14.314  19.383 -22.542  1.00  0.00    -0.550 OA
ATOM     24  O   UNL     1      13.110  18.184 -21.007  1.00  0.00    -0.550 OA
ENDBRANCH  21  22
ENDBRANCH  20  21
ENDBRANCH  19  20
ENDBRANCH  18  19
ENDBRANCH  17  18
ENDBRANCH  16  17
ENDBRANCH  15  16
ENDBRANCH  14  15
ENDBRANCH  13  14
ENDBRANCH   1  13
TORSDOF 20
ENDMDL
