MODEL 1
REMARK VINA RESULT:    -4.752      0.000      0.000
REMARK INTER + INTRA:          -7.940
REMARK INTER:                  -7.252
REMARK INTRA:                  -0.688
REMARK UNBOUND:                -0.688
REMARK SMILES CCCCCCCCCCC(=O)[O-]
REMARK SMILES IDX 7 1 8 2 9 3 10 4 11 5 12 6 13 7 6 8 5 9 4 10 3 11 2 12 1 13
REMARK H PARENT
REMARK Flexibility Score: inf
ROOT
ATOM      1  C   UNL     1      75.643  12.013  20.058  1.00  0.00     0.000 C 
ENDROOT
BRANCH   1   2
ATOM      2  C   UNL     1      74.225  11.890  19.462  1.00  0.00     0.000 C 
BRANCH   2   3
ATOM      3  C   UNL     1      73.749  13.110  18.655  1.00  0.00     0.006 C 
BRANCH   3   4
ATOM      4  C   UNL     1      74.904  14.012  18.201  1.00  0.00     0.053 C 
BRANCH   4   5
ATOM      5  C   UNL     1      75.187  13.805  16.748  1.00  0.00     0.041 C 
ATOM      6  O   UNL     1      75.702  12.726  16.351  1.00  0.00    -0.550 OA
ATOM      7  O   UNL     1      74.839  14.783  15.824  1.00  0.00    -0.550 OA
ENDBRANCH   4   5
ENDBRANCH   3   4
ENDBRANCH   2   3
ENDBRANCH   1   2
BRANCH   1   8
ATOM      8  C   UNL     1      76.661  10.974  19.551  1.00  0.00     0.000 C 
BRANCH   8   9
ATOM      9  C   UNL     1      78.087  11.541  19.443  1.00  0.00    -0.000 C 
BRANCH   9  10
ATOM     10  C   UNL     1      78.202  12.975  19.988  1.00  0.00    -0.000 C 
BRANCH  10  11
ATOM     11  C   UNL     1      79.497  13.718  19.604  1.00  0.00    -0.000 C 
BRANCH  11  12
ATOM     12  C   UNL     1      80.109  14.541  20.758  1.00  0.00    -0.003 C 
ATOM     13  C   UNL     1      81.600  14.263  20.947  1.00  0.00     0.004 C 
ENDBRANCH  11  12
ENDBRANCH  10  11
ENDBRANCH   9  10
ENDBRANCH   8   9
ENDBRANCH   1   8
TORSDOF 9
ENDMDL
MODEL 2
REMARK VINA RESULT:    -4.697      1.616      2.922
REMARK INTER + INTRA:          -7.857
REMARK INTER:                  -6.971
REMARK INTRA:                  -0.886
REMARK UNBOUND:                -0.688
REMARK SMILES CCCCCCCCCCC(=O)[O-]
REMARK SMILES IDX 7 1 8 2 9 3 10 4 11 5 12 6 13 7 6 8 5 9 4 10 3 11 2 12 1 13
REMARK H PARENT
REMARK Flexibility Score: inf
ROOT
ATOM      1  C   UNL     1      73.860  13.193  17.997  1.00  0.00     0.000 C 
ENDROOT
BRANCH   1   2
ATOM      2  C   UNL     1      74.898  12.869  16.902  1.00  0.00     0.000 C 
BRANCH   2   3
ATOM      3  C   UNL     1      75.624  14.091  16.312  1.00  0.00     0.006 C 
BRANCH   3   4
ATOM      4  C   UNL     1      75.387  15.373  17.120  1.00  0.00     0.053 C 
BRANCH   4   5
ATOM      5  C   UNL     1      75.034  16.506  16.211  1.00  0.00     0.041 C 
ATOM      6  O   UNL     1      74.764  17.641  16.687  1.00  0.00    -0.550 OA
ATOM      7  O   UNL     1      75.051  16.324  14.833  1.00  0.00    -0.550 OA
ENDBRANCH   4   5
ENDBRANCH   3   4
ENDBRANCH   2   3
ENDBRANCH   1   2
BRANCH   1   8
ATOM      8  C   UNL     1      74.008  12.387  19.301  1.00  0.00     0.000 C 
BRANCH   8   9
ATOM      9  C   UNL     1      75.211  11.429  19.276  1.00  0.00    -0.000 C 
BRANCH   9  10
ATOM     10  C   UNL     1      76.233  11.725  20.387  1.00  0.00    -0.000 C 
BRANCH  10  11
ATOM     11  C   UNL     1      77.698  11.824  19.918  1.00  0.00    -0.000 C 
BRANCH  11  12
ATOM     12  C   UNL     1      78.060  13.186  19.288  1.00  0.00    -0.003 C 
ATOM     13  C   UNL     1      79.201  13.886  20.027  1.00  0.00     0.004 C 
ENDBRANCH  11  12
ENDBRANCH  10  11
ENDBRANCH   9  10
ENDBRANCH   8   9
ENDBRANCH   1   8
TORSDOF 9
ENDMDL
MODEL 3
REMARK VINA RESULT:    -4.695      2.922      4.218
REMARK INTER + INTRA:          -7.854
REMARK INTER:                  -7.008
REMARK INTRA:                  -0.846
REMARK UNBOUND:                -0.688
REMARK SMILES CCCCCCCCCCC(=O)[O-]
REMARK SMILES IDX 7 1 8 2 9 3 10 4 11 5 12 6 13 7 6 8 5 9 4 10 3 11 2 12 1 13
REMARK H PARENT
REMARK Flexibility Score: inf
ROOT
ATOM      1  C   UNL     1      75.170  13.573  17.693  1.00  0.00     0.000 C 
ENDROOT
BRANCH   1   2
ATOM      2  C   UNL     1      75.141  13.136  16.214  1.00  0.00     0.000 C 
BRANCH   2   3
ATOM      3  C   UNL     1      75.480  14.243  15.200  1.00  0.00     0.006 C 
BRANCH   3   4
ATOM      4  C   UNL     1      74.913  15.611  15.600  1.00  0.00     0.053 C 
BRANCH   4   5
ATOM      5  C   UNL     1      75.875  16.699  15.243  1.00  0.00     0.041 C 
ATOM      6  O   UNL     1      75.450  17.848  14.948  1.00  0.00    -0.550 OA
ATOM      7  O   UNL     1      77.243  16.460  15.283  1.00  0.00    -0.550 OA
ENDBRANCH   4   5
ENDBRANCH   3   4
ENDBRANCH   2   3
ENDBRANCH   1   2
BRANCH   1   8
ATOM      8  C   UNL     1      73.980  13.091  18.544  1.00  0.00     0.000 C 
BRANCH   8   9
ATOM      9  C   UNL     1      74.324  11.864  19.406  1.00  0.00    -0.000 C 
BRANCH   9  10
ATOM     10  C   UNL     1      75.639  12.032  20.187  1.00  0.00    -0.000 C 
BRANCH  10  11
ATOM     11  C   UNL     1      76.742  11.015  19.834  1.00  0.00    -0.000 C 
BRANCH  11  12
ATOM     12  C   UNL     1      76.341  10.021  18.723  1.00  0.00    -0.003 C 
ATOM     13  C   UNL     1      77.214  10.158  17.475  1.00  0.00     0.004 C 
ENDBRANCH  11  12
ENDBRANCH  10  11
ENDBRANCH   9  10
ENDBRANCH   8   9
ENDBRANCH   1   8
TORSDOF 9
ENDMDL
MODEL 4
REMARK VINA RESULT:    -4.664      3.206      4.770
REMARK INTER + INTRA:          -7.806
REMARK INTER:                  -7.278
REMARK INTRA:                  -0.528
REMARK UNBOUND:                -0.688
REMARK SMILES CCCCCCCCCCC(=O)[O-]
REMARK SMILES IDX 7 1 8 2 9 3 10 4 11 5 12 6 13 7 6 8 5 9 4 10 3 11 2 12 1 13
REMARK H PARENT
REMARK Flexibility Score: inf
ROOT
ATOM      1  C   UNL     1      74.998  14.794  17.173  1.00  0.00     0.000 C 
ENDROOT
BRANCH   1   2
ATOM      2  C   UNL     1      75.056  15.089  15.660  1.00  0.00     0.000 C 
BRANCH   2   3
ATOM      3  C   UNL     1      74.663  16.522  15.259  1.00  0.00     0.006 C 
BRANCH   3   4
ATOM      4  C   UNL     1      75.283  17.587  16.174  1.00  0.00     0.053 C 
BRANCH   4   5
ATOM      5  C   UNL     1      76.652  17.952  15.695  1.00  0.00     0.041 C 
ATOM      6  O   UNL     1      76.805  18.497  14.570  1.00  0.00    -0.550 OA
ATOM      7  O   UNL     1      77.755  17.737  16.512  1.00  0.00    -0.550 OA
ENDBRANCH   4   5
ENDBRANCH   3   4
ENDBRANCH   2   3
ENDBRANCH   1   2
BRANCH   1   8
ATOM      8  C   UNL     1      75.097  13.305  17.557  1.00  0.00     0.000 C 
BRANCH   8   9
ATOM      9  C   UNL     1      73.994  12.868  18.536  1.00  0.00    -0.000 C 
BRANCH   9  10
ATOM     10  C   UNL     1      74.515  11.940  19.647  1.00  0.00    -0.000 C 
BRANCH  10  11
ATOM     11  C   UNL     1      76.026  12.044  19.930  1.00  0.00    -0.000 C 
BRANCH  11  12
ATOM     12  C   UNL     1      76.743  10.679  19.998  1.00  0.00    -0.003 C 
ATOM     13  C   UNL     1      76.592   9.875  18.706  1.00  0.00     0.004 C 
ENDBRANCH  11  12
ENDBRANCH  10  11
ENDBRANCH   9  10
ENDBRANCH   8   9
ENDBRANCH   1   8
TORSDOF 9
ENDMDL
MODEL 5
REMARK VINA RESULT:    -4.621      2.765      5.382
REMARK INTER + INTRA:          -7.741
REMARK INTER:                  -7.112
REMARK INTRA:                  -0.629
REMARK UNBOUND:                -0.688
REMARK SMILES CCCCCCCCCCC(=O)[O-]
REMARK SMILES IDX 7 1 8 2 9 3 10 4 11 5 12 6 13 7 6 8 5 9 4 10 3 11 2 12 1 13
REMARK H PARENT
REMARK Flexibility Score: inf
ROOT
ATOM      1  C   UNL     1      75.527  11.510  19.301  1.00  0.00     0.000 C 
ENDROOT
BRANCH   1   2
ATOM      2  C   UNL     1      76.603  11.945  20.319  1.00  0.00     0.000 C 
BRANCH   2   3
ATOM      3  C   UNL     1      78.018  12.113  19.739  1.00  0.00     0.006 C 
BRANCH   3   4
ATOM      4  C   UNL     1      78.394  13.582  19.502  1.00  0.00     0.053 C 
BRANCH   4   5
ATOM      5  C   UNL     1      79.765  13.861  20.030  1.00  0.00     0.041 C 
ATOM      6  O   UNL     1      79.914  14.562  21.066  1.00  0.00    -0.550 OA
ATOM      7  O   UNL     1      80.877  13.308  19.407  1.00  0.00    -0.550 OA
ENDBRANCH   4   5
ENDBRANCH   3   4
ENDBRANCH   2   3
ENDBRANCH   1   2
BRANCH   1   8
ATOM      8  C   UNL     1      74.114  12.062  19.562  1.00  0.00     0.000 C 
BRANCH   8   9
ATOM      9  C   UNL     1      73.710  13.160  18.563  1.00  0.00    -0.000 C 
BRANCH   9  10
ATOM     10  C   UNL     1      74.672  13.263  17.368  1.00  0.00    -0.000 C 
BRANCH  10  11
ATOM     11  C   UNL     1      75.225  14.676  17.094  1.00  0.00    -0.000 C 
BRANCH  11  12
ATOM     12  C   UNL     1      75.284  15.042  15.595  1.00  0.00    -0.003 C 
ATOM     13  C   UNL     1      74.781  16.459  15.321  1.00  0.00     0.004 C 
ENDBRANCH  11  12
ENDBRANCH  10  11
ENDBRANCH   9  10
ENDBRANCH   8   9
ENDBRANCH   1   8
TORSDOF 9
ENDMDL
MODEL 6
REMARK VINA RESULT:    -4.605      2.274      5.044
REMARK INTER + INTRA:          -7.717
REMARK INTER:                  -7.127
REMARK INTRA:                  -0.590
REMARK UNBOUND:                -0.688
REMARK SMILES CCCCCCCCCCC(=O)[O-]
REMARK SMILES IDX 7 1 8 2 9 3 10 4 11 5 12 6 13 7 6 8 5 9 4 10 3 11 2 12 1 13
REMARK H PARENT
REMARK Flexibility Score: inf
ROOT
ATOM      1  C   UNL     1      73.966  12.328  19.435  1.00  0.00     0.000 C 
ENDROOT
BRANCH   1   2
ATOM      2  C   UNL     1      75.230  11.461  19.250  1.00  0.00     0.000 C 
BRANCH   2   3
ATOM      3  C   UNL     1      76.295  11.620  20.349  1.00  0.00     0.006 C 
BRANCH   3   4
ATOM      4  C   UNL     1      77.717  11.339  19.845  1.00  0.00     0.053 C 
BRANCH   4   5
ATOM      5  C   UNL     1      78.354  12.599  19.352  1.00  0.00     0.041 C 
ATOM      6  O   UNL     1      78.865  13.411  20.168  1.00  0.00    -0.550 OA
ATOM      7  O   UNL     1      78.429  12.854  17.988  1.00  0.00    -0.550 OA
ENDBRANCH   4   5
ENDBRANCH   3   4
ENDBRANCH   2   3
ENDBRANCH   1   2
BRANCH   1   8
ATOM      8  C   UNL     1      73.654  13.290  18.273  1.00  0.00     0.000 C 
BRANCH   8   9
ATOM      9  C   UNL     1      74.668  13.182  17.122  1.00  0.00    -0.000 C 
BRANCH   9  10
ATOM     10  C   UNL     1      75.433  14.494  16.876  1.00  0.00    -0.000 C 
BRANCH  10  11
ATOM     11  C   UNL     1      75.282  15.082  15.459  1.00  0.00    -0.000 C 
BRANCH  11  12
ATOM     12  C   UNL     1      74.488  16.405  15.415  1.00  0.00    -0.003 C 
ATOM     13  C   UNL     1      75.321  17.602  15.872  1.00  0.00     0.004 C 
ENDBRANCH  11  12
ENDBRANCH  10  11
ENDBRANCH   9  10
ENDBRANCH   8   9
ENDBRANCH   1   8
TORSDOF 9
ENDMDL
MODEL 7
REMARK VINA RESULT:    -4.582      3.397      5.367
REMARK INTER + INTRA:          -7.681
REMARK INTER:                  -7.212
REMARK INTRA:                  -0.469
REMARK UNBOUND:                -0.688
REMARK SMILES CCCCCCCCCCC(=O)[O-]
REMARK SMILES IDX 7 1 8 2 9 3 10 4 11 5 12 6 13 7 6 8 5 9 4 10 3 11 2 12 1 13
REMARK H PARENT
REMARK Flexibility Score: inf
ROOT
ATOM      1  C   UNL     1      75.469  14.906  15.374  1.00  0.00     0.000 C 
ENDROOT
BRANCH   1   2
ATOM      2  C   UNL     1      74.556  16.127  15.616  1.00  0.00     0.000 C 
BRANCH   2   3
ATOM      3  C   UNL     1      75.288  17.418  16.022  1.00  0.00     0.006 C 
BRANCH   3   4
ATOM      4  C   UNL     1      76.089  18.037  14.869  1.00  0.00     0.053 C 
BRANCH   4   5
ATOM      5  C   UNL     1      77.415  18.525  15.358  1.00  0.00     0.041 C 
ATOM      6  O   UNL     1      78.423  18.481  14.605  1.00  0.00    -0.550 OA
ATOM      7  O   UNL     1      77.529  19.074  16.629  1.00  0.00    -0.550 OA
ENDBRANCH   4   5
ENDBRANCH   3   4
ENDBRANCH   2   3
ENDBRANCH   1   2
BRANCH   1   8
ATOM      8  C   UNL     1      75.102  13.643  16.175  1.00  0.00     0.000 C 
BRANCH   8   9
ATOM      9  C   UNL     1      74.986  13.909  17.686  1.00  0.00    -0.000 C 
BRANCH   9  10
ATOM     10  C   UNL     1      73.821  13.146  18.338  1.00  0.00    -0.000 C 
BRANCH  10  11
ATOM     11  C   UNL     1      74.233  12.115  19.408  1.00  0.00    -0.000 C 
BRANCH  11  12
ATOM     12  C   UNL     1      75.657  11.553  19.215  1.00  0.00    -0.003 C 
ATOM     13  C   UNL     1      76.500  11.650  20.488  1.00  0.00     0.004 C 
ENDBRANCH  11  12
ENDBRANCH  10  11
ENDBRANCH   9  10
ENDBRANCH   8   9
ENDBRANCH   1   8
TORSDOF 9
ENDMDL
MODEL 8
REMARK VINA RESULT:    -4.567      1.901      3.494
REMARK INTER + INTRA:          -7.658
REMARK INTER:                  -6.406
REMARK INTRA:                  -1.252
REMARK UNBOUND:                -0.688
REMARK SMILES CCCCCCCCCCC(=O)[O-]
REMARK SMILES IDX 7 1 8 2 9 3 10 4 11 5 12 6 13 7 6 8 5 9 4 10 3 11 2 12 1 13
REMARK H PARENT
REMARK Flexibility Score: inf
ROOT
ATOM      1  C   UNL     1      74.845  14.065  18.244  1.00  0.00     0.000 C 
ENDROOT
BRANCH   1   2
ATOM      2  C   UNL     1      75.136  14.329  16.752  1.00  0.00     0.000 C 
BRANCH   2   3
ATOM      3  C   UNL     1      75.130  13.078  15.856  1.00  0.00     0.006 C 
BRANCH   3   4
ATOM      4  C   UNL     1      76.438  12.279  15.939  1.00  0.00     0.053 C 
BRANCH   4   5
ATOM      5  C   UNL     1      77.587  13.109  15.465  1.00  0.00     0.041 C 
ATOM      6  O   UNL     1      78.509  13.428  16.262  1.00  0.00    -0.550 OA
ATOM      7  O   UNL     1      77.667  13.492  14.132  1.00  0.00    -0.550 OA
ENDBRANCH   4   5
ENDBRANCH   3   4
ENDBRANCH   2   3
ENDBRANCH   1   2
BRANCH   1   8
ATOM      8  C   UNL     1      73.680  13.098  18.525  1.00  0.00     0.000 C 
BRANCH   8   9
ATOM      9  C   UNL     1      74.060  11.980  19.510  1.00  0.00    -0.000 C 
BRANCH   9  10
ATOM     10  C   UNL     1      75.518  12.076  19.990  1.00  0.00    -0.000 C 
BRANCH  10  11
ATOM     11  C   UNL     1      76.454  10.971  19.461  1.00  0.00    -0.000 C 
BRANCH  11  12
ATOM     12  C   UNL     1      77.943  11.377  19.431  1.00  0.00    -0.003 C 
ATOM     13  C   UNL     1      78.152  12.854  19.763  1.00  0.00     0.004 C 
ENDBRANCH  11  12
ENDBRANCH  10  11
ENDBRANCH   9  10
ENDBRANCH   8   9
ENDBRANCH   1   8
TORSDOF 9
ENDMDL
MODEL 9
REMARK VINA RESULT:    -4.505      2.935      4.975
REMARK INTER + INTRA:          -7.563
REMARK INTER:                  -6.881
REMARK INTRA:                  -0.683
REMARK UNBOUND:                -0.688
REMARK SMILES CCCCCCCCCCC(=O)[O-]
REMARK SMILES IDX 7 1 8 2 9 3 10 4 11 5 12 6 13 7 6 8 5 9 4 10 3 11 2 12 1 13
REMARK H PARENT
REMARK Flexibility Score: inf
ROOT
ATOM      1  C   UNL     1      74.362  11.989  19.431  1.00  0.00     0.000 C 
ENDROOT
BRANCH   1   2
ATOM      2  C   UNL     1      75.844  12.153  19.830  1.00  0.00     0.000 C 
BRANCH   2   3
ATOM      3  C   UNL     1      76.636  10.840  19.954  1.00  0.00     0.006 C 
BRANCH   3   4
ATOM      4  C   UNL     1      76.671  10.040  18.644  1.00  0.00     0.053 C 
BRANCH   4   5
ATOM      5  C   UNL     1      77.475  10.763  17.613  1.00  0.00     0.041 C 
ATOM      6  O   UNL     1      76.992  10.976  16.468  1.00  0.00    -0.550 OA
ATOM      7  O   UNL     1      78.739  11.246  17.927  1.00  0.00    -0.550 OA
ENDBRANCH   4   5
ENDBRANCH   3   4
ENDBRANCH   2   3
ENDBRANCH   1   2
BRANCH   1   8
ATOM      8  C   UNL     1      73.791  13.114  18.549  1.00  0.00     0.000 C 
BRANCH   8   9
ATOM      9  C   UNL     1      74.886  13.971  17.892  1.00  0.00    -0.000 C 
BRANCH   9  10
ATOM     10  C   UNL     1      74.926  13.819  16.362  1.00  0.00    -0.000 C 
BRANCH  10  11
ATOM     11  C   UNL     1      75.590  14.987  15.606  1.00  0.00    -0.000 C 
BRANCH  11  12
ATOM     12  C   UNL     1      74.658  16.199  15.391  1.00  0.00    -0.003 C 
ATOM     13  C   UNL     1      75.412  17.528  15.425  1.00  0.00     0.004 C 
ENDBRANCH  11  12
ENDBRANCH  10  11
ENDBRANCH   9  10
ENDBRANCH   8   9
ENDBRANCH   1   8
TORSDOF 9
ENDMDL
