MODEL 1
REMARK VINA RESULT:    -4.909      0.000      0.000
REMARK INTER + INTRA:          -5.703
REMARK INTER:                  -5.483
REMARK INTRA:                  -0.220
REMARK UNBOUND:                -0.220
REMARK SMILES CC(C)c1ccc(C(=O)[O-])cc1
REMARK SMILES IDX 7 1 6 2 11 3 5 4 12 5 4 6 8 7 9 8 10 9 2 10 1 11 3 12
REMARK H PARENT
REMARK Flexibility Score: inf
ROOT
ATOM      1  C   UNL     1       3.754  19.587  33.769  1.00  0.00    -0.003 A 
ATOM      2  C   UNL     1       3.097  20.324  34.769  1.00  0.00     0.010 A 
ATOM      3  C   UNL     1       3.131  19.432  32.519  1.00  0.00     0.010 A 
ATOM      4  C   UNL     1       1.846  20.895  34.523  1.00  0.00     0.004 A 
ATOM      5  C   UNL     1       1.880  20.004  32.272  1.00  0.00     0.004 A 
ATOM      6  C   UNL     1       1.222  20.741  33.271  1.00  0.00    -0.045 A 
ENDROOT
BRANCH   1   7
ATOM      7  C   UNL     1       5.078  18.984  34.034  1.00  0.00     0.071 C 
ATOM      8  O   UNL     1       5.671  19.195  35.125  1.00  0.00    -0.545 OA
ATOM      9  O   UNL     1       5.687  18.175  33.080  1.00  0.00    -0.545 OA
ENDBRANCH   1   7
BRANCH   6  10
ATOM     10  C   UNL     1      -0.136  21.357  32.991  1.00  0.00     0.013 C 
ATOM     11  C   UNL     1      -0.159  22.842  33.370  1.00  0.00     0.012 C 
ATOM     12  C   UNL     1      -0.545  21.153  31.527  1.00  0.00     0.012 C 
ENDBRANCH   6  10
TORSDOF 2
ENDMDL
MODEL 2
REMARK VINA RESULT:    -4.748      3.073      5.051
REMARK INTER + INTRA:          -5.523
REMARK INTER:                  -5.310
REMARK INTRA:                  -0.213
REMARK UNBOUND:                -0.220
REMARK SMILES CC(C)c1ccc(C(=O)[O-])cc1
REMARK SMILES IDX 7 1 6 2 11 3 5 4 12 5 4 6 8 7 9 8 10 9 2 10 1 11 3 12
REMARK H PARENT
REMARK Flexibility Score: inf
ROOT
ATOM      1  C   UNL     1       1.185  20.899  32.984  1.00  0.00    -0.003 A 
ATOM      2  C   UNL     1       1.773  21.091  34.244  1.00  0.00     0.010 A 
ATOM      3  C   UNL     1       1.750  19.958  32.106  1.00  0.00     0.010 A 
ATOM      4  C   UNL     1       2.903  20.358  34.620  1.00  0.00     0.004 A 
ATOM      5  C   UNL     1       2.879  19.225  32.481  1.00  0.00     0.004 A 
ATOM      6  C   UNL     1       3.469  19.416  33.741  1.00  0.00    -0.045 A 
ENDROOT
BRANCH   1   7
ATOM      7  C   UNL     1      -0.011  21.676  32.591  1.00  0.00     0.071 C 
ATOM      8  O   UNL     1      -0.718  21.313  31.613  1.00  0.00    -0.545 OA
ATOM      9  O   UNL     1      -0.370  22.820  33.295  1.00  0.00    -0.545 OA
ENDBRANCH   1   7
BRANCH   6  10
ATOM     10  C   UNL     1       4.695  18.614  34.137  1.00  0.00     0.013 C 
ATOM     11  C   UNL     1       4.330  17.494  35.118  1.00  0.00     0.012 C 
ATOM     12  C   UNL     1       5.413  18.056  32.902  1.00  0.00     0.012 C 
ENDBRANCH   6  10
TORSDOF 2
ENDMDL
MODEL 3
REMARK VINA RESULT:    -4.685      2.768      5.569
REMARK INTER + INTRA:          -5.452
REMARK INTER:                  -5.247
REMARK INTRA:                  -0.205
REMARK UNBOUND:                -0.220
REMARK SMILES CC(C)c1ccc(C(=O)[O-])cc1
REMARK SMILES IDX 7 1 6 2 11 3 5 4 12 5 4 6 8 7 9 8 10 9 2 10 1 11 3 12
REMARK H PARENT
REMARK Flexibility Score: inf
ROOT
ATOM      1  C   UNL     1       2.723  19.609  33.795  1.00  0.00    -0.003 A 
ATOM      2  C   UNL     1       3.784  19.645  32.875  1.00  0.00     0.010 A 
ATOM      3  C   UNL     1       2.670  18.563  34.731  1.00  0.00     0.010 A 
ATOM      4  C   UNL     1       4.771  18.656  32.892  1.00  0.00     0.004 A 
ATOM      5  C   UNL     1       3.657  17.574  34.749  1.00  0.00     0.004 A 
ATOM      6  C   UNL     1       4.719  17.608  33.829  1.00  0.00    -0.045 A 
ENDROOT
BRANCH   1   7
ATOM      7  C   UNL     1       1.681  20.659  33.773  1.00  0.00     0.071 C 
ATOM      8  O   UNL     1       0.777  20.646  32.895  1.00  0.00    -0.545 OA
ATOM      9  O   UNL     1       1.684  21.674  34.723  1.00  0.00    -0.545 OA
ENDBRANCH   1   7
BRANCH   6  10
ATOM     10  C   UNL     1       5.784  16.528  33.858  1.00  0.00     0.013 C 
ATOM     11  C   UNL     1       6.622  16.542  32.575  1.00  0.00     0.012 C 
ATOM     12  C   UNL     1       6.674  16.661  35.101  1.00  0.00     0.012 C 
ENDBRANCH   6  10
TORSDOF 2
ENDMDL
MODEL 4
REMARK VINA RESULT:    -4.411      2.994      5.220
REMARK INTER + INTRA:          -5.146
REMARK INTER:                  -4.934
REMARK INTRA:                  -0.213
REMARK UNBOUND:                -0.220
REMARK SMILES CC(C)c1ccc(C(=O)[O-])cc1
REMARK SMILES IDX 7 1 6 2 11 3 5 4 12 5 4 6 8 7 9 8 10 9 2 10 1 11 3 12
REMARK H PARENT
REMARK Flexibility Score: inf
ROOT
ATOM      1  C   UNL     1       1.249  20.750  33.075  1.00  0.00    -0.003 A 
ATOM      2  C   UNL     1       1.977  19.860  32.268  1.00  0.00     0.010 A 
ATOM      3  C   UNL     1       1.626  20.912  34.420  1.00  0.00     0.010 A 
ATOM      4  C   UNL     1       3.058  19.147  32.793  1.00  0.00     0.004 A 
ATOM      5  C   UNL     1       2.707  20.199  34.945  1.00  0.00     0.004 A 
ATOM      6  C   UNL     1       3.435  19.308  34.139  1.00  0.00    -0.045 A 
ENDROOT
BRANCH   1   7
ATOM      7  C   UNL     1       0.106  21.503  32.515  1.00  0.00     0.071 C 
ATOM      8  O   UNL     1      -0.264  22.588  33.037  1.00  0.00    -0.545 OA
ATOM      9  O   UNL     1      -0.578  21.022  31.404  1.00  0.00    -0.545 OA
ENDBRANCH   1   7
BRANCH   6  10
ATOM     10  C   UNL     1       4.607  18.541  34.721  1.00  0.00     0.013 C 
ATOM     11  C   UNL     1       5.049  17.410  33.784  1.00  0.00     0.012 C 
ATOM     12  C   UNL     1       5.777  19.478  35.046  1.00  0.00     0.012 C 
ENDBRANCH   6  10
TORSDOF 2
ENDMDL
MODEL 5
REMARK VINA RESULT:    -4.039     11.093     12.711
REMARK INTER + INTRA:          -4.731
REMARK INTER:                  -4.522
REMARK INTRA:                  -0.209
REMARK UNBOUND:                -0.220
REMARK SMILES CC(C)c1ccc(C(=O)[O-])cc1
REMARK SMILES IDX 7 1 6 2 11 3 5 4 12 5 4 6 8 7 9 8 10 9 2 10 1 11 3 12
REMARK H PARENT
REMARK Flexibility Score: inf
ROOT
ATOM      1  C   UNL     1      10.719  14.303  24.739  1.00  0.00    -0.003 A 
ATOM      2  C   UNL     1      10.215  14.724  23.498  1.00  0.00     0.010 A 
ATOM      3  C   UNL     1       9.818  14.042  25.786  1.00  0.00     0.010 A 
ATOM      4  C   UNL     1       8.839  14.880  23.305  1.00  0.00     0.004 A 
ATOM      5  C   UNL     1       8.442  14.197  25.594  1.00  0.00     0.004 A 
ATOM      6  C   UNL     1       7.937  14.618  24.353  1.00  0.00    -0.045 A 
ENDROOT
BRANCH   1   7
ATOM      7  C   UNL     1      12.176  14.140  24.937  1.00  0.00     0.071 C 
ATOM      8  O   UNL     1      12.933  13.907  23.958  1.00  0.00    -0.545 OA
ATOM      9  O   UNL     1      12.729  14.240  26.209  1.00  0.00    -0.545 OA
ENDBRANCH   1   7
BRANCH   6  10
ATOM     10  C   UNL     1       6.441  14.782  24.158  1.00  0.00     0.013 C 
ATOM     11  C   UNL     1       5.736  13.422  24.113  1.00  0.00     0.012 C 
ATOM     12  C   UNL     1       5.837  15.683  25.243  1.00  0.00     0.012 C 
ENDBRANCH   6  10
TORSDOF 2
ENDMDL
MODEL 6
REMARK VINA RESULT:    -3.909     19.499     20.802
REMARK INTER + INTRA:          -4.586
REMARK INTER:                  -4.383
REMARK INTRA:                  -0.203
REMARK UNBOUND:                -0.220
REMARK SMILES CC(C)c1ccc(C(=O)[O-])cc1
REMARK SMILES IDX 7 1 6 2 11 3 5 4 12 5 4 6 8 7 9 8 10 9 2 10 1 11 3 12
REMARK H PARENT
REMARK Flexibility Score: inf
ROOT
ATOM      1  C   UNL     1       4.150  10.004  15.822  1.00  0.00    -0.003 A 
ATOM      2  C   UNL     1       4.387  11.048  14.913  1.00  0.00     0.010 A 
ATOM      3  C   UNL     1       5.182   9.612  16.692  1.00  0.00     0.010 A 
ATOM      4  C   UNL     1       5.630  11.688  14.875  1.00  0.00     0.004 A 
ATOM      5  C   UNL     1       6.424  10.252  16.655  1.00  0.00     0.004 A 
ATOM      6  C   UNL     1       6.663  11.296  15.746  1.00  0.00    -0.045 A 
ENDROOT
BRANCH   1   7
ATOM      7  C   UNL     1       2.834   9.330  15.859  1.00  0.00     0.071 C 
ATOM      8  O   UNL     1       2.013   9.579  16.781  1.00  0.00    -0.545 OA
ATOM      9  O   UNL     1       2.486   8.411  14.875  1.00  0.00    -0.545 OA
ENDBRANCH   1   7
BRANCH   6  10
ATOM     10  C   UNL     1       8.016  11.982  15.716  1.00  0.00     0.013 C 
ATOM     11  C   UNL     1       8.477  12.359  17.129  1.00  0.00     0.012 C 
ATOM     12  C   UNL     1       9.061  11.113  15.006  1.00  0.00     0.012 C 
ENDBRANCH   6  10
TORSDOF 2
ENDMDL
MODEL 7
REMARK VINA RESULT:    -3.725     19.506     20.864
REMARK INTER + INTRA:          -4.379
REMARK INTER:                  -4.181
REMARK INTRA:                  -0.199
REMARK UNBOUND:                -0.220
REMARK SMILES CC(C)c1ccc(C(=O)[O-])cc1
REMARK SMILES IDX 7 1 6 2 11 3 5 4 12 5 4 6 8 7 9 8 10 9 2 10 1 11 3 12
REMARK H PARENT
REMARK Flexibility Score: inf
ROOT
ATOM      1  C   UNL     1       4.098   9.918  15.756  1.00  0.00    -0.003 A 
ATOM      2  C   UNL     1       5.101   9.462  16.627  1.00  0.00     0.010 A 
ATOM      3  C   UNL     1       4.389  10.979  14.881  1.00  0.00     0.010 A 
ATOM      4  C   UNL     1       6.368  10.052  16.623  1.00  0.00     0.004 A 
ATOM      5  C   UNL     1       5.656  11.569  14.876  1.00  0.00     0.004 A 
ATOM      6  C   UNL     1       6.660  11.114  15.746  1.00  0.00    -0.045 A 
ENDROOT
BRANCH   1   7
ATOM      7  C   UNL     1       2.759   9.291  15.764  1.00  0.00     0.071 C 
ATOM      8  O   UNL     1       2.439   8.453  14.878  1.00  0.00    -0.545 OA
ATOM      9  O   UNL     1       1.834   9.617  16.749  1.00  0.00    -0.545 OA
ENDBRANCH   1   7
BRANCH   6  10
ATOM     10  C   UNL     1       8.031  11.763  15.732  1.00  0.00     0.013 C 
ATOM     11  C   UNL     1       8.392  12.325  17.112  1.00  0.00     0.012 C 
ATOM     12  C   UNL     1       9.102  10.783  15.236  1.00  0.00     0.012 C 
ENDBRANCH   6  10
TORSDOF 2
ENDMDL
MODEL 8
REMARK VINA RESULT:    -3.717     11.395     13.626
REMARK INTER + INTRA:          -4.371
REMARK INTER:                  -4.158
REMARK INTRA:                  -0.213
REMARK UNBOUND:                -0.220
REMARK SMILES CC(C)c1ccc(C(=O)[O-])cc1
REMARK SMILES IDX 7 1 6 2 11 3 5 4 12 5 4 6 8 7 9 8 10 9 2 10 1 11 3 12
REMARK H PARENT
REMARK Flexibility Score: inf
ROOT
ATOM      1  C   UNL     1       8.014  14.636  24.554  1.00  0.00    -0.003 A 
ATOM      2  C   UNL     1       8.759  15.004  23.421  1.00  0.00     0.010 A 
ATOM      3  C   UNL     1       8.694  14.180  25.696  1.00  0.00     0.010 A 
ATOM      4  C   UNL     1      10.154  14.920  23.430  1.00  0.00     0.004 A 
ATOM      5  C   UNL     1      10.089  14.096  25.706  1.00  0.00     0.004 A 
ATOM      6  C   UNL     1      10.835  14.464  24.574  1.00  0.00    -0.045 A 
ENDROOT
BRANCH   1   7
ATOM      7  C   UNL     1       6.537  14.728  24.539  1.00  0.00     0.071 C 
ATOM      8  O   UNL     1       5.850  13.876  23.916  1.00  0.00    -0.545 OA
ATOM      9  O   UNL     1       5.889  15.756  25.214  1.00  0.00    -0.545 OA
ENDBRANCH   1   7
BRANCH   6  10
ATOM     10  C   UNL     1      12.349  14.367  24.597  1.00  0.00     0.013 C 
ATOM     11  C   UNL     1      12.825  13.398  25.685  1.00  0.00     0.012 C 
ATOM     12  C   UNL     1      12.900  13.969  23.222  1.00  0.00     0.012 C 
ENDBRANCH   6  10
TORSDOF 2
ENDMDL
