MODEL 1
REMARK VINA RESULT:    -7.556      0.000      0.000
REMARK INTER + INTRA:          -8.979
REMARK INTER:                  -8.660
REMARK INTRA:                  -0.319
REMARK UNBOUND:                -0.319
REMARK SMILES O=C1C[C@H](c2ccc(O)cc2)Oc2cc(O)cc(O)c21
REMARK SMILES IDX 3 1 4 2 12 3 13 4 14 5 15 6 17 7 18 8 20 9 2 10 1 11 5 12
REMARK SMILES IDX 6 13 11 14 7 15 10 16 8 17 9 18 19 20 16 22
REMARK H PARENT 9 19 19 21 16 23
REMARK Flexibility Score: inf
ROOT
ATOM      1  C   UNL     1      57.239  34.392  76.053  1.00  0.00     0.131 C 
ATOM      2  C   UNL     1      58.230  33.293  76.465  1.00  0.00     0.211 C 
ATOM      3  O   UNL     1      58.327  33.212  77.890  1.00  0.00    -0.484 OA
ATOM      4  C   UNL     1      58.327  34.347  78.714  1.00  0.00     0.138 A 
ATOM      5  C   UNL     1      58.701  34.212  80.052  1.00  0.00     0.093 A 
ATOM      6  C   UNL     1      58.725  35.324  80.893  1.00  0.00     0.123 A 
ATOM      7  C   UNL     1      58.344  36.577  80.401  1.00  0.00     0.093 A 
ATOM      8  C   UNL     1      57.927  36.728  79.072  1.00  0.00     0.133 A 
ATOM      9  C   UNL     1      57.948  35.607  78.202  1.00  0.00     0.102 A 
ATOM     10  C   UNL     1      57.595  35.664  76.762  1.00  0.00     0.174 C 
ATOM     11  O   UNL     1      57.640  36.742  76.111  1.00  0.00    -0.294 OA
ENDROOT
BRANCH   2  12
ATOM     12  C   UNL     1      57.812  31.958  75.899  1.00  0.00    -0.007 A 
ATOM     13  C   UNL     1      57.181  31.888  74.645  1.00  0.00     0.011 A 
ATOM     14  C   UNL     1      57.997  30.777  76.641  1.00  0.00     0.011 A 
ATOM     15  C   UNL     1      56.766  30.655  74.132  1.00  0.00     0.046 A 
ATOM     16  C   UNL     1      57.580  29.547  76.125  1.00  0.00     0.046 A 
ATOM     17  C   UNL     1      56.965  29.483  74.867  1.00  0.00     0.115 A 
BRANCH  17  18
ATOM     18  O   UNL     1      56.545  28.262  74.343  1.00  0.00    -0.508 OA
ATOM     19  H   UNL     1      55.976  27.621  74.884  1.00  0.00     0.293 HD
ENDBRANCH  17  18
ENDBRANCH   2  12
BRANCH   8  20
ATOM     20  O   UNL     1      57.473  37.990  78.682  1.00  0.00    -0.507 OA
ATOM     21  H   UNL     1      57.991  38.614  78.081  1.00  0.00     0.293 HD
ENDBRANCH   8  20
BRANCH   6  22
ATOM     22  O   UNL     1      59.122  35.175  82.221  1.00  0.00    -0.508 OA
ATOM     23  H   UNL     1      58.621  35.624  82.978  1.00  0.00     0.293 HD
ENDBRANCH   6  22
TORSDOF 4
ENDMDL
MODEL 2
REMARK VINA RESULT:    -6.818      0.897      1.026
REMARK INTER + INTRA:          -8.134
REMARK INTER:                  -7.824
REMARK INTRA:                  -0.309
REMARK UNBOUND:                -0.319
REMARK SMILES O=C1C[C@H](c2ccc(O)cc2)Oc2cc(O)cc(O)c21
REMARK SMILES IDX 3 1 4 2 12 3 13 4 14 5 15 6 17 7 18 8 20 9 2 10 1 11 5 12
REMARK SMILES IDX 6 13 11 14 7 15 10 16 8 17 9 18 19 20 16 22
REMARK H PARENT 9 19 19 21 16 23
REMARK Flexibility Score: inf
ROOT
ATOM      1  C   UNL     1      57.266  34.506  75.157  1.00  0.00     0.131 C 
ATOM      2  C   UNL     1      58.082  33.451  75.918  1.00  0.00     0.211 C 
ATOM      3  O   UNL     1      57.907  33.603  77.330  1.00  0.00    -0.484 OA
ATOM      4  C   UNL     1      57.836  34.857  77.953  1.00  0.00     0.138 A 
ATOM      5  C   UNL     1      57.946  34.931  79.342  1.00  0.00     0.093 A 
ATOM      6  C   UNL     1      57.894  36.165  79.990  1.00  0.00     0.123 A 
ATOM      7  C   UNL     1      57.702  37.333  79.245  1.00  0.00     0.093 A 
ATOM      8  C   UNL     1      57.549  37.279  77.853  1.00  0.00     0.133 A 
ATOM      9  C   UNL     1      57.650  36.029  77.188  1.00  0.00     0.102 A 
ATOM     10  C   UNL     1      57.575  35.862  75.715  1.00  0.00     0.174 C 
ATOM     11  O   UNL     1      57.817  36.814  74.927  1.00  0.00    -0.294 OA
ENDROOT
BRANCH   2  12
ATOM     12  C   UNL     1      57.681  32.058  75.495  1.00  0.00    -0.007 A 
ATOM     13  C   UNL     1      56.902  31.867  74.340  1.00  0.00     0.011 A 
ATOM     14  C   UNL     1      58.031  30.944  76.279  1.00  0.00     0.011 A 
ATOM     15  C   UNL     1      56.504  30.580  73.964  1.00  0.00     0.046 A 
ATOM     16  C   UNL     1      57.631  29.660  75.899  1.00  0.00     0.046 A 
ATOM     17  C   UNL     1      56.867  29.475  74.738  1.00  0.00     0.115 A 
BRANCH  17  18
ATOM     18  O   UNL     1      56.463  28.200  74.350  1.00  0.00    -0.508 OA
ATOM     19  H   UNL     1      55.977  28.042  73.473  1.00  0.00     0.293 HD
ENDBRANCH  17  18
ENDBRANCH   2  12
BRANCH   8  20
ATOM     20  O   UNL     1      57.268  38.477  77.191  1.00  0.00    -0.507 OA
ATOM     21  H   UNL     1      57.718  38.768  76.337  1.00  0.00     0.293 HD
ENDBRANCH   8  20
BRANCH   6  22
ATOM     22  O   UNL     1      58.027  36.221  81.375  1.00  0.00    -0.508 OA
ATOM     23  H   UNL     1      58.445  37.020  81.836  1.00  0.00     0.293 HD
ENDBRANCH   6  22
TORSDOF 4
ENDMDL
MODEL 3
REMARK VINA RESULT:    -6.584      1.661      2.104
REMARK INTER + INTRA:          -7.865
REMARK INTER:                  -7.582
REMARK INTRA:                  -0.283
REMARK UNBOUND:                -0.319
REMARK SMILES O=C1C[C@H](c2ccc(O)cc2)Oc2cc(O)cc(O)c21
REMARK SMILES IDX 3 1 4 2 12 3 13 4 14 5 15 6 17 7 18 8 20 9 2 10 1 11 5 12
REMARK SMILES IDX 6 13 11 14 7 15 10 16 8 17 9 18 19 20 16 22
REMARK H PARENT 9 19 19 21 16 23
REMARK Flexibility Score: inf
ROOT
ATOM      1  C   UNL     1      57.764  32.885  76.068  1.00  0.00     0.131 C 
ATOM      2  C   UNL     1      59.082  32.378  76.672  1.00  0.00     0.211 C 
ATOM      3  O   UNL     1      59.106  32.600  78.085  1.00  0.00    -0.484 OA
ATOM      4  C   UNL     1      58.594  33.764  78.676  1.00  0.00     0.138 A 
ATOM      5  C   UNL     1      58.899  34.035  80.011  1.00  0.00     0.093 A 
ATOM      6  C   UNL     1      58.418  35.192  80.623  1.00  0.00     0.123 A 
ATOM      7  C   UNL     1      57.601  36.071  79.904  1.00  0.00     0.093 A 
ATOM      8  C   UNL     1      57.250  35.799  78.576  1.00  0.00     0.133 A 
ATOM      9  C   UNL     1      57.778  34.647  77.936  1.00  0.00     0.102 A 
ATOM     10  C   UNL     1      57.531  34.297  76.515  1.00  0.00     0.174 C 
ATOM     11  O   UNL     1      57.185  35.164  75.670  1.00  0.00    -0.294 OA
ENDROOT
BRANCH   2  12
ATOM     12  C   UNL     1      59.275  30.910  76.377  1.00  0.00    -0.007 A 
ATOM     13  C   UNL     1      60.538  30.316  76.543  1.00  0.00     0.011 A 
ATOM     14  C   UNL     1      58.212  30.135  75.879  1.00  0.00     0.011 A 
ATOM     15  C   UNL     1      60.726  28.963  76.241  1.00  0.00     0.046 A 
ATOM     16  C   UNL     1      58.405  28.783  75.578  1.00  0.00     0.046 A 
ATOM     17  C   UNL     1      59.663  28.194  75.761  1.00  0.00     0.115 A 
BRANCH  17  18
ATOM     18  O   UNL     1      59.867  26.848  75.465  1.00  0.00    -0.508 OA
ATOM     19  H   UNL     1      59.102  26.247  75.179  1.00  0.00     0.293 HD
ENDBRANCH  17  18
ENDBRANCH   2  12
BRANCH   8  20
ATOM     20  O   UNL     1      56.356  36.675  77.955  1.00  0.00    -0.507 OA
ATOM     21  H   UNL     1      55.976  37.499  78.397  1.00  0.00     0.293 HD
ENDBRANCH   8  20
BRANCH   6  22
ATOM     22  O   UNL     1      58.750  35.457  81.950  1.00  0.00    -0.508 OA
ATOM     23  H   UNL     1      59.351  36.233  82.201  1.00  0.00     0.293 HD
ENDBRANCH   6  22
TORSDOF 4
ENDMDL
MODEL 4
REMARK VINA RESULT:    -6.485      1.592      2.198
REMARK INTER + INTRA:          -7.752
REMARK INTER:                  -7.449
REMARK INTRA:                  -0.303
REMARK UNBOUND:                -0.319
REMARK SMILES O=C1C[C@H](c2ccc(O)cc2)Oc2cc(O)cc(O)c21
REMARK SMILES IDX 3 1 4 2 12 3 13 4 14 5 15 6 17 7 18 8 20 9 2 10 1 11 5 12
REMARK SMILES IDX 6 13 11 14 7 15 10 16 8 17 9 18 19 20 16 22
REMARK H PARENT 9 19 19 21 16 23
REMARK Flexibility Score: inf
ROOT
ATOM      1  C   UNL     1      58.179  35.865  75.843  1.00  0.00     0.131 C 
ATOM      2  C   UNL     1      58.492  34.370  76.003  1.00  0.00     0.211 C 
ATOM      3  O   UNL     1      58.140  33.921  77.315  1.00  0.00    -0.484 OA
ATOM      4  C   UNL     1      58.355  34.696  78.464  1.00  0.00     0.138 A 
ATOM      5  C   UNL     1      58.249  34.092  79.718  1.00  0.00     0.093 A 
ATOM      6  C   UNL     1      58.472  34.833  80.878  1.00  0.00     0.123 A 
ATOM      7  C   UNL     1      58.776  36.195  80.786  1.00  0.00     0.093 A 
ATOM      8  C   UNL     1      58.849  36.831  79.539  1.00  0.00     0.133 A 
ATOM      9  C   UNL     1      58.670  36.068  78.355  1.00  0.00     0.102 A 
ATOM     10  C   UNL     1      58.793  36.620  76.983  1.00  0.00     0.174 C 
ATOM     11  O   UNL     1      59.444  37.672  76.748  1.00  0.00    -0.294 OA
ENDROOT
BRANCH   2  12
ATOM     12  C   UNL     1      57.758  33.556  74.965  1.00  0.00    -0.007 A 
ATOM     13  C   UNL     1      57.689  32.157  75.083  1.00  0.00     0.011 A 
ATOM     14  C   UNL     1      57.187  34.179  73.841  1.00  0.00     0.011 A 
ATOM     15  C   UNL     1      57.037  31.398  74.107  1.00  0.00     0.046 A 
ATOM     16  C   UNL     1      56.535  33.416  72.867  1.00  0.00     0.046 A 
ATOM     17  C   UNL     1      56.458  32.023  72.999  1.00  0.00     0.115 A 
BRANCH  17  18
ATOM     18  O   UNL     1      55.811  31.253  72.035  1.00  0.00    -0.508 OA
ATOM     19  H   UNL     1      55.291  31.681  71.276  1.00  0.00     0.293 HD
ENDBRANCH  17  18
ENDBRANCH   2  12
BRANCH   8  20
ATOM     20  O   UNL     1      59.064  38.211  79.534  1.00  0.00    -0.507 OA
ATOM     21  H   UNL     1      58.417  38.884  79.917  1.00  0.00     0.293 HD
ENDBRANCH   8  20
BRANCH   6  22
ATOM     22  O   UNL     1      58.383  34.209  82.121  1.00  0.00    -0.508 OA
ATOM     23  H   UNL     1      59.125  34.283  82.806  1.00  0.00     0.293 HD
ENDBRANCH   6  22
TORSDOF 4
ENDMDL
MODEL 5
REMARK VINA RESULT:    -6.383      2.969      5.986
REMARK INTER + INTRA:          -7.634
REMARK INTER:                  -7.328
REMARK INTRA:                  -0.306
REMARK UNBOUND:                -0.319
REMARK SMILES O=C1C[C@H](c2ccc(O)cc2)Oc2cc(O)cc(O)c21
REMARK SMILES IDX 3 1 4 2 12 3 13 4 14 5 15 6 17 7 18 8 20 9 2 10 1 11 5 12
REMARK SMILES IDX 6 13 11 14 7 15 10 16 8 17 9 18 19 20 16 22
REMARK H PARENT 9 19 19 21 16 23
REMARK Flexibility Score: inf
ROOT
ATOM      1  C   UNL     1      57.231  38.004  77.701  1.00  0.00     0.131 C 
ATOM      2  C   UNL     1      57.578  37.409  76.328  1.00  0.00     0.211 C 
ATOM      3  O   UNL     1      57.344  35.997  76.319  1.00  0.00    -0.484 OA
ATOM      4  C   UNL     1      57.644  35.173  77.413  1.00  0.00     0.138 A 
ATOM      5  C   UNL     1      57.653  33.789  77.235  1.00  0.00     0.093 A 
ATOM      6  C   UNL     1      57.962  32.943  78.300  1.00  0.00     0.123 A 
ATOM      7  C   UNL     1      58.237  33.484  79.561  1.00  0.00     0.093 A 
ATOM      8  C   UNL     1      58.195  34.869  79.771  1.00  0.00     0.133 A 
ATOM      9  C   UNL     1      57.928  35.734  78.677  1.00  0.00     0.102 A 
ATOM     10  C   UNL     1      57.928  37.215  78.768  1.00  0.00     0.174 C 
ATOM     11  O   UNL     1      58.542  37.823  79.685  1.00  0.00    -0.294 OA
ENDROOT
BRANCH   2  12
ATOM     12  C   UNL     1      56.772  38.073  75.239  1.00  0.00    -0.007 A 
ATOM     13  C   UNL     1      55.617  37.450  74.734  1.00  0.00     0.011 A 
ATOM     14  C   UNL     1      57.195  39.291  74.677  1.00  0.00     0.011 A 
ATOM     15  C   UNL     1      54.885  38.049  73.704  1.00  0.00     0.046 A 
ATOM     16  C   UNL     1      56.461  39.886  73.646  1.00  0.00     0.046 A 
ATOM     17  C   UNL     1      55.302  39.266  73.159  1.00  0.00     0.115 A 
BRANCH  17  18
ATOM     18  O   UNL     1      54.562  39.850  72.133  1.00  0.00    -0.508 OA
ATOM     19  H   UNL     1      55.014  40.283  71.335  1.00  0.00     0.293 HD
ENDBRANCH  17  18
ENDBRANCH   2  12
BRANCH   8  20
ATOM     20  O   UNL     1      58.389  35.326  81.077  1.00  0.00    -0.507 OA
ATOM     21  H   UNL     1      58.606  36.282  81.313  1.00  0.00     0.293 HD
ENDBRANCH   8  20
BRANCH   6  22
ATOM     22  O   UNL     1      57.986  31.565  78.099  1.00  0.00    -0.508 OA
ATOM     23  H   UNL     1      58.631  31.136  77.447  1.00  0.00     0.293 HD
ENDBRANCH   6  22
TORSDOF 4
ENDMDL
MODEL 6
REMARK VINA RESULT:    -6.315      2.622      6.548
REMARK INTER + INTRA:          -7.558
REMARK INTER:                  -7.237
REMARK INTRA:                  -0.321
REMARK UNBOUND:                -0.319
REMARK SMILES O=C1C[C@H](c2ccc(O)cc2)Oc2cc(O)cc(O)c21
REMARK SMILES IDX 3 1 4 2 12 3 13 4 14 5 15 6 17 7 18 8 20 9 2 10 1 11 5 12
REMARK SMILES IDX 6 13 11 14 7 15 10 16 8 17 9 18 19 20 16 22
REMARK H PARENT 9 19 19 21 16 23
REMARK Flexibility Score: inf
ROOT
ATOM      1  C   UNL     1      57.228  37.266  76.513  1.00  0.00     0.131 C 
ATOM      2  C   UNL     1      56.788  35.939  77.150  1.00  0.00     0.211 C 
ATOM      3  O   UNL     1      57.086  34.842  76.281  1.00  0.00    -0.484 OA
ATOM      4  C   UNL     1      56.923  34.912  74.891  1.00  0.00     0.138 A 
ATOM      5  C   UNL     1      56.963  33.733  74.144  1.00  0.00     0.093 A 
ATOM      6  C   UNL     1      56.790  33.768  72.761  1.00  0.00     0.123 A 
ATOM      7  C   UNL     1      56.603  34.995  72.114  1.00  0.00     0.093 A 
ATOM      8  C   UNL     1      56.599  36.194  72.839  1.00  0.00     0.133 A 
ATOM      9  C   UNL     1      56.727  36.156  74.252  1.00  0.00     0.102 A 
ATOM     10  C   UNL     1      56.666  37.354  75.126  1.00  0.00     0.174 C 
ATOM     11  O   UNL     1      56.109  38.419  74.752  1.00  0.00    -0.294 OA
ENDROOT
BRANCH   2  12
ATOM     12  C   UNL     1      57.463  35.738  78.485  1.00  0.00    -0.007 A 
ATOM     13  C   UNL     1      57.582  36.812  79.386  1.00  0.00     0.011 A 
ATOM     14  C   UNL     1      58.029  34.496  78.821  1.00  0.00     0.011 A 
ATOM     15  C   UNL     1      58.233  36.636  80.610  1.00  0.00     0.046 A 
ATOM     16  C   UNL     1      58.679  34.325  80.047  1.00  0.00     0.046 A 
ATOM     17  C   UNL     1      58.781  35.395  80.945  1.00  0.00     0.115 A 
BRANCH  17  18
ATOM     18  O   UNL     1      59.427  35.236  82.170  1.00  0.00    -0.508 OA
ATOM     19  H   UNL     1      59.839  34.350  82.440  1.00  0.00     0.293 HD
ENDBRANCH  17  18
ENDBRANCH   2  12
BRANCH   8  20
ATOM     20  O   UNL     1      56.500  37.383  72.112  1.00  0.00    -0.507 OA
ATOM     21  H   UNL     1      55.757  37.585  71.460  1.00  0.00     0.293 HD
ENDBRANCH   8  20
BRANCH   6  22
ATOM     22  O   UNL     1      56.812  32.580  72.034  1.00  0.00    -0.508 OA
ATOM     23  H   UNL     1      57.245  31.741  72.402  1.00  0.00     0.293 HD
ENDBRANCH   6  22
TORSDOF 4
ENDMDL
MODEL 7
REMARK VINA RESULT:    -6.176      2.812      6.648
REMARK INTER + INTRA:          -7.398
REMARK INTER:                  -7.108
REMARK INTRA:                  -0.290
REMARK UNBOUND:                -0.319
REMARK SMILES O=C1C[C@H](c2ccc(O)cc2)Oc2cc(O)cc(O)c21
REMARK SMILES IDX 3 1 4 2 12 3 13 4 14 5 15 6 17 7 18 8 20 9 2 10 1 11 5 12
REMARK SMILES IDX 6 13 11 14 7 15 10 16 8 17 9 18 19 20 16 22
REMARK H PARENT 9 19 19 21 16 23
REMARK Flexibility Score: inf
ROOT
ATOM      1  C   UNL     1      58.312  34.327  75.874  1.00  0.00     0.131 C 
ATOM      2  C   UNL     1      58.283  35.693  76.574  1.00  0.00     0.211 C 
ATOM      3  O   UNL     1      57.061  36.380  76.284  1.00  0.00    -0.484 OA
ATOM      4  C   UNL     1      56.460  36.352  75.018  1.00  0.00     0.138 A 
ATOM      5  C   UNL     1      55.437  37.259  74.734  1.00  0.00     0.093 A 
ATOM      6  C   UNL     1      54.829  37.265  73.479  1.00  0.00     0.123 A 
ATOM      7  C   UNL     1      55.226  36.340  72.508  1.00  0.00     0.093 A 
ATOM      8  C   UNL     1      56.223  35.395  72.785  1.00  0.00     0.133 A 
ATOM      9  C   UNL     1      56.877  35.418  74.045  1.00  0.00     0.102 A 
ATOM     10  C   UNL     1      57.991  34.513  74.421  1.00  0.00     0.174 C 
ATOM     11  O   UNL     1      58.705  33.944  73.553  1.00  0.00    -0.294 OA
ENDROOT
BRANCH   2  12
ATOM     12  C   UNL     1      58.443  35.532  78.066  1.00  0.00    -0.007 A 
ATOM     13  C   UNL     1      58.329  34.261  78.656  1.00  0.00     0.011 A 
ATOM     14  C   UNL     1      58.650  36.654  78.889  1.00  0.00     0.011 A 
ATOM     15  C   UNL     1      58.446  34.114  80.042  1.00  0.00     0.046 A 
ATOM     16  C   UNL     1      58.766  36.502  80.274  1.00  0.00     0.046 A 
ATOM     17  C   UNL     1      58.667  35.230  80.853  1.00  0.00     0.115 A 
BRANCH  17  18
ATOM     18  O   UNL     1      58.782  35.067  82.232  1.00  0.00    -0.508 OA
ATOM     19  H   UNL     1      58.481  35.788  82.877  1.00  0.00     0.293 HD
ENDBRANCH  17  18
ENDBRANCH   2  12
BRANCH   8  20
ATOM     20  O   UNL     1      56.499  34.445  71.798  1.00  0.00    -0.507 OA
ATOM     21  H   UNL     1      56.134  33.505  71.803  1.00  0.00     0.293 HD
ENDBRANCH   8  20
BRANCH   6  22
ATOM     22  O   UNL     1      53.824  38.191  73.206  1.00  0.00    -0.508 OA
ATOM     23  H   UNL     1      53.389  38.248  72.293  1.00  0.00     0.293 HD
ENDBRANCH   6  22
TORSDOF 4
ENDMDL
MODEL 8
REMARK VINA RESULT:    -6.157      2.914      6.326
REMARK INTER + INTRA:          -7.376
REMARK INTER:                  -7.064
REMARK INTRA:                  -0.312
REMARK UNBOUND:                -0.319
REMARK SMILES O=C1C[C@H](c2ccc(O)cc2)Oc2cc(O)cc(O)c21
REMARK SMILES IDX 3 1 4 2 12 3 13 4 14 5 15 6 17 7 18 8 20 9 2 10 1 11 5 12
REMARK SMILES IDX 6 13 11 14 7 15 10 16 8 17 9 18 19 20 16 22
REMARK H PARENT 9 19 19 21 16 23
REMARK Flexibility Score: inf
ROOT
ATOM      1  C   UNL     1      57.609  35.871  75.648  1.00  0.00     0.131 C 
ATOM      2  C   UNL     1      56.950  37.017  76.428  1.00  0.00     0.211 C 
ATOM      3  O   UNL     1      57.546  37.152  77.722  1.00  0.00    -0.484 OA
ATOM      4  C   UNL     1      57.923  36.049  78.500  1.00  0.00     0.138 A 
ATOM      5  C   UNL     1      58.234  36.245  79.847  1.00  0.00     0.093 A 
ATOM      6  C   UNL     1      58.599  35.165  80.650  1.00  0.00     0.123 A 
ATOM      7  C   UNL     1      58.682  33.883  80.097  1.00  0.00     0.093 A 
ATOM      8  C   UNL     1      58.413  33.669  78.738  1.00  0.00     0.133 A 
ATOM      9  C   UNL     1      57.994  34.759  77.930  1.00  0.00     0.102 A 
ATOM     10  C   UNL     1      57.617  34.638  76.500  1.00  0.00     0.174 C 
ATOM     11  O   UNL     1      57.252  33.540  76.002  1.00  0.00    -0.294 OA
ENDROOT
BRANCH   2  12
ATOM     12  C   UNL     1      57.065  38.316  75.668  1.00  0.00    -0.007 A 
ATOM     13  C   UNL     1      57.721  39.418  76.247  1.00  0.00     0.011 A 
ATOM     14  C   UNL     1      56.472  38.459  74.401  1.00  0.00     0.011 A 
ATOM     15  C   UNL     1      57.802  40.631  75.557  1.00  0.00     0.046 A 
ATOM     16  C   UNL     1      56.556  39.675  73.716  1.00  0.00     0.046 A 
ATOM     17  C   UNL     1      57.223  40.764  74.292  1.00  0.00     0.115 A 
BRANCH  17  18
ATOM     18  O   UNL     1      57.313  41.980  73.618  1.00  0.00    -0.508 OA
ATOM     19  H   UNL     1      57.221  42.864  74.106  1.00  0.00     0.293 HD
ENDBRANCH  17  18
ENDBRANCH   2  12
BRANCH   8  20
ATOM     20  O   UNL     1      58.607  32.379  78.241  1.00  0.00    -0.507 OA
ATOM     21  H   UNL     1      57.862  31.784  77.910  1.00  0.00     0.293 HD
ENDBRANCH   8  20
BRANCH   6  22
ATOM     22  O   UNL     1      58.885  35.376  81.997  1.00  0.00    -0.508 OA
ATOM     23  H   UNL     1      58.305  34.985  82.730  1.00  0.00     0.293 HD
ENDBRANCH   6  22
TORSDOF 4
ENDMDL
MODEL 9
REMARK VINA RESULT:    -6.105      1.665      3.303
REMARK INTER + INTRA:          -7.316
REMARK INTER:                  -7.034
REMARK INTRA:                  -0.282
REMARK UNBOUND:                -0.319
REMARK SMILES O=C1C[C@H](c2ccc(O)cc2)Oc2cc(O)cc(O)c21
REMARK SMILES IDX 3 1 4 2 12 3 13 4 14 5 15 6 17 7 18 8 20 9 2 10 1 11 5 12
REMARK SMILES IDX 6 13 11 14 7 15 10 16 8 17 9 18 19 20 16 22
REMARK H PARENT 9 19 19 21 16 23
REMARK Flexibility Score: inf
ROOT
ATOM      1  C   UNL     1      58.626  32.764  78.496  1.00  0.00     0.131 C 
ATOM      2  C   UNL     1      57.725  32.342  77.326  1.00  0.00     0.211 C 
ATOM      3  O   UNL     1      57.552  33.426  76.408  1.00  0.00    -0.484 OA
ATOM      4  C   UNL     1      57.392  34.754  76.827  1.00  0.00     0.138 A 
ATOM      5  C   UNL     1      56.953  35.707  75.906  1.00  0.00     0.093 A 
ATOM      6  C   UNL     1      56.771  37.034  76.297  1.00  0.00     0.123 A 
ATOM      7  C   UNL     1      57.055  37.417  77.611  1.00  0.00     0.093 A 
ATOM      8  C   UNL     1      57.534  36.486  78.542  1.00  0.00     0.133 A 
ATOM      9  C   UNL     1      57.675  35.126  78.160  1.00  0.00     0.102 A 
ATOM     10  C   UNL     1      58.105  34.043  79.079  1.00  0.00     0.174 C 
ATOM     11  O   UNL     1      57.993  34.151  80.329  1.00  0.00    -0.294 OA
ENDROOT
BRANCH   2  12
ATOM     12  C   UNL     1      58.304  31.147  76.609  1.00  0.00    -0.007 A 
ATOM     13  C   UNL     1      57.456  30.230  75.963  1.00  0.00     0.011 A 
ATOM     14  C   UNL     1      59.689  30.904  76.628  1.00  0.00     0.011 A 
ATOM     15  C   UNL     1      57.988  29.106  75.325  1.00  0.00     0.046 A 
ATOM     16  C   UNL     1      60.217  29.778  75.988  1.00  0.00     0.046 A 
ATOM     17  C   UNL     1      59.367  28.877  75.334  1.00  0.00     0.115 A 
BRANCH  17  18
ATOM     18  O   UNL     1      59.882  27.752  74.693  1.00  0.00    -0.508 OA
ATOM     19  H   UNL     1      60.646  27.219  75.093  1.00  0.00     0.293 HD
ENDBRANCH  17  18
ENDBRANCH   2  12
BRANCH   8  20
ATOM     20  O   UNL     1      57.883  36.964  79.807  1.00  0.00    -0.507 OA
ATOM     21  H   UNL     1      58.710  36.678  80.310  1.00  0.00     0.293 HD
ENDBRANCH   8  20
BRANCH   6  22
ATOM     22  O   UNL     1      56.312  37.967  75.369  1.00  0.00    -0.508 OA
ATOM     23  H   UNL     1      55.327  38.057  75.151  1.00  0.00     0.293 HD
ENDBRANCH   6  22
TORSDOF 4
ENDMDL
