MODEL 1
REMARK VINA RESULT:    -3.385      0.000      0.000
REMARK INTER + INTRA:          -8.609
REMARK INTER:                  -6.156
REMARK INTRA:                  -2.453
REMARK UNBOUND:                -2.453
REMARK SMILES CCCCCCCCCCCCCC[C@@H](C)C(=O)[O-]
REMARK SMILES IDX 9 1 10 2 11 3 12 4 13 5 14 6 15 7 16 8 17 9 18 10 19 11 8 12
REMARK SMILES IDX 7 13 6 14 5 15 4 16 3 17 2 18 1 19
REMARK H PARENT
REMARK Flexibility Score: inf
ROOT
ATOM      1  C   UNL     1      62.043  32.626  57.956  1.00  0.00     0.000 C 
ENDROOT
BRANCH   1   2
ATOM      2  C   UNL     1      60.778  32.635  58.834  1.00  0.00     0.000 C 
BRANCH   2   3
ATOM      3  C   UNL     1      60.652  31.388  59.720  1.00  0.00     0.000 C 
BRANCH   3   4
ATOM      4  C   UNL     1      61.073  31.694  61.163  1.00  0.00     0.000 C 
BRANCH   4   5
ATOM      5  C   UNL     1      61.870  30.549  61.813  1.00  0.00     0.001 C 
BRANCH   5   6
ATOM      6  C   UNL     1      63.382  30.545  61.509  1.00  0.00     0.009 C 
BRANCH   6   7
ATOM      7  C   UNL     1      63.947  29.195  61.007  1.00  0.00     0.032 C 
ATOM      8  C   UNL     1      63.220  28.688  59.753  1.00  0.00     0.014 C 
BRANCH   7   9
ATOM      9  C   UNL     1      65.418  29.334  60.726  1.00  0.00     0.044 C 
ATOM     10  O   UNL     1      65.860  30.339  60.104  1.00  0.00    -0.550 OA
ATOM     11  O   UNL     1      66.304  28.358  61.163  1.00  0.00    -0.550 OA
ENDBRANCH   7   9
ENDBRANCH   6   7
ENDBRANCH   5   6
ENDBRANCH   4   5
ENDBRANCH   3   4
ENDBRANCH   2   3
ENDBRANCH   1   2
BRANCH   1  12
ATOM     12  C   UNL     1      62.554  34.015  57.533  1.00  0.00     0.000 C 
BRANCH  12  13
ATOM     13  C   UNL     1      63.928  34.357  58.135  1.00  0.00    -0.000 C 
BRANCH  13  14
ATOM     14  C   UNL     1      64.358  33.361  59.225  1.00  0.00    -0.000 C 
BRANCH  14  15
ATOM     15  C   UNL     1      64.486  34.021  60.609  1.00  0.00    -0.000 C 
BRANCH  15  16
ATOM     16  C   UNL     1      63.181  34.693  61.067  1.00  0.00    -0.000 C 
BRANCH  16  17
ATOM     17  C   UNL     1      63.335  36.206  61.282  1.00  0.00    -0.000 C 
BRANCH  17  18
ATOM     18  C   UNL     1      62.015  36.935  61.008  1.00  0.00    -0.003 C 
ATOM     19  C   UNL     1      60.962  35.980  60.450  1.00  0.00     0.004 C 
ENDBRANCH  17  18
ENDBRANCH  16  17
ENDBRANCH  15  16
ENDBRANCH  14  15
ENDBRANCH  13  14
ENDBRANCH  12  13
ENDBRANCH   1  12
TORSDOF 14
ENDMDL
MODEL 2
REMARK VINA RESULT:    -3.284      3.974      5.655
REMARK INTER + INTRA:          -8.425
REMARK INTER:                  -6.370
REMARK INTRA:                  -2.056
REMARK UNBOUND:                -2.453
REMARK SMILES CCCCCCCCCCCCCC[C@@H](C)C(=O)[O-]
REMARK SMILES IDX 9 1 10 2 11 3 12 4 13 5 14 6 15 7 16 8 17 9 18 10 19 11 8 12
REMARK SMILES IDX 7 13 6 14 5 15 4 16 3 17 2 18 1 19
REMARK H PARENT
REMARK Flexibility Score: inf
ROOT
ATOM      1  C   UNL     1      64.067  29.241  60.950  1.00  0.00     0.000 C 
ENDROOT
BRANCH   1   2
ATOM      2  C   UNL     1      63.107  28.190  60.363  1.00  0.00     0.000 C 
BRANCH   2   3
ATOM      3  C   UNL     1      63.166  26.844  61.100  1.00  0.00     0.000 C 
BRANCH   3   4
ATOM      4  C   UNL     1      61.870  26.589  61.882  1.00  0.00     0.000 C 
BRANCH   4   5
ATOM      5  C   UNL     1      60.633  26.476  60.974  1.00  0.00     0.001 C 
BRANCH   5   6
ATOM      6  C   UNL     1      59.285  26.786  61.658  1.00  0.00     0.009 C 
BRANCH   6   7
ATOM      7  C   UNL     1      58.639  28.132  61.253  1.00  0.00     0.032 C 
ATOM      8  C   UNL     1      59.063  28.584  59.847  1.00  0.00     0.014 C 
BRANCH   7   9
ATOM      9  C   UNL     1      57.141  28.017  61.323  1.00  0.00     0.044 C 
ATOM     10  O   UNL     1      56.588  27.429  62.293  1.00  0.00    -0.550 OA
ATOM     11  O   UNL     1      56.354  28.571  60.322  1.00  0.00    -0.550 OA
ENDBRANCH   7   9
ENDBRANCH   6   7
ENDBRANCH   5   6
ENDBRANCH   4   5
ENDBRANCH   3   4
ENDBRANCH   2   3
ENDBRANCH   1   2
BRANCH   1  12
ATOM     12  C   UNL     1      63.385  30.432  61.646  1.00  0.00     0.000 C 
BRANCH  12  13
ATOM     13  C   UNL     1      61.864  30.249  61.794  1.00  0.00    -0.000 C 
BRANCH  13  14
ATOM     14  C   UNL     1      61.076  31.498  61.368  1.00  0.00    -0.000 C 
BRANCH  14  15
ATOM     15  C   UNL     1      61.141  31.747  59.851  1.00  0.00    -0.000 C 
BRANCH  15  16
ATOM     16  C   UNL     1      61.872  33.052  59.496  1.00  0.00    -0.000 C 
BRANCH  16  17
ATOM     17  C   UNL     1      61.569  34.190  60.482  1.00  0.00    -0.000 C 
BRANCH  17  18
ATOM     18  C   UNL     1      62.843  34.971  60.825  1.00  0.00    -0.003 C 
ATOM     19  C   UNL     1      64.034  34.034  61.002  1.00  0.00     0.004 C 
ENDBRANCH  17  18
ENDBRANCH  16  17
ENDBRANCH  15  16
ENDBRANCH  14  15
ENDBRANCH  13  14
ENDBRANCH  12  13
ENDBRANCH   1  12
TORSDOF 14
ENDMDL
MODEL 3
REMARK VINA RESULT:    -3.230     10.899     12.966
REMARK INTER + INTRA:          -8.328
REMARK INTER:                  -5.885
REMARK INTRA:                  -2.442
REMARK UNBOUND:                -2.453
REMARK SMILES CCCCCCCCCCCCCC[C@@H](C)C(=O)[O-]
REMARK SMILES IDX 9 1 10 2 11 3 12 4 13 5 14 6 15 7 16 8 17 9 18 10 19 11 8 12
REMARK SMILES IDX 7 13 6 14 5 15 4 16 3 17 2 18 1 19
REMARK H PARENT
REMARK Flexibility Score: inf
ROOT
ATOM      1  C   UNL     1      56.222  25.662  52.673  1.00  0.00     0.000 C 
ENDROOT
BRANCH   1   2
ATOM      2  C   UNL     1      57.441  26.595  52.791  1.00  0.00     0.000 C 
BRANCH   2   3
ATOM      3  C   UNL     1      58.748  25.938  52.325  1.00  0.00     0.000 C 
BRANCH   3   4
ATOM      4  C   UNL     1      58.543  25.182  51.006  1.00  0.00     0.000 C 
BRANCH   4   5
ATOM      5  C   UNL     1      58.481  26.113  49.783  1.00  0.00     0.001 C 
BRANCH   5   6
ATOM      6  C   UNL     1      59.819  26.769  49.387  1.00  0.00     0.009 C 
BRANCH   6   7
ATOM      7  C   UNL     1      59.817  28.316  49.386  1.00  0.00     0.032 C 
ATOM      8  C   UNL     1      58.466  28.898  49.828  1.00  0.00     0.014 C 
BRANCH   7   9
ATOM      9  C   UNL     1      60.912  28.825  50.283  1.00  0.00     0.044 C 
ATOM     10  O   UNL     1      61.465  28.059  51.117  1.00  0.00    -0.550 OA
ATOM     11  O   UNL     1      61.330  30.146  50.186  1.00  0.00    -0.550 OA
ENDBRANCH   7   9
ENDBRANCH   6   7
ENDBRANCH   5   6
ENDBRANCH   4   5
ENDBRANCH   3   4
ENDBRANCH   2   3
ENDBRANCH   1   2
BRANCH   1  12
ATOM     12  C   UNL     1      54.922  26.206  53.291  1.00  0.00     0.000 C 
BRANCH  12  13
ATOM     13  C   UNL     1      55.000  27.705  53.628  1.00  0.00    -0.000 C 
BRANCH  13  14
ATOM     14  C   UNL     1      54.194  28.572  52.647  1.00  0.00    -0.000 C 
BRANCH  14  15
ATOM     15  C   UNL     1      55.060  29.121  51.499  1.00  0.00    -0.000 C 
BRANCH  15  16
ATOM     16  C   UNL     1      54.921  28.299  50.207  1.00  0.00    -0.000 C 
BRANCH  16  17
ATOM     17  C   UNL     1      53.468  27.903  49.908  1.00  0.00    -0.000 C 
BRANCH  17  18
ATOM     18  C   UNL     1      53.379  26.434  49.476  1.00  0.00    -0.003 C 
ATOM     19  C   UNL     1      54.767  25.816  49.330  1.00  0.00     0.004 C 
ENDBRANCH  17  18
ENDBRANCH  16  17
ENDBRANCH  15  16
ENDBRANCH  14  15
ENDBRANCH  13  14
ENDBRANCH  12  13
ENDBRANCH   1  12
TORSDOF 14
ENDMDL
MODEL 4
REMARK VINA RESULT:    -3.155     10.568     12.841
REMARK INTER + INTRA:          -8.191
REMARK INTER:                  -5.965
REMARK INTRA:                  -2.227
REMARK UNBOUND:                -2.453
REMARK SMILES CCCCCCCCCCCCCC[C@@H](C)C(=O)[O-]
REMARK SMILES IDX 9 1 10 2 11 3 12 4 13 5 14 6 15 7 16 8 17 9 18 10 19 11 8 12
REMARK SMILES IDX 7 13 6 14 5 15 4 16 3 17 2 18 1 19
REMARK H PARENT
REMARK Flexibility Score: inf
ROOT
ATOM      1  C   UNL     1      57.131  28.671  52.718  1.00  0.00     0.000 C 
ENDROOT
BRANCH   1   2
ATOM      2  C   UNL     1      57.748  27.519  51.904  1.00  0.00     0.000 C 
BRANCH   2   3
ATOM      3  C   UNL     1      57.572  27.691  50.389  1.00  0.00     0.000 C 
BRANCH   3   4
ATOM      4  C   UNL     1      58.118  29.048  49.923  1.00  0.00     0.000 C 
BRANCH   4   5
ATOM      5  C   UNL     1      59.648  29.053  49.753  1.00  0.00     0.001 C 
BRANCH   5   6
ATOM      6  C   UNL     1      60.248  27.764  49.156  1.00  0.00     0.009 C 
BRANCH   6   7
ATOM      7  C   UNL     1      61.364  27.107  50.003  1.00  0.00     0.032 C 
ATOM      8  C   UNL     1      61.440  27.690  51.422  1.00  0.00     0.014 C 
BRANCH   7   9
ATOM      9  C   UNL     1      61.141  25.621  50.071  1.00  0.00     0.044 C 
ATOM     10  O   UNL     1      62.115  24.832  50.206  1.00  0.00    -0.550 OA
ATOM     11  O   UNL     1      59.851  25.109  49.999  1.00  0.00    -0.550 OA
ENDBRANCH   7   9
ENDBRANCH   6   7
ENDBRANCH   5   6
ENDBRANCH   4   5
ENDBRANCH   3   4
ENDBRANCH   2   3
ENDBRANCH   1   2
BRANCH   1  12
ATOM     12  C   UNL     1      55.592  28.689  52.759  1.00  0.00     0.000 C 
BRANCH  12  13
ATOM     13  C   UNL     1      55.013  30.111  52.864  1.00  0.00    -0.000 C 
BRANCH  13  14
ATOM     14  C   UNL     1      54.022  30.427  51.732  1.00  0.00    -0.000 C 
BRANCH  14  15
ATOM     15  C   UNL     1      54.230  29.531  50.499  1.00  0.00    -0.000 C 
BRANCH  15  16
ATOM     16  C   UNL     1      52.922  28.889  50.007  1.00  0.00    -0.000 C 
BRANCH  16  17
ATOM     17  C   UNL     1      52.875  27.374  50.252  1.00  0.00    -0.000 C 
BRANCH  17  18
ATOM     18  C   UNL     1      54.105  26.683  49.651  1.00  0.00    -0.003 C 
ATOM     19  C   UNL     1      54.628  25.586  50.574  1.00  0.00     0.004 C 
ENDBRANCH  17  18
ENDBRANCH  16  17
ENDBRANCH  15  16
ENDBRANCH  14  15
ENDBRANCH  13  14
ENDBRANCH  12  13
ENDBRANCH   1  12
TORSDOF 14
ENDMDL
MODEL 5
REMARK VINA RESULT:    -3.098     10.689     12.928
REMARK INTER + INTRA:          -8.088
REMARK INTER:                  -5.349
REMARK INTRA:                  -2.738
REMARK UNBOUND:                -2.453
REMARK SMILES CCCCCCCCCCCCCC[C@@H](C)C(=O)[O-]
REMARK SMILES IDX 9 1 10 2 11 3 12 4 13 5 14 6 15 7 16 8 17 9 18 10 19 11 8 12
REMARK SMILES IDX 7 13 6 14 5 15 4 16 3 17 2 18 1 19
REMARK H PARENT
REMARK Flexibility Score: inf
ROOT
ATOM      1  C   UNL     1      59.457  28.430  53.220  1.00  0.00     0.000 C 
ENDROOT
BRANCH   1   2
ATOM      2  C   UNL     1      58.682  27.115  53.423  1.00  0.00     0.000 C 
BRANCH   2   3
ATOM      3  C   UNL     1      57.451  26.995  52.513  1.00  0.00     0.000 C 
BRANCH   3   4
ATOM      4  C   UNL     1      57.058  28.363  51.938  1.00  0.00     0.000 C 
BRANCH   4   5
ATOM      5  C   UNL     1      56.487  28.273  50.511  1.00  0.00     0.001 C 
BRANCH   5   6
ATOM      6  C   UNL     1      55.953  26.885  50.103  1.00  0.00     0.009 C 
BRANCH   6   7
ATOM      7  C   UNL     1      54.451  26.842  49.736  1.00  0.00     0.032 C 
ATOM      8  C   UNL     1      54.025  25.476  49.177  1.00  0.00     0.014 C 
BRANCH   7   9
ATOM      9  C   UNL     1      53.623  27.182  50.944  1.00  0.00     0.044 C 
ATOM     10  O   UNL     1      53.591  26.406  51.938  1.00  0.00    -0.550 OA
ATOM     11  O   UNL     1      52.897  28.366  50.978  1.00  0.00    -0.550 OA
ENDBRANCH   7   9
ENDBRANCH   6   7
ENDBRANCH   5   6
ENDBRANCH   4   5
ENDBRANCH   3   4
ENDBRANCH   2   3
ENDBRANCH   1   2
BRANCH   1  12
ATOM     12  C   UNL     1      60.973  28.269  53.014  1.00  0.00     0.000 C 
BRANCH  12  13
ATOM     13  C   UNL     1      61.455  28.820  51.661  1.00  0.00    -0.000 C 
BRANCH  13  14
ATOM     14  C   UNL     1      60.384  29.668  50.955  1.00  0.00    -0.000 C 
BRANCH  14  15
ATOM     15  C   UNL     1      59.922  29.045  49.625  1.00  0.00    -0.000 C 
BRANCH  15  16
ATOM     16  C   UNL     1      60.600  27.695  49.338  1.00  0.00    -0.000 C 
BRANCH  16  17
ATOM     17  C   UNL     1      59.649  26.503  49.510  1.00  0.00    -0.000 C 
BRANCH  17  18
ATOM     18  C   UNL     1      60.384  25.298  50.108  1.00  0.00    -0.003 C 
ATOM     19  C   UNL     1      59.416  24.358  50.822  1.00  0.00     0.004 C 
ENDBRANCH  17  18
ENDBRANCH  16  17
ENDBRANCH  15  16
ENDBRANCH  14  15
ENDBRANCH  13  14
ENDBRANCH  12  13
ENDBRANCH   1  12
TORSDOF 14
ENDMDL
MODEL 6
REMARK VINA RESULT:    -3.096     10.012     12.595
REMARK INTER + INTRA:          -8.084
REMARK INTER:                  -6.652
REMARK INTRA:                  -1.432
REMARK UNBOUND:                -2.453
REMARK SMILES CCCCCCCCCCCCCC[C@@H](C)C(=O)[O-]
REMARK SMILES IDX 9 1 10 2 11 3 12 4 13 5 14 6 15 7 16 8 17 9 18 10 19 11 8 12
REMARK SMILES IDX 7 13 6 14 5 15 4 16 3 17 2 18 1 19
REMARK H PARENT
REMARK Flexibility Score: inf
ROOT
ATOM      1  C   UNL     1      61.022  26.805  49.999  1.00  0.00     0.000 C 
ENDROOT
BRANCH   1   2
ATOM      2  C   UNL     1      62.198  27.576  49.373  1.00  0.00     0.000 C 
BRANCH   2   3
ATOM      3  C   UNL     1      62.983  28.409  50.396  1.00  0.00     0.000 C 
BRANCH   3   4
ATOM      4  C   UNL     1      62.087  28.824  51.571  1.00  0.00     0.000 C 
BRANCH   4   5
ATOM      5  C   UNL     1      61.736  30.322  51.558  1.00  0.00     0.001 C 
BRANCH   5   6
ATOM      6  C   UNL     1      62.007  31.050  50.226  1.00  0.00     0.009 C 
BRANCH   6   7
ATOM      7  C   UNL     1      62.403  32.540  50.362  1.00  0.00     0.032 C 
ATOM      8  C   UNL     1      63.307  32.796  51.577  1.00  0.00     0.014 C 
BRANCH   7   9
ATOM      9  C   UNL     1      63.092  32.997  49.105  1.00  0.00     0.044 C 
ATOM     10  O   UNL     1      62.492  33.737  48.278  1.00  0.00    -0.550 OA
ATOM     11  O   UNL     1      64.404  32.617  48.855  1.00  0.00    -0.550 OA
ENDBRANCH   7   9
ENDBRANCH   6   7
ENDBRANCH   5   6
ENDBRANCH   4   5
ENDBRANCH   3   4
ENDBRANCH   2   3
ENDBRANCH   1   2
BRANCH   1  12
ATOM     12  C   UNL     1      59.652  27.060  49.345  1.00  0.00     0.000 C 
BRANCH  12  13
ATOM     13  C   UNL     1      59.300  28.555  49.256  1.00  0.00    -0.000 C 
BRANCH  13  14
ATOM     14  C   UNL     1      58.184  28.957  50.233  1.00  0.00    -0.000 C 
BRANCH  14  15
ATOM     15  C   UNL     1      57.083  27.886  50.342  1.00  0.00    -0.000 C 
BRANCH  15  16
ATOM     16  C   UNL     1      55.670  28.491  50.364  1.00  0.00    -0.000 C 
BRANCH  16  17
ATOM     17  C   UNL     1      54.566  27.424  50.330  1.00  0.00    -0.000 C 
BRANCH  17  18
ATOM     18  C   UNL     1      55.033  26.178  49.567  1.00  0.00    -0.003 C 
ATOM     19  C   UNL     1      53.907  25.156  49.438  1.00  0.00     0.004 C 
ENDBRANCH  17  18
ENDBRANCH  16  17
ENDBRANCH  15  16
ENDBRANCH  14  15
ENDBRANCH  13  14
ENDBRANCH  12  13
ENDBRANCH   1  12
TORSDOF 14
ENDMDL
MODEL 7
REMARK VINA RESULT:    -3.043     10.289     12.332
REMARK INTER + INTRA:          -7.986
REMARK INTER:                  -5.289
REMARK INTRA:                  -2.697
REMARK UNBOUND:                -2.453
REMARK SMILES CCCCCCCCCCCCCC[C@@H](C)C(=O)[O-]
REMARK SMILES IDX 9 1 10 2 11 3 12 4 13 5 14 6 15 7 16 8 17 9 18 10 19 11 8 12
REMARK SMILES IDX 7 13 6 14 5 15 4 16 3 17 2 18 1 19
REMARK H PARENT
REMARK Flexibility Score: inf
ROOT
ATOM      1  C   UNL     1      58.692  26.603  52.582  1.00  0.00     0.000 C 
ENDROOT
BRANCH   1   2
ATOM      2  C   UNL     1      57.864  27.863  52.897  1.00  0.00     0.000 C 
BRANCH   2   3
ATOM      3  C   UNL     1      58.444  29.137  52.266  1.00  0.00     0.000 C 
BRANCH   3   4
ATOM      4  C   UNL     1      58.103  29.214  50.772  1.00  0.00     0.000 C 
BRANCH   4   5
ATOM      5  C   UNL     1      59.331  29.021  49.864  1.00  0.00     0.001 C 
BRANCH   5   6
ATOM      6  C   UNL     1      60.696  29.153  50.568  1.00  0.00     0.009 C 
BRANCH   6   7
ATOM      7  C   UNL     1      61.699  28.012  50.274  1.00  0.00     0.032 C 
ATOM      8  C   UNL     1      61.025  26.795  49.623  1.00  0.00     0.014 C 
BRANCH   7   9
ATOM      9  C   UNL     1      62.802  28.522  49.388  1.00  0.00     0.044 C 
ATOM     10  O   UNL     1      63.118  29.743  49.396  1.00  0.00    -0.550 OA
ATOM     11  O   UNL     1      63.491  27.643  48.562  1.00  0.00    -0.550 OA
ENDBRANCH   7   9
ENDBRANCH   6   7
ENDBRANCH   5   6
ENDBRANCH   4   5
ENDBRANCH   3   4
ENDBRANCH   2   3
ENDBRANCH   1   2
BRANCH   1  12
ATOM     12  C   UNL     1      57.912  25.462  51.905  1.00  0.00     0.000 C 
BRANCH  12  13
ATOM     13  C   UNL     1      57.838  25.613  50.376  1.00  0.00    -0.000 C 
BRANCH  13  14
ATOM     14  C   UNL     1      56.470  26.129  49.900  1.00  0.00    -0.000 C 
BRANCH  14  15
ATOM     15  C   UNL     1      55.349  25.848  50.916  1.00  0.00    -0.000 C 
BRANCH  15  16
ATOM     16  C   UNL     1      54.565  27.114  51.298  1.00  0.00    -0.000 C 
BRANCH  16  17
ATOM     17  C   UNL     1      54.333  28.052  50.104  1.00  0.00    -0.000 C 
BRANCH  17  18
ATOM     18  C   UNL     1      54.375  29.520  50.545  1.00  0.00    -0.003 C 
ATOM     19  C   UNL     1      54.606  29.638  52.049  1.00  0.00     0.004 C 
ENDBRANCH  17  18
ENDBRANCH  16  17
ENDBRANCH  15  16
ENDBRANCH  14  15
ENDBRANCH  13  14
ENDBRANCH  12  13
ENDBRANCH   1  12
TORSDOF 14
ENDMDL
MODEL 8
REMARK VINA RESULT:    -3.041     10.461     12.669
REMARK INTER + INTRA:          -7.983
REMARK INTER:                  -5.449
REMARK INTRA:                  -2.533
REMARK UNBOUND:                -2.453
REMARK SMILES CCCCCCCCCCCCCC[C@@H](C)C(=O)[O-]
REMARK SMILES IDX 9 1 10 2 11 3 12 4 13 5 14 6 15 7 16 8 17 9 18 10 19 11 8 12
REMARK SMILES IDX 7 13 6 14 5 15 4 16 3 17 2 18 1 19
REMARK H PARENT
REMARK Flexibility Score: inf
ROOT
ATOM      1  C   UNL     1      57.768  25.489  51.065  1.00  0.00     0.000 C 
ENDROOT
BRANCH   1   2
ATOM      2  C   UNL     1      56.317  25.968  51.254  1.00  0.00     0.000 C 
BRANCH   2   3
ATOM      3  C   UNL     1      55.514  25.984  49.945  1.00  0.00     0.000 C 
BRANCH   3   4
ATOM      4  C   UNL     1      54.624  27.231  49.861  1.00  0.00     0.000 C 
BRANCH   4   5
ATOM      5  C   UNL     1      55.259  28.468  50.522  1.00  0.00     0.001 C 
BRANCH   5   6
ATOM      6  C   UNL     1      54.284  29.623  50.829  1.00  0.00     0.009 C 
BRANCH   6   7
ATOM      7  C   UNL     1      53.868  29.753  52.313  1.00  0.00     0.032 C 
ATOM      8  C   UNL     1      54.459  28.635  53.185  1.00  0.00     0.014 C 
BRANCH   7   9
ATOM      9  C   UNL     1      54.292  31.095  52.843  1.00  0.00     0.044 C 
ATOM     10  O   UNL     1      55.475  31.284  53.238  1.00  0.00    -0.550 OA
ATOM     11  O   UNL     1      53.381  32.143  52.887  1.00  0.00    -0.550 OA
ENDBRANCH   7   9
ENDBRANCH   6   7
ENDBRANCH   5   6
ENDBRANCH   4   5
ENDBRANCH   3   4
ENDBRANCH   2   3
ENDBRANCH   1   2
BRANCH   1  12
ATOM     12  C   UNL     1      58.407  25.859  49.714  1.00  0.00     0.000 C 
BRANCH  12  13
ATOM     13  C   UNL     1      59.913  26.152  49.825  1.00  0.00    -0.000 C 
BRANCH  13  14
ATOM     14  C   UNL     1      60.251  27.621  49.523  1.00  0.00    -0.000 C 
BRANCH  14  15
ATOM     15  C   UNL     1      58.994  28.498  49.384  1.00  0.00    -0.000 C 
BRANCH  15  16
ATOM     16  C   UNL     1      58.857  29.520  50.524  1.00  0.00    -0.000 C 
BRANCH  16  17
ATOM     17  C   UNL     1      59.285  28.953  51.885  1.00  0.00    -0.000 C 
BRANCH  17  18
ATOM     18  C   UNL     1      58.096  28.894  52.852  1.00  0.00    -0.003 C 
ATOM     19  C   UNL     1      58.288  27.799  53.898  1.00  0.00     0.004 C 
ENDBRANCH  17  18
ENDBRANCH  16  17
ENDBRANCH  15  16
ENDBRANCH  14  15
ENDBRANCH  13  14
ENDBRANCH  12  13
ENDBRANCH   1  12
TORSDOF 14
ENDMDL
MODEL 9
REMARK VINA RESULT:    -3.033      9.930     12.316
REMARK INTER + INTRA:          -7.968
REMARK INTER:                  -5.601
REMARK INTRA:                  -2.367
REMARK UNBOUND:                -2.453
REMARK SMILES CCCCCCCCCCCCCC[C@@H](C)C(=O)[O-]
REMARK SMILES IDX 9 1 10 2 11 3 12 4 13 5 14 6 15 7 16 8 17 9 18 10 19 11 8 12
REMARK SMILES IDX 7 13 6 14 5 15 4 16 3 17 2 18 1 19
REMARK H PARENT
REMARK Flexibility Score: inf
ROOT
ATOM      1  C   UNL     1      59.250  25.579  52.177  1.00  0.00     0.000 C 
ENDROOT
BRANCH   1   2
ATOM      2  C   UNL     1      58.447  25.057  50.972  1.00  0.00     0.000 C 
BRANCH   2   3
ATOM      3  C   UNL     1      58.644  25.904  49.706  1.00  0.00     0.000 C 
BRANCH   3   4
ATOM      4  C   UNL     1      60.018  26.589  49.711  1.00  0.00     0.000 C 
BRANCH   4   5
ATOM      5  C   UNL     1      59.943  28.086  49.360  1.00  0.00     0.001 C 
BRANCH   5   6
ATOM      6  C   UNL     1      60.351  29.049  50.493  1.00  0.00     0.009 C 
BRANCH   6   7
ATOM      7  C   UNL     1      61.547  29.975  50.168  1.00  0.00     0.032 C 
ATOM      8  C   UNL     1      61.732  31.080  51.218  1.00  0.00     0.014 C 
BRANCH   7   9
ATOM      9  C   UNL     1      62.805  29.159  50.057  1.00  0.00     0.044 C 
ATOM     10  O   UNL     1      63.598  29.331  49.091  1.00  0.00    -0.550 OA
ATOM     11  O   UNL     1      63.109  28.215  51.029  1.00  0.00    -0.550 OA
ENDBRANCH   7   9
ENDBRANCH   6   7
ENDBRANCH   5   6
ENDBRANCH   4   5
ENDBRANCH   3   4
ENDBRANCH   2   3
ENDBRANCH   1   2
BRANCH   1  12
ATOM     12  C   UNL     1      58.509  26.595  53.065  1.00  0.00     0.000 C 
BRANCH  12  13
ATOM     13  C   UNL     1      56.979  26.454  52.986  1.00  0.00    -0.000 C 
BRANCH  13  14
ATOM     14  C   UNL     1      56.269  27.811  52.849  1.00  0.00    -0.000 C 
BRANCH  14  15
ATOM     15  C   UNL     1      56.880  28.685  51.739  1.00  0.00    -0.000 C 
BRANCH  15  16
ATOM     16  C   UNL     1      56.209  28.461  50.374  1.00  0.00    -0.000 C 
BRANCH  16  17
ATOM     17  C   UNL     1      54.685  28.639  50.424  1.00  0.00    -0.000 C 
BRANCH  17  18
ATOM     18  C   UNL     1      53.972  27.421  49.823  1.00  0.00    -0.003 C 
ATOM     19  C   UNL     1      54.933  26.248  49.652  1.00  0.00     0.004 C 
ENDBRANCH  17  18
ENDBRANCH  16  17
ENDBRANCH  15  16
ENDBRANCH  14  15
ENDBRANCH  13  14
ENDBRANCH  12  13
ENDBRANCH   1  12
TORSDOF 14
ENDMDL
