MODEL 1
REMARK VINA RESULT:    -7.451      0.000      0.000
REMARK INTER + INTRA:          -9.177
REMARK INTER:                  -8.757
REMARK INTRA:                  -0.419
REMARK UNBOUND:                -0.419
REMARK SMILES C=C(C)[C@H]1CC[C@@]2(CO)CC[C@]3(C)[C@H](CC[C@@H]4[C@]5(C)CC[C@H](O)C(C)(C)[C@@H]5CC[C@]43C)[C@@H]12
REMARK SMILES IDX 4 1 5 2 6 3 7 4 32 5 14 6 15 7 16 8 17 9 18 10 20 11 21 12
REMARK SMILES IDX 22 13 24 14 27 15 28 16 29 17 30 18 12 19 11 20 10 21 13 22
REMARK SMILES IDX 31 23 25 24 26 25 19 26 2 27 3 28 1 29 8 30 9 31 23 33
REMARK H PARENT 9 32 23 34
REMARK Flexibility Score: inf
ROOT
ATOM      1  C   UNL     1     115.693 112.394 110.525  1.00  0.00     0.018 C 
ATOM      2  C   UNL     1     115.650 113.361 111.694  1.00  0.00     0.009 C 
ATOM      3  C   UNL     1     114.904 112.582 112.760  1.00  0.00     0.010 C 
ATOM      4  C   UNL     1     113.908 111.646 112.008  1.00  0.00    -0.003 C 
ATOM      5  C   UNL     1     114.274 111.764 110.474  1.00  0.00     0.008 C 
ATOM      6  C   UNL     1     113.130 112.518 109.684  1.00  0.00    -0.000 C 
ATOM      7  C   UNL     1     113.411 112.799 108.190  1.00  0.00     0.005 C 
ATOM      8  C   UNL     1     112.293 113.621 107.537  1.00  0.00     0.005 C 
ATOM      9  C   UNL     1     110.901 112.957 107.659  1.00  0.00     0.002 C 
ATOM     10  C   UNL     1     109.763 113.620 106.728  1.00  0.00    -0.026 C 
ATOM     11  C   UNL     1     109.971 115.159 106.561  1.00  0.00     0.010 C 
ATOM     12  C   UNL     1     108.950 115.871 105.648  1.00  0.00     0.033 C 
ATOM     13  C   UNL     1     107.553 115.205 105.577  1.00  0.00     0.120 C 
ATOM     14  C   UNL     1     107.167 114.447 106.880  1.00  0.00    -0.006 C 
ATOM     15  C   UNL     1     108.251 113.308 107.192  1.00  0.00     0.003 C 
ATOM     16  C   UNL     1     108.053 112.722 108.624  1.00  0.00     0.005 C 
ATOM     17  C   UNL     1     109.212 111.877 109.122  1.00  0.00     0.008 C 
ATOM     18  C   UNL     1     110.553 112.666 109.160  1.00  0.00    -0.024 C 
ATOM     19  C   UNL     1     111.723 111.783 109.854  1.00  0.00    -0.024 C 
ATOM     20  C   UNL     1     111.421 111.532 111.384  1.00  0.00     0.008 C 
ATOM     21  C   UNL     1     112.461 112.128 112.329  1.00  0.00     0.010 C 
ATOM     22  C   UNL     1     111.805 110.349 109.212  1.00  0.00     0.012 C 
ATOM     23  C   UNL     1     110.355 114.010 109.946  1.00  0.00     0.012 C 
ATOM     24  C   UNL     1     106.980 115.473 108.038  1.00  0.00     0.014 C 
ATOM     25  C   UNL     1     105.785 113.777 106.646  1.00  0.00     0.014 C 
ATOM     26  C   UNL     1     109.995 112.986 105.309  1.00  0.00     0.012 C 
ENDROOT
BRANCH   1  27
ATOM     27  C   UNL     1     116.346 112.881 109.239  1.00  0.00    -0.077 C 
ATOM     28  C   UNL     1     116.634 111.878 108.150  1.00  0.00     0.039 C 
ATOM     29  C   UNL     1     116.734 114.157 109.052  1.00  0.00     0.008 C 
ENDBRANCH   1  27
BRANCH   4  30
ATOM     30  C   UNL     1     114.111 110.177 112.480  1.00  0.00     0.163 C 
BRANCH  30  31
ATOM     31  O   UNL     1     114.265 110.104 113.875  1.00  0.00    -0.396 OA
ATOM     32  H   UNL     1     114.539 109.175 114.091  1.00  0.00     0.210 HD
ENDBRANCH  30  31
ENDBRANCH   4  30
BRANCH  13  33
ATOM     33  O   UNL     1     106.561 116.125 105.176  1.00  0.00    -0.393 OA
ATOM     34  H   UNL     1     105.677 115.824 105.508  1.00  0.00     0.210 HD
ENDBRANCH  13  33
TORSDOF 4
ENDMDL
MODEL 2
REMARK VINA RESULT:    -7.420      7.674     11.754
REMARK INTER + INTRA:          -9.141
REMARK INTER:                  -8.647
REMARK INTRA:                  -0.494
REMARK UNBOUND:                -0.419
REMARK SMILES C=C(C)[C@H]1CC[C@@]2(CO)CC[C@]3(C)[C@H](CC[C@@H]4[C@]5(C)CC[C@H](O)C(C)(C)[C@@H]5CC[C@]43C)[C@@H]12
REMARK SMILES IDX 4 1 5 2 6 3 7 4 32 5 14 6 15 7 16 8 17 9 18 10 20 11 21 12
REMARK SMILES IDX 22 13 24 14 27 15 28 16 29 17 30 18 12 19 11 20 10 21 13 22
REMARK SMILES IDX 31 23 25 24 26 25 19 26 2 27 3 28 1 29 8 30 9 31 23 33
REMARK H PARENT 9 32 23 34
REMARK Flexibility Score: inf
ROOT
ATOM      1  C   UNL     1     104.024 107.767 114.337  1.00  0.00     0.018 C 
ATOM      2  C   UNL     1     103.381 106.491 113.827  1.00  0.00     0.009 C 
ATOM      3  C   UNL     1     103.270 105.636 115.075  1.00  0.00     0.010 C 
ATOM      4  C   UNL     1     104.472 106.029 115.988  1.00  0.00    -0.003 C 
ATOM      5  C   UNL     1     105.139 107.292 115.310  1.00  0.00     0.008 C 
ATOM      6  C   UNL     1     106.560 106.925 114.722  1.00  0.00    -0.000 C 
ATOM      7  C   UNL     1     107.277 108.043 113.933  1.00  0.00     0.005 C 
ATOM      8  C   UNL     1     108.597 107.562 113.317  1.00  0.00     0.005 C 
ATOM      9  C   UNL     1     109.582 106.991 114.364  1.00  0.00     0.002 C 
ATOM     10  C   UNL     1     111.081 106.767 113.815  1.00  0.00    -0.026 C 
ATOM     11  C   UNL     1     111.094 106.357 112.308  1.00  0.00     0.010 C 
ATOM     12  C   UNL     1     112.494 106.163 111.685  1.00  0.00     0.033 C 
ATOM     13  C   UNL     1     113.602 105.730 112.677  1.00  0.00     0.120 C 
ATOM     14  C   UNL     1     113.064 104.892 113.872  1.00  0.00    -0.006 C 
ATOM     15  C   UNL     1     111.967 105.735 114.681  1.00  0.00     0.003 C 
ATOM     16  C   UNL     1     111.208 104.833 115.704  1.00  0.00     0.005 C 
ATOM     17  C   UNL     1     109.951 105.460 116.282  1.00  0.00     0.008 C 
ATOM     18  C   UNL     1     108.913 105.834 115.185  1.00  0.00    -0.024 C 
ATOM     19  C   UNL     1     107.525 106.340 115.852  1.00  0.00    -0.024 C 
ATOM     20  C   UNL     1     106.803 105.171 116.632  1.00  0.00     0.008 C 
ATOM     21  C   UNL     1     105.431 104.804 116.073  1.00  0.00     0.010 C 
ATOM     22  C   UNL     1     107.789 107.451 116.935  1.00  0.00     0.012 C 
ATOM     23  C   UNL     1     108.645 104.593 114.262  1.00  0.00     0.012 C 
ATOM     24  C   UNL     1     112.543 103.519 113.348  1.00  0.00     0.014 C 
ATOM     25  C   UNL     1     114.261 104.587 114.815  1.00  0.00     0.014 C 
ATOM     26  C   UNL     1     111.747 108.188 113.892  1.00  0.00     0.012 C 
ENDROOT
BRANCH   1  27
ATOM     27  C   UNL     1     104.330 108.853 113.315  1.00  0.00    -0.077 C 
ATOM     28  C   UNL     1     104.436 110.281 113.787  1.00  0.00     0.039 C 
ATOM     29  C   UNL     1     104.452 108.604 111.997  1.00  0.00     0.008 C 
ENDBRANCH   1  27
BRANCH   4  30
ATOM     30  C   UNL     1     103.952 106.413 117.404  1.00  0.00     0.163 C 
BRANCH  30  31
ATOM     31  O   UNL     1     102.610 106.030 117.577  1.00  0.00    -0.396 OA
ATOM     32  H   UNL     1     102.250 105.812 116.679  1.00  0.00     0.210 HD
ENDBRANCH  30  31
ENDBRANCH   4  30
BRANCH  13  33
ATOM     33  O   UNL     1     114.672 105.094 112.012  1.00  0.00    -0.393 OA
ATOM     34  H   UNL     1     115.435 104.991 112.636  1.00  0.00     0.210 HD
ENDBRANCH  13  33
TORSDOF 4
ENDMDL
MODEL 3
REMARK VINA RESULT:    -7.256     10.694     13.104
REMARK INTER + INTRA:          -8.948
REMARK INTER:                  -8.628
REMARK INTRA:                  -0.320
REMARK UNBOUND:                -0.419
REMARK SMILES C=C(C)[C@H]1CC[C@@]2(CO)CC[C@]3(C)[C@H](CC[C@@H]4[C@]5(C)CC[C@H](O)C(C)(C)[C@@H]5CC[C@]43C)[C@@H]12
REMARK SMILES IDX 4 1 5 2 6 3 7 4 32 5 14 6 15 7 16 8 17 9 18 10 20 11 21 12
REMARK SMILES IDX 22 13 24 14 27 15 28 16 29 17 30 18 12 19 11 20 10 21 13 22
REMARK SMILES IDX 31 23 25 24 26 25 19 26 2 27 3 28 1 29 8 30 9 31 23 33
REMARK H PARENT 9 32 23 34
REMARK Flexibility Score: inf
ROOT
ATOM      1  C   UNL     1     106.675  98.803 113.140  1.00  0.00     0.018 C 
ATOM      2  C   UNL     1     107.620  98.845 111.954  1.00  0.00     0.009 C 
ATOM      3  C   UNL     1     108.969  99.104 112.594  1.00  0.00     0.010 C 
ATOM      4  C   UNL     1     108.696  99.955 113.873  1.00  0.00    -0.003 C 
ATOM      5  C   UNL     1     107.124  99.979 114.052  1.00  0.00     0.008 C 
ATOM      6  C   UNL     1     106.553 101.426 113.770  1.00  0.00    -0.000 C 
ATOM      7  C   UNL     1     105.014 101.565 113.802  1.00  0.00     0.005 C 
ATOM      8  C   UNL     1     104.553 102.976 113.417  1.00  0.00     0.005 C 
ATOM      9  C   UNL     1     105.165 104.080 114.313  1.00  0.00     0.002 C 
ATOM     10  C   UNL     1     104.475 105.528 114.150  1.00  0.00    -0.026 C 
ATOM     11  C   UNL     1     103.986 105.779 112.688  1.00  0.00     0.010 C 
ATOM     12  C   UNL     1     103.272 107.127 112.449  1.00  0.00     0.033 C 
ATOM     13  C   UNL     1     103.703 108.277 113.394  1.00  0.00     0.120 C 
ATOM     14  C   UNL     1     105.175 108.152 113.882  1.00  0.00    -0.006 C 
ATOM     15  C   UNL     1     105.379 106.763 114.655  1.00  0.00     0.003 C 
ATOM     16  C   UNL     1     106.892 106.479 114.908  1.00  0.00     0.005 C 
ATOM     17  C   UNL     1     107.199 105.057 115.344  1.00  0.00     0.008 C 
ATOM     18  C   UNL     1     106.731 104.000 114.302  1.00  0.00    -0.024 C 
ATOM     19  C   UNL     1     107.227 102.515 114.724  1.00  0.00    -0.024 C 
ATOM     20  C   UNL     1     108.801 102.395 114.659  1.00  0.00     0.008 C 
ATOM     21  C   UNL     1     109.306 101.371 113.647  1.00  0.00     0.010 C 
ATOM     22  C   UNL     1     106.853 102.197 116.219  1.00  0.00     0.012 C 
ATOM     23  C   UNL     1     107.288 104.370 112.883  1.00  0.00     0.012 C 
ATOM     24  C   UNL     1     106.138 108.347 112.672  1.00  0.00     0.014 C 
ATOM     25  C   UNL     1     105.449 109.322 114.866  1.00  0.00     0.014 C 
ATOM     26  C   UNL     1     103.183 105.453 115.041  1.00  0.00     0.012 C 
ENDROOT
BRANCH   1  27
ATOM     27  C   UNL     1     105.194  98.602 112.849  1.00  0.00    -0.077 C 
ATOM     28  C   UNL     1     104.312  98.047 113.939  1.00  0.00     0.039 C 
ATOM     29  C   UNL     1     104.646  98.841 111.643  1.00  0.00     0.008 C 
ENDBRANCH   1  27
BRANCH   4  30
ATOM     30  C   UNL     1     109.349  99.270 115.108  1.00  0.00     0.163 C 
BRANCH  30  31
ATOM     31  O   UNL     1     108.663  98.098 115.466  1.00  0.00    -0.396 OA
ATOM     32  H   UNL     1     108.042  98.335 116.203  1.00  0.00     0.210 HD
ENDBRANCH  30  31
ENDBRANCH   4  30
BRANCH  13  33
ATOM     33  O   UNL     1     103.428 109.541 112.829  1.00  0.00    -0.393 OA
ATOM     34  H   UNL     1     104.188 109.819 112.256  1.00  0.00     0.210 HD
ENDBRANCH  13  33
TORSDOF 4
ENDMDL
MODEL 4
REMARK VINA RESULT:    -7.097     12.286     15.234
REMARK INTER + INTRA:          -8.761
REMARK INTER:                  -8.331
REMARK INTRA:                  -0.431
REMARK UNBOUND:                -0.419
REMARK SMILES C=C(C)[C@H]1CC[C@@]2(CO)CC[C@]3(C)[C@H](CC[C@@H]4[C@]5(C)CC[C@H](O)C(C)(C)[C@@H]5CC[C@]43C)[C@@H]12
REMARK SMILES IDX 4 1 5 2 6 3 7 4 32 5 14 6 15 7 16 8 17 9 18 10 20 11 21 12
REMARK SMILES IDX 22 13 24 14 27 15 28 16 29 17 30 18 12 19 11 20 10 21 13 22
REMARK SMILES IDX 31 23 25 24 26 25 19 26 2 27 3 28 1 29 8 30 9 31 23 33
REMARK H PARENT 9 32 23 34
REMARK Flexibility Score: inf
ROOT
ATOM      1  C   UNL     1     110.685  98.515 109.803  1.00  0.00     0.018 C 
ATOM      2  C   UNL     1     110.932  99.481 108.659  1.00  0.00     0.009 C 
ATOM      3  C   UNL     1     112.256  99.010 108.088  1.00  0.00     0.010 C 
ATOM      4  C   UNL     1     113.065  98.414 109.281  1.00  0.00    -0.003 C 
ATOM      5  C   UNL     1     112.064  98.364 110.504  1.00  0.00     0.008 C 
ATOM      6  C   UNL     1     112.479  99.417 111.609  1.00  0.00    -0.000 C 
ATOM      7  C   UNL     1     111.519  99.550 112.813  1.00  0.00     0.005 C 
ATOM      8  C   UNL     1     111.950 100.663 113.776  1.00  0.00     0.005 C 
ATOM      9  C   UNL     1     113.390 100.476 114.313  1.00  0.00     0.002 C 
ATOM     10  C   UNL     1     113.767 101.436 115.553  1.00  0.00    -0.026 C 
ATOM     11  C   UNL     1     113.059 102.825 115.450  1.00  0.00     0.010 C 
ATOM     12  C   UNL     1     113.330 103.795 116.621  1.00  0.00     0.033 C 
ATOM     13  C   UNL     1     114.691 103.602 117.334  1.00  0.00     0.120 C 
ATOM     14  C   UNL     1     115.803 103.045 116.398  1.00  0.00    -0.006 C 
ATOM     15  C   UNL     1     115.349 101.632 115.793  1.00  0.00     0.003 C 
ATOM     16  C   UNL     1     116.303 101.182 114.642  1.00  0.00     0.005 C 
ATOM     17  C   UNL     1     115.777 100.030 113.806  1.00  0.00     0.008 C 
ATOM     18  C   UNL     1     114.413 100.356 113.132  1.00  0.00    -0.024 C 
ATOM     19  C   UNL     1     113.973  99.170 112.117  1.00  0.00    -0.024 C 
ATOM     20  C   UNL     1     114.957  99.073 110.885  1.00  0.00     0.008 C 
ATOM     21  C   UNL     1     114.294  99.338 109.536  1.00  0.00     0.010 C 
ATOM     22  C   UNL     1     114.056  97.764 112.819  1.00  0.00     0.012 C 
ATOM     23  C   UNL     1     114.516 101.716 112.356  1.00  0.00     0.012 C 
ATOM     24  C   UNL     1     116.150 104.112 115.317  1.00  0.00     0.014 C 
ATOM     25  C   UNL     1     117.083 102.839 117.254  1.00  0.00     0.014 C 
ATOM     26  C   UNL     1     113.153 100.719 116.809  1.00  0.00     0.012 C 
ENDROOT
BRANCH   1  27
ATOM     27  C   UNL     1     109.434  98.732 110.644  1.00  0.00    -0.077 C 
ATOM     28  C   UNL     1     108.827 100.112 110.695  1.00  0.00     0.039 C 
ATOM     29  C   UNL     1     108.879  97.761 111.393  1.00  0.00     0.008 C 
ENDBRANCH   1  27
BRANCH   4  30
ATOM     30  C   UNL     1     113.531  96.972 108.930  1.00  0.00     0.163 C 
BRANCH  30  31
ATOM     31  O   UNL     1     114.017  96.896 107.614  1.00  0.00    -0.396 OA
ATOM     32  H   UNL     1     113.232  96.768 107.019  1.00  0.00     0.210 HD
ENDBRANCH  30  31
ENDBRANCH   4  30
BRANCH  13  33
ATOM     33  O   UNL     1     115.093 104.776 118.007  1.00  0.00    -0.393 OA
ATOM     34  H   UNL     1     114.598 104.854 118.862  1.00  0.00     0.210 HD
ENDBRANCH  13  33
TORSDOF 4
ENDMDL
MODEL 5
REMARK VINA RESULT:    -7.020      2.576      4.504
REMARK INTER + INTRA:          -8.670
REMARK INTER:                  -8.162
REMARK INTRA:                  -0.508
REMARK UNBOUND:                -0.419
REMARK SMILES C=C(C)[C@H]1CC[C@@]2(CO)CC[C@]3(C)[C@H](CC[C@@H]4[C@]5(C)CC[C@H](O)C(C)(C)[C@@H]5CC[C@]43C)[C@@H]12
REMARK SMILES IDX 4 1 5 2 6 3 7 4 32 5 14 6 15 7 16 8 17 9 18 10 20 11 21 12
REMARK SMILES IDX 22 13 24 14 27 15 28 16 29 17 30 18 12 19 11 20 10 21 13 22
REMARK SMILES IDX 31 23 25 24 26 25 19 26 2 27 3 28 1 29 8 30 9 31 23 33
REMARK H PARENT 9 32 23 34
REMARK Flexibility Score: inf
ROOT
ATOM      1  C   UNL     1     113.247 112.287 111.311  1.00  0.00     0.018 C 
ATOM      2  C   UNL     1     114.360 111.511 110.631  1.00  0.00     0.009 C 
ATOM      3  C   UNL     1     115.009 112.548 109.736  1.00  0.00     0.010 C 
ATOM      4  C   UNL     1     113.881 113.540 109.317  1.00  0.00    -0.003 C 
ATOM      5  C   UNL     1     112.617 113.153 110.185  1.00  0.00     0.008 C 
ATOM      6  C   UNL     1     111.488 112.520 109.276  1.00  0.00    -0.000 C 
ATOM      7  C   UNL     1     110.237 111.994 110.015  1.00  0.00     0.005 C 
ATOM      8  C   UNL     1     109.249 111.308 109.064  1.00  0.00     0.005 C 
ATOM      9  C   UNL     1     108.786 112.225 107.906  1.00  0.00     0.002 C 
ATOM     10  C   UNL     1     107.525 111.661 107.074  1.00  0.00    -0.026 C 
ATOM     11  C   UNL     1     107.537 110.102 106.986  1.00  0.00     0.010 C 
ATOM     12  C   UNL     1     106.340 109.471 106.241  1.00  0.00     0.033 C 
ATOM     13  C   UNL     1     105.698 110.364 105.151  1.00  0.00     0.120 C 
ATOM     14  C   UNL     1     106.706 111.348 104.490  1.00  0.00    -0.006 C 
ATOM     15  C   UNL     1     107.350 112.302 105.605  1.00  0.00     0.003 C 
ATOM     16  C   UNL     1     108.560 113.101 105.030  1.00  0.00     0.005 C 
ATOM     17  C   UNL     1     109.420 113.781 106.080  1.00  0.00     0.008 C 
ATOM     18  C   UNL     1     110.017 112.773 107.105  1.00  0.00    -0.024 C 
ATOM     19  C   UNL     1     111.060 113.514 108.102  1.00  0.00    -0.024 C 
ATOM     20  C   UNL     1     112.338 114.020 107.323  1.00  0.00     0.008 C 
ATOM     21  C   UNL     1     113.643 113.377 107.786  1.00  0.00     0.010 C 
ATOM     22  C   UNL     1     110.422 114.810 108.727  1.00  0.00     0.012 C 
ATOM     23  C   UNL     1     110.738 111.606 106.343  1.00  0.00     0.012 C 
ATOM     24  C   UNL     1     107.756 110.538 103.670  1.00  0.00     0.014 C 
ATOM     25  C   UNL     1     105.919 112.221 103.473  1.00  0.00     0.014 C 
ATOM     26  C   UNL     1     106.274 112.045 107.944  1.00  0.00     0.012 C 
ENDROOT
BRANCH   1  27
ATOM     27  C   UNL     1     112.342 111.521 112.266  1.00  0.00    -0.077 C 
ATOM     28  C   UNL     1     112.328 110.015 112.197  1.00  0.00     0.039 C 
ATOM     29  C   UNL     1     111.507 112.130 113.130  1.00  0.00     0.008 C 
ENDBRANCH   1  27
BRANCH   4  30
ATOM     30  C   UNL     1     114.313 114.998 109.650  1.00  0.00     0.163 C 
BRANCH  30  31
ATOM     31  O   UNL     1     113.392 115.621 110.509  1.00  0.00    -0.396 OA
ATOM     32  H   UNL     1     113.813 116.461 110.829  1.00  0.00     0.210 HD
ENDBRANCH  30  31
ENDBRANCH   4  30
BRANCH  13  33
ATOM     33  O   UNL     1     104.995 109.594 104.199  1.00  0.00    -0.393 OA
ATOM     34  H   UNL     1     104.750 108.720 104.597  1.00  0.00     0.210 HD
ENDBRANCH  13  33
TORSDOF 4
ENDMDL
MODEL 6
REMARK VINA RESULT:    -7.012      9.100     12.863
REMARK INTER + INTRA:          -8.660
REMARK INTER:                  -8.146
REMARK INTRA:                  -0.514
REMARK UNBOUND:                -0.419
REMARK SMILES C=C(C)[C@H]1CC[C@@]2(CO)CC[C@]3(C)[C@H](CC[C@@H]4[C@]5(C)CC[C@H](O)C(C)(C)[C@@H]5CC[C@]43C)[C@@H]12
REMARK SMILES IDX 4 1 5 2 6 3 7 4 32 5 14 6 15 7 16 8 17 9 18 10 20 11 21 12
REMARK SMILES IDX 22 13 24 14 27 15 28 16 29 17 30 18 12 19 11 20 10 21 13 22
REMARK SMILES IDX 31 23 25 24 26 25 19 26 2 27 3 28 1 29 8 30 9 31 23 33
REMARK H PARENT 9 32 23 34
REMARK Flexibility Score: inf
ROOT
ATOM      1  C   UNL     1     103.574 103.685 106.715  1.00  0.00     0.018 C 
ATOM      2  C   UNL     1     102.346 102.834 106.980  1.00  0.00     0.009 C 
ATOM      3  C   UNL     1     101.202 103.811 106.797  1.00  0.00     0.010 C 
ATOM      4  C   UNL     1     101.741 105.211 107.226  1.00  0.00    -0.003 C 
ATOM      5  C   UNL     1     103.296 105.028 107.447  1.00  0.00     0.008 C 
ATOM      6  C   UNL     1     103.660 105.152 108.981  1.00  0.00    -0.000 C 
ATOM      7  C   UNL     1     105.137 104.883 109.351  1.00  0.00     0.005 C 
ATOM      8  C   UNL     1     105.370 104.926 110.866  1.00  0.00     0.005 C 
ATOM      9  C   UNL     1     104.937 106.265 111.509  1.00  0.00     0.002 C 
ATOM     10  C   UNL     1     105.447 106.471 113.025  1.00  0.00    -0.026 C 
ATOM     11  C   UNL     1     105.507 105.121 113.807  1.00  0.00     0.010 C 
ATOM     12  C   UNL     1     106.026 105.217 115.258  1.00  0.00     0.033 C 
ATOM     13  C   UNL     1     105.777 106.576 115.958  1.00  0.00     0.120 C 
ATOM     14  C   UNL     1     104.503 107.307 115.446  1.00  0.00    -0.006 C 
ATOM     15  C   UNL     1     104.619 107.568 113.868  1.00  0.00     0.003 C 
ATOM     16  C   UNL     1     103.255 108.038 113.275  1.00  0.00     0.005 C 
ATOM     17  C   UNL     1     103.184 108.004 111.759  1.00  0.00     0.008 C 
ATOM     18  C   UNL     1     103.436 106.580 111.183  1.00  0.00    -0.024 C 
ATOM     19  C   UNL     1     103.185 106.553 109.581  1.00  0.00    -0.024 C 
ATOM     20  C   UNL     1     101.665 106.806 109.234  1.00  0.00     0.008 C 
ATOM     21  C   UNL     1     100.987 105.640 108.520  1.00  0.00     0.010 C 
ATOM     22  C   UNL     1     103.967 107.716 108.866  1.00  0.00     0.012 C 
ATOM     23  C   UNL     1     102.494 105.546 111.892  1.00  0.00     0.012 C 
ATOM     24  C   UNL     1     103.239 106.493 115.858  1.00  0.00     0.014 C 
ATOM     25  C   UNL     1     104.414 108.675 116.177  1.00  0.00     0.014 C 
ATOM     26  C   UNL     1     106.932 106.964 112.880  1.00  0.00     0.012 C 
ENDROOT
BRANCH   1  27
ATOM     27  C   UNL     1     104.934 103.017 106.862  1.00  0.00    -0.077 C 
ATOM     28  C   UNL     1     106.118 103.621 106.149  1.00  0.00     0.039 C 
ATOM     29  C   UNL     1     105.118 101.875 107.551  1.00  0.00     0.008 C 
ENDBRANCH   1  27
BRANCH   4  30
ATOM     30  C   UNL     1     101.495 106.240 106.084  1.00  0.00     0.163 C 
BRANCH  30  31
ATOM     31  O   UNL     1     101.037 105.608 104.916  1.00  0.00    -0.396 OA
ATOM     32  H   UNL     1     101.557 104.769 104.813  1.00  0.00     0.210 HD
ENDBRANCH  30  31
ENDBRANCH   4  30
BRANCH  13  33
ATOM     33  O   UNL     1     105.794 106.446 117.363  1.00  0.00    -0.393 OA
ATOM     34  H   UNL     1     106.632 105.996 117.643  1.00  0.00     0.210 HD
ENDBRANCH  13  33
TORSDOF 4
ENDMDL
MODEL 7
REMARK VINA RESULT:    -7.002     12.372     14.986
REMARK INTER + INTRA:          -8.649
REMARK INTER:                  -8.168
REMARK INTRA:                  -0.481
REMARK UNBOUND:                -0.419
REMARK SMILES C=C(C)[C@H]1CC[C@@]2(CO)CC[C@]3(C)[C@H](CC[C@@H]4[C@]5(C)CC[C@H](O)C(C)(C)[C@@H]5CC[C@]43C)[C@@H]12
REMARK SMILES IDX 4 1 5 2 6 3 7 4 32 5 14 6 15 7 16 8 17 9 18 10 20 11 21 12
REMARK SMILES IDX 22 13 24 14 27 15 28 16 29 17 30 18 12 19 11 20 10 21 13 22
REMARK SMILES IDX 31 23 25 24 26 25 19 26 2 27 3 28 1 29 8 30 9 31 23 33
REMARK H PARENT 9 32 23 34
REMARK Flexibility Score: inf
ROOT
ATOM      1  C   UNL     1     114.341  98.970 110.901  1.00  0.00     0.018 C 
ATOM      2  C   UNL     1     114.282  97.668 110.125  1.00  0.00     0.009 C 
ATOM      3  C   UNL     1     113.755  98.097 108.769  1.00  0.00     0.010 C 
ATOM      4  C   UNL     1     112.826  99.324 109.023  1.00  0.00    -0.003 C 
ATOM      5  C   UNL     1     113.021  99.709 110.545  1.00  0.00     0.008 C 
ATOM      6  C   UNL     1     111.715  99.385 111.375  1.00  0.00    -0.000 C 
ATOM      7  C   UNL     1     111.808  99.612 112.901  1.00  0.00     0.005 C 
ATOM      8  C   UNL     1     110.532  99.174 113.629  1.00  0.00     0.005 C 
ATOM      9  C   UNL     1     109.260  99.882 113.104  1.00  0.00     0.002 C 
ATOM     10  C   UNL     1     107.959  99.692 114.036  1.00  0.00    -0.026 C 
ATOM     11  C   UNL     1     107.940  98.293 114.731  1.00  0.00     0.010 C 
ATOM     12  C   UNL     1     106.748  98.039 115.679  1.00  0.00     0.033 C 
ATOM     13  C   UNL     1     105.454  98.816 115.332  1.00  0.00     0.120 C 
ATOM     14  C   UNL     1     105.301  99.110 113.812  1.00  0.00    -0.006 C 
ATOM     15  C   UNL     1     106.554  99.964 113.292  1.00  0.00     0.003 C 
ATOM     16  C   UNL     1     106.578 100.034 111.734  1.00  0.00     0.005 C 
ATOM     17  C   UNL     1     107.883 100.544 111.148  1.00  0.00     0.008 C 
ATOM     18  C   UNL     1     109.102  99.668 111.559  1.00  0.00    -0.024 C 
ATOM     19  C   UNL     1     110.443 100.144 110.779  1.00  0.00    -0.024 C 
ATOM     20  C   UNL     1     110.329  99.878 109.226  1.00  0.00     0.008 C 
ATOM     21  C   UNL     1     111.365  98.898 108.685  1.00  0.00     0.010 C 
ATOM     22  C   UNL     1     110.655 101.697 110.914  1.00  0.00     0.012 C 
ATOM     23  C   UNL     1     108.804  98.161 111.243  1.00  0.00     0.012 C 
ATOM     24  C   UNL     1     105.092  97.769 113.045  1.00  0.00     0.014 C 
ATOM     25  C   UNL     1     104.006  99.946 113.618  1.00  0.00     0.014 C 
ATOM     26  C   UNL     1     108.134 100.752 115.183  1.00  0.00     0.012 C 
ENDROOT
BRANCH   1  27
ATOM     27  C   UNL     1     114.794  98.899 112.353  1.00  0.00    -0.077 C 
ATOM     28  C   UNL     1     115.339 100.146 113.002  1.00  0.00     0.039 C 
ATOM     29  C   UNL     1     114.786  97.758 113.067  1.00  0.00     0.008 C 
ENDBRANCH   1  27
BRANCH   4  30
ATOM     30  C   UNL     1     113.270 100.513 108.124  1.00  0.00     0.163 C 
BRANCH  30  31
ATOM     31  O   UNL     1     113.699 100.069 106.862  1.00  0.00    -0.396 OA
ATOM     32  H   UNL     1     112.910 100.091 106.260  1.00  0.00     0.210 HD
ENDBRANCH  30  31
ENDBRANCH   4  30
BRANCH  13  33
ATOM     33  O   UNL     1     104.312  98.188 115.875  1.00  0.00    -0.393 OA
ATOM     34  H   UNL     1     104.547  97.271 116.169  1.00  0.00     0.210 HD
ENDBRANCH  13  33
TORSDOF 4
ENDMDL
MODEL 8
REMARK VINA RESULT:    -6.978     10.704     13.668
REMARK INTER + INTRA:          -8.621
REMARK INTER:                  -8.111
REMARK INTRA:                  -0.510
REMARK UNBOUND:                -0.419
REMARK SMILES C=C(C)[C@H]1CC[C@@]2(CO)CC[C@]3(C)[C@H](CC[C@@H]4[C@]5(C)CC[C@H](O)C(C)(C)[C@@H]5CC[C@]43C)[C@@H]12
REMARK SMILES IDX 4 1 5 2 6 3 7 4 32 5 14 6 15 7 16 8 17 9 18 10 20 11 21 12
REMARK SMILES IDX 22 13 24 14 27 15 28 16 29 17 30 18 12 19 11 20 10 21 13 22
REMARK SMILES IDX 31 23 25 24 26 25 19 26 2 27 3 28 1 29 8 30 9 31 23 33
REMARK H PARENT 9 32 23 34
REMARK Flexibility Score: inf
ROOT
ATOM      1  C   UNL     1     107.110 107.371 114.101  1.00  0.00     0.018 C 
ATOM      2  C   UNL     1     106.799 107.689 115.552  1.00  0.00     0.009 C 
ATOM      3  C   UNL     1     108.135 107.497 116.243  1.00  0.00     0.010 C 
ATOM      4  C   UNL     1     108.889 106.386 115.449  1.00  0.00    -0.003 C 
ATOM      5  C   UNL     1     108.022 106.114 114.154  1.00  0.00     0.008 C 
ATOM      6  C   UNL     1     107.350 104.684 114.223  1.00  0.00    -0.000 C 
ATOM      7  C   UNL     1     106.385 104.333 113.068  1.00  0.00     0.005 C 
ATOM      8  C   UNL     1     105.706 102.973 113.275  1.00  0.00     0.005 C 
ATOM      9  C   UNL     1     106.714 101.811 113.444  1.00  0.00     0.002 C 
ATOM     10  C   UNL     1     106.058 100.342 113.350  1.00  0.00    -0.026 C 
ATOM     11  C   UNL     1     104.608 100.314 113.929  1.00  0.00     0.010 C 
ATOM     12  C   UNL     1     103.884  98.952 113.841  1.00  0.00     0.033 C 
ATOM     13  C   UNL     1     104.812  97.712 113.853  1.00  0.00     0.120 C 
ATOM     14  C   UNL     1     106.133  97.939 114.643  1.00  0.00    -0.006 C 
ATOM     15  C   UNL     1     106.945  99.167 114.008  1.00  0.00     0.003 C 
ATOM     16  C   UNL     1     108.122  99.601 114.936  1.00  0.00     0.005 C 
ATOM     17  C   UNL     1     108.741 100.940 114.579  1.00  0.00     0.008 C 
ATOM     18  C   UNL     1     107.710 102.104 114.619  1.00  0.00    -0.024 C 
ATOM     19  C   UNL     1     108.443 103.534 114.399  1.00  0.00    -0.024 C 
ATOM     20  C   UNL     1     109.405 103.877 115.605  1.00  0.00     0.008 C 
ATOM     21  C   UNL     1     109.014 105.137 116.372  1.00  0.00     0.010 C 
ATOM     22  C   UNL     1     109.374 103.503 113.130  1.00  0.00     0.012 C 
ATOM     23  C   UNL     1     106.952 102.095 115.993  1.00  0.00     0.012 C 
ATOM     24  C   UNL     1     105.806  98.116 116.157  1.00  0.00     0.014 C 
ATOM     25  C   UNL     1     106.989  96.650 114.516  1.00  0.00     0.014 C 
ATOM     26  C   UNL     1     105.924 100.066 111.808  1.00  0.00     0.012 C 
ENDROOT
BRANCH   1  27
ATOM     27  C   UNL     1     105.955 107.421 113.111  1.00  0.00    -0.077 C 
ATOM     28  C   UNL     1     106.268 107.579 111.644  1.00  0.00     0.039 C 
ATOM     29  C   UNL     1     104.664 107.390 113.490  1.00  0.00     0.008 C 
ENDBRANCH   1  27
BRANCH   4  30
ATOM     30  C   UNL     1     110.297 106.902 115.034  1.00  0.00     0.163 C 
BRANCH  30  31
ATOM     31  O   UNL     1     110.366 108.304 115.092  1.00  0.00    -0.396 OA
ATOM     32  H   UNL     1     109.701 108.657 114.445  1.00  0.00     0.210 HD
ENDBRANCH  30  31
ENDBRANCH   4  30
BRANCH  13  33
ATOM     33  O   UNL     1     104.123  96.555 114.278  1.00  0.00    -0.393 OA
ATOM     34  H   UNL     1     103.149  96.686 114.152  1.00  0.00     0.210 HD
ENDBRANCH  13  33
TORSDOF 4
ENDMDL
MODEL 9
REMARK VINA RESULT:    -6.892     11.307     14.019
REMARK INTER + INTRA:          -8.520
REMARK INTER:                  -8.001
REMARK INTRA:                  -0.519
REMARK UNBOUND:                -0.419
REMARK SMILES C=C(C)[C@H]1CC[C@@]2(CO)CC[C@]3(C)[C@H](CC[C@@H]4[C@]5(C)CC[C@H](O)C(C)(C)[C@@H]5CC[C@]43C)[C@@H]12
REMARK SMILES IDX 4 1 5 2 6 3 7 4 32 5 14 6 15 7 16 8 17 9 18 10 20 11 21 12
REMARK SMILES IDX 22 13 24 14 27 15 28 16 29 17 30 18 12 19 11 20 10 21 13 22
REMARK SMILES IDX 31 23 25 24 26 25 19 26 2 27 3 28 1 29 8 30 9 31 23 33
REMARK H PARENT 9 32 23 34
REMARK Flexibility Score: inf
ROOT
ATOM      1  C   UNL     1     105.970  97.900 113.576  1.00  0.00     0.018 C 
ATOM      2  C   UNL     1     104.498  97.645 113.312  1.00  0.00     0.009 C 
ATOM      3  C   UNL     1     104.378  97.828 111.812  1.00  0.00     0.010 C 
ATOM      4  C   UNL     1     105.449  98.889 111.408  1.00  0.00    -0.003 C 
ATOM      5  C   UNL     1     106.326  99.134 112.701  1.00  0.00     0.008 C 
ATOM      6  C   UNL     1     106.070 100.582 113.282  1.00  0.00    -0.000 C 
ATOM      7  C   UNL     1     106.784 100.915 114.612  1.00  0.00     0.005 C 
ATOM      8  C   UNL     1     106.394 102.299 115.147  1.00  0.00     0.005 C 
ATOM      9  C   UNL     1     106.675 103.440 114.140  1.00  0.00     0.002 C 
ATOM     10  C   UNL     1     106.577 104.921 114.768  1.00  0.00    -0.026 C 
ATOM     11  C   UNL     1     105.490 105.009 115.886  1.00  0.00     0.010 C 
ATOM     12  C   UNL     1     105.356 106.384 116.575  1.00  0.00     0.033 C 
ATOM     13  C   UNL     1     105.754 107.600 115.702  1.00  0.00     0.120 C 
ATOM     14  C   UNL     1     105.519 107.368 114.181  1.00  0.00    -0.006 C 
ATOM     15  C   UNL     1     106.359 106.096 113.686  1.00  0.00     0.003 C 
ATOM     16  C   UNL     1     105.932 105.667 112.248  1.00  0.00     0.005 C 
ATOM     17  C   UNL     1     106.439 104.300 111.824  1.00  0.00     0.008 C 
ATOM     18  C   UNL     1     105.957 103.165 112.774  1.00  0.00    -0.024 C 
ATOM     19  C   UNL     1     106.376 101.710 112.193  1.00  0.00    -0.024 C 
ATOM     20  C   UNL     1     105.614 101.387 110.848  1.00  0.00     0.008 C 
ATOM     21  C   UNL     1     104.700 100.167 110.927  1.00  0.00     0.010 C 
ATOM     22  C   UNL     1     107.903 101.669 111.819  1.00  0.00     0.012 C 
ATOM     23  C   UNL     1     104.399 103.246 112.949  1.00  0.00     0.012 C 
ATOM     24  C   UNL     1     103.988 107.257 113.906  1.00  0.00     0.014 C 
ATOM     25  C   UNL     1     106.020 108.629 113.426  1.00  0.00     0.014 C 
ATOM     26  C   UNL     1     107.961 105.142 115.479  1.00  0.00     0.012 C 
ENDROOT
BRANCH   1  27
ATOM     27  C   UNL     1     106.442  97.843 115.023  1.00  0.00    -0.077 C 
ATOM     28  C   UNL     1     105.416  97.951 116.123  1.00  0.00     0.039 C 
ATOM     29  C   UNL     1     107.742  97.762 115.366  1.00  0.00     0.008 C 
ENDBRANCH   1  27
BRANCH   4  30
ATOM     30  C   UNL     1     106.346  98.321 110.271  1.00  0.00     0.163 C 
BRANCH  30  31
ATOM     31  O   UNL     1     107.708  98.383 110.614  1.00  0.00    -0.396 OA
ATOM     32  H   UNL     1     107.928  97.540 111.089  1.00  0.00     0.210 HD
ENDBRANCH  30  31
ENDBRANCH   4  30
BRANCH  13  33
ATOM     33  O   UNL     1     105.151 108.789 116.164  1.00  0.00    -0.393 OA
ATOM     34  H   UNL     1     105.110 109.448 115.425  1.00  0.00     0.210 HD
ENDBRANCH  13  33
TORSDOF 4
ENDMDL
