MODEL 1
REMARK VINA RESULT:    -6.695      0.000      0.000
REMARK INTER + INTRA:          -8.226
REMARK INTER:                  -7.869
REMARK INTRA:                  -0.357
REMARK UNBOUND:                -0.357
REMARK SMILES C=C(C)[C@H]1CC[C@@]2(CO)CC[C@@]3(C)[C@H](CC[C@@H]4[C@]5(C)CC[C@@H](O)C(C)(C)[C@@H]5CC[C@@]43C)[C@@H]12
REMARK SMILES IDX 4 1 5 2 6 3 7 4 32 5 14 6 15 7 16 8 17 9 18 10 20 11 21 12
REMARK SMILES IDX 22 13 24 14 27 15 28 16 29 17 30 18 12 19 11 20 10 21 13 22
REMARK SMILES IDX 31 23 25 24 26 25 19 26 2 27 3 28 1 29 8 30 9 31 23 33
REMARK H PARENT 9 32 23 34
REMARK Flexibility Score: inf
ROOT
ATOM      1  C   UNL     1      -5.658  28.298  46.296  1.00  0.00     0.018 C 
ATOM      2  C   UNL     1      -4.552  29.335  46.098  1.00  0.00     0.009 C 
ATOM      3  C   UNL     1      -5.258  30.664  46.275  1.00  0.00     0.010 C 
ATOM      4  C   UNL     1      -6.663  30.504  45.637  1.00  0.00    -0.003 C 
ATOM      5  C   UNL     1      -6.992  28.980  45.841  1.00  0.00     0.008 C 
ATOM      6  C   UNL     1      -7.869  28.270  44.723  1.00  0.00    -0.000 C 
ATOM      7  C   UNL     1      -9.353  28.439  45.095  1.00  0.00     0.005 C 
ATOM      8  C   UNL     1     -10.283  27.708  44.156  1.00  0.00     0.005 C 
ATOM      9  C   UNL     1     -10.181  28.223  42.694  1.00  0.00     0.002 C 
ATOM     10  C   UNL     1     -11.312  27.602  41.696  1.00  0.00    -0.026 C 
ATOM     11  C   UNL     1     -12.554  27.106  42.521  1.00  0.00     0.010 C 
ATOM     12  C   UNL     1     -13.610  26.340  41.730  1.00  0.00     0.033 C 
ATOM     13  C   UNL     1     -12.993  25.089  41.106  1.00  0.00     0.120 C 
ATOM     14  C   UNL     1     -11.839  25.438  40.124  1.00  0.00    -0.006 C 
ATOM     15  C   UNL     1     -10.752  26.403  40.803  1.00  0.00     0.003 C 
ATOM     16  C   UNL     1      -9.639  25.665  41.580  1.00  0.00     0.005 C 
ATOM     17  C   UNL     1      -8.423  26.554  41.939  1.00  0.00     0.008 C 
ATOM     18  C   UNL     1      -8.689  28.084  42.187  1.00  0.00    -0.024 C 
ATOM     19  C   UNL     1      -7.594  28.705  43.236  1.00  0.00    -0.024 C 
ATOM     20  C   UNL     1      -7.597  30.270  43.205  1.00  0.00     0.008 C 
ATOM     21  C   UNL     1      -6.574  30.932  44.142  1.00  0.00     0.010 C 
ATOM     22  C   UNL     1      -6.167  28.203  42.837  1.00  0.00     0.012 C 
ATOM     23  C   UNL     1      -8.537  28.855  40.827  1.00  0.00     0.012 C 
ATOM     24  C   UNL     1     -11.207  24.095  39.657  1.00  0.00     0.014 C 
ATOM     25  C   UNL     1     -12.407  26.086  38.824  1.00  0.00     0.014 C 
ATOM     26  C   UNL     1     -11.804  28.769  40.779  1.00  0.00     0.012 C 
ENDROOT
BRANCH   1  27
ATOM     27  C   UNL     1      -5.374  26.863  45.842  1.00  0.00    -0.077 C 
ATOM     28  C   UNL     1      -6.173  25.742  46.459  1.00  0.00     0.039 C 
ATOM     29  C   UNL     1      -4.376  26.530  45.003  1.00  0.00     0.008 C 
ENDBRANCH   1  27
BRANCH   4  30
ATOM     30  C   UNL     1      -7.627  31.454  46.420  1.00  0.00     0.163 C 
BRANCH  30  31
ATOM     31  O   UNL     1      -7.201  31.695  47.732  1.00  0.00    -0.396 OA
ATOM     32  H   UNL     1      -7.310  30.850  48.240  1.00  0.00     0.210 HD
ENDBRANCH  30  31
ENDBRANCH   4  30
BRANCH  13  33
ATOM     33  O   UNL     1     -13.995  24.354  40.447  1.00  0.00    -0.393 OA
ATOM     34  H   UNL     1     -14.223  23.584  41.031  1.00  0.00     0.210 HD
ENDBRANCH  13  33
TORSDOF 4
ENDMDL
MODEL 2
REMARK VINA RESULT:    -5.951      3.319      5.893
REMARK INTER + INTRA:          -7.351
REMARK INTER:                  -6.978
REMARK INTRA:                  -0.373
REMARK UNBOUND:                -0.357
REMARK SMILES C=C(C)[C@H]1CC[C@@]2(CO)CC[C@@]3(C)[C@H](CC[C@@H]4[C@]5(C)CC[C@@H](O)C(C)(C)[C@@H]5CC[C@@]43C)[C@@H]12
REMARK SMILES IDX 4 1 5 2 6 3 7 4 32 5 14 6 15 7 16 8 17 9 18 10 20 11 21 12
REMARK SMILES IDX 22 13 24 14 27 15 28 16 29 17 30 18 12 19 11 20 10 21 13 22
REMARK SMILES IDX 31 23 25 24 26 25 19 26 2 27 3 28 1 29 8 30 9 31 23 33
REMARK H PARENT 9 32 23 34
REMARK Flexibility Score: inf
ROOT
ATOM      1  C   UNL     1      -6.997  34.022  45.523  1.00  0.00     0.018 C 
ATOM      2  C   UNL     1      -7.503  34.340  46.931  1.00  0.00     0.009 C 
ATOM      3  C   UNL     1      -6.319  34.032  47.825  1.00  0.00     0.010 C 
ATOM      4  C   UNL     1      -5.628  32.781  47.224  1.00  0.00    -0.003 C 
ATOM      5  C   UNL     1      -5.916  32.901  45.683  1.00  0.00     0.008 C 
ATOM      6  C   UNL     1      -6.094  31.548  44.870  1.00  0.00    -0.000 C 
ATOM      7  C   UNL     1      -4.707  31.096  44.377  1.00  0.00     0.005 C 
ATOM      8  C   UNL     1      -4.765  29.871  43.495  1.00  0.00     0.005 C 
ATOM      9  C   UNL     1      -5.345  28.633  44.232  1.00  0.00     0.002 C 
ATOM     10  C   UNL     1      -5.232  27.247  43.379  1.00  0.00    -0.026 C 
ATOM     11  C   UNL     1      -4.087  27.357  42.308  1.00  0.00     0.010 C 
ATOM     12  C   UNL     1      -3.991  26.197  41.322  1.00  0.00     0.033 C 
ATOM     13  C   UNL     1      -5.293  26.070  40.533  1.00  0.00     0.120 C 
ATOM     14  C   UNL     1      -6.510  25.792  41.461  1.00  0.00    -0.006 C 
ATOM     15  C   UNL     1      -6.601  26.856  42.657  1.00  0.00     0.003 C 
ATOM     16  C   UNL     1      -7.379  28.146  42.308  1.00  0.00     0.005 C 
ATOM     17  C   UNL     1      -7.758  29.008  43.537  1.00  0.00     0.008 C 
ATOM     18  C   UNL     1      -6.791  28.970  44.776  1.00  0.00    -0.024 C 
ATOM     19  C   UNL     1      -6.851  30.382  45.607  1.00  0.00    -0.024 C 
ATOM     20  C   UNL     1      -6.207  30.237  47.026  1.00  0.00     0.008 C 
ATOM     21  C   UNL     1      -6.250  31.513  47.883  1.00  0.00     0.010 C 
ATOM     22  C   UNL     1      -8.347  30.805  45.781  1.00  0.00     0.012 C 
ATOM     23  C   UNL     1      -7.251  27.826  45.748  1.00  0.00     0.012 C 
ATOM     24  C   UNL     1      -7.785  25.814  40.570  1.00  0.00     0.014 C 
ATOM     25  C   UNL     1      -6.443  24.341  42.027  1.00  0.00     0.014 C 
ATOM     26  C   UNL     1      -4.817  26.124  44.384  1.00  0.00     0.012 C 
ENDROOT
BRANCH   1  27
ATOM     27  C   UNL     1      -8.039  33.885  44.410  1.00  0.00    -0.077 C 
ATOM     28  C   UNL     1      -7.565  33.883  42.977  1.00  0.00     0.039 C 
ATOM     29  C   UNL     1      -9.367  33.873  44.627  1.00  0.00     0.008 C 
ENDBRANCH   1  27
BRANCH   4  30
ATOM     30  C   UNL     1      -4.109  32.889  47.579  1.00  0.00     0.163 C 
BRANCH  30  31
ATOM     31  O   UNL     1      -3.877  33.625  48.747  1.00  0.00    -0.396 OA
ATOM     32  H   UNL     1      -2.995  33.346  49.105  1.00  0.00     0.210 HD
ENDBRANCH  30  31
ENDBRANCH   4  30
BRANCH  13  33
ATOM     33  O   UNL     1      -5.161  25.049  39.575  1.00  0.00    -0.393 OA
ATOM     34  H   UNL     1      -6.012  25.015  39.065  1.00  0.00     0.210 HD
ENDBRANCH  13  33
TORSDOF 4
ENDMDL
MODEL 3
REMARK VINA RESULT:    -5.767     10.957     14.108
REMARK INTER + INTRA:          -7.135
REMARK INTER:                  -6.713
REMARK INTRA:                  -0.422
REMARK UNBOUND:                -0.357
REMARK SMILES C=C(C)[C@H]1CC[C@@]2(CO)CC[C@@]3(C)[C@H](CC[C@@H]4[C@]5(C)CC[C@@H](O)C(C)(C)[C@@H]5CC[C@@]43C)[C@@H]12
REMARK SMILES IDX 4 1 5 2 6 3 7 4 32 5 14 6 15 7 16 8 17 9 18 10 20 11 21 12
REMARK SMILES IDX 22 13 24 14 27 15 28 16 29 17 30 18 12 19 11 20 10 21 13 22
REMARK SMILES IDX 31 23 25 24 26 25 19 26 2 27 3 28 1 29 8 30 9 31 23 33
REMARK H PARENT 9 32 23 34
REMARK Flexibility Score: inf
ROOT
ATOM      1  C   UNL     1     -18.089  26.126  32.371  1.00  0.00     0.018 C 
ATOM      2  C   UNL     1     -16.637  26.282  31.915  1.00  0.00     0.009 C 
ATOM      3  C   UNL     1     -16.063  24.885  32.030  1.00  0.00     0.010 C 
ATOM      4  C   UNL     1     -16.694  24.253  33.297  1.00  0.00    -0.003 C 
ATOM      5  C   UNL     1     -18.107  24.936  33.389  1.00  0.00     0.008 C 
ATOM      6  C   UNL     1     -18.701  25.185  34.841  1.00  0.00    -0.000 C 
ATOM      7  C   UNL     1     -19.495  23.934  35.258  1.00  0.00     0.005 C 
ATOM      8  C   UNL     1     -20.200  24.097  36.584  1.00  0.00     0.005 C 
ATOM      9  C   UNL     1     -19.212  24.346  37.757  1.00  0.00     0.002 C 
ATOM     10  C   UNL     1     -19.917  24.321  39.228  1.00  0.00    -0.026 C 
ATOM     11  C   UNL     1     -21.259  23.506  39.176  1.00  0.00     0.010 C 
ATOM     12  C   UNL     1     -22.111  23.554  40.440  1.00  0.00     0.033 C 
ATOM     13  C   UNL     1     -22.508  24.996  40.752  1.00  0.00     0.120 C 
ATOM     14  C   UNL     1     -21.267  25.902  40.993  1.00  0.00    -0.006 C 
ATOM     15  C   UNL     1     -20.205  25.786  39.796  1.00  0.00     0.003 C 
ATOM     16  C   UNL     1     -20.465  26.749  38.615  1.00  0.00     0.005 C 
ATOM     17  C   UNL     1     -19.275  26.881  37.633  1.00  0.00     0.008 C 
ATOM     18  C   UNL     1     -18.340  25.630  37.452  1.00  0.00    -0.024 C 
ATOM     19  C   UNL     1     -17.673  25.611  35.955  1.00  0.00    -0.024 C 
ATOM     20  C   UNL     1     -16.469  24.614  35.878  1.00  0.00     0.008 C 
ATOM     21  C   UNL     1     -15.767  24.560  34.511  1.00  0.00     0.010 C 
ATOM     22  C   UNL     1     -17.152  27.046  35.614  1.00  0.00     0.012 C 
ATOM     23  C   UNL     1     -17.169  25.712  38.495  1.00  0.00     0.012 C 
ATOM     24  C   UNL     1     -21.784  27.359  41.166  1.00  0.00     0.014 C 
ATOM     25  C   UNL     1     -20.593  25.551  42.354  1.00  0.00     0.014 C 
ATOM     26  C   UNL     1     -18.949  23.556  40.187  1.00  0.00     0.012 C 
ENDROOT
BRANCH   1  27
ATOM     27  C   UNL     1     -18.864  27.401  32.715  1.00  0.00    -0.077 C 
ATOM     28  C   UNL     1     -20.366  27.318  32.834  1.00  0.00     0.039 C 
ATOM     29  C   UNL     1     -18.297  28.617  32.813  1.00  0.00     0.008 C 
ENDBRANCH   1  27
BRANCH   4  30
ATOM     30  C   UNL     1     -16.770  22.711  33.045  1.00  0.00     0.163 C 
BRANCH  30  31
ATOM     31  O   UNL     1     -17.601  22.380  31.967  1.00  0.00    -0.396 OA
ATOM     32  H   UNL     1     -17.942  23.229  31.583  1.00  0.00     0.210 HD
ENDBRANCH  30  31
ENDBRANCH   4  30
BRANCH  13  33
ATOM     33  O   UNL     1     -23.356  25.016  41.873  1.00  0.00    -0.393 OA
ATOM     34  H   UNL     1     -23.890  25.852  41.820  1.00  0.00     0.210 HD
ENDBRANCH  13  33
TORSDOF 4
ENDMDL
MODEL 4
REMARK VINA RESULT:    -5.703      5.893      9.436
REMARK INTER + INTRA:          -7.060
REMARK INTER:                  -6.633
REMARK INTRA:                  -0.427
REMARK UNBOUND:                -0.357
REMARK SMILES C=C(C)[C@H]1CC[C@@]2(CO)CC[C@@]3(C)[C@H](CC[C@@H]4[C@]5(C)CC[C@@H](O)C(C)(C)[C@@H]5CC[C@@]43C)[C@@H]12
REMARK SMILES IDX 4 1 5 2 6 3 7 4 32 5 14 6 15 7 16 8 17 9 18 10 20 11 21 12
REMARK SMILES IDX 22 13 24 14 27 15 28 16 29 17 30 18 12 19 11 20 10 21 13 22
REMARK SMILES IDX 31 23 25 24 26 25 19 26 2 27 3 28 1 29 8 30 9 31 23 33
REMARK H PARENT 9 32 23 34
REMARK Flexibility Score: inf
ROOT
ATOM      1  C   UNL     1     -13.649  24.042  41.263  1.00  0.00     0.018 C 
ATOM      2  C   UNL     1     -12.220  24.466  41.603  1.00  0.00     0.009 C 
ATOM      3  C   UNL     1     -12.331  25.952  41.877  1.00  0.00     0.010 C 
ATOM      4  C   UNL     1     -13.371  26.507  40.869  1.00  0.00    -0.003 C 
ATOM      5  C   UNL     1     -14.345  25.296  40.633  1.00  0.00     0.008 C 
ATOM      6  C   UNL     1     -15.001  25.160  39.193  1.00  0.00    -0.000 C 
ATOM      7  C   UNL     1     -16.314  25.964  39.184  1.00  0.00     0.005 C 
ATOM      8  C   UNL     1     -17.084  25.820  37.893  1.00  0.00     0.005 C 
ATOM      9  C   UNL     1     -16.292  26.344  36.664  1.00  0.00     0.002 C 
ATOM     10  C   UNL     1     -17.168  26.396  35.289  1.00  0.00    -0.026 C 
ATOM     11  C   UNL     1     -18.702  26.463  35.621  1.00  0.00     0.010 C 
ATOM     12  C   UNL     1     -19.643  26.335  34.428  1.00  0.00     0.033 C 
ATOM     13  C   UNL     1     -19.424  24.995  33.728  1.00  0.00     0.120 C 
ATOM     14  C   UNL     1     -17.971  24.850  33.192  1.00  0.00    -0.006 C 
ATOM     15  C   UNL     1     -16.884  25.148  34.333  1.00  0.00     0.003 C 
ATOM     16  C   UNL     1     -16.507  23.921  35.194  1.00  0.00     0.005 C 
ATOM     17  C   UNL     1     -15.234  24.119  36.053  1.00  0.00     0.008 C 
ATOM     18  C   UNL     1     -14.915  25.574  36.555  1.00  0.00    -0.024 C 
ATOM     19  C   UNL     1     -14.087  25.536  37.969  1.00  0.00    -0.024 C 
ATOM     20  C   UNL     1     -13.436  26.924  38.287  1.00  0.00     0.008 C 
ATOM     21  C   UNL     1     -12.614  26.964  39.586  1.00  0.00     0.010 C 
ATOM     22  C   UNL     1     -12.950  24.467  37.862  1.00  0.00     0.012 C 
ATOM     23  C   UNL     1     -14.010  26.294  35.492  1.00  0.00     0.012 C 
ATOM     24  C   UNL     1     -17.830  23.408  32.624  1.00  0.00     0.014 C 
ATOM     25  C   UNL     1     -17.747  25.787  31.967  1.00  0.00     0.014 C 
ATOM     26  C   UNL     1     -16.795  27.726  34.558  1.00  0.00     0.012 C 
ENDROOT
BRANCH   1  27
ATOM     27  C   UNL     1     -13.844  22.679  40.594  1.00  0.00    -0.077 C 
ATOM     28  C   UNL     1     -15.244  22.130  40.475  1.00  0.00     0.039 C 
ATOM     29  C   UNL     1     -12.829  21.888  40.200  1.00  0.00     0.008 C 
ENDBRANCH   1  27
BRANCH   4  30
ATOM     30  C   UNL     1     -14.062  27.729  41.558  1.00  0.00     0.163 C 
BRANCH  30  31
ATOM     31  O   UNL     1     -14.809  27.363  42.685  1.00  0.00    -0.396 OA
ATOM     32  H   UNL     1     -15.319  28.163  42.976  1.00  0.00     0.210 HD
ENDBRANCH  30  31
ENDBRANCH   4  30
BRANCH  13  33
ATOM     33  O   UNL     1     -20.351  24.858  32.680  1.00  0.00    -0.393 OA
ATOM     34  H   UNL     1     -20.670  25.770  32.451  1.00  0.00     0.210 HD
ENDBRANCH  13  33
TORSDOF 4
ENDMDL
MODEL 5
REMARK VINA RESULT:    -5.620      1.409      7.938
REMARK INTER + INTRA:          -6.963
REMARK INTER:                  -6.572
REMARK INTRA:                  -0.390
REMARK UNBOUND:                -0.357
REMARK SMILES C=C(C)[C@H]1CC[C@@]2(CO)CC[C@@]3(C)[C@H](CC[C@@H]4[C@]5(C)CC[C@@H](O)C(C)(C)[C@@H]5CC[C@@]43C)[C@@H]12
REMARK SMILES IDX 4 1 5 2 6 3 7 4 32 5 14 6 15 7 16 8 17 9 18 10 20 11 21 12
REMARK SMILES IDX 22 13 24 14 27 15 28 16 29 17 30 18 12 19 11 20 10 21 13 22
REMARK SMILES IDX 31 23 25 24 26 25 19 26 2 27 3 28 1 29 8 30 9 31 23 33
REMARK H PARENT 9 32 23 34
REMARK Flexibility Score: inf
ROOT
ATOM      1  C   UNL     1     -12.987  27.010  40.359  1.00  0.00     0.018 C 
ATOM      2  C   UNL     1     -12.918  25.949  39.260  1.00  0.00     0.009 C 
ATOM      3  C   UNL     1     -12.732  24.649  40.015  1.00  0.00     0.010 C 
ATOM      4  C   UNL     1     -11.804  24.967  41.216  1.00  0.00    -0.003 C 
ATOM      5  C   UNL     1     -12.134  26.466  41.554  1.00  0.00     0.008 C 
ATOM      6  C   UNL     1     -10.948  27.363  42.114  1.00  0.00    -0.000 C 
ATOM      7  C   UNL     1     -10.924  27.227  43.648  1.00  0.00     0.005 C 
ATOM      8  C   UNL     1      -9.900  28.123  44.303  1.00  0.00     0.005 C 
ATOM      9  C   UNL     1      -8.449  27.799  43.855  1.00  0.00     0.002 C 
ATOM     10  C   UNL     1      -7.305  28.605  44.694  1.00  0.00    -0.026 C 
ATOM     11  C   UNL     1      -7.868  29.056  46.090  1.00  0.00     0.010 C 
ATOM     12  C   UNL     1      -6.962  29.974  46.903  1.00  0.00     0.033 C 
ATOM     13  C   UNL     1      -6.685  31.260  46.126  1.00  0.00     0.120 C 
ATOM     14  C   UNL     1      -5.971  30.981  44.773  1.00  0.00    -0.006 C 
ATOM     15  C   UNL     1      -6.749  29.878  43.907  1.00  0.00     0.003 C 
ATOM     16  C   UNL     1      -7.867  30.447  43.003  1.00  0.00     0.005 C 
ATOM     17  C   UNL     1      -8.381  29.454  41.932  1.00  0.00     0.008 C 
ATOM     18  C   UNL     1      -8.340  27.922  42.282  1.00  0.00    -0.024 C 
ATOM     19  C   UNL     1      -9.525  27.111  41.491  1.00  0.00    -0.024 C 
ATOM     20  C   UNL     1      -9.276  25.566  41.519  1.00  0.00     0.008 C 
ATOM     21  C   UNL     1     -10.329  24.733  40.771  1.00  0.00     0.010 C 
ATOM     22  C   UNL     1      -9.555  27.582  40.000  1.00  0.00     0.012 C 
ATOM     23  C   UNL     1      -6.963  27.328  41.817  1.00  0.00     0.012 C 
ATOM     24  C   UNL     1      -5.862  32.336  44.018  1.00  0.00     0.014 C 
ATOM     25  C   UNL     1      -4.495  30.539  45.017  1.00  0.00     0.014 C 
ATOM     26  C   UNL     1      -6.143  27.596  44.969  1.00  0.00     0.012 C 
ENDROOT
BRANCH   1  27
ATOM     27  C   UNL     1     -12.820  28.474  39.942  1.00  0.00    -0.077 C 
ATOM     28  C   UNL     1     -13.254  29.550  40.906  1.00  0.00     0.039 C 
ATOM     29  C   UNL     1     -12.407  28.860  38.721  1.00  0.00     0.008 C 
ENDBRANCH   1  27
BRANCH   4  30
ATOM     30  C   UNL     1     -12.191  23.976  42.363  1.00  0.00     0.163 C 
BRANCH  30  31
ATOM     31  O   UNL     1     -11.405  22.817  42.364  1.00  0.00    -0.396 OA
ATOM     32  H   UNL     1     -11.527  22.377  43.245  1.00  0.00     0.210 HD
ENDBRANCH  30  31
ENDBRANCH   4  30
BRANCH  13  33
ATOM     33  O   UNL     1      -5.914  32.128  46.919  1.00  0.00    -0.393 OA
ATOM     34  H   UNL     1      -5.267  31.567  47.422  1.00  0.00     0.210 HD
ENDBRANCH  13  33
TORSDOF 4
ENDMDL
MODEL 6
REMARK VINA RESULT:    -5.572      6.320      9.092
REMARK INTER + INTRA:          -6.906
REMARK INTER:                  -6.446
REMARK INTRA:                  -0.460
REMARK UNBOUND:                -0.357
REMARK SMILES C=C(C)[C@H]1CC[C@@]2(CO)CC[C@@]3(C)[C@H](CC[C@@H]4[C@]5(C)CC[C@@H](O)C(C)(C)[C@@H]5CC[C@@]43C)[C@@H]12
REMARK SMILES IDX 4 1 5 2 6 3 7 4 32 5 14 6 15 7 16 8 17 9 18 10 20 11 21 12
REMARK SMILES IDX 22 13 24 14 27 15 28 16 29 17 30 18 12 19 11 20 10 21 13 22
REMARK SMILES IDX 31 23 25 24 26 25 19 26 2 27 3 28 1 29 8 30 9 31 23 33
REMARK H PARENT 9 32 23 34
REMARK Flexibility Score: inf
ROOT
ATOM      1  C   UNL     1     -13.777  25.278  40.862  1.00  0.00     0.018 C 
ATOM      2  C   UNL     1     -13.101  26.396  41.656  1.00  0.00     0.009 C 
ATOM      3  C   UNL     1     -13.345  27.638  40.824  1.00  0.00     0.010 C 
ATOM      4  C   UNL     1     -13.237  27.202  39.340  1.00  0.00    -0.003 C 
ATOM      5  C   UNL     1     -13.717  25.705  39.356  1.00  0.00     0.008 C 
ATOM      6  C   UNL     1     -13.048  24.715  38.310  1.00  0.00    -0.000 C 
ATOM      7  C   UNL     1     -13.871  24.760  37.009  1.00  0.00     0.005 C 
ATOM      8  C   UNL     1     -13.389  23.774  35.972  1.00  0.00     0.005 C 
ATOM      9  C   UNL     1     -11.928  24.046  35.523  1.00  0.00     0.002 C 
ATOM     10  C   UNL     1     -11.446  23.133  34.261  1.00  0.00    -0.026 C 
ATOM     11  C   UNL     1     -12.690  22.631  33.442  1.00  0.00     0.010 C 
ATOM     12  C   UNL     1     -12.393  21.620  32.340  1.00  0.00     0.033 C 
ATOM     13  C   UNL     1     -11.750  20.369  32.935  1.00  0.00     0.120 C 
ATOM     14  C   UNL     1     -10.405  20.688  33.647  1.00  0.00    -0.006 C 
ATOM     15  C   UNL     1     -10.564  21.880  34.710  1.00  0.00     0.003 C 
ATOM     16  C   UNL     1     -11.006  21.425  36.120  1.00  0.00     0.005 C 
ATOM     17  C   UNL     1     -10.831  22.504  37.216  1.00  0.00     0.008 C 
ATOM     18  C   UNL     1     -10.971  24.009  36.783  1.00  0.00    -0.024 C 
ATOM     19  C   UNL     1     -11.514  24.927  38.027  1.00  0.00    -0.024 C 
ATOM     20  C   UNL     1     -11.302  26.452  37.747  1.00  0.00     0.008 C 
ATOM     21  C   UNL     1     -11.758  27.383  38.883  1.00  0.00     0.010 C 
ATOM     22  C   UNL     1     -10.722  24.545  39.322  1.00  0.00     0.012 C 
ATOM     23  C   UNL     1      -9.559  24.555  36.368  1.00  0.00     0.012 C 
ATOM     24  C   UNL     1      -9.916  19.375  34.322  1.00  0.00     0.014 C 
ATOM     25  C   UNL     1      -9.304  21.035  32.600  1.00  0.00     0.014 C 
ATOM     26  C   UNL     1     -10.616  24.061  33.315  1.00  0.00     0.012 C 
ENDROOT
BRANCH   1  27
ATOM     27  C   UNL     1     -13.426  23.834  41.231  1.00  0.00    -0.077 C 
ATOM     28  C   UNL     1     -14.305  22.725  40.710  1.00  0.00     0.039 C 
ATOM     29  C   UNL     1     -12.440  23.500  42.084  1.00  0.00     0.008 C 
ENDBRANCH   1  27
BRANCH   4  30
ATOM     30  C   UNL     1     -14.180  28.143  38.521  1.00  0.00     0.163 C 
BRANCH  30  31
ATOM     31  O   UNL     1     -15.498  27.675  38.468  1.00  0.00    -0.396 OA
ATOM     32  H   UNL     1     -15.706  27.478  37.519  1.00  0.00     0.210 HD
ENDBRANCH  30  31
ENDBRANCH   4  30
BRANCH  13  33
ATOM     33  O   UNL     1     -11.555  19.416  31.920  1.00  0.00    -0.393 OA
ATOM     34  H   UNL     1     -11.171  19.896  31.140  1.00  0.00     0.210 HD
ENDBRANCH  13  33
TORSDOF 4
ENDMDL
MODEL 7
REMARK VINA RESULT:    -5.452      1.457      7.824
REMARK INTER + INTRA:          -6.765
REMARK INTER:                  -6.311
REMARK INTRA:                  -0.454
REMARK UNBOUND:                -0.357
REMARK SMILES C=C(C)[C@H]1CC[C@@]2(CO)CC[C@@]3(C)[C@H](CC[C@@H]4[C@]5(C)CC[C@@H](O)C(C)(C)[C@@H]5CC[C@@]43C)[C@@H]12
REMARK SMILES IDX 4 1 5 2 6 3 7 4 32 5 14 6 15 7 16 8 17 9 18 10 20 11 21 12
REMARK SMILES IDX 22 13 24 14 27 15 28 16 29 17 30 18 12 19 11 20 10 21 13 22
REMARK SMILES IDX 31 23 25 24 26 25 19 26 2 27 3 28 1 29 8 30 9 31 23 33
REMARK H PARENT 9 32 23 34
REMARK Flexibility Score: inf
ROOT
ATOM      1  C   UNL     1     -11.744  26.695  39.585  1.00  0.00     0.018 C 
ATOM      2  C   UNL     1     -11.316  25.588  38.620  1.00  0.00     0.009 C 
ATOM      3  C   UNL     1     -11.202  24.358  39.497  1.00  0.00     0.010 C 
ATOM      4  C   UNL     1     -10.624  24.838  40.854  1.00  0.00    -0.003 C 
ATOM      5  C   UNL     1     -11.160  26.310  40.986  1.00  0.00     0.008 C 
ATOM      6  C   UNL     1     -10.231  27.357  41.738  1.00  0.00    -0.000 C 
ATOM      7  C   UNL     1     -10.567  27.308  43.240  1.00  0.00     0.005 C 
ATOM      8  C   UNL     1      -9.817  28.342  44.045  1.00  0.00     0.005 C 
ATOM      9  C   UNL     1      -8.277  28.150  43.979  1.00  0.00     0.002 C 
ATOM     10  C   UNL     1      -7.448  29.117  44.997  1.00  0.00    -0.026 C 
ATOM     11  C   UNL     1      -8.370  29.581  46.182  1.00  0.00     0.010 C 
ATOM     12  C   UNL     1      -7.774  30.633  47.111  1.00  0.00     0.033 C 
ATOM     13  C   UNL     1      -7.434  31.897  46.323  1.00  0.00     0.120 C 
ATOM     14  C   UNL     1      -6.392  31.622  45.203  1.00  0.00    -0.006 C 
ATOM     15  C   UNL     1      -6.835  30.397  44.266  1.00  0.00     0.003 C 
ATOM     16  C   UNL     1      -7.747  30.794  43.083  1.00  0.00     0.005 C 
ATOM     17  C   UNL     1      -7.894  29.696  42.002  1.00  0.00     0.008 C 
ATOM     18  C   UNL     1      -7.803  28.198  42.471  1.00  0.00    -0.024 C 
ATOM     19  C   UNL     1      -8.683  27.224  41.489  1.00  0.00    -0.024 C 
ATOM     20  C   UNL     1      -8.309  25.717  41.696  1.00  0.00     0.008 C 
ATOM     21  C   UNL     1      -9.071  24.738  40.789  1.00  0.00     0.010 C 
ATOM     22  C   UNL     1      -8.392  27.607  40.001  1.00  0.00     0.012 C 
ATOM     23  C   UNL     1      -6.306  27.729  42.391  1.00  0.00     0.012 C 
ATOM     24  C   UNL     1      -6.226  32.938  44.391  1.00  0.00     0.014 C 
ATOM     25  C   UNL     1      -4.986  31.353  45.821  1.00  0.00     0.014 C 
ATOM     26  C   UNL     1      -6.302  28.253  45.617  1.00  0.00     0.012 C 
ENDROOT
BRANCH   1  27
ATOM     27  C   UNL     1     -11.613  28.143  39.106  1.00  0.00    -0.077 C 
ATOM     28  C   UNL     1     -12.235  29.235  39.940  1.00  0.00     0.039 C 
ATOM     29  C   UNL     1     -11.068  28.493  37.926  1.00  0.00     0.008 C 
ENDBRANCH   1  27
BRANCH   4  30
ATOM     30  C   UNL     1     -11.187  23.876  41.951  1.00  0.00     0.163 C 
BRANCH  30  31
ATOM     31  O   UNL     1     -12.354  24.365  42.553  1.00  0.00    -0.396 OA
ATOM     32  H   UNL     1     -12.917  23.583  42.788  1.00  0.00     0.210 HD
ENDBRANCH  30  31
ENDBRANCH   4  30
BRANCH  13  33
ATOM     33  O   UNL     1      -6.960  32.884  47.205  1.00  0.00    -0.393 OA
ATOM     34  H   UNL     1      -6.042  32.619  47.473  1.00  0.00     0.210 HD
ENDBRANCH  13  33
TORSDOF 4
ENDMDL
MODEL 8
REMARK VINA RESULT:    -5.432     10.350     13.838
REMARK INTER + INTRA:          -6.742
REMARK INTER:                  -6.453
REMARK INTRA:                  -0.289
REMARK UNBOUND:                -0.357
REMARK SMILES C=C(C)[C@H]1CC[C@@]2(CO)CC[C@@]3(C)[C@H](CC[C@@H]4[C@]5(C)CC[C@@H](O)C(C)(C)[C@@H]5CC[C@@]43C)[C@@H]12
REMARK SMILES IDX 4 1 5 2 6 3 7 4 32 5 14 6 15 7 16 8 17 9 18 10 20 11 21 12
REMARK SMILES IDX 22 13 24 14 27 15 28 16 29 17 30 18 12 19 11 20 10 21 13 22
REMARK SMILES IDX 31 23 25 24 26 25 19 26 2 27 3 28 1 29 8 30 9 31 23 33
REMARK H PARENT 9 32 23 34
REMARK Flexibility Score: inf
ROOT
ATOM      1  C   UNL     1     -19.482  25.312  32.854  1.00  0.00     0.018 C 
ATOM      2  C   UNL     1     -20.323  26.121  33.843  1.00  0.00     0.009 C 
ATOM      3  C   UNL     1     -19.874  27.551  33.624  1.00  0.00     0.010 C 
ATOM      4  C   UNL     1     -18.347  27.496  33.356  1.00  0.00    -0.003 C 
ATOM      5  C   UNL     1     -18.141  26.098  32.667  1.00  0.00     0.008 C 
ATOM      6  C   UNL     1     -16.771  25.345  32.947  1.00  0.00    -0.000 C 
ATOM      7  C   UNL     1     -15.747  25.799  31.890  1.00  0.00     0.005 C 
ATOM      8  C   UNL     1     -14.431  25.065  31.990  1.00  0.00     0.005 C 
ATOM      9  C   UNL     1     -13.721  25.297  33.352  1.00  0.00     0.002 C 
ATOM     10  C   UNL     1     -12.208  24.691  33.418  1.00  0.00    -0.026 C 
ATOM     11  C   UNL     1     -11.618  24.538  31.970  1.00  0.00     0.010 C 
ATOM     12  C   UNL     1     -10.278  23.815  31.875  1.00  0.00     0.033 C 
ATOM     13  C   UNL     1     -10.407  22.397  32.429  1.00  0.00     0.120 C 
ATOM     14  C   UNL     1     -10.833  22.392  33.924  1.00  0.00    -0.006 C 
ATOM     15  C   UNL     1     -12.142  23.285  34.172  1.00  0.00     0.003 C 
ATOM     16  C   UNL     1     -13.477  22.533  33.967  1.00  0.00     0.005 C 
ATOM     17  C   UNL     1     -14.714  23.277  34.526  1.00  0.00     0.008 C 
ATOM     18  C   UNL     1     -14.676  24.849  34.531  1.00  0.00    -0.024 C 
ATOM     19  C   UNL     1     -16.188  25.470  34.403  1.00  0.00    -0.024 C 
ATOM     20  C   UNL     1     -16.215  26.989  34.783  1.00  0.00     0.008 C 
ATOM     21  C   UNL     1     -17.605  27.641  34.718  1.00  0.00     0.010 C 
ATOM     22  C   UNL     1     -17.137  24.698  35.377  1.00  0.00     0.012 C 
ATOM     23  C   UNL     1     -14.072  25.341  35.894  1.00  0.00     0.012 C 
ATOM     24  C   UNL     1     -11.059  20.909  34.336  1.00  0.00     0.014 C 
ATOM     25  C   UNL     1      -9.660  22.884  34.826  1.00  0.00     0.014 C 
ATOM     26  C   UNL     1     -11.326  25.742  34.167  1.00  0.00     0.012 C 
ENDROOT
BRANCH   1  27
ATOM     27  C   UNL     1     -19.423  23.794  33.050  1.00  0.00    -0.077 C 
ATOM     28  C   UNL     1     -20.003  23.210  34.314  1.00  0.00     0.039 C 
ATOM     29  C   UNL     1     -18.788  22.957  32.210  1.00  0.00     0.008 C 
ENDBRANCH   1  27
BRANCH   4  30
ATOM     30  C   UNL     1     -18.009  28.702  32.420  1.00  0.00     0.163 C 
BRANCH  30  31
ATOM     31  O   UNL     1     -19.151  29.380  31.976  1.00  0.00    -0.396 OA
ATOM     32  H   UNL     1     -19.573  29.802  32.768  1.00  0.00     0.210 HD
ENDBRANCH  30  31
ENDBRANCH   4  30
BRANCH  13  33
ATOM     33  O   UNL     1      -9.187  21.718  32.262  1.00  0.00    -0.393 OA
ATOM     34  H   UNL     1      -8.471  22.405  32.244  1.00  0.00     0.210 HD
ENDBRANCH  13  33
TORSDOF 4
ENDMDL
MODEL 9
REMARK VINA RESULT:    -5.356      6.280     13.233
REMARK INTER + INTRA:          -6.652
REMARK INTER:                  -6.233
REMARK INTRA:                  -0.418
REMARK UNBOUND:                -0.357
REMARK SMILES C=C(C)[C@H]1CC[C@@]2(CO)CC[C@@]3(C)[C@H](CC[C@@H]4[C@]5(C)CC[C@@H](O)C(C)(C)[C@@H]5CC[C@@]43C)[C@@H]12
REMARK SMILES IDX 4 1 5 2 6 3 7 4 32 5 14 6 15 7 16 8 17 9 18 10 20 11 21 12
REMARK SMILES IDX 22 13 24 14 27 15 28 16 29 17 30 18 12 19 11 20 10 21 13 22
REMARK SMILES IDX 31 23 25 24 26 25 19 26 2 27 3 28 1 29 8 30 9 31 23 33
REMARK H PARENT 9 32 23 34
REMARK Flexibility Score: inf
ROOT
ATOM      1  C   UNL     1     -19.608  25.388  33.158  1.00  0.00     0.018 C 
ATOM      2  C   UNL     1     -19.518  24.537  31.890  1.00  0.00     0.009 C 
ATOM      3  C   UNL     1     -19.658  23.114  32.392  1.00  0.00     0.010 C 
ATOM      4  C   UNL     1     -18.905  23.049  33.746  1.00  0.00    -0.003 C 
ATOM      5  C   UNL     1     -19.057  24.503  34.326  1.00  0.00     0.008 C 
ATOM      6  C   UNL     1     -17.860  25.063  35.207  1.00  0.00    -0.000 C 
ATOM      7  C   UNL     1     -18.112  24.663  36.672  1.00  0.00     0.005 C 
ATOM      8  C   UNL     1     -17.089  25.236  37.624  1.00  0.00     0.005 C 
ATOM      9  C   UNL     1     -15.649  24.738  37.322  1.00  0.00     0.002 C 
ATOM     10  C   UNL     1     -14.552  25.170  38.449  1.00  0.00    -0.026 C 
ATOM     11  C   UNL     1     -15.265  25.468  39.818  1.00  0.00     0.010 C 
ATOM     12  C   UNL     1     -14.379  26.055  40.911  1.00  0.00     0.033 C 
ATOM     13  C   UNL     1     -13.786  27.385  40.448  1.00  0.00     0.120 C 
ATOM     14  C   UNL     1     -12.907  27.219  39.176  1.00  0.00    -0.006 C 
ATOM     15  C   UNL     1     -13.688  26.439  38.012  1.00  0.00     0.003 C 
ATOM     16  C   UNL     1     -14.541  27.346  37.096  1.00  0.00     0.005 C 
ATOM     17  C   UNL     1     -15.013  26.661  35.790  1.00  0.00     0.008 C 
ATOM     18  C   UNL     1     -15.262  25.109  35.833  1.00  0.00    -0.024 C 
ATOM     19  C   UNL     1     -16.408  24.671  34.745  1.00  0.00    -0.024 C 
ATOM     20  C   UNL     1     -16.402  23.125  34.500  1.00  0.00     0.008 C 
ATOM     21  C   UNL     1     -17.430  22.635  33.467  1.00  0.00     0.010 C 
ATOM     22  C   UNL     1     -16.117  25.390  33.386  1.00  0.00     0.012 C 
ATOM     23  C   UNL     1     -13.933  24.367  35.450  1.00  0.00     0.012 C 
ATOM     24  C   UNL     1     -12.472  28.642  38.726  1.00  0.00     0.014 C 
ATOM     25  C   UNL     1     -11.577  26.485  39.526  1.00  0.00     0.014 C 
ATOM     26  C   UNL     1     -13.618  23.937  38.675  1.00  0.00     0.012 C 
ENDROOT
BRANCH   1  27
ATOM     27  C   UNL     1     -19.155  26.848  33.064  1.00  0.00    -0.077 C 
ATOM     28  C   UNL     1     -19.514  27.785  34.190  1.00  0.00     0.039 C 
ATOM     29  C   UNL     1     -18.547  27.374  31.985  1.00  0.00     0.008 C 
ENDBRANCH   1  27
BRANCH   4  30
ATOM     30  C   UNL     1     -19.623  21.962  34.611  1.00  0.00     0.163 C 
BRANCH  30  31
ATOM     31  O   UNL     1     -20.473  22.514  35.578  1.00  0.00    -0.396 OA
ATOM     32  H   UNL     1     -21.061  21.786  35.907  1.00  0.00     0.210 HD
ENDBRANCH  30  31
ENDBRANCH   4  30
BRANCH  13  33
ATOM     33  O   UNL     1     -13.036  27.951  41.494  1.00  0.00    -0.393 OA
ATOM     34  H   UNL     1     -12.431  28.626  41.088  1.00  0.00     0.210 HD
ENDBRANCH  13  33
TORSDOF 4
ENDMDL
