MODEL 1
REMARK VINA RESULT:    -5.659      0.000      0.000
REMARK INTER + INTRA:         -12.497
REMARK INTER:                 -10.290
REMARK INTRA:                  -2.207
REMARK UNBOUND:                -2.207
REMARK SMILES CCCCCCCCCCCCCC[C@@H](C)C(=O)[O-]
REMARK SMILES IDX 9 1 10 2 11 3 12 4 13 5 14 6 15 7 16 8 17 9 18 10 19 11 8 12
REMARK SMILES IDX 7 13 6 14 5 15 4 16 3 17 2 18 1 19
REMARK H PARENT
REMARK Flexibility Score: inf
ROOT
ATOM      1  C   UNL     1      15.403  21.173  18.810  1.00  0.00     0.000 C 
ENDROOT
BRANCH   1   2
ATOM      2  C   UNL     1      14.929  19.747  19.134  1.00  0.00     0.000 C 
BRANCH   2   3
ATOM      3  C   UNL     1      15.055  18.796  17.931  1.00  0.00     0.000 C 
BRANCH   3   4
ATOM      4  C   UNL     1      16.286  17.881  18.028  1.00  0.00     0.000 C 
BRANCH   4   5
ATOM      5  C   UNL     1      17.075  17.805  16.711  1.00  0.00     0.001 C 
BRANCH   5   6
ATOM      6  C   UNL     1      16.738  18.998  15.802  1.00  0.00     0.009 C 
BRANCH   6   7
ATOM      7  C   UNL     1      17.953  19.913  15.541  1.00  0.00     0.032 C 
ATOM      8  C   UNL     1      18.526  20.501  16.837  1.00  0.00     0.014 C 
BRANCH   7   9
ATOM      9  C   UNL     1      19.025  19.141  14.821  1.00  0.00     0.044 C 
ATOM     10  O   UNL     1      18.826  18.724  13.650  1.00  0.00    -0.550 OA
ATOM     11  O   UNL     1      20.240  18.882  15.444  1.00  0.00    -0.550 OA
ENDBRANCH   7   9
ENDBRANCH   6   7
ENDBRANCH   5   6
ENDBRANCH   4   5
ENDBRANCH   3   4
ENDBRANCH   2   3
ENDBRANCH   1   2
BRANCH   1  12
ATOM     12  C   UNL     1      14.236  22.166  18.658  1.00  0.00     0.000 C 
BRANCH  12  13
ATOM     13  C   UNL     1      14.397  23.079  17.433  1.00  0.00    -0.000 C 
BRANCH  13  14
ATOM     14  C   UNL     1      15.381  22.508  16.397  1.00  0.00    -0.000 C 
BRANCH  14  15
ATOM     15  C   UNL     1      14.677  21.964  15.141  1.00  0.00    -0.000 C 
BRANCH  15  16
ATOM     16  C   UNL     1      15.345  22.346  13.806  1.00  0.00    -0.000 C 
BRANCH  16  17
ATOM     17  C   UNL     1      15.260  21.232  12.752  1.00  0.00    -0.000 C 
BRANCH  17  18
ATOM     18  C   UNL     1      15.990  21.636  11.467  1.00  0.00    -0.003 C 
ATOM     19  C   UNL     1      17.368  20.986  11.388  1.00  0.00     0.004 C 
ENDBRANCH  17  18
ENDBRANCH  16  17
ENDBRANCH  15  16
ENDBRANCH  14  15
ENDBRANCH  13  14
ENDBRANCH  12  13
ENDBRANCH   1  12
TORSDOF 14
ENDMDL
MODEL 2
REMARK VINA RESULT:    -5.657      1.924      3.741
REMARK INTER + INTRA:         -12.494
REMARK INTER:                 -10.446
REMARK INTRA:                  -2.049
REMARK UNBOUND:                -2.207
REMARK SMILES CCCCCCCCCCCCCC[C@@H](C)C(=O)[O-]
REMARK SMILES IDX 9 1 10 2 11 3 12 4 13 5 14 6 15 7 16 8 17 9 18 10 19 11 8 12
REMARK SMILES IDX 7 13 6 14 5 15 4 16 3 17 2 18 1 19
REMARK H PARENT
REMARK Flexibility Score: inf
ROOT
ATOM      1  C   UNL     1      15.454  22.546  16.595  1.00  0.00     0.000 C 
ENDROOT
BRANCH   1   2
ATOM      2  C   UNL     1      14.371  23.207  17.462  1.00  0.00     0.000 C 
BRANCH   2   3
ATOM      3  C   UNL     1      14.113  22.440  18.770  1.00  0.00     0.000 C 
BRANCH   3   4
ATOM      4  C   UNL     1      14.022  20.920  18.555  1.00  0.00     0.000 C 
BRANCH   4   5
ATOM      5  C   UNL     1      14.265  20.122  19.846  1.00  0.00     0.001 C 
BRANCH   5   6
ATOM      6  C   UNL     1      15.748  19.745  19.986  1.00  0.00     0.009 C 
BRANCH   6   7
ATOM      7  C   UNL     1      16.458  19.595  18.623  1.00  0.00     0.032 C 
ATOM      8  C   UNL     1      17.906  20.102  18.663  1.00  0.00     0.014 C 
BRANCH   7   9
ATOM      9  C   UNL     1      16.441  18.152  18.198  1.00  0.00     0.044 C 
ATOM     10  O   UNL     1      17.516  17.502  18.121  1.00  0.00    -0.550 OA
ATOM     11  O   UNL     1      15.239  17.528  17.885  1.00  0.00    -0.550 OA
ENDBRANCH   7   9
ENDBRANCH   6   7
ENDBRANCH   5   6
ENDBRANCH   4   5
ENDBRANCH   3   4
ENDBRANCH   2   3
ENDBRANCH   1   2
BRANCH   1  12
ATOM     12  C   UNL     1      14.909  22.042  15.246  1.00  0.00     0.000 C 
BRANCH  12  13
ATOM     13  C   UNL     1      15.469  20.662  14.866  1.00  0.00    -0.000 C 
BRANCH  13  14
ATOM     14  C   UNL     1      16.971  20.531  15.169  1.00  0.00    -0.000 C 
BRANCH  14  15
ATOM     15  C   UNL     1      17.588  19.244  14.593  1.00  0.00    -0.000 C 
BRANCH  15  16
ATOM     16  C   UNL     1      18.447  19.445  13.330  1.00  0.00    -0.000 C 
BRANCH  16  17
ATOM     17  C   UNL     1      17.610  19.556  12.047  1.00  0.00    -0.000 C 
BRANCH  17  18
ATOM     18  C   UNL     1      17.602  20.995  11.521  1.00  0.00    -0.003 C 
ATOM     19  C   UNL     1      16.177  21.517  11.363  1.00  0.00     0.004 C 
ENDBRANCH  17  18
ENDBRANCH  16  17
ENDBRANCH  15  16
ENDBRANCH  14  15
ENDBRANCH  13  14
ENDBRANCH  12  13
ENDBRANCH   1  12
TORSDOF 14
ENDMDL
MODEL 3
REMARK VINA RESULT:    -5.625      1.365      2.606
REMARK INTER + INTRA:         -12.435
REMARK INTER:                 -10.416
REMARK INTRA:                  -2.019
REMARK UNBOUND:                -2.207
REMARK SMILES CCCCCCCCCCCCCC[C@@H](C)C(=O)[O-]
REMARK SMILES IDX 9 1 10 2 11 3 12 4 13 5 14 6 15 7 16 8 17 9 18 10 19 11 8 12
REMARK SMILES IDX 7 13 6 14 5 15 4 16 3 17 2 18 1 19
REMARK H PARENT
REMARK Flexibility Score: inf
ROOT
ATOM      1  C   UNL     1      14.491  22.775  17.356  1.00  0.00     0.000 C 
ENDROOT
BRANCH   1   2
ATOM      2  C   UNL     1      14.179  22.498  18.835  1.00  0.00     0.000 C 
BRANCH   2   3
ATOM      3  C   UNL     1      14.212  20.998  19.173  1.00  0.00     0.000 C 
BRANCH   3   4
ATOM      4  C   UNL     1      15.368  20.630  20.117  1.00  0.00     0.000 C 
BRANCH   4   5
ATOM      5  C   UNL     1      16.637  20.200  19.364  1.00  0.00     0.001 C 
BRANCH   5   6
ATOM      6  C   UNL     1      16.302  19.174  18.269  1.00  0.00     0.009 C 
BRANCH   6   7
ATOM      7  C   UNL     1      17.117  19.392  16.977  1.00  0.00     0.032 C 
ATOM      8  C   UNL     1      17.746  20.790  16.915  1.00  0.00     0.014 C 
BRANCH   7   9
ATOM      9  C   UNL     1      18.197  18.349  16.876  1.00  0.00     0.044 C 
ATOM     10  O   UNL     1      19.396  18.694  16.712  1.00  0.00    -0.550 OA
ATOM     11  O   UNL     1      17.877  16.999  16.961  1.00  0.00    -0.550 OA
ENDBRANCH   7   9
ENDBRANCH   6   7
ENDBRANCH   5   6
ENDBRANCH   4   5
ENDBRANCH   3   4
ENDBRANCH   2   3
ENDBRANCH   1   2
BRANCH   1  12
ATOM     12  C   UNL     1      14.056  21.624  16.431  1.00  0.00     0.000 C 
BRANCH  12  13
ATOM     13  C   UNL     1      14.024  22.038  14.952  1.00  0.00    -0.000 C 
BRANCH  13  14
ATOM     14  C   UNL     1      15.414  21.989  14.296  1.00  0.00    -0.000 C 
BRANCH  14  15
ATOM     15  C   UNL     1      15.416  22.537  12.857  1.00  0.00    -0.000 C 
BRANCH  15  16
ATOM     16  C   UNL     1      15.787  21.508  11.772  1.00  0.00    -0.000 C 
BRANCH  16  17
ATOM     17  C   UNL     1      17.302  21.405  11.536  1.00  0.00    -0.000 C 
BRANCH  17  18
ATOM     18  C   UNL     1      17.787  19.962  11.711  1.00  0.00    -0.003 C 
ATOM     19  C   UNL     1      18.219  19.697  13.151  1.00  0.00     0.004 C 
ENDBRANCH  17  18
ENDBRANCH  16  17
ENDBRANCH  15  16
ENDBRANCH  14  15
ENDBRANCH  13  14
ENDBRANCH  12  13
ENDBRANCH   1  12
TORSDOF 14
ENDMDL
MODEL 4
REMARK VINA RESULT:    -5.596      1.963      3.828
REMARK INTER + INTRA:         -12.383
REMARK INTER:                 -10.887
REMARK INTRA:                  -1.496
REMARK UNBOUND:                -2.207
REMARK SMILES CCCCCCCCCCCCCC[C@@H](C)C(=O)[O-]
REMARK SMILES IDX 9 1 10 2 11 3 12 4 13 5 14 6 15 7 16 8 17 9 18 10 19 11 8 12
REMARK SMILES IDX 7 13 6 14 5 15 4 16 3 17 2 18 1 19
REMARK H PARENT
REMARK Flexibility Score: inf
ROOT
ATOM      1  C   UNL     1      13.947  21.507  16.289  1.00  0.00     0.000 C 
ENDROOT
BRANCH   1   2
ATOM      2  C   UNL     1      14.397  22.763  17.054  1.00  0.00     0.000 C 
BRANCH   2   3
ATOM      3  C   UNL     1      14.114  22.667  18.562  1.00  0.00     0.000 C 
BRANCH   3   4
ATOM      4  C   UNL     1      14.092  21.215  19.068  1.00  0.00     0.000 C 
BRANCH   4   5
ATOM      5  C   UNL     1      14.961  21.008  20.319  1.00  0.00     0.001 C 
BRANCH   5   6
ATOM      6  C   UNL     1      16.072  19.980  20.049  1.00  0.00     0.009 C 
BRANCH   6   7
ATOM      7  C   UNL     1      16.346  19.779  18.544  1.00  0.00     0.032 C 
ATOM      8  C   UNL     1      17.711  20.338  18.122  1.00  0.00     0.014 C 
BRANCH   7   9
ATOM      9  C   UNL     1      16.276  18.314  18.207  1.00  0.00     0.044 C 
ATOM     10  O   UNL     1      15.162  17.733  18.138  1.00  0.00    -0.550 OA
ATOM     11  O   UNL     1      17.441  17.593  17.971  1.00  0.00    -0.550 OA
ENDBRANCH   7   9
ENDBRANCH   6   7
ENDBRANCH   5   6
ENDBRANCH   4   5
ENDBRANCH   3   4
ENDBRANCH   2   3
ENDBRANCH   1   2
BRANCH   1  12
ATOM     12  C   UNL     1      14.057  21.671  14.762  1.00  0.00     0.000 C 
BRANCH  12  13
ATOM     13  C   UNL     1      15.379  22.328  14.336  1.00  0.00    -0.000 C 
BRANCH  13  14
ATOM     14  C   UNL     1      15.430  22.626  12.828  1.00  0.00    -0.000 C 
BRANCH  14  15
ATOM     15  C   UNL     1      15.756  21.382  11.983  1.00  0.00    -0.000 C 
BRANCH  15  16
ATOM     16  C   UNL     1      17.116  21.426  11.261  1.00  0.00    -0.000 C 
BRANCH  16  17
ATOM     17  C   UNL     1      18.067  20.304  11.704  1.00  0.00    -0.000 C 
BRANCH  17  18
ATOM     18  C   UNL     1      17.634  19.720  13.053  1.00  0.00    -0.003 C 
ATOM     19  C   UNL     1      18.719  18.822  13.639  1.00  0.00     0.004 C 
ENDBRANCH  17  18
ENDBRANCH  16  17
ENDBRANCH  15  16
ENDBRANCH  14  15
ENDBRANCH  13  14
ENDBRANCH  12  13
ENDBRANCH   1  12
TORSDOF 14
ENDMDL
MODEL 5
REMARK VINA RESULT:    -5.498      1.468      4.750
REMARK INTER + INTRA:         -12.205
REMARK INTER:                 -10.285
REMARK INTRA:                  -1.920
REMARK UNBOUND:                -2.207
REMARK SMILES CCCCCCCCCCCCCC[C@@H](C)C(=O)[O-]
REMARK SMILES IDX 9 1 10 2 11 3 12 4 13 5 14 6 15 7 16 8 17 9 18 10 19 11 8 12
REMARK SMILES IDX 7 13 6 14 5 15 4 16 3 17 2 18 1 19
REMARK H PARENT
REMARK Flexibility Score: inf
ROOT
ATOM      1  C   UNL     1      14.854  22.630  16.991  1.00  0.00     0.000 C 
ENDROOT
BRANCH   1   2
ATOM      2  C   UNL     1      14.299  21.453  16.174  1.00  0.00     0.000 C 
BRANCH   2   3
ATOM      3  C   UNL     1      14.165  21.785  14.678  1.00  0.00     0.000 C 
BRANCH   3   4
ATOM      4  C   UNL     1      15.347  22.613  14.149  1.00  0.00     0.000 C 
BRANCH   4   5
ATOM      5  C   UNL     1      15.523  22.491  12.627  1.00  0.00     0.001 C 
BRANCH   5   6
ATOM      6  C   UNL     1      15.374  21.030  12.173  1.00  0.00     0.009 C 
BRANCH   6   7
ATOM      7  C   UNL     1      16.711  20.408  11.716  1.00  0.00     0.032 C 
ATOM      8  C   UNL     1      17.612  21.424  11.003  1.00  0.00     0.014 C 
BRANCH   7   9
ATOM      9  C   UNL     1      17.437  19.837  12.904  1.00  0.00     0.044 C 
ATOM     10  O   UNL     1      18.694  19.773  12.906  1.00  0.00    -0.550 OA
ATOM     11  O   UNL     1      16.726  19.374  14.004  1.00  0.00    -0.550 OA
ENDBRANCH   7   9
ENDBRANCH   6   7
ENDBRANCH   5   6
ENDBRANCH   4   5
ENDBRANCH   3   4
ENDBRANCH   2   3
ENDBRANCH   1   2
BRANCH   1  12
ATOM     12  C   UNL     1      14.278  22.687  18.418  1.00  0.00     0.000 C 
BRANCH  12  13
ATOM     13  C   UNL     1      14.031  21.289  19.007  1.00  0.00    -0.000 C 
BRANCH  13  14
ATOM     14  C   UNL     1      14.728  21.089  20.363  1.00  0.00    -0.000 C 
BRANCH  14  15
ATOM     15  C   UNL     1      15.802  19.986  20.326  1.00  0.00    -0.000 C 
BRANCH  15  16
ATOM     16  C   UNL     1      15.633  18.954  19.195  1.00  0.00    -0.000 C 
BRANCH  16  17
ATOM     17  C   UNL     1      16.759  19.019  18.152  1.00  0.00    -0.000 C 
BRANCH  17  18
ATOM     18  C   UNL     1      17.558  20.319  18.288  1.00  0.00    -0.003 C 
ATOM     19  C   UNL     1      18.348  20.618  17.017  1.00  0.00     0.004 C 
ENDBRANCH  17  18
ENDBRANCH  16  17
ENDBRANCH  15  16
ENDBRANCH  14  15
ENDBRANCH  13  14
ENDBRANCH  12  13
ENDBRANCH   1  12
TORSDOF 14
ENDMDL
MODEL 6
REMARK VINA RESULT:    -5.486      1.473      5.363
REMARK INTER + INTRA:         -12.183
REMARK INTER:                 -10.524
REMARK INTRA:                  -1.659
REMARK UNBOUND:                -2.207
REMARK SMILES CCCCCCCCCCCCCC[C@@H](C)C(=O)[O-]
REMARK SMILES IDX 9 1 10 2 11 3 12 4 13 5 14 6 15 7 16 8 17 9 18 10 19 11 8 12
REMARK SMILES IDX 7 13 6 14 5 15 4 16 3 17 2 18 1 19
REMARK H PARENT
REMARK Flexibility Score: inf
ROOT
ATOM      1  C   UNL     1      15.339  21.257  12.375  1.00  0.00     0.000 C 
ENDROOT
BRANCH   1   2
ATOM      2  C   UNL     1      16.228  21.516  11.148  1.00  0.00     0.000 C 
BRANCH   2   3
ATOM      3  C   UNL     1      17.334  20.459  10.988  1.00  0.00     0.000 C 
BRANCH   3   4
ATOM      4  C   UNL     1      18.295  20.424  12.187  1.00  0.00     0.000 C 
BRANCH   4   5
ATOM      5  C   UNL     1      18.275  19.076  12.925  1.00  0.00     0.001 C 
BRANCH   5   6
ATOM      6  C   UNL     1      18.886  19.211  14.330  1.00  0.00     0.009 C 
BRANCH   6   7
ATOM      7  C   UNL     1      17.906  19.832  15.349  1.00  0.00     0.032 C 
ATOM      8  C   UNL     1      16.512  19.196  15.277  1.00  0.00     0.014 C 
BRANCH   7   9
ATOM      9  C   UNL     1      18.458  19.680  16.740  1.00  0.00     0.044 C 
ATOM     10  O   UNL     1      18.869  18.559  17.139  1.00  0.00    -0.550 OA
ATOM     11  O   UNL     1      18.516  20.775  17.594  1.00  0.00    -0.550 OA
ENDBRANCH   7   9
ENDBRANCH   6   7
ENDBRANCH   5   6
ENDBRANCH   4   5
ENDBRANCH   3   4
ENDBRANCH   2   3
ENDBRANCH   1   2
BRANCH   1  12
ATOM     12  C   UNL     1      15.376  22.413  13.390  1.00  0.00     0.000 C 
BRANCH  12  13
ATOM     13  C   UNL     1      14.547  22.116  14.649  1.00  0.00    -0.000 C 
BRANCH  13  14
ATOM     14  C   UNL     1      15.280  22.505  15.944  1.00  0.00    -0.000 C 
BRANCH  14  15
ATOM     15  C   UNL     1      14.334  22.633  17.152  1.00  0.00    -0.000 C 
BRANCH  15  16
ATOM     16  C   UNL     1      13.983  21.302  17.844  1.00  0.00    -0.000 C 
BRANCH  16  17
ATOM     17  C   UNL     1      15.131  20.752  18.704  1.00  0.00    -0.000 C 
BRANCH  17  18
ATOM     18  C   UNL     1      14.883  21.025  20.191  1.00  0.00    -0.003 C 
ATOM     19  C   UNL     1      14.814  19.725  20.987  1.00  0.00     0.004 C 
ENDBRANCH  17  18
ENDBRANCH  16  17
ENDBRANCH  15  16
ENDBRANCH  14  15
ENDBRANCH  13  14
ENDBRANCH  12  13
ENDBRANCH   1  12
TORSDOF 14
ENDMDL
MODEL 7
REMARK VINA RESULT:    -5.425     14.118     17.017
REMARK INTER + INTRA:         -12.072
REMARK INTER:                  -9.976
REMARK INTRA:                  -2.096
REMARK UNBOUND:                -2.207
REMARK SMILES CCCCCCCCCCCCCC[C@@H](C)C(=O)[O-]
REMARK SMILES IDX 9 1 10 2 11 3 12 4 13 5 14 6 15 7 16 8 17 9 18 10 19 11 8 12
REMARK SMILES IDX 7 13 6 14 5 15 4 16 3 17 2 18 1 19
REMARK H PARENT
REMARK Flexibility Score: inf
ROOT
ATOM      1  C   UNL     1      30.949  18.060   5.815  1.00  0.00     0.000 C 
ENDROOT
BRANCH   1   2
ATOM      2  C   UNL     1      29.745  17.190   6.211  1.00  0.00     0.000 C 
BRANCH   2   3
ATOM      3  C   UNL     1      28.507  17.465   5.342  1.00  0.00     0.000 C 
BRANCH   3   4
ATOM      4  C   UNL     1      27.471  18.351   6.054  1.00  0.00     0.000 C 
BRANCH   4   5
ATOM      5  C   UNL     1      27.703  18.435   7.571  1.00  0.00     0.001 C 
BRANCH   5   6
ATOM      6  C   UNL     1      28.111  19.858   7.984  1.00  0.00     0.009 C 
BRANCH   6   7
ATOM      7  C   UNL     1      29.404  19.888   8.827  1.00  0.00     0.032 C 
ATOM      8  C   UNL     1      30.524  20.687   8.146  1.00  0.00     0.014 C 
BRANCH   7   9
ATOM      9  C   UNL     1      29.115  20.479  10.180  1.00  0.00     0.044 C 
ATOM     10  O   UNL     1      28.841  21.702  10.291  1.00  0.00    -0.550 OA
ATOM     11  O   UNL     1      29.152  19.679  11.316  1.00  0.00    -0.550 OA
ENDBRANCH   7   9
ENDBRANCH   6   7
ENDBRANCH   5   6
ENDBRANCH   4   5
ENDBRANCH   3   4
ENDBRANCH   2   3
ENDBRANCH   1   2
BRANCH   1  12
ATOM     12  C   UNL     1      32.297  17.395   6.147  1.00  0.00     0.000 C 
BRANCH  12  13
ATOM     13  C   UNL     1      32.392  16.962   7.618  1.00  0.00    -0.000 C 
BRANCH  13  14
ATOM     14  C   UNL     1      32.941  18.076   8.526  1.00  0.00    -0.000 C 
BRANCH  14  15
ATOM     15  C   UNL     1      32.356  18.029   9.950  1.00  0.00    -0.000 C 
BRANCH  15  16
ATOM     16  C   UNL     1      32.655  19.269  10.814  1.00  0.00    -0.000 C 
BRANCH  16  17
ATOM     17  C   UNL     1      34.037  19.877  10.532  1.00  0.00    -0.000 C 
BRANCH  17  18
ATOM     18  C   UNL     1      33.906  21.280   9.930  1.00  0.00    -0.003 C 
ATOM     19  C   UNL     1      32.903  22.124  10.711  1.00  0.00     0.004 C 
ENDBRANCH  17  18
ENDBRANCH  16  17
ENDBRANCH  15  16
ENDBRANCH  14  15
ENDBRANCH  13  14
ENDBRANCH  12  13
ENDBRANCH   1  12
TORSDOF 14
ENDMDL
MODEL 8
REMARK VINA RESULT:    -5.418      2.692      4.625
REMARK INTER + INTRA:         -12.059
REMARK INTER:                 -10.199
REMARK INTRA:                  -1.860
REMARK UNBOUND:                -2.207
REMARK SMILES CCCCCCCCCCCCCC[C@@H](C)C(=O)[O-]
REMARK SMILES IDX 9 1 10 2 11 3 12 4 13 5 14 6 15 7 16 8 17 9 18 10 19 11 8 12
REMARK SMILES IDX 7 13 6 14 5 15 4 16 3 17 2 18 1 19
REMARK H PARENT
REMARK Flexibility Score: inf
ROOT
ATOM      1  C   UNL     1      19.030  18.584  14.824  1.00  0.00     0.000 C 
ENDROOT
BRANCH   1   2
ATOM      2  C   UNL     1      18.966  18.662  16.358  1.00  0.00     0.000 C 
BRANCH   2   3
ATOM      3  C   UNL     1      19.256  20.075  16.889  1.00  0.00     0.000 C 
BRANCH   3   4
ATOM      4  C   UNL     1      18.039  20.706  17.586  1.00  0.00     0.000 C 
BRANCH   4   5
ATOM      5  C   UNL     1      17.452  19.808  18.686  1.00  0.00     0.001 C 
BRANCH   5   6
ATOM      6  C   UNL     1      16.023  19.369  18.330  1.00  0.00     0.009 C 
BRANCH   6   7
ATOM      7  C   UNL     1      14.984  19.804  19.385  1.00  0.00     0.032 C 
ATOM      8  C   UNL     1      15.425  19.457  20.813  1.00  0.00     0.014 C 
BRANCH   7   9
ATOM      9  C   UNL     1      14.743  21.285  19.279  1.00  0.00     0.044 C 
ATOM     10  O   UNL     1      14.692  21.994  20.318  1.00  0.00    -0.550 OA
ATOM     11  O   UNL     1      14.573  21.880  18.035  1.00  0.00    -0.550 OA
ENDBRANCH   7   9
ENDBRANCH   6   7
ENDBRANCH   5   6
ENDBRANCH   4   5
ENDBRANCH   3   4
ENDBRANCH   2   3
ENDBRANCH   1   2
BRANCH   1  12
ATOM     12  C   UNL     1      18.125  19.624  14.139  1.00  0.00     0.000 C 
BRANCH  12  13
ATOM     13  C   UNL     1      16.631  19.321  14.334  1.00  0.00    -0.000 C 
BRANCH  13  14
ATOM     14  C   UNL     1      15.845  20.538  14.853  1.00  0.00    -0.000 C 
BRANCH  14  15
ATOM     15  C   UNL     1      14.858  21.100  13.814  1.00  0.00    -0.000 C 
BRANCH  15  16
ATOM     16  C   UNL     1      15.458  22.136  12.843  1.00  0.00    -0.000 C 
BRANCH  16  17
ATOM     17  C   UNL     1      15.679  21.575  11.430  1.00  0.00    -0.000 C 
BRANCH  17  18
ATOM     18  C   UNL     1      17.170  21.542  11.080  1.00  0.00    -0.003 C 
ATOM     19  C   UNL     1      17.589  20.164  10.577  1.00  0.00     0.004 C 
ENDBRANCH  17  18
ENDBRANCH  16  17
ENDBRANCH  15  16
ENDBRANCH  14  15
ENDBRANCH  13  14
ENDBRANCH  12  13
ENDBRANCH   1  12
TORSDOF 14
ENDMDL
MODEL 9
REMARK VINA RESULT:    -5.397      1.851      4.464
REMARK INTER + INTRA:         -12.020
REMARK INTER:                  -9.603
REMARK INTRA:                  -2.417
REMARK UNBOUND:                -2.207
REMARK SMILES CCCCCCCCCCCCCC[C@@H](C)C(=O)[O-]
REMARK SMILES IDX 9 1 10 2 11 3 12 4 13 5 14 6 15 7 16 8 17 9 18 10 19 11 8 12
REMARK SMILES IDX 7 13 6 14 5 15 4 16 3 17 2 18 1 19
REMARK H PARENT
REMARK Flexibility Score: inf
ROOT
ATOM      1  C   UNL     1      13.912  21.213  18.751  1.00  0.00     0.000 C 
ENDROOT
BRANCH   1   2
ATOM      2  C   UNL     1      14.050  22.619  18.146  1.00  0.00     0.000 C 
BRANCH   2   3
ATOM      3  C   UNL     1      13.900  22.619  16.615  1.00  0.00     0.000 C 
BRANCH   3   4
ATOM      4  C   UNL     1      14.555  21.393  15.958  1.00  0.00     0.000 C 
BRANCH   4   5
ATOM      5  C   UNL     1      15.434  21.763  14.753  1.00  0.00     0.001 C 
BRANCH   5   6
ATOM      6  C   UNL     1      15.592  20.567  13.801  1.00  0.00     0.009 C 
BRANCH   6   7
ATOM      7  C   UNL     1      16.959  20.549  13.085  1.00  0.00     0.032 C 
ATOM      8  C   UNL     1      17.672  19.197  13.226  1.00  0.00     0.014 C 
BRANCH   7   9
ATOM      9  C   UNL     1      16.773  20.870  11.627  1.00  0.00     0.044 C 
ATOM     10  O   UNL     1      15.730  21.457  11.237  1.00  0.00    -0.550 OA
ATOM     11  O   UNL     1      17.750  20.520  10.703  1.00  0.00    -0.550 OA
ENDBRANCH   7   9
ENDBRANCH   6   7
ENDBRANCH   5   6
ENDBRANCH   4   5
ENDBRANCH   3   4
ENDBRANCH   2   3
ENDBRANCH   1   2
BRANCH   1  12
ATOM     12  C   UNL     1      15.001  20.907  19.796  1.00  0.00     0.000 C 
BRANCH  12  13
ATOM     13  C   UNL     1      15.449  19.438  19.764  1.00  0.00    -0.000 C 
BRANCH  13  14
ATOM     14  C   UNL     1      14.870  18.671  18.563  1.00  0.00    -0.000 C 
BRANCH  14  15
ATOM     15  C   UNL     1      15.918  17.797  17.849  1.00  0.00    -0.000 C 
BRANCH  15  16
ATOM     16  C   UNL     1      16.668  18.493  16.697  1.00  0.00    -0.000 C 
BRANCH  16  17
ATOM     17  C   UNL     1      18.193  18.332  16.791  1.00  0.00    -0.000 C 
BRANCH  17  18
ATOM     18  C   UNL     1      18.887  19.698  16.829  1.00  0.00    -0.003 C 
ATOM     19  C   UNL     1      17.932  20.789  17.303  1.00  0.00     0.004 C 
ENDBRANCH  17  18
ENDBRANCH  16  17
ENDBRANCH  15  16
ENDBRANCH  14  15
ENDBRANCH  13  14
ENDBRANCH  12  13
ENDBRANCH   1  12
TORSDOF 14
ENDMDL
