MODEL 1
REMARK VINA RESULT:    -3.758      0.000      0.000
REMARK INTER + INTRA:          -8.356
REMARK INTER:                  -6.613
REMARK INTRA:                  -1.743
REMARK UNBOUND:                -1.743
REMARK SMILES CCCCCCC=CCCCCCCCC(=O)[O-]
REMARK SMILES IDX 10 1 11 2 12 3 13 4 14 5 15 6 16 7 17 8 18 9 9 10 8 11 7 12
REMARK SMILES IDX 6 13 5 14 4 15 3 16 2 17 1 18
REMARK H PARENT
REMARK Flexibility Score: inf
ROOT
ATOM      1  C   UNL     1      10.971   3.896   0.838  1.00  0.00     0.004 C 
ENDROOT
BRANCH   1   2
ATOM      2  C   UNL     1      12.068   3.243  -0.019  1.00  0.00     0.000 C 
BRANCH   2   3
ATOM      3  C   UNL     1      13.485   3.635   0.435  1.00  0.00     0.000 C 
BRANCH   3   4
ATOM      4  C   UNL     1      14.356   2.414   0.771  1.00  0.00     0.000 C 
BRANCH   4   5
ATOM      5  C   UNL     1      13.530   1.216   1.272  1.00  0.00     0.006 C 
BRANCH   5   6
ATOM      6  C   UNL     1      13.709  -0.022   0.382  1.00  0.00     0.053 C 
BRANCH   6   7
ATOM      7  C   UNL     1      13.755  -1.284   1.187  1.00  0.00     0.041 C 
ATOM      8  O   UNL     1      14.254  -1.282   2.343  1.00  0.00    -0.550 OA
ATOM      9  O   UNL     1      13.219  -2.458   0.672  1.00  0.00    -0.550 OA
ENDBRANCH   6   7
ENDBRANCH   5   6
ENDBRANCH   4   5
ENDBRANCH   3   4
ENDBRANCH   2   3
ENDBRANCH   1   2
BRANCH   1  10
ATOM     10  C   UNL     1      11.491   4.379   2.200  1.00  0.00     0.027 C 
BRANCH  10  11
ATOM     11  C   UNL     1      11.183   3.383   3.283  1.00  0.00    -0.031 C 
ATOM     12  C   UNL     1      10.350   2.352   3.073  1.00  0.00    -0.031 C 
BRANCH  12  13
ATOM     13  C   UNL     1      10.019   1.369   4.165  1.00  0.00     0.027 C 
BRANCH  13  14
ATOM     14  C   UNL     1       8.563   0.889   4.092  1.00  0.00     0.004 C 
BRANCH  14  15
ATOM     15  C   UNL     1       7.623   1.968   3.524  1.00  0.00     0.000 C 
BRANCH  15  16
ATOM     16  C   UNL     1       6.935   2.784   4.637  1.00  0.00    -0.000 C 
BRANCH  16  17
ATOM     17  C   UNL     1       6.832   4.286   4.322  1.00  0.00    -0.003 C 
ATOM     18  C   UNL     1       8.115   5.053   4.635  1.00  0.00     0.004 C 
ENDBRANCH  16  17
ENDBRANCH  15  16
ENDBRANCH  14  15
ENDBRANCH  13  14
ENDBRANCH  12  13
ENDBRANCH  10  11
ENDBRANCH   1  10
TORSDOF 13
ENDMDL
MODEL 2
REMARK VINA RESULT:    -3.638      8.359     11.252
REMARK INTER + INTRA:          -8.146
REMARK INTER:                  -7.259
REMARK INTRA:                  -0.887
REMARK UNBOUND:                -1.743
REMARK SMILES CCCCCCC=CCCCCCCCC(=O)[O-]
REMARK SMILES IDX 10 1 11 2 12 3 13 4 14 5 15 6 16 7 17 8 18 9 9 10 8 11 7 12
REMARK SMILES IDX 6 13 5 14 4 15 3 16 2 17 1 18
REMARK H PARENT
REMARK Flexibility Score: inf
ROOT
ATOM      1  C   UNL     1       6.538  -6.953   7.537  1.00  0.00     0.004 C 
ENDROOT
BRANCH   1   2
ATOM      2  C   UNL     1       6.541  -8.367   6.933  1.00  0.00     0.000 C 
BRANCH   2   3
ATOM      3  C   UNL     1       5.185  -9.077   7.082  1.00  0.00     0.000 C 
BRANCH   3   4
ATOM      4  C   UNL     1       4.059  -8.118   7.500  1.00  0.00     0.000 C 
BRANCH   4   5
ATOM      5  C   UNL     1       3.094  -7.800   6.345  1.00  0.00     0.006 C 
BRANCH   5   6
ATOM      6  C   UNL     1       2.788  -9.038   5.489  1.00  0.00     0.053 C 
BRANCH   6   7
ATOM      7  C   UNL     1       3.094  -8.804   4.042  1.00  0.00     0.041 C 
ATOM      8  O   UNL     1       4.244  -8.434   3.688  1.00  0.00    -0.550 OA
ATOM      9  O   UNL     1       2.116  -9.025   3.080  1.00  0.00    -0.550 OA
ENDBRANCH   6   7
ENDBRANCH   5   6
ENDBRANCH   4   5
ENDBRANCH   3   4
ENDBRANCH   2   3
ENDBRANCH   1   2
BRANCH   1  10
ATOM     10  C   UNL     1       7.280  -5.932   6.661  1.00  0.00     0.027 C 
BRANCH  10  11
ATOM     11  C   UNL     1       7.239  -4.560   7.273  1.00  0.00    -0.031 C 
ATOM     12  C   UNL     1       6.554  -3.557   6.702  1.00  0.00    -0.031 C 
BRANCH  12  13
ATOM     13  C   UNL     1       6.535  -2.174   7.300  1.00  0.00     0.027 C 
BRANCH  13  14
ATOM     14  C   UNL     1       5.687  -1.196   6.474  1.00  0.00     0.004 C 
BRANCH  14  15
ATOM     15  C   UNL     1       6.208  -1.049   5.033  1.00  0.00     0.000 C 
BRANCH  15  16
ATOM     16  C   UNL     1       7.535  -0.264   4.973  1.00  0.00    -0.000 C 
BRANCH  16  17
ATOM     17  C   UNL     1       7.523   0.884   3.950  1.00  0.00    -0.003 C 
ATOM     18  C   UNL     1       6.722   2.097   4.420  1.00  0.00     0.004 C 
ENDBRANCH  16  17
ENDBRANCH  15  16
ENDBRANCH  14  15
ENDBRANCH  13  14
ENDBRANCH  12  13
ENDBRANCH  10  11
ENDBRANCH   1  10
TORSDOF 13
ENDMDL
MODEL 3
REMARK VINA RESULT:    -3.592     14.158     16.688
REMARK INTER + INTRA:          -8.065
REMARK INTER:                  -7.256
REMARK INTRA:                  -0.810
REMARK UNBOUND:                -1.743
REMARK SMILES CCCCCCC=CCCCCCCCC(=O)[O-]
REMARK SMILES IDX 10 1 11 2 12 3 13 4 14 5 15 6 16 7 17 8 18 9 9 10 8 11 7 12
REMARK SMILES IDX 6 13 5 14 4 15 3 16 2 17 1 18
REMARK H PARENT
REMARK Flexibility Score: inf
ROOT
ATOM      1  C   UNL     1       1.842 -10.374   1.752  1.00  0.00     0.004 C 
ENDROOT
BRANCH   1   2
ATOM      2  C   UNL     1       2.765 -10.048   2.938  1.00  0.00     0.000 C 
BRANCH   2   3
ATOM      3  C   UNL     1       2.062  -9.217   4.024  1.00  0.00     0.000 C 
BRANCH   3   4
ATOM      4  C   UNL     1       2.574  -9.539   5.437  1.00  0.00     0.000 C 
BRANCH   4   5
ATOM      5  C   UNL     1       3.172  -8.311   6.145  1.00  0.00     0.006 C 
BRANCH   5   6
ATOM      6  C   UNL     1       4.664  -8.492   6.456  1.00  0.00     0.053 C 
BRANCH   6   7
ATOM      7  C   UNL     1       5.527  -7.686   5.534  1.00  0.00     0.041 C 
ATOM      8  O   UNL     1       5.424  -7.823   4.287  1.00  0.00    -0.550 OA
ATOM      9  O   UNL     1       6.425  -6.762   6.053  1.00  0.00    -0.550 OA
ENDBRANCH   6   7
ENDBRANCH   5   6
ENDBRANCH   4   5
ENDBRANCH   3   4
ENDBRANCH   2   3
ENDBRANCH   1   2
BRANCH   1  10
ATOM     10  C   UNL     1       0.522  -9.589   1.796  1.00  0.00     0.027 C 
BRANCH  10  11
ATOM     11  C   UNL     1      -0.626 -10.430   1.312  1.00  0.00    -0.031 C 
ATOM     12  C   UNL     1      -0.758 -10.763   0.019  1.00  0.00    -0.031 C 
BRANCH  12  13
ATOM     13  C   UNL     1      -1.922 -11.583  -0.471  1.00  0.00     0.027 C 
BRANCH  13  14
ATOM     14  C   UNL     1      -1.762 -11.999  -1.940  1.00  0.00     0.004 C 
BRANCH  14  15
ATOM     15  C   UNL     1      -0.932 -10.982  -2.745  1.00  0.00     0.000 C 
BRANCH  15  16
ATOM     16  C   UNL     1      -1.058 -11.205  -4.266  1.00  0.00    -0.000 C 
BRANCH  16  17
ATOM     17  C   UNL     1      -0.494 -12.556  -4.737  1.00  0.00    -0.003 C 
ATOM     18  C   UNL     1       0.996 -12.720  -4.440  1.00  0.00     0.004 C 
ENDBRANCH  16  17
ENDBRANCH  15  16
ENDBRANCH  14  15
ENDBRANCH  13  14
ENDBRANCH  12  13
ENDBRANCH  10  11
ENDBRANCH   1  10
TORSDOF 13
ENDMDL
MODEL 4
REMARK VINA RESULT:    -3.580      2.957      6.045
REMARK INTER + INTRA:          -8.044
REMARK INTER:                  -6.555
REMARK INTRA:                  -1.489
REMARK UNBOUND:                -1.743
REMARK SMILES CCCCCCC=CCCCCCCCC(=O)[O-]
REMARK SMILES IDX 10 1 11 2 12 3 13 4 14 5 15 6 16 7 17 8 18 9 9 10 8 11 7 12
REMARK SMILES IDX 6 13 5 14 4 15 3 16 2 17 1 18
REMARK H PARENT
REMARK Flexibility Score: inf
ROOT
ATOM      1  C   UNL     1      11.600   4.774   1.666  1.00  0.00     0.004 C 
ENDROOT
BRANCH   1   2
ATOM      2  C   UNL     1      11.003   3.685   2.573  1.00  0.00     0.000 C 
BRANCH   2   3
ATOM      3  C   UNL     1      10.055   4.258   3.639  1.00  0.00     0.000 C 
BRANCH   3   4
ATOM      4  C   UNL     1       8.967   3.258   4.061  1.00  0.00     0.000 C 
BRANCH   4   5
ATOM      5  C   UNL     1       9.276   1.820   3.606  1.00  0.00     0.006 C 
BRANCH   5   6
ATOM      6  C   UNL     1       8.556   0.774   4.469  1.00  0.00     0.053 C 
BRANCH   6   7
ATOM      7  C   UNL     1       7.158   0.526   3.993  1.00  0.00     0.041 C 
ATOM      8  O   UNL     1       6.783   0.957   2.871  1.00  0.00    -0.550 OA
ATOM      9  O   UNL     1       6.277  -0.209   4.777  1.00  0.00    -0.550 OA
ENDBRANCH   6   7
ENDBRANCH   5   6
ENDBRANCH   4   5
ENDBRANCH   3   4
ENDBRANCH   2   3
ENDBRANCH   1   2
BRANCH   1  10
ATOM     10  C   UNL     1      11.693   4.336   0.196  1.00  0.00     0.027 C 
BRANCH  10  11
ATOM     11  C   UNL     1      12.411   3.022   0.065  1.00  0.00    -0.031 C 
ATOM     12  C   UNL     1      13.749   2.942   0.144  1.00  0.00    -0.031 C 
BRANCH  12  13
ATOM     13  C   UNL     1      14.472   1.631  -0.014  1.00  0.00     0.027 C 
BRANCH  13  14
ATOM     14  C   UNL     1      13.562   0.428   0.272  1.00  0.00     0.004 C 
BRANCH  14  15
ATOM     15  C   UNL     1      14.248  -0.619   1.169  1.00  0.00     0.000 C 
BRANCH  15  16
ATOM     16  C   UNL     1      14.253  -0.198   2.653  1.00  0.00    -0.000 C 
BRANCH  16  17
ATOM     17  C   UNL     1      13.032   0.646   3.055  1.00  0.00    -0.003 C 
ATOM     18  C   UNL     1      12.573   0.390   4.490  1.00  0.00     0.004 C 
ENDBRANCH  16  17
ENDBRANCH  15  16
ENDBRANCH  14  15
ENDBRANCH  13  14
ENDBRANCH  12  13
ENDBRANCH  10  11
ENDBRANCH   1  10
TORSDOF 13
ENDMDL
MODEL 5
REMARK VINA RESULT:    -3.569      8.813     11.684
REMARK INTER + INTRA:          -8.024
REMARK INTER:                  -6.726
REMARK INTRA:                  -1.298
REMARK UNBOUND:                -1.743
REMARK SMILES CCCCCCC=CCCCCCCCC(=O)[O-]
REMARK SMILES IDX 10 1 11 2 12 3 13 4 14 5 15 6 16 7 17 8 18 9 9 10 8 11 7 12
REMARK SMILES IDX 6 13 5 14 4 15 3 16 2 17 1 18
REMARK H PARENT
REMARK Flexibility Score: inf
ROOT
ATOM      1  C   UNL     1       5.714  -6.005   7.196  1.00  0.00     0.004 C 
ENDROOT
BRANCH   1   2
ATOM      2  C   UNL     1       6.073  -7.489   7.006  1.00  0.00     0.000 C 
BRANCH   2   3
ATOM      3  C   UNL     1       5.141  -8.428   7.791  1.00  0.00     0.000 C 
BRANCH   3   4
ATOM      4  C   UNL     1       4.256  -9.285   6.873  1.00  0.00     0.000 C 
BRANCH   4   5
ATOM      5  C   UNL     1       3.125  -8.475   6.215  1.00  0.00     0.006 C 
BRANCH   5   6
ATOM      6  C   UNL     1       2.407  -9.272   5.117  1.00  0.00     0.053 C 
BRANCH   6   7
ATOM      7  C   UNL     1       3.154  -9.232   3.820  1.00  0.00     0.041 C 
ATOM      8  O   UNL     1       2.808  -9.976   2.864  1.00  0.00    -0.550 OA
ATOM      9  O   UNL     1       4.215  -8.350   3.655  1.00  0.00    -0.550 OA
ENDBRANCH   6   7
ENDBRANCH   5   6
ENDBRANCH   4   5
ENDBRANCH   3   4
ENDBRANCH   2   3
ENDBRANCH   1   2
BRANCH   1  10
ATOM     10  C   UNL     1       6.872  -5.187   7.788  1.00  0.00     0.027 C 
BRANCH  10  11
ATOM     11  C   UNL     1       6.595  -3.712   7.699  1.00  0.00    -0.031 C 
ATOM     12  C   UNL     1       7.063  -2.969   6.684  1.00  0.00    -0.031 C 
BRANCH  12  13
ATOM     13  C   UNL     1       6.809  -1.487   6.609  1.00  0.00     0.027 C 
BRANCH  13  14
ATOM     14  C   UNL     1       5.627  -1.146   5.691  1.00  0.00     0.004 C 
BRANCH  14  15
ATOM     15  C   UNL     1       4.479  -0.460   6.454  1.00  0.00     0.000 C 
BRANCH  15  16
ATOM     16  C   UNL     1       3.645  -1.464   7.274  1.00  0.00    -0.000 C 
BRANCH  16  17
ATOM     17  C   UNL     1       3.145  -2.664   6.452  1.00  0.00    -0.003 C 
ATOM     18  C   UNL     1       2.744  -3.858   7.316  1.00  0.00     0.004 C 
ENDBRANCH  16  17
ENDBRANCH  15  16
ENDBRANCH  14  15
ENDBRANCH  13  14
ENDBRANCH  12  13
ENDBRANCH  10  11
ENDBRANCH   1  10
TORSDOF 13
ENDMDL
MODEL 6
REMARK VINA RESULT:    -3.565      2.867      6.194
REMARK INTER + INTRA:          -8.018
REMARK INTER:                  -6.479
REMARK INTRA:                  -1.539
REMARK UNBOUND:                -1.743
REMARK SMILES CCCCCCC=CCCCCCCCC(=O)[O-]
REMARK SMILES IDX 10 1 11 2 12 3 13 4 14 5 15 6 16 7 17 8 18 9 9 10 8 11 7 12
REMARK SMILES IDX 6 13 5 14 4 15 3 16 2 17 1 18
REMARK H PARENT
REMARK Flexibility Score: inf
ROOT
ATOM      1  C   UNL     1      11.690   0.503   4.766  1.00  0.00     0.004 C 
ENDROOT
BRANCH   1   2
ATOM      2  C   UNL     1      11.232   1.476   3.667  1.00  0.00     0.000 C 
BRANCH   2   3
ATOM      3  C   UNL     1      10.833   2.853   4.226  1.00  0.00     0.000 C 
BRANCH   3   4
ATOM      4  C   UNL     1       9.327   3.128   4.098  1.00  0.00     0.000 C 
BRANCH   4   5
ATOM      5  C   UNL     1       8.593   2.045   3.289  1.00  0.00     0.006 C 
BRANCH   5   6
ATOM      6  C   UNL     1       7.230   1.690   3.900  1.00  0.00     0.053 C 
BRANCH   6   7
ATOM      7  C   UNL     1       7.199   0.284   4.414  1.00  0.00     0.041 C 
ATOM      8  O   UNL     1       6.166  -0.422   4.270  1.00  0.00    -0.550 OA
ATOM      9  O   UNL     1       8.322  -0.257   5.026  1.00  0.00    -0.550 OA
ENDBRANCH   6   7
ENDBRANCH   5   6
ENDBRANCH   4   5
ENDBRANCH   3   4
ENDBRANCH   2   3
ENDBRANCH   1   2
BRANCH   1  10
ATOM     10  C   UNL     1      13.217   0.479   4.938  1.00  0.00     0.027 C 
BRANCH  10  11
ATOM     11  C   UNL     1      13.913   0.481   3.606  1.00  0.00    -0.031 C 
ATOM     12  C   UNL     1      13.803  -0.550   2.754  1.00  0.00    -0.031 C 
BRANCH  12  13
ATOM     13  C   UNL     1      14.523  -0.562   1.431  1.00  0.00     0.027 C 
BRANCH  13  14
ATOM     14  C   UNL     1      13.721   0.144   0.328  1.00  0.00     0.004 C 
BRANCH  14  15
ATOM     15  C   UNL     1      14.264   1.552   0.026  1.00  0.00     0.000 C 
BRANCH  15  16
ATOM     16  C   UNL     1      13.418   2.656   0.691  1.00  0.00    -0.000 C 
BRANCH  16  17
ATOM     17  C   UNL     1      12.256   3.152  -0.187  1.00  0.00    -0.003 C 
ATOM     18  C   UNL     1      11.144   3.825   0.615  1.00  0.00     0.004 C 
ENDBRANCH  16  17
ENDBRANCH  15  16
ENDBRANCH  14  15
ENDBRANCH  13  14
ENDBRANCH  12  13
ENDBRANCH  10  11
ENDBRANCH   1  10
TORSDOF 13
ENDMDL
MODEL 7
REMARK VINA RESULT:    -3.557      1.386      2.919
REMARK INTER + INTRA:          -8.004
REMARK INTER:                  -6.291
REMARK INTRA:                  -1.712
REMARK UNBOUND:                -1.743
REMARK SMILES CCCCCCC=CCCCCCCCC(=O)[O-]
REMARK SMILES IDX 10 1 11 2 12 3 13 4 14 5 15 6 16 7 17 8 18 9 9 10 8 11 7 12
REMARK SMILES IDX 6 13 5 14 4 15 3 16 2 17 1 18
REMARK H PARENT
REMARK Flexibility Score: inf
ROOT
ATOM      1  C   UNL     1      12.499   3.069   0.068  1.00  0.00     0.004 C 
ENDROOT
BRANCH   1   2
ATOM      2  C   UNL     1      13.972   3.024   0.506  1.00  0.00     0.000 C 
BRANCH   2   3
ATOM      3  C   UNL     1      14.156   2.401   1.901  1.00  0.00     0.000 C 
BRANCH   3   4
ATOM      4  C   UNL     1      13.002   1.462   2.284  1.00  0.00     0.000 C 
BRANCH   4   5
ATOM      5  C   UNL     1      13.493   0.132   2.881  1.00  0.00     0.006 C 
BRANCH   5   6
ATOM      6  C   UNL     1      14.396  -0.640   1.909  1.00  0.00     0.053 C 
BRANCH   6   7
ATOM      7  C   UNL     1      13.631  -1.161   0.732  1.00  0.00     0.041 C 
ATOM      8  O   UNL     1      13.394  -0.413  -0.253  1.00  0.00    -0.550 OA
ATOM      9  O   UNL     1      13.205  -2.483   0.709  1.00  0.00    -0.550 OA
ENDBRANCH   6   7
ENDBRANCH   5   6
ENDBRANCH   4   5
ENDBRANCH   3   4
ENDBRANCH   2   3
ENDBRANCH   1   2
BRANCH   1  10
ATOM     10  C   UNL     1      12.075   4.454  -0.444  1.00  0.00     0.027 C 
BRANCH  10  11
ATOM     11  C   UNL     1      11.082   5.095   0.485  1.00  0.00    -0.031 C 
ATOM     12  C   UNL     1      11.389   5.362   1.764  1.00  0.00    -0.031 C 
BRANCH  12  13
ATOM     13  C   UNL     1      10.387   5.979   2.704  1.00  0.00     0.027 C 
BRANCH  13  14
ATOM     14  C   UNL     1       9.769   4.945   3.656  1.00  0.00     0.004 C 
BRANCH  14  15
ATOM     15  C   UNL     1      10.757   3.819   4.010  1.00  0.00     0.000 C 
BRANCH  15  16
ATOM     16  C   UNL     1      10.041   2.475   4.256  1.00  0.00    -0.000 C 
BRANCH  16  17
ATOM     17  C   UNL     1       9.087   2.071   3.120  1.00  0.00    -0.003 C 
ATOM     18  C   UNL     1       7.837   1.346   3.617  1.00  0.00     0.004 C 
ENDBRANCH  16  17
ENDBRANCH  15  16
ENDBRANCH  14  15
ENDBRANCH  13  14
ENDBRANCH  12  13
ENDBRANCH  10  11
ENDBRANCH   1  10
TORSDOF 13
ENDMDL
MODEL 8
REMARK VINA RESULT:    -3.537      2.414      3.858
REMARK INTER + INTRA:          -7.968
REMARK INTER:                  -6.078
REMARK INTRA:                  -1.890
REMARK UNBOUND:                -1.743
REMARK SMILES CCCCCCC=CCCCCCCCC(=O)[O-]
REMARK SMILES IDX 10 1 11 2 12 3 13 4 14 5 15 6 16 7 17 8 18 9 9 10 8 11 7 12
REMARK SMILES IDX 6 13 5 14 4 15 3 16 2 17 1 18
REMARK H PARENT
REMARK Flexibility Score: inf
ROOT
ATOM      1  C   UNL     1      13.294   0.167   3.679  1.00  0.00     0.004 C 
ENDROOT
BRANCH   1   2
ATOM      2  C   UNL     1      14.723  -0.310   3.367  1.00  0.00     0.000 C 
BRANCH   2   3
ATOM      3  C   UNL     1      14.970  -0.492   1.860  1.00  0.00     0.000 C 
BRANCH   3   4
ATOM      4  C   UNL     1      13.695  -0.295   1.025  1.00  0.00     0.000 C 
BRANCH   4   5
ATOM      5  C   UNL     1      13.865   0.767  -0.075  1.00  0.00     0.006 C 
BRANCH   5   6
ATOM      6  C   UNL     1      14.111   2.167   0.506  1.00  0.00     0.053 C 
BRANCH   6   7
ATOM      7  C   UNL     1      12.979   3.101   0.210  1.00  0.00     0.041 C 
ATOM      8  O   UNL     1      11.872   2.651  -0.187  1.00  0.00    -0.550 OA
ATOM      9  O   UNL     1      13.136   4.468   0.401  1.00  0.00    -0.550 OA
ENDBRANCH   6   7
ENDBRANCH   5   6
ENDBRANCH   4   5
ENDBRANCH   3   4
ENDBRANCH   2   3
ENDBRANCH   1   2
BRANCH   1  10
ATOM     10  C   UNL     1      13.268   1.480   4.477  1.00  0.00     0.027 C 
BRANCH  10  11
ATOM     11  C   UNL     1      12.129   2.357   4.040  1.00  0.00    -0.031 C 
ATOM     12  C   UNL     1      11.149   1.895   3.247  1.00  0.00    -0.031 C 
BRANCH  12  13
ATOM     13  C   UNL     1      10.022   2.780   2.786  1.00  0.00     0.027 C 
BRANCH  13  14
ATOM     14  C   UNL     1       9.364   3.536   3.949  1.00  0.00     0.004 C 
BRANCH  14  15
ATOM     15  C   UNL     1       7.990   2.950   4.320  1.00  0.00     0.000 C 
BRANCH  15  16
ATOM     16  C   UNL     1       7.603   1.761   3.417  1.00  0.00    -0.000 C 
BRANCH  16  17
ATOM     17  C   UNL     1       7.348   0.458   4.193  1.00  0.00    -0.003 C 
ATOM     18  C   UNL     1       8.525   0.046   5.075  1.00  0.00     0.004 C 
ENDBRANCH  16  17
ENDBRANCH  15  16
ENDBRANCH  14  15
ENDBRANCH  13  14
ENDBRANCH  12  13
ENDBRANCH  10  11
ENDBRANCH   1  10
TORSDOF 13
ENDMDL
MODEL 9
REMARK VINA RESULT:    -3.507      2.571      4.139
REMARK INTER + INTRA:          -7.914
REMARK INTER:                  -6.114
REMARK INTRA:                  -1.800
REMARK UNBOUND:                -1.743
REMARK SMILES CCCCCCC=CCCCCCCCC(=O)[O-]
REMARK SMILES IDX 10 1 11 2 12 3 13 4 14 5 15 6 16 7 17 8 18 9 9 10 8 11 7 12
REMARK SMILES IDX 6 13 5 14 4 15 3 16 2 17 1 18
REMARK H PARENT
REMARK Flexibility Score: inf
ROOT
ATOM      1  C   UNL     1      15.122  -0.118   2.241  1.00  0.00     0.004 C 
ENDROOT
BRANCH   1   2
ATOM      2  C   UNL     1      14.005  -0.662   1.335  1.00  0.00     0.000 C 
BRANCH   2   3
ATOM      3  C   UNL     1      13.670   0.289   0.173  1.00  0.00     0.000 C 
BRANCH   3   4
ATOM      4  C   UNL     1      14.467   1.601   0.236  1.00  0.00     0.000 C 
BRANCH   4   5
ATOM      5  C   UNL     1      13.562   2.846   0.232  1.00  0.00     0.006 C 
BRANCH   5   6
ATOM      6  C   UNL     1      12.986   3.147   1.623  1.00  0.00     0.053 C 
BRANCH   6   7
ATOM      7  C   UNL     1      11.536   3.514   1.558  1.00  0.00     0.041 C 
ATOM      8  O   UNL     1      10.800   3.038   0.654  1.00  0.00    -0.550 OA
ATOM      9  O   UNL     1      10.989   4.359   2.516  1.00  0.00    -0.550 OA
ENDBRANCH   6   7
ENDBRANCH   5   6
ENDBRANCH   4   5
ENDBRANCH   3   4
ENDBRANCH   2   3
ENDBRANCH   1   2
BRANCH   1  10
ATOM     10  C   UNL     1      14.643   0.149   3.677  1.00  0.00     0.027 C 
BRANCH  10  11
ATOM     11  C   UNL     1      13.142   0.171   3.752  1.00  0.00    -0.031 C 
ATOM     12  C   UNL     1      12.494   0.957   4.626  1.00  0.00    -0.031 C 
BRANCH  12  13
ATOM     13  C   UNL     1      10.991   0.961   4.722  1.00  0.00     0.027 C 
BRANCH  13  14
ATOM     14  C   UNL     1      10.445   2.300   5.236  1.00  0.00     0.004 C 
BRANCH  14  15
ATOM     15  C   UNL     1       8.991   2.542   4.794  1.00  0.00     0.000 C 
BRANCH  15  16
ATOM     16  C   UNL     1       8.635   1.760   3.513  1.00  0.00    -0.000 C 
BRANCH  16  17
ATOM     17  C   UNL     1       7.243   1.108   3.559  1.00  0.00    -0.003 C 
ATOM     18  C   UNL     1       7.121   0.033   4.637  1.00  0.00     0.004 C 
ENDBRANCH  16  17
ENDBRANCH  15  16
ENDBRANCH  14  15
ENDBRANCH  13  14
ENDBRANCH  12  13
ENDBRANCH  10  11
ENDBRANCH   1  10
TORSDOF 13
ENDMDL
