MODEL 1
REMARK VINA RESULT:    -6.748      0.000      0.000
REMARK INTER + INTRA:          -6.943
REMARK INTER:                  -7.340
REMARK INTRA:                   0.396
REMARK UNBOUND:                 0.396
REMARK SMILES C[C@H]1[C@H](C)CC[C@]2(C(=O)[O-])CC[C@]3(C)C(=CC[C@@H]4[C@@]5(C)CC[C@H](O)C(C)(C)[C@@H]5CC[C@@]43C)[C@H]12
REMARK SMILES IDX 7 1 6 2 11 3 33 4 5 5 12 6 15 7 2 8 3 9 13 10 16 11 1 12
REMARK SMILES IDX 4 13 14 14 31 15 17 16 18 17 30 18 32 19 19 20 29 21 28 22
REMARK SMILES IDX 21 23 20 24 25 25 22 26 23 27 26 28 27 29 8 30 9 31 10 32
REMARK SMILES IDX 24 33
REMARK H PARENT 24 34
REMARK Flexibility Score: inf
ROOT
ATOM      1  C   UNL     1      47.906  12.048  -3.532  1.00  0.00     0.017 C 
ATOM      2  C   UNL     1      47.716  10.919  -4.609  1.00  0.00     0.014 C 
ATOM      3  C   UNL     1      46.659  12.189  -2.639  1.00  0.00     0.014 C 
ATOM      4  C   UNL     1      48.223  13.444  -4.154  1.00  0.00     0.030 C 
ATOM      5  C   UNL     1      48.329  11.256  -5.978  1.00  0.00     0.004 C 
ATOM      6  C   UNL     1      45.391  12.613  -3.381  1.00  0.00     0.013 C 
ATOM      7  C   UNL     1      46.973  14.193  -4.682  1.00  0.00    -0.063 C 
ATOM      8  C   UNL     1      49.422  13.377  -5.195  1.00  0.00    -0.003 C 
ATOM      9  C   UNL     1      49.680  11.955  -5.771  1.00  0.00    -0.011 C 
ATOM     10  C   UNL     1      45.525  13.676  -4.547  1.00  0.00    -0.006 C 
ATOM     11  C   UNL     1      47.173  15.406  -5.221  1.00  0.00    -0.027 C 
ATOM     12  C   UNL     1      50.708  13.945  -4.567  1.00  0.00     0.008 C 
ATOM     13  C   UNL     1      50.505  11.979  -7.082  1.00  0.00     0.008 C 
ATOM     14  C   UNL     1      45.170  12.986  -5.911  1.00  0.00     0.017 C 
ATOM     15  C   UNL     1      44.508  14.911  -4.290  1.00  0.00    -0.020 C 
ATOM     16  C   UNL     1      46.104  16.276  -5.810  1.00  0.00     0.032 C 
ATOM     17  C   UNL     1      44.595  15.949  -5.499  1.00  0.00     0.006 C 
ATOM     18  C   UNL     1      44.880  15.688  -2.958  1.00  0.00     0.008 C 
ATOM     19  C   UNL     1      43.055  14.305  -4.177  1.00  0.00     0.012 C 
ATOM     20  C   UNL     1      43.669  17.285  -5.355  1.00  0.00    -0.025 C 
ATOM     21  C   UNL     1      44.582  17.218  -2.963  1.00  0.00     0.005 C 
ATOM     22  C   UNL     1      43.349  17.533  -3.837  1.00  0.00     0.003 C 
ATOM     23  C   UNL     1      42.289  17.137  -6.071  1.00  0.00     0.010 C 
ATOM     24  C   UNL     1      44.373  18.510  -6.044  1.00  0.00     0.012 C 
ATOM     25  C   UNL     1      42.456  18.788  -3.484  1.00  0.00    -0.006 C 
ATOM     26  C   UNL     1      41.310  18.317  -5.817  1.00  0.00     0.033 C 
ATOM     27  C   UNL     1      41.129  18.659  -4.316  1.00  0.00     0.120 C 
ATOM     28  C   UNL     1      43.171  20.146  -3.713  1.00  0.00     0.014 C 
ATOM     29  C   UNL     1      42.058  18.734  -1.977  1.00  0.00     0.014 C 
ENDROOT
BRANCH   1  30
ATOM     30  C   UNL     1      49.064  11.628  -2.631  1.00  0.00     0.048 C 
ATOM     31  O   UNL     1      48.882  11.132  -1.504  1.00  0.00    -0.550 OA
ATOM     32  O   UNL     1      48.847  11.071  -1.364  1.00  0.00    -0.550 OA
ENDBRANCH   1  30
BRANCH  27  33
ATOM     33  O   UNL     1      40.301  19.790  -4.160  1.00  0.00    -0.393 OA
ATOM     34  H   UNL     1      39.586  19.750  -4.849  1.00  0.00     0.210 HD
ENDBRANCH  27  33
TORSDOF 2
ENDMDL
MODEL 2
REMARK VINA RESULT:    -6.622      1.702      8.516
REMARK INTER + INTRA:          -6.807
REMARK INTER:                  -7.069
REMARK INTRA:                   0.262
REMARK UNBOUND:                 0.396
REMARK SMILES C[C@H]1[C@H](C)CC[C@]2(C(=O)[O-])CC[C@]3(C)C(=CC[C@@H]4[C@@]5(C)CC[C@H](O)C(C)(C)[C@@H]5CC[C@@]43C)[C@H]12
REMARK SMILES IDX 7 1 6 2 11 3 33 4 5 5 12 6 15 7 2 8 3 9 13 10 16 11 1 12
REMARK SMILES IDX 4 13 14 14 31 15 17 16 18 17 30 18 32 19 19 20 29 21 28 22
REMARK SMILES IDX 21 23 20 24 25 25 22 26 23 27 26 28 27 29 8 30 9 31 10 32
REMARK SMILES IDX 24 33
REMARK H PARENT 24 34
REMARK Flexibility Score: inf
ROOT
ATOM      1  C   UNL     1      42.509  19.713  -5.117  1.00  0.00     0.017 C 
ATOM      2  C   UNL     1      41.009  19.251  -5.210  1.00  0.00     0.014 C 
ATOM      3  C   UNL     1      43.304  19.299  -6.371  1.00  0.00     0.014 C 
ATOM      4  C   UNL     1      43.249  19.150  -3.863  1.00  0.00     0.030 C 
ATOM      5  C   UNL     1      40.425  18.765  -3.874  1.00  0.00     0.004 C 
ATOM      6  C   UNL     1      43.406  17.789  -6.588  1.00  0.00     0.013 C 
ATOM      7  C   UNL     1      43.734  17.687  -4.025  1.00  0.00    -0.063 C 
ATOM      8  C   UNL     1      42.438  19.415  -2.522  1.00  0.00    -0.003 C 
ATOM      9  C   UNL     1      40.920  19.676  -2.742  1.00  0.00    -0.011 C 
ATOM     10  C   UNL     1      43.593  16.861  -5.321  1.00  0.00    -0.006 C 
ATOM     11  C   UNL     1      44.388  17.145  -2.986  1.00  0.00    -0.027 C 
ATOM     12  C   UNL     1      43.074  20.573  -1.732  1.00  0.00     0.008 C 
ATOM     13  C   UNL     1      40.084  19.474  -1.454  1.00  0.00     0.008 C 
ATOM     14  C   UNL     1      42.312  15.972  -5.144  1.00  0.00     0.017 C 
ATOM     15  C   UNL     1      44.886  15.903  -5.521  1.00  0.00    -0.020 C 
ATOM     16  C   UNL     1      44.913  15.741  -2.933  1.00  0.00     0.032 C 
ATOM     17  C   UNL     1      45.034  14.920  -4.273  1.00  0.00     0.006 C 
ATOM     18  C   UNL     1      46.217  16.758  -5.625  1.00  0.00     0.008 C 
ATOM     19  C   UNL     1      44.660  15.086  -6.852  1.00  0.00     0.012 C 
ATOM     20  C   UNL     1      46.332  13.931  -4.299  1.00  0.00    -0.025 C 
ATOM     21  C   UNL     1      47.500  16.081  -5.055  1.00  0.00     0.005 C 
ATOM     22  C   UNL     1      47.436  14.548  -5.231  1.00  0.00     0.003 C 
ATOM     23  C   UNL     1      46.000  12.524  -4.892  1.00  0.00     0.010 C 
ATOM     24  C   UNL     1      46.840  13.663  -2.836  1.00  0.00     0.012 C 
ATOM     25  C   UNL     1      48.781  13.735  -5.393  1.00  0.00    -0.006 C 
ATOM     26  C   UNL     1      47.241  11.610  -5.094  1.00  0.00     0.033 C 
ATOM     27  C   UNL     1      48.392  12.291  -5.877  1.00  0.00     0.120 C 
ATOM     28  C   UNL     1      49.656  13.716  -4.111  1.00  0.00     0.014 C 
ATOM     29  C   UNL     1      49.644  14.378  -6.521  1.00  0.00     0.014 C 
ENDROOT
BRANCH   1  30
ATOM     30  C   UNL     1      42.514  21.237  -5.058  1.00  0.00     0.048 C 
ATOM     31  O   UNL     1      41.506  21.915  -5.330  1.00  0.00    -0.550 OA
ATOM     32  O   UNL     1      41.373  21.989  -5.367  1.00  0.00    -0.550 OA
ENDBRANCH   1  30
BRANCH  27  33
ATOM     33  O   UNL     1      49.516  11.442  -5.947  1.00  0.00    -0.393 OA
ATOM     34  H   UNL     1      50.167  11.729  -5.253  1.00  0.00     0.210 HD
ENDBRANCH  27  33
TORSDOF 2
ENDMDL
MODEL 3
REMARK VINA RESULT:    -6.071      1.938      3.726
REMARK INTER + INTRA:          -6.207
REMARK INTER:                  -6.415
REMARK INTRA:                   0.208
REMARK UNBOUND:                 0.396
REMARK SMILES C[C@H]1[C@H](C)CC[C@]2(C(=O)[O-])CC[C@]3(C)C(=CC[C@@H]4[C@@]5(C)CC[C@H](O)C(C)(C)[C@@H]5CC[C@@]43C)[C@H]12
REMARK SMILES IDX 7 1 6 2 11 3 33 4 5 5 12 6 15 7 2 8 3 9 13 10 16 11 1 12
REMARK SMILES IDX 4 13 14 14 31 15 17 16 18 17 30 18 32 19 19 20 29 21 28 22
REMARK SMILES IDX 21 23 20 24 25 25 22 26 23 27 26 28 27 29 8 30 9 31 10 32
REMARK SMILES IDX 24 33
REMARK H PARENT 24 34
REMARK Flexibility Score: inf
ROOT
ATOM      1  C   UNL     1      47.072  12.936  -5.672  1.00  0.00     0.017 C 
ATOM      2  C   UNL     1      48.546  13.292  -5.257  1.00  0.00     0.014 C 
ATOM      3  C   UNL     1      46.615  13.764  -6.890  1.00  0.00     0.014 C 
ATOM      4  C   UNL     1      46.040  13.150  -4.521  1.00  0.00     0.030 C 
ATOM      5  C   UNL     1      48.775  13.310  -3.737  1.00  0.00     0.004 C 
ATOM      6  C   UNL     1      46.566  15.273  -6.648  1.00  0.00     0.013 C 
ATOM      7  C   UNL     1      45.606  14.627  -4.335  1.00  0.00    -0.063 C 
ATOM      8  C   UNL     1      46.489  12.436  -3.174  1.00  0.00    -0.003 C 
ATOM      9  C   UNL     1      48.015  12.141  -3.094  1.00  0.00    -0.011 C 
ATOM     10  C   UNL     1      46.064  15.791  -5.239  1.00  0.00    -0.006 C 
ATOM     11  C   UNL     1      44.711  14.880  -3.367  1.00  0.00    -0.027 C 
ATOM     12  C   UNL     1      45.679  11.146  -2.957  1.00  0.00     0.008 C 
ATOM     13  C   UNL     1      48.502  11.885  -1.646  1.00  0.00     0.008 C 
ATOM     14  C   UNL     1      47.257  16.488  -4.496  1.00  0.00     0.017 C 
ATOM     15  C   UNL     1      44.860  16.857  -5.437  1.00  0.00    -0.020 C 
ATOM     16  C   UNL     1      44.185  16.238  -3.012  1.00  0.00     0.032 C 
ATOM     17  C   UNL     1      44.400  17.430  -4.020  1.00  0.00     0.006 C 
ATOM     18  C   UNL     1      43.600  16.174  -6.116  1.00  0.00     0.008 C 
ATOM     19  C   UNL     1      45.409  18.017  -6.356  1.00  0.00     0.012 C 
ATOM     20  C   UNL     1      43.147  18.475  -4.050  1.00  0.00    -0.025 C 
ATOM     21  C   UNL     1      42.213  16.743  -5.689  1.00  0.00     0.005 C 
ATOM     22  C   UNL     1      42.314  18.249  -5.362  1.00  0.00     0.003 C 
ATOM     23  C   UNL     1      43.613  19.966  -4.082  1.00  0.00     0.010 C 
ATOM     24  C   UNL     1      42.288  18.330  -2.742  1.00  0.00     0.012 C 
ATOM     25  C   UNL     1      41.050  19.171  -5.582  1.00  0.00    -0.006 C 
ATOM     26  C   UNL     1      42.459  20.988  -4.283  1.00  0.00     0.033 C 
ATOM     27  C   UNL     1      41.543  20.660  -5.489  1.00  0.00     0.120 C 
ATOM     28  C   UNL     1      39.882  18.870  -4.606  1.00  0.00     0.014 C 
ATOM     29  C   UNL     1      40.499  18.961  -7.026  1.00  0.00     0.014 C 
ENDROOT
BRANCH   1  30
ATOM     30  C   UNL     1      47.057  11.469  -6.090  1.00  0.00     0.048 C 
ATOM     31  O   UNL     1      46.056  10.933  -6.599  1.00  0.00    -0.550 OA
ATOM     32  O   UNL     1      45.924  10.877  -6.661  1.00  0.00    -0.550 OA
ENDBRANCH   1  30
BRANCH  27  33
ATOM     33  O   UNL     1      40.470  21.573  -5.560  1.00  0.00    -0.393 OA
ATOM     34  H   UNL     1      40.784  22.451  -5.217  1.00  0.00     0.210 HD
ENDBRANCH  27  33
TORSDOF 2
ENDMDL
MODEL 4
REMARK VINA RESULT:    -4.868      2.172      7.973
REMARK INTER + INTRA:          -4.899
REMARK INTER:                  -5.089
REMARK INTRA:                   0.190
REMARK UNBOUND:                 0.396
REMARK SMILES C[C@H]1[C@H](C)CC[C@]2(C(=O)[O-])CC[C@]3(C)C(=CC[C@@H]4[C@@]5(C)CC[C@H](O)C(C)(C)[C@@H]5CC[C@@]43C)[C@H]12
REMARK SMILES IDX 7 1 6 2 11 3 33 4 5 5 12 6 15 7 2 8 3 9 13 10 16 11 1 12
REMARK SMILES IDX 4 13 14 14 31 15 17 16 18 17 30 18 32 19 19 20 29 21 28 22
REMARK SMILES IDX 21 23 20 24 25 25 22 26 23 27 26 28 27 29 8 30 9 31 10 32
REMARK SMILES IDX 24 33
REMARK H PARENT 24 34
REMARK Flexibility Score: inf
ROOT
ATOM      1  C   UNL     1      41.703  16.123  -5.209  1.00  0.00     0.017 C 
ATOM      2  C   UNL     1      40.667  14.943  -5.287  1.00  0.00     0.014 C 
ATOM      3  C   UNL     1      42.556  16.209  -6.490  1.00  0.00     0.014 C 
ATOM      4  C   UNL     1      42.667  16.013  -3.986  1.00  0.00     0.030 C 
ATOM      5  C   UNL     1      40.467  14.201  -3.956  1.00  0.00     0.004 C 
ATOM      6  C   UNL     1      43.429  14.982  -6.754  1.00  0.00     0.013 C 
ATOM      7  C   UNL     1      43.843  15.026  -4.202  1.00  0.00    -0.063 C 
ATOM      8  C   UNL     1      41.882  15.791  -2.623  1.00  0.00    -0.003 C 
ATOM      9  C   UNL     1      40.447  15.218  -2.806  1.00  0.00    -0.011 C 
ATOM     10  C   UNL     1      44.116  14.270  -5.519  1.00  0.00    -0.006 C 
ATOM     11  C   UNL     1      44.718  14.892  -3.192  1.00  0.00    -0.027 C 
ATOM     12  C   UNL     1      41.841  17.097  -1.810  1.00  0.00     0.008 C 
ATOM     13  C   UNL     1      39.882  14.586  -1.510  1.00  0.00     0.008 C 
ATOM     14  C   UNL     1      43.498  12.838  -5.346  1.00  0.00     0.017 C 
ATOM     15  C   UNL     1      45.711  14.138  -5.773  1.00  0.00    -0.020 C 
ATOM     16  C   UNL     1      45.902  13.973  -3.192  1.00  0.00     0.032 C 
ATOM     17  C   UNL     1      46.394  13.360  -4.558  1.00  0.00     0.006 C 
ATOM     18  C   UNL     1      46.392  15.567  -5.876  1.00  0.00     0.008 C 
ATOM     19  C   UNL     1      45.906  13.345  -7.124  1.00  0.00     0.012 C 
ATOM     20  C   UNL     1      48.016  13.201  -4.639  1.00  0.00    -0.025 C 
ATOM     21  C   UNL     1      47.857  15.656  -5.351  1.00  0.00     0.005 C 
ATOM     22  C   UNL     1      48.601  14.322  -5.572  1.00  0.00     0.003 C 
ATOM     23  C   UNL     1      48.453  11.840  -5.268  1.00  0.00     0.010 C 
ATOM     24  C   UNL     1      48.636  13.217  -3.194  1.00  0.00     0.012 C 
ATOM     25  C   UNL     1      50.167  14.339  -5.784  1.00  0.00    -0.006 C 
ATOM     26  C   UNL     1      49.983  11.718  -5.520  1.00  0.00     0.033 C 
ATOM     27  C   UNL     1      50.578  12.914  -6.304  1.00  0.00     0.120 C 
ATOM     28  C   UNL     1      50.961  14.762  -4.520  1.00  0.00     0.014 C 
ATOM     29  C   UNL     1      50.527  15.358  -6.908  1.00  0.00     0.014 C 
ENDROOT
BRANCH   1  30
ATOM     30  C   UNL     1      40.909  17.421  -5.104  1.00  0.00     0.048 C 
ATOM     31  O   UNL     1      41.460  18.537  -5.086  1.00  0.00    -0.550 OA
ATOM     32  O   UNL     1      41.540  18.671  -5.084  1.00  0.00    -0.550 OA
ENDBRANCH   1  30
BRANCH  27  33
ATOM     33  O   UNL     1      51.978  12.784  -6.421  1.00  0.00    -0.393 OA
ATOM     34  H   UNL     1      52.362  13.685  -6.587  1.00  0.00     0.210 HD
ENDBRANCH  27  33
TORSDOF 2
ENDMDL
MODEL 5
REMARK VINA RESULT:    -4.639      1.706      8.371
REMARK INTER + INTRA:          -4.650
REMARK INTER:                  -4.868
REMARK INTRA:                   0.219
REMARK UNBOUND:                 0.396
REMARK SMILES C[C@H]1[C@H](C)CC[C@]2(C(=O)[O-])CC[C@]3(C)C(=CC[C@@H]4[C@@]5(C)CC[C@H](O)C(C)(C)[C@@H]5CC[C@@]43C)[C@H]12
REMARK SMILES IDX 7 1 6 2 11 3 33 4 5 5 12 6 15 7 2 8 3 9 13 10 16 11 1 12
REMARK SMILES IDX 4 13 14 14 31 15 17 16 18 17 30 18 32 19 19 20 29 21 28 22
REMARK SMILES IDX 21 23 20 24 25 25 22 26 23 27 26 28 27 29 8 30 9 31 10 32
REMARK SMILES IDX 24 33
REMARK H PARENT 24 34
REMARK Flexibility Score: inf
ROOT
ATOM      1  C   UNL     1      40.725  17.709  -4.703  1.00  0.00     0.017 C 
ATOM      2  C   UNL     1      40.050  17.759  -3.283  1.00  0.00     0.014 C 
ATOM      3  C   UNL     1      40.726  16.278  -5.275  1.00  0.00     0.014 C 
ATOM      4  C   UNL     1      42.193  18.238  -4.705  1.00  0.00     0.030 C 
ATOM      5  C   UNL     1      40.737  18.723  -2.303  1.00  0.00     0.004 C 
ATOM      6  C   UNL     1      41.534  15.269  -4.459  1.00  0.00     0.013 C 
ATOM      7  C   UNL     1      43.232  17.204  -4.202  1.00  0.00    -0.063 C 
ATOM      8  C   UNL     1      42.317  19.664  -4.014  1.00  0.00    -0.003 C 
ATOM      9  C   UNL     1      41.144  20.002  -3.049  1.00  0.00    -0.011 C 
ATOM     10  C   UNL     1      42.895  15.750  -3.808  1.00  0.00    -0.006 C 
ATOM     11  C   UNL     1      44.517  17.590  -4.187  1.00  0.00    -0.027 C 
ATOM     12  C   UNL     1      42.471  20.763  -5.080  1.00  0.00     0.008 C 
ATOM     13  C   UNL     1      41.491  21.141  -2.059  1.00  0.00     0.008 C 
ATOM     14  C   UNL     1      42.748  15.735  -2.246  1.00  0.00     0.017 C 
ATOM     15  C   UNL     1      44.098  14.755  -4.243  1.00  0.00    -0.020 C 
ATOM     16  C   UNL     1      45.666  16.751  -3.714  1.00  0.00     0.032 C 
ATOM     17  C   UNL     1      45.456  15.200  -3.533  1.00  0.00     0.006 C 
ATOM     18  C   UNL     1      44.335  14.799  -5.810  1.00  0.00     0.008 C 
ATOM     19  C   UNL     1      43.685  13.299  -3.796  1.00  0.00     0.012 C 
ATOM     20  C   UNL     1      46.780  14.328  -3.922  1.00  0.00    -0.025 C 
ATOM     21  C   UNL     1      45.806  14.578  -6.277  1.00  0.00     0.005 C 
ATOM     22  C   UNL     1      46.552  13.632  -5.311  1.00  0.00     0.003 C 
ATOM     23  C   UNL     1      47.059  13.178  -2.901  1.00  0.00     0.010 C 
ATOM     24  C   UNL     1      48.059  15.239  -3.891  1.00  0.00     0.012 C 
ATOM     25  C   UNL     1      47.725  12.732  -5.869  1.00  0.00    -0.006 C 
ATOM     26  C   UNL     1      48.207  12.218  -3.323  1.00  0.00     0.033 C 
ATOM     27  C   UNL     1      48.054  11.665  -4.762  1.00  0.00     0.120 C 
ATOM     28  C   UNL     1      48.976  13.540  -6.305  1.00  0.00     0.014 C 
ATOM     29  C   UNL     1      47.229  11.951  -7.125  1.00  0.00     0.014 C 
ENDROOT
BRANCH   1  30
ATOM     30  C   UNL     1      39.882  18.572  -5.638  1.00  0.00     0.048 C 
ATOM     31  O   UNL     1      40.056  18.580  -6.871  1.00  0.00    -0.550 OA
ATOM     32  O   UNL     1      40.087  18.572  -7.024  1.00  0.00    -0.550 OA
ENDBRANCH   1  30
BRANCH  27  33
ATOM     33  O   UNL     1      49.169  10.875  -5.112  1.00  0.00    -0.393 OA
ATOM     34  H   UNL     1      49.316  10.960  -6.091  1.00  0.00     0.210 HD
ENDBRANCH  27  33
TORSDOF 2
ENDMDL
