MODEL 1
REMARK VINA RESULT:    -2.539      0.000      0.000
REMARK INTER + INTRA:          -2.736
REMARK INTER:                  -2.688
REMARK INTRA:                  -0.048
REMARK UNBOUND:                -0.048
REMARK SMILES CC1=CC[C@]23[C@H]([C@@H](C(C)C)CC[C@H]2C)[C@@H]13
REMARK SMILES IDX 14 1 13 2 12 3 11 4 7 5 6 6 5 7 15 8 2 9 3 10 4 11 1 12 8 13
REMARK SMILES IDX 9 14 10 15
REMARK H PARENT
REMARK Flexibility Score: inf
ROOT
ATOM      1  C   UNL     1     147.940 144.690 133.962  1.00  0.00     0.008 C 
ATOM      2  C   UNL     1     146.411 144.738 134.120  1.00  0.00    -0.007 C 
ATOM      3  C   UNL     1     145.768 143.353 133.906  1.00  0.00     0.004 C 
ATOM      4  C   UNL     1     145.453 143.068 132.439  1.00  0.00     0.004 C 
ATOM      5  C   UNL     1     144.395 144.065 131.914  1.00  0.00    -0.004 C 
ATOM      6  C   UNL     1     144.759 145.551 132.149  1.00  0.00     0.007 C 
ATOM      7  C   UNL     1     145.754 145.871 133.278  1.00  0.00    -0.013 C 
ATOM      8  C   UNL     1     146.182 145.987 131.808  1.00  0.00     0.025 C 
ATOM      9  C   UNL     1     146.382 147.448 131.600  1.00  0.00    -0.073 C 
ATOM     10  C   UNL     1     146.160 148.159 132.697  1.00  0.00    -0.027 C 
ATOM     11  C   UNL     1     145.745 147.301 133.842  1.00  0.00     0.035 C 
ATOM     12  C   UNL     1     146.786 148.052 130.291  1.00  0.00     0.039 C 
ENDROOT
BRANCH   5  13
ATOM     13  C   UNL     1     143.953 143.813 130.439  1.00  0.00    -0.014 C 
ATOM     14  C   UNL     1     143.574 142.343 130.197  1.00  0.00     0.007 C 
ATOM     15  C   UNL     1     144.978 144.272 129.390  1.00  0.00     0.007 C 
ENDBRANCH   5  13
TORSDOF 1
ENDMDL
MODEL 2
REMARK VINA RESULT:    -2.196      1.662      4.260
REMARK INTER + INTRA:          -2.372
REMARK INTER:                  -2.204
REMARK INTRA:                  -0.168
REMARK UNBOUND:                -0.048
REMARK SMILES CC1=CC[C@]23[C@H]([C@@H](C(C)C)CC[C@H]2C)[C@@H]13
REMARK SMILES IDX 14 1 13 2 12 3 11 4 7 5 6 6 5 7 15 8 2 9 3 10 4 11 1 12 8 13
REMARK SMILES IDX 9 14 10 15
REMARK H PARENT
REMARK Flexibility Score: inf
ROOT
ATOM      1  C   UNL     1     143.517 144.578 132.617  1.00  0.00     0.008 C 
ATOM      2  C   UNL     1     144.450 145.369 133.549  1.00  0.00    -0.007 C 
ATOM      3  C   UNL     1     144.075 146.863 133.605  1.00  0.00     0.004 C 
ATOM      4  C   UNL     1     144.740 147.681 132.500  1.00  0.00     0.004 C 
ATOM      5  C   UNL     1     146.276 147.667 132.672  1.00  0.00    -0.004 C 
ATOM      6  C   UNL     1     146.883 146.248 132.786  1.00  0.00     0.007 C 
ATOM      7  C   UNL     1     145.956 145.111 133.252  1.00  0.00    -0.013 C 
ATOM      8  C   UNL     1     146.404 145.197 131.786  1.00  0.00     0.025 C 
ATOM      9  C   UNL     1     147.296 144.017 131.606  1.00  0.00    -0.073 C 
ATOM     10  C   UNL     1     147.405 143.283 132.706  1.00  0.00    -0.027 C 
ATOM     11  C   UNL     1     146.621 143.854 133.836  1.00  0.00     0.035 C 
ATOM     12  C   UNL     1     147.998 143.696 130.324  1.00  0.00     0.039 C 
ENDROOT
BRANCH   5  13
ATOM     13  C   UNL     1     147.046 148.534 131.629  1.00  0.00    -0.014 C 
ATOM     14  C   UNL     1     146.792 148.058 130.190  1.00  0.00     0.007 C 
ATOM     15  C   UNL     1     148.556 148.637 131.890  1.00  0.00     0.007 C 
ENDBRANCH   5  13
TORSDOF 1
ENDMDL
MODEL 3
REMARK VINA RESULT:    -2.123      1.563      2.248
REMARK INTER + INTRA:          -2.295
REMARK INTER:                  -2.131
REMARK INTRA:                  -0.164
REMARK UNBOUND:                -0.048
REMARK SMILES CC1=CC[C@]23[C@H]([C@@H](C(C)C)CC[C@H]2C)[C@@H]13
REMARK SMILES IDX 14 1 13 2 12 3 11 4 7 5 6 6 5 7 15 8 2 9 3 10 4 11 1 12 8 13
REMARK SMILES IDX 9 14 10 15
REMARK H PARENT
REMARK Flexibility Score: inf
ROOT
ATOM      1  C   UNL     1     147.228 146.185 132.604  1.00  0.00     0.008 C 
ATOM      2  C   UNL     1     146.305 145.387 133.539  1.00  0.00    -0.007 C 
ATOM      3  C   UNL     1     146.675 143.891 133.573  1.00  0.00     0.004 C 
ATOM      4  C   UNL     1     145.993 143.088 132.468  1.00  0.00     0.004 C 
ATOM      5  C   UNL     1     144.459 143.105 132.661  1.00  0.00    -0.004 C 
ATOM      6  C   UNL     1     143.859 144.525 132.800  1.00  0.00     0.007 C 
ATOM      7  C   UNL     1     144.795 145.653 133.266  1.00  0.00    -0.013 C 
ATOM      8  C   UNL     1     144.327 145.586 131.806  1.00  0.00     0.025 C 
ATOM      9  C   UNL     1     143.437 146.771 131.652  1.00  0.00    -0.073 C 
ATOM     10  C   UNL     1     143.345 147.492 132.761  1.00  0.00    -0.027 C 
ATOM     11  C   UNL     1     144.143 146.905 133.874  1.00  0.00     0.035 C 
ATOM     12  C   UNL     1     142.719 147.109 130.384  1.00  0.00     0.039 C 
ENDROOT
BRANCH   5  13
ATOM     13  C   UNL     1     143.672 142.253 131.618  1.00  0.00    -0.014 C 
ATOM     14  C   UNL     1     143.903 142.749 130.182  1.00  0.00     0.007 C 
ATOM     15  C   UNL     1     142.165 142.147 131.903  1.00  0.00     0.007 C 
ENDBRANCH   5  13
TORSDOF 1
ENDMDL
MODEL 4
REMARK VINA RESULT:    -1.617      1.296      3.134
REMARK INTER + INTRA:          -1.759
REMARK INTER:                  -1.848
REMARK INTRA:                   0.089
REMARK UNBOUND:                -0.048
REMARK SMILES CC1=CC[C@]23[C@H]([C@@H](C(C)C)CC[C@H]2C)[C@@H]13
REMARK SMILES IDX 14 1 13 2 12 3 11 4 7 5 6 6 5 7 15 8 2 9 3 10 4 11 1 12 8 13
REMARK SMILES IDX 9 14 10 15
REMARK H PARENT
REMARK Flexibility Score: inf
ROOT
ATOM      1  C   UNL     1     144.747 148.190 134.125  1.00  0.00     0.008 C 
ATOM      2  C   UNL     1     144.503 147.660 132.702  1.00  0.00    -0.007 C 
ATOM      3  C   UNL     1     143.078 147.096 132.536  1.00  0.00     0.004 C 
ATOM      4  C   UNL     1     142.975 145.625 132.935  1.00  0.00     0.004 C 
ATOM      5  C   UNL     1     143.842 144.753 131.999  1.00  0.00    -0.004 C 
ATOM      6  C   UNL     1     145.313 145.220 131.888  1.00  0.00     0.007 C 
ATOM      7  C   UNL     1     145.621 146.690 132.221  1.00  0.00    -0.013 C 
ATOM      8  C   UNL     1     146.038 145.571 133.185  1.00  0.00     0.025 C 
ATOM      9  C   UNL     1     147.526 145.567 133.120  1.00  0.00    -0.073 C 
ATOM     10  C   UNL     1     148.008 146.497 132.306  1.00  0.00    -0.027 C 
ATOM     11  C   UNL     1     146.923 147.284 131.656  1.00  0.00     0.035 C 
ATOM     12  C   UNL     1     148.388 144.612 133.886  1.00  0.00     0.039 C 
ENDROOT
BRANCH   5  13
ATOM     13  C   UNL     1     143.750 143.222 132.282  1.00  0.00    -0.014 C 
ATOM     14  C   UNL     1     144.963 142.712 133.077  1.00  0.00     0.007 C 
ATOM     15  C   UNL     1     143.546 142.362 131.025  1.00  0.00     0.007 C 
ENDBRANCH   5  13
TORSDOF 1
ENDMDL
MODEL 5
REMARK VINA RESULT:    -1.327      1.893      2.951
REMARK INTER + INTRA:          -1.452
REMARK INTER:                  -1.435
REMARK INTRA:                  -0.018
REMARK UNBOUND:                -0.048
REMARK SMILES CC1=CC[C@]23[C@H]([C@@H](C(C)C)CC[C@H]2C)[C@@H]13
REMARK SMILES IDX 14 1 13 2 12 3 11 4 7 5 6 6 5 7 15 8 2 9 3 10 4 11 1 12 8 13
REMARK SMILES IDX 9 14 10 15
REMARK H PARENT
REMARK Flexibility Score: inf
ROOT
ATOM      1  C   UNL     1     146.039 147.985 133.936  1.00  0.00     0.008 C 
ATOM      2  C   UNL     1     145.908 146.464 134.125  1.00  0.00    -0.007 C 
ATOM      3  C   UNL     1     147.262 145.747 133.960  1.00  0.00     0.004 C 
ATOM      4  C   UNL     1     147.567 145.385 132.508  1.00  0.00     0.004 C 
ATOM      5  C   UNL     1     146.530 144.368 131.979  1.00  0.00    -0.004 C 
ATOM      6  C   UNL     1     145.059 144.813 132.168  1.00  0.00     0.007 C 
ATOM      7  C   UNL     1     144.764 145.848 133.268  1.00  0.00    -0.013 C 
ATOM      8  C   UNL     1     144.706 146.249 131.787  1.00  0.00     0.025 C 
ATOM      9  C   UNL     1     143.262 146.519 131.537  1.00  0.00    -0.073 C 
ATOM     10  C   UNL     1     142.514 146.357 132.620  1.00  0.00    -0.027 C 
ATOM     11  C   UNL     1     143.321 145.925 133.795  1.00  0.00     0.035 C 
ATOM     12  C   UNL     1     142.713 146.924 130.205  1.00  0.00     0.039 C 
ENDROOT
BRANCH   5  13
ATOM     13  C   UNL     1     146.794 143.882 130.521  1.00  0.00    -0.014 C 
ATOM     14  C   UNL     1     148.283 143.591 130.275  1.00  0.00     0.007 C 
ATOM     15  C   UNL     1     146.257 144.828 129.436  1.00  0.00     0.007 C 
ENDBRANCH   5  13
TORSDOF 1
ENDMDL
MODEL 6
REMARK VINA RESULT:    -1.229      1.640      3.824
REMARK INTER + INTRA:          -1.348
REMARK INTER:                  -1.090
REMARK INTRA:                  -0.258
REMARK UNBOUND:                -0.048
REMARK SMILES CC1=CC[C@]23[C@H]([C@@H](C(C)C)CC[C@H]2C)[C@@H]13
REMARK SMILES IDX 14 1 13 2 12 3 11 4 7 5 6 6 5 7 15 8 2 9 3 10 4 11 1 12 8 13
REMARK SMILES IDX 9 14 10 15
REMARK H PARENT
REMARK Flexibility Score: inf
ROOT
ATOM      1  C   UNL     1     147.563 144.464 133.652  1.00  0.00     0.008 C 
ATOM      2  C   UNL     1     147.307 145.740 132.832  1.00  0.00    -0.007 C 
ATOM      3  C   UNL     1     146.887 146.922 133.727  1.00  0.00     0.004 C 
ATOM      4  C   UNL     1     145.381 146.967 133.979  1.00  0.00     0.004 C 
ATOM      5  C   UNL     1     144.622 147.204 132.653  1.00  0.00    -0.004 C 
ATOM      6  C   UNL     1     144.992 146.205 131.530  1.00  0.00     0.007 C 
ATOM      7  C   UNL     1     146.356 145.498 131.624  1.00  0.00    -0.013 C 
ATOM      8  C   UNL     1     145.058 144.725 131.900  1.00  0.00     0.025 C 
ATOM      9  C   UNL     1     144.956 143.766 130.765  1.00  0.00    -0.073 C 
ATOM     10  C   UNL     1     145.975 143.857 129.921  1.00  0.00    -0.027 C 
ATOM     11  C   UNL     1     146.940 144.917 130.327  1.00  0.00     0.035 C 
ATOM     12  C   UNL     1     143.822 142.804 130.592  1.00  0.00     0.039 C 
ENDROOT
BRANCH   5  13
ATOM     13  C   UNL     1     143.076 147.334 132.813  1.00  0.00    -0.014 C 
ATOM     14  C   UNL     1     142.483 146.166 133.617  1.00  0.00     0.007 C 
ATOM     15  C   UNL     1     142.319 147.498 131.486  1.00  0.00     0.007 C 
ENDBRANCH   5  13
TORSDOF 1
ENDMDL
MODEL 7
REMARK VINA RESULT:    -0.883      1.543      3.309
REMARK INTER + INTRA:          -0.982
REMARK INTER:                  -0.892
REMARK INTRA:                  -0.091
REMARK UNBOUND:                -0.048
REMARK SMILES CC1=CC[C@]23[C@H]([C@@H](C(C)C)CC[C@H]2C)[C@@H]13
REMARK SMILES IDX 14 1 13 2 12 3 11 4 7 5 6 6 5 7 15 8 2 9 3 10 4 11 1 12 8 13
REMARK SMILES IDX 9 14 10 15
REMARK H PARENT
REMARK Flexibility Score: inf
ROOT
ATOM      1  C   UNL     1     142.928 146.053 133.161  1.00  0.00     0.008 C 
ATOM      2  C   UNL     1     143.380 144.914 132.231  1.00  0.00    -0.007 C 
ATOM      3  C   UNL     1     143.605 143.599 133.003  1.00  0.00     0.004 C 
ATOM      4  C   UNL     1     145.017 143.483 133.575  1.00  0.00     0.004 C 
ATOM      5  C   UNL     1     146.057 143.438 132.432  1.00  0.00    -0.004 C 
ATOM      6  C   UNL     1     145.934 144.606 131.424  1.00  0.00     0.007 C 
ATOM      7  C   UNL     1     144.575 145.318 131.320  1.00  0.00    -0.013 C 
ATOM      8  C   UNL     1     145.766 146.012 131.995  1.00  0.00     0.025 C 
ATOM      9  C   UNL     1     146.107 147.133 131.075  1.00  0.00    -0.073 C 
ATOM     10  C   UNL     1     145.304 147.195 130.021  1.00  0.00    -0.027 C 
ATOM     11  C   UNL     1     144.288 146.106 130.030  1.00  0.00     0.035 C 
ATOM     12  C   UNL     1     147.237 148.085 131.312  1.00  0.00     0.039 C 
ENDROOT
BRANCH   5  13
ATOM     13  C   UNL     1     147.529 143.252 132.912  1.00  0.00    -0.014 C 
ATOM     14  C   UNL     1     148.041 144.480 133.680  1.00  0.00     0.007 C 
ATOM     15  C   UNL     1     148.513 142.883 131.791  1.00  0.00     0.007 C 
ENDBRANCH   5  13
TORSDOF 1
ENDMDL
MODEL 8
REMARK VINA RESULT:    -0.699      1.611      2.544
REMARK INTER + INTRA:          -0.787
REMARK INTER:                  -0.864
REMARK INTRA:                   0.077
REMARK UNBOUND:                -0.048
REMARK SMILES CC1=CC[C@]23[C@H]([C@@H](C(C)C)CC[C@H]2C)[C@@H]13
REMARK SMILES IDX 14 1 13 2 12 3 11 4 7 5 6 6 5 7 15 8 2 9 3 10 4 11 1 12 8 13
REMARK SMILES IDX 9 14 10 15
REMARK H PARENT
REMARK Flexibility Score: inf
ROOT
ATOM      1  C   UNL     1     147.609 143.350 131.237  1.00  0.00     0.008 C 
ATOM      2  C   UNL     1     147.062 143.621 132.649  1.00  0.00    -0.007 C 
ATOM      3  C   UNL     1     145.816 142.767 132.956  1.00  0.00     0.004 C 
ATOM      4  C   UNL     1     144.519 143.428 132.495  1.00  0.00     0.004 C 
ATOM      5  C   UNL     1     144.281 144.743 133.273  1.00  0.00    -0.004 C 
ATOM      6  C   UNL     1     145.478 145.723 133.230  1.00  0.00     0.007 C 
ATOM      7  C   UNL     1     146.870 145.137 132.940  1.00  0.00    -0.013 C 
ATOM      8  C   UNL     1     146.138 145.966 131.875  1.00  0.00     0.025 C 
ATOM      9  C   UNL     1     146.948 147.211 131.760  1.00  0.00    -0.073 C 
ATOM     10  C   UNL     1     148.008 147.211 132.557  1.00  0.00    -0.027 C 
ATOM     11  C   UNL     1     148.089 145.968 133.374  1.00  0.00     0.035 C 
ATOM     12  C   UNL     1     146.601 148.345 130.846  1.00  0.00     0.039 C 
ENDROOT
BRANCH   5  13
ATOM     13  C   UNL     1     142.942 145.462 132.922  1.00  0.00    -0.014 C 
ATOM     14  C   UNL     1     143.120 146.484 131.788  1.00  0.00     0.007 C 
ATOM     15  C   UNL     1     142.252 146.124 134.125  1.00  0.00     0.007 C 
ENDBRANCH   5  13
TORSDOF 1
ENDMDL
