MODEL 1
REMARK VINA RESULT:    -3.779      0.000      0.000
REMARK INTER + INTRA:          -8.374
REMARK INTER:                  -7.313
REMARK INTRA:                  -1.061
REMARK UNBOUND:                -1.061
REMARK SMILES CCCCCCCCCCCCCCCCCC(=O)[O-]
REMARK SMILES IDX 10 1 11 2 12 3 13 4 14 5 15 6 16 7 17 8 18 9 19 10 20 11
REMARK SMILES IDX 9 12 8 13 7 14 6 15 5 16 4 17 3 18 2 19 1 20
REMARK H PARENT
REMARK Flexibility Score: inf
ROOT
ATOM      1  C   UNL     1      15.210  -5.895  10.756  1.00  0.00     0.000 C 
ENDROOT
BRANCH   1   2
ATOM      2  C   UNL     1      15.956  -5.269  11.945  1.00  0.00     0.000 C 
BRANCH   2   3
ATOM      3  C   UNL     1      16.167  -6.261  13.102  1.00  0.00     0.000 C 
BRANCH   3   4
ATOM      4  C   UNL     1      16.601  -5.572  14.408  1.00  0.00     0.000 C 
BRANCH   4   5
ATOM      5  C   UNL     1      15.630  -4.494  14.935  1.00  0.00     0.000 C 
BRANCH   5   6
ATOM      6  C   UNL     1      16.273  -3.134  15.271  1.00  0.00     0.000 C 
BRANCH   6   7
ATOM      7  C   UNL     1      15.477  -1.899  14.807  1.00  0.00     0.006 C 
BRANCH   7   8
ATOM      8  C   UNL     1      16.357  -0.684  14.457  1.00  0.00     0.053 C 
BRANCH   8   9
ATOM      9  C   UNL     1      16.446   0.309  15.576  1.00  0.00     0.041 C 
ATOM     10  O   UNL     1      17.171   0.075  16.579  1.00  0.00    -0.550 OA
ATOM     11  O   UNL     1      15.697   1.480  15.530  1.00  0.00    -0.550 OA
ENDBRANCH   8   9
ENDBRANCH   7   8
ENDBRANCH   6   7
ENDBRANCH   5   6
ENDBRANCH   4   5
ENDBRANCH   3   4
ENDBRANCH   2   3
ENDBRANCH   1   2
BRANCH   1  12
ATOM     12  C   UNL     1      16.084  -6.865   9.946  1.00  0.00     0.000 C 
BRANCH  12  13
ATOM     13  C   UNL     1      16.225  -6.394   8.493  1.00  0.00    -0.000 C 
BRANCH  13  14
ATOM     14  C   UNL     1      17.236  -5.242   8.382  1.00  0.00    -0.000 C 
BRANCH  14  15
ATOM     15  C   UNL     1      18.643  -5.643   8.853  1.00  0.00    -0.000 C 
BRANCH  15  16
ATOM     16  C   UNL     1      19.753  -5.064   7.957  1.00  0.00    -0.000 C 
BRANCH  16  17
ATOM     17  C   UNL     1      19.449  -3.619   7.518  1.00  0.00    -0.000 C 
BRANCH  17  18
ATOM     18  C   UNL     1      20.465  -2.589   8.060  1.00  0.00    -0.000 C 
BRANCH  18  19
ATOM     19  C   UNL     1      21.864  -3.178   8.309  1.00  0.00    -0.003 C 
ATOM     20  C   UNL     1      22.260  -3.166   9.783  1.00  0.00     0.004 C 
ENDBRANCH  18  19
ENDBRANCH  17  18
ENDBRANCH  16  17
ENDBRANCH  15  16
ENDBRANCH  14  15
ENDBRANCH  13  14
ENDBRANCH  12  13
ENDBRANCH   1  12
TORSDOF 16
ENDMDL
MODEL 2
REMARK VINA RESULT:    -3.683     10.314     13.238
REMARK INTER + INTRA:          -8.189
REMARK INTER:                  -5.748
REMARK INTRA:                  -2.441
REMARK UNBOUND:                -1.061
REMARK SMILES CCCCCCCCCCCCCCCCCC(=O)[O-]
REMARK SMILES IDX 10 1 11 2 12 3 13 4 14 5 15 6 16 7 17 8 18 9 19 10 20 11
REMARK SMILES IDX 9 12 8 13 7 14 6 15 5 16 4 17 3 18 2 19 1 20
REMARK H PARENT
REMARK Flexibility Score: inf
ROOT
ATOM      1  C   UNL     1      29.906   1.932   8.373  1.00  0.00     0.000 C 
ENDROOT
BRANCH   1   2
ATOM      2  C   UNL     1      29.308   2.191   6.980  1.00  0.00     0.000 C 
BRANCH   2   3
ATOM      3  C   UNL     1      27.933   1.528   6.792  1.00  0.00     0.000 C 
BRANCH   3   4
ATOM      4  C   UNL     1      27.046   1.625   8.046  1.00  0.00     0.000 C 
BRANCH   4   5
ATOM      5  C   UNL     1      26.133   0.407   8.300  1.00  0.00     0.000 C 
BRANCH   5   6
ATOM      6  C   UNL     1      25.751  -0.405   7.048  1.00  0.00     0.000 C 
BRANCH   6   7
ATOM      7  C   UNL     1      24.370  -0.076   6.448  1.00  0.00     0.006 C 
BRANCH   7   8
ATOM      8  C   UNL     1      24.379   1.118   5.477  1.00  0.00     0.053 C 
BRANCH   8   9
ATOM      9  C   UNL     1      23.792   2.360   6.079  1.00  0.00     0.041 C 
ATOM     10  O   UNL     1      22.584   2.384   6.437  1.00  0.00    -0.550 OA
ATOM     11  O   UNL     1      24.569   3.505   6.209  1.00  0.00    -0.550 OA
ENDBRANCH   8   9
ENDBRANCH   7   8
ENDBRANCH   6   7
ENDBRANCH   5   6
ENDBRANCH   4   5
ENDBRANCH   3   4
ENDBRANCH   2   3
ENDBRANCH   1   2
BRANCH   1  12
ATOM     12  C   UNL     1      30.353   3.220   9.080  1.00  0.00     0.000 C 
BRANCH  12  13
ATOM     13  C   UNL     1      30.323   3.048  10.603  1.00  0.00    -0.000 C 
BRANCH  13  14
ATOM     14  C   UNL     1      29.080   2.260  11.046  1.00  0.00    -0.000 C 
BRANCH  14  15
ATOM     15  C   UNL     1      29.238   1.643  12.445  1.00  0.00    -0.000 C 
BRANCH  15  16
ATOM     16  C   UNL     1      29.046   0.115  12.442  1.00  0.00    -0.000 C 
BRANCH  16  17
ATOM     17  C   UNL     1      28.420  -0.387  11.128  1.00  0.00    -0.000 C 
BRANCH  17  18
ATOM     18  C   UNL     1      29.257  -1.486  10.433  1.00  0.00    -0.000 C 
BRANCH  18  19
ATOM     19  C   UNL     1      29.139  -1.470   8.900  1.00  0.00    -0.003 C 
ATOM     20  C   UNL     1      30.194  -2.333   8.214  1.00  0.00     0.004 C 
ENDBRANCH  18  19
ENDBRANCH  17  18
ENDBRANCH  16  17
ENDBRANCH  15  16
ENDBRANCH  14  15
ENDBRANCH  13  14
ENDBRANCH  12  13
ENDBRANCH   1  12
TORSDOF 16
ENDMDL
MODEL 3
REMARK VINA RESULT:    -3.679     14.691     17.727
REMARK INTER + INTRA:          -8.181
REMARK INTER:                  -6.167
REMARK INTRA:                  -2.015
REMARK UNBOUND:                -1.061
REMARK SMILES CCCCCCCCCCCCCCCCCC(=O)[O-]
REMARK SMILES IDX 10 1 11 2 12 3 13 4 14 5 15 6 16 7 17 8 18 9 19 10 20 11
REMARK SMILES IDX 9 12 8 13 7 14 6 15 5 16 4 17 3 18 2 19 1 20
REMARK H PARENT
REMARK Flexibility Score: inf
ROOT
ATOM      1  C   UNL     1      21.683  11.640   7.871  1.00  0.00     0.000 C 
ENDROOT
BRANCH   1   2
ATOM      2  C   UNL     1      22.283  12.581   6.814  1.00  0.00     0.000 C 
BRANCH   2   3
ATOM      3  C   UNL     1      22.671  11.849   5.518  1.00  0.00     0.000 C 
BRANCH   3   4
ATOM      4  C   UNL     1      23.322  10.479   5.779  1.00  0.00     0.000 C 
BRANCH   4   5
ATOM      5  C   UNL     1      24.851  10.429   5.574  1.00  0.00     0.000 C 
BRANCH   5   6
ATOM      6  C   UNL     1      25.620   9.527   6.557  1.00  0.00     0.000 C 
BRANCH   6   7
ATOM      7  C   UNL     1      27.155   9.664   6.511  1.00  0.00     0.006 C 
BRANCH   7   8
ATOM      8  C   UNL     1      27.670  10.541   5.355  1.00  0.00     0.053 C 
BRANCH   8   9
ATOM      9  C   UNL     1      28.230  11.850   5.825  1.00  0.00     0.041 C 
ATOM     10  O   UNL     1      27.595  12.552   6.657  1.00  0.00    -0.550 OA
ATOM     11  O   UNL     1      29.436  12.315   5.314  1.00  0.00    -0.550 OA
ENDBRANCH   8   9
ENDBRANCH   7   8
ENDBRANCH   6   7
ENDBRANCH   5   6
ENDBRANCH   4   5
ENDBRANCH   3   4
ENDBRANCH   2   3
ENDBRANCH   1   2
BRANCH   1  12
ATOM     12  C   UNL     1      20.541  12.289   8.668  1.00  0.00     0.000 C 
BRANCH  12  13
ATOM     13  C   UNL     1      19.976  11.314   9.709  1.00  0.00    -0.000 C 
BRANCH  13  14
ATOM     14  C   UNL     1      18.642  10.715   9.237  1.00  0.00    -0.000 C 
BRANCH  14  15
ATOM     15  C   UNL     1      18.807   9.316   8.621  1.00  0.00    -0.000 C 
BRANCH  15  16
ATOM     16  C   UNL     1      17.961   9.128   7.348  1.00  0.00    -0.000 C 
BRANCH  16  17
ATOM     17  C   UNL     1      18.808   8.643   6.157  1.00  0.00    -0.000 C 
BRANCH  17  18
ATOM     18  C   UNL     1      19.631   9.770   5.492  1.00  0.00    -0.000 C 
BRANCH  18  19
ATOM     19  C   UNL     1      18.766  10.817   4.769  1.00  0.00    -0.003 C 
ATOM     20  C   UNL     1      18.911  12.217   5.359  1.00  0.00     0.004 C 
ENDBRANCH  18  19
ENDBRANCH  17  18
ENDBRANCH  16  17
ENDBRANCH  15  16
ENDBRANCH  14  15
ENDBRANCH  13  14
ENDBRANCH  12  13
ENDBRANCH   1  12
TORSDOF 16
ENDMDL
MODEL 4
REMARK VINA RESULT:    -3.677      7.987     12.301
REMARK INTER + INTRA:          -8.177
REMARK INTER:                  -5.743
REMARK INTRA:                  -2.434
REMARK UNBOUND:                -1.061
REMARK SMILES CCCCCCCCCCCCCCCCCC(=O)[O-]
REMARK SMILES IDX 10 1 11 2 12 3 13 4 14 5 15 6 16 7 17 8 18 9 19 10 20 11
REMARK SMILES IDX 9 12 8 13 7 14 6 15 5 16 4 17 3 18 2 19 1 20
REMARK H PARENT
REMARK Flexibility Score: inf
ROOT
ATOM      1  C   UNL     1      28.344   1.795   6.933  1.00  0.00     0.000 C 
ENDROOT
BRANCH   1   2
ATOM      2  C   UNL     1      28.594   0.666   5.920  1.00  0.00     0.000 C 
BRANCH   2   3
ATOM      3  C   UNL     1      28.015  -0.683   6.379  1.00  0.00     0.000 C 
BRANCH   3   4
ATOM      4  C   UNL     1      26.883  -1.189   5.467  1.00  0.00     0.000 C 
BRANCH   4   5
ATOM      5  C   UNL     1      26.065  -0.087   4.762  1.00  0.00     0.000 C 
BRANCH   5   6
ATOM      6  C   UNL     1      24.710   0.249   5.414  1.00  0.00     0.000 C 
BRANCH   6   7
ATOM      7  C   UNL     1      24.776   1.238   6.594  1.00  0.00     0.006 C 
BRANCH   7   8
ATOM      8  C   UNL     1      24.589   2.711   6.187  1.00  0.00     0.053 C 
BRANCH   8   9
ATOM      9  C   UNL     1      23.195   3.012   5.725  1.00  0.00     0.041 C 
ATOM     10  O   UNL     1      22.203   2.616   6.394  1.00  0.00    -0.550 OA
ATOM     11  O   UNL     1      22.989   3.697   4.533  1.00  0.00    -0.550 OA
ENDBRANCH   8   9
ENDBRANCH   7   8
ENDBRANCH   6   7
ENDBRANCH   5   6
ENDBRANCH   4   5
ENDBRANCH   3   4
ENDBRANCH   2   3
ENDBRANCH   1   2
BRANCH   1  12
ATOM     12  C   UNL     1      29.561   2.075   7.827  1.00  0.00     0.000 C 
BRANCH  12  13
ATOM     13  C   UNL     1      29.142   2.213   9.296  1.00  0.00    -0.000 C 
BRANCH  13  14
ATOM     14  C   UNL     1      27.647   1.902   9.475  1.00  0.00    -0.000 C 
BRANCH  14  15
ATOM     15  C   UNL     1      27.403   0.526  10.116  1.00  0.00    -0.000 C 
BRANCH  15  16
ATOM     16  C   UNL     1      26.132  -0.158   9.580  1.00  0.00    -0.000 C 
BRANCH  16  17
ATOM     17  C   UNL     1      26.168  -1.685   9.780  1.00  0.00    -0.000 C 
BRANCH  17  18
ATOM     18  C   UNL     1      25.588  -2.472   8.583  1.00  0.00    -0.000 C 
BRANCH  18  19
ATOM     19  C   UNL     1      24.071  -2.705   8.679  1.00  0.00    -0.003 C 
ATOM     20  C   UNL     1      23.606  -3.009  10.101  1.00  0.00     0.004 C 
ENDBRANCH  18  19
ENDBRANCH  17  18
ENDBRANCH  16  17
ENDBRANCH  15  16
ENDBRANCH  14  15
ENDBRANCH  13  14
ENDBRANCH  12  13
ENDBRANCH   1  12
TORSDOF 16
ENDMDL
MODEL 5
REMARK VINA RESULT:    -3.658      6.426     10.053
REMARK INTER + INTRA:          -8.140
REMARK INTER:                  -5.331
REMARK INTRA:                  -2.809
REMARK UNBOUND:                -1.061
REMARK SMILES CCCCCCCCCCCCCCCCCC(=O)[O-]
REMARK SMILES IDX 10 1 11 2 12 3 13 4 14 5 15 6 16 7 17 8 18 9 19 10 20 11
REMARK SMILES IDX 9 12 8 13 7 14 6 15 5 16 4 17 3 18 2 19 1 20
REMARK H PARENT
REMARK Flexibility Score: inf
ROOT
ATOM      1  C   UNL     1      24.405   1.225   6.599  1.00  0.00     0.000 C 
ENDROOT
BRANCH   1   2
ATOM      2  C   UNL     1      24.630   0.015   5.679  1.00  0.00     0.000 C 
BRANCH   2   3
ATOM      3  C   UNL     1      24.087  -1.294   6.277  1.00  0.00     0.000 C 
BRANCH   3   4
ATOM      4  C   UNL     1      23.226  -2.093   5.282  1.00  0.00     0.000 C 
BRANCH   4   5
ATOM      5  C   UNL     1      21.750  -2.278   5.691  1.00  0.00     0.000 C 
BRANCH   5   6
ATOM      6  C   UNL     1      21.309  -1.497   6.944  1.00  0.00     0.000 C 
BRANCH   6   7
ATOM      7  C   UNL     1      20.493  -2.308   7.970  1.00  0.00     0.006 C 
BRANCH   7   8
ATOM      8  C   UNL     1      21.202  -3.582   8.466  1.00  0.00     0.053 C 
BRANCH   8   9
ATOM      9  C   UNL     1      22.381  -3.285   9.344  1.00  0.00     0.041 C 
ATOM     10  O   UNL     1      23.553  -3.492   8.929  1.00  0.00    -0.550 OA
ATOM     11  O   UNL     1      22.185  -2.815  10.638  1.00  0.00    -0.550 OA
ENDBRANCH   8   9
ENDBRANCH   7   8
ENDBRANCH   6   7
ENDBRANCH   5   6
ENDBRANCH   4   5
ENDBRANCH   3   4
ENDBRANCH   2   3
ENDBRANCH   1   2
BRANCH   1  12
ATOM     12  C   UNL     1      24.472   2.565   5.850  1.00  0.00     0.000 C 
BRANCH  12  13
ATOM     13  C   UNL     1      23.070   3.158   5.660  1.00  0.00    -0.000 C 
BRANCH  13  14
ATOM     14  C   UNL     1      21.987   2.174   6.128  1.00  0.00    -0.000 C 
BRANCH  14  15
ATOM     15  C   UNL     1      20.874   1.980   5.086  1.00  0.00    -0.000 C 
BRANCH  15  16
ATOM     16  C   UNL     1      21.192   0.854   4.085  1.00  0.00    -0.000 C 
BRANCH  16  17
ATOM     17  C   UNL     1      21.606   1.405   2.708  1.00  0.00    -0.000 C 
BRANCH  17  18
ATOM     18  C   UNL     1      22.868   0.723   2.131  1.00  0.00    -0.000 C 
BRANCH  18  19
ATOM     19  C   UNL     1      24.168   1.492   2.419  1.00  0.00    -0.003 C 
ATOM     20  C   UNL     1      24.167   2.900   1.831  1.00  0.00     0.004 C 
ENDBRANCH  18  19
ENDBRANCH  17  18
ENDBRANCH  16  17
ENDBRANCH  15  16
ENDBRANCH  14  15
ENDBRANCH  13  14
ENDBRANCH  12  13
ENDBRANCH   1  12
TORSDOF 16
ENDMDL
MODEL 6
REMARK VINA RESULT:    -3.628      4.531      8.656
REMARK INTER + INTRA:          -8.082
REMARK INTER:                  -5.940
REMARK INTRA:                  -2.142
REMARK UNBOUND:                -1.061
REMARK SMILES CCCCCCCCCCCCCCCCCC(=O)[O-]
REMARK SMILES IDX 10 1 11 2 12 3 13 4 14 5 15 6 16 7 17 8 18 9 19 10 20 11
REMARK SMILES IDX 9 12 8 13 7 14 6 15 5 16 4 17 3 18 2 19 1 20
REMARK H PARENT
REMARK Flexibility Score: inf
ROOT
ATOM      1  C   UNL     1      15.586  -2.059  14.316  1.00  0.00     0.000 C 
ENDROOT
BRANCH   1   2
ATOM      2  C   UNL     1      16.337  -3.074  15.192  1.00  0.00     0.000 C 
BRANCH   2   3
ATOM      3  C   UNL     1      15.468  -4.284  15.577  1.00  0.00     0.000 C 
BRANCH   3   4
ATOM      4  C   UNL     1      16.299  -5.544  15.879  1.00  0.00     0.000 C 
BRANCH   4   5
ATOM      5  C   UNL     1      16.461  -6.522  14.697  1.00  0.00     0.000 C 
BRANCH   5   6
ATOM      6  C   UNL     1      17.443  -6.074  13.598  1.00  0.00     0.000 C 
BRANCH   6   7
ATOM      7  C   UNL     1      16.997  -6.379  12.154  1.00  0.00     0.006 C 
BRANCH   7   8
ATOM      8  C   UNL     1      15.656  -5.731  11.764  1.00  0.00     0.053 C 
BRANCH   8   9
ATOM      9  C   UNL     1      15.248  -6.045  10.356  1.00  0.00     0.041 C 
ATOM     10  O   UNL     1      14.088  -6.472  10.109  1.00  0.00    -0.550 OA
ATOM     11  O   UNL     1      16.162  -5.902   9.318  1.00  0.00    -0.550 OA
ENDBRANCH   8   9
ENDBRANCH   7   8
ENDBRANCH   6   7
ENDBRANCH   5   6
ENDBRANCH   4   5
ENDBRANCH   3   4
ENDBRANCH   2   3
ENDBRANCH   1   2
BRANCH   1  12
ATOM     12  C   UNL     1      16.115  -0.625  14.475  1.00  0.00     0.000 C 
BRANCH  12  13
ATOM     13  C   UNL     1      17.162  -0.548  15.593  1.00  0.00    -0.000 C 
BRANCH  13  14
ATOM     14  C   UNL     1      16.581   0.122  16.848  1.00  0.00    -0.000 C 
BRANCH  14  15
ATOM     15  C   UNL     1      15.367   1.011  16.535  1.00  0.00    -0.000 C 
BRANCH  15  16
ATOM     16  C   UNL     1      14.196   0.775  17.507  1.00  0.00    -0.000 C 
BRANCH  16  17
ATOM     17  C   UNL     1      13.108  -0.126  16.894  1.00  0.00    -0.000 C 
BRANCH  17  18
ATOM     18  C   UNL     1      13.366  -1.634  17.118  1.00  0.00    -0.000 C 
BRANCH  18  19
ATOM     19  C   UNL     1      13.985  -1.953  18.490  1.00  0.00    -0.003 C 
ATOM     20  C   UNL     1      14.024  -3.449  18.790  1.00  0.00     0.004 C 
ENDBRANCH  18  19
ENDBRANCH  17  18
ENDBRANCH  16  17
ENDBRANCH  15  16
ENDBRANCH  14  15
ENDBRANCH  13  14
ENDBRANCH  12  13
ENDBRANCH   1  12
TORSDOF 16
ENDMDL
MODEL 7
REMARK VINA RESULT:    -3.616     10.428     12.834
REMARK INTER + INTRA:          -8.058
REMARK INTER:                  -5.454
REMARK INTRA:                  -2.604
REMARK UNBOUND:                -1.061
REMARK SMILES CCCCCCCCCCCCCCCCCC(=O)[O-]
REMARK SMILES IDX 10 1 11 2 12 3 13 4 14 5 15 6 16 7 17 8 18 9 19 10 20 11
REMARK SMILES IDX 9 12 8 13 7 14 6 15 5 16 4 17 3 18 2 19 1 20
REMARK H PARENT
REMARK Flexibility Score: inf
ROOT
ATOM      1  C   UNL     1      28.496  -1.371   9.750  1.00  0.00     0.000 C 
ENDROOT
BRANCH   1   2
ATOM      2  C   UNL     1      27.716  -0.539  10.780  1.00  0.00     0.000 C 
BRANCH   2   3
ATOM      3  C   UNL     1      26.894   0.588  10.133  1.00  0.00     0.000 C 
BRANCH   3   4
ATOM      4  C   UNL     1      26.179   0.142   8.844  1.00  0.00     0.000 C 
BRANCH   4   5
ATOM      5  C   UNL     1      26.357   1.084   7.635  1.00  0.00     0.000 C 
BRANCH   5   6
ATOM      6  C   UNL     1      25.909   0.508   6.278  1.00  0.00     0.000 C 
BRANCH   6   7
ATOM      7  C   UNL     1      24.401   0.213   6.155  1.00  0.00     0.006 C 
BRANCH   7   8
ATOM      8  C   UNL     1      23.648   1.186   5.228  1.00  0.00     0.053 C 
BRANCH   8   9
ATOM      9  C   UNL     1      23.264   2.462   5.915  1.00  0.00     0.041 C 
ATOM     10  O   UNL     1      22.101   2.610   6.379  1.00  0.00    -0.550 OA
ATOM     11  O   UNL     1      24.178   3.505   6.010  1.00  0.00    -0.550 OA
ENDBRANCH   8   9
ENDBRANCH   7   8
ENDBRANCH   6   7
ENDBRANCH   5   6
ENDBRANCH   4   5
ENDBRANCH   3   4
ENDBRANCH   2   3
ENDBRANCH   1   2
BRANCH   1  12
ATOM     12  C   UNL     1      30.000  -1.060   9.746  1.00  0.00     0.000 C 
BRANCH  12  13
ATOM     13  C   UNL     1      30.554  -1.041   8.316  1.00  0.00    -0.000 C 
BRANCH  13  14
ATOM     14  C   UNL     1      29.732  -0.102   7.420  1.00  0.00    -0.000 C 
BRANCH  14  15
ATOM     15  C   UNL     1      30.346   1.303   7.315  1.00  0.00    -0.000 C 
BRANCH  15  16
ATOM     16  C   UNL     1      29.657   2.320   8.244  1.00  0.00    -0.000 C 
BRANCH  16  17
ATOM     17  C   UNL     1      30.567   2.746   9.412  1.00  0.00    -0.000 C 
BRANCH  17  18
ATOM     18  C   UNL     1      29.804   2.937  10.743  1.00  0.00    -0.000 C 
BRANCH  18  19
ATOM     19  C   UNL     1      30.359   2.085  11.896  1.00  0.00    -0.003 C 
ATOM     20  C   UNL     1      29.319   1.799  12.977  1.00  0.00     0.004 C 
ENDBRANCH  18  19
ENDBRANCH  17  18
ENDBRANCH  16  17
ENDBRANCH  15  16
ENDBRANCH  14  15
ENDBRANCH  13  14
ENDBRANCH  12  13
ENDBRANCH   1  12
TORSDOF 16
ENDMDL
MODEL 8
REMARK VINA RESULT:    -3.598      7.034     11.148
REMARK INTER + INTRA:          -8.024
REMARK INTER:                  -5.060
REMARK INTRA:                  -2.964
REMARK UNBOUND:                -1.061
REMARK SMILES CCCCCCCCCCCCCCCCCC(=O)[O-]
REMARK SMILES IDX 10 1 11 2 12 3 13 4 14 5 15 6 16 7 17 8 18 9 19 10 20 11
REMARK SMILES IDX 9 12 8 13 7 14 6 15 5 16 4 17 3 18 2 19 1 20
REMARK H PARENT
REMARK Flexibility Score: inf
ROOT
ATOM      1  C   UNL     1      25.791   2.083   5.284  1.00  0.00     0.000 C 
ENDROOT
BRANCH   1   2
ATOM      2  C   UNL     1      26.625   1.145   4.397  1.00  0.00     0.000 C 
BRANCH   2   3
ATOM      3  C   UNL     1      25.757   0.288   3.460  1.00  0.00     0.000 C 
BRANCH   3   4
ATOM      4  C   UNL     1      24.318   0.818   3.328  1.00  0.00     0.000 C 
BRANCH   4   5
ATOM      5  C   UNL     1      23.218  -0.131   3.848  1.00  0.00     0.000 C 
BRANCH   5   6
ATOM      6  C   UNL     1      21.886   0.545   4.224  1.00  0.00     0.000 C 
BRANCH   6   7
ATOM      7  C   UNL     1      21.696   0.834   5.726  1.00  0.00     0.006 C 
BRANCH   7   8
ATOM      8  C   UNL     1      22.257   2.195   6.177  1.00  0.00     0.053 C 
BRANCH   8   9
ATOM      9  C   UNL     1      21.911   3.307   5.232  1.00  0.00     0.041 C 
ATOM     10  O   UNL     1      22.805   3.840   4.521  1.00  0.00    -0.550 OA
ATOM     11  O   UNL     1      20.607   3.782   5.164  1.00  0.00    -0.550 OA
ENDBRANCH   8   9
ENDBRANCH   7   8
ENDBRANCH   6   7
ENDBRANCH   5   6
ENDBRANCH   4   5
ENDBRANCH   3   4
ENDBRANCH   2   3
ENDBRANCH   1   2
BRANCH   1  12
ATOM     12  C   UNL     1      26.086   1.907   6.782  1.00  0.00     0.000 C 
BRANCH  12  13
ATOM     13  C   UNL     1      26.266   0.426   7.136  1.00  0.00    -0.000 C 
BRANCH  13  14
ATOM     14  C   UNL     1      24.911  -0.297   7.189  1.00  0.00    -0.000 C 
BRANCH  14  15
ATOM     15  C   UNL     1      24.999  -1.753   6.704  1.00  0.00    -0.000 C 
BRANCH  15  16
ATOM     16  C   UNL     1      23.765  -2.584   7.104  1.00  0.00    -0.000 C 
BRANCH  16  17
ATOM     17  C   UNL     1      23.034  -3.161   5.878  1.00  0.00    -0.000 C 
BRANCH  17  18
ATOM     18  C   UNL     1      21.518  -2.862   5.873  1.00  0.00    -0.000 C 
BRANCH  18  19
ATOM     19  C   UNL     1      20.803  -3.297   7.164  1.00  0.00    -0.003 C 
ATOM     20  C   UNL     1      20.306  -2.116   7.994  1.00  0.00     0.004 C 
ENDBRANCH  18  19
ENDBRANCH  17  18
ENDBRANCH  16  17
ENDBRANCH  15  16
ENDBRANCH  14  15
ENDBRANCH  13  14
ENDBRANCH  12  13
ENDBRANCH   1  12
TORSDOF 16
ENDMDL
MODEL 9
REMARK VINA RESULT:    -3.590      7.190     11.095
REMARK INTER + INTRA:          -8.010
REMARK INTER:                  -6.534
REMARK INTRA:                  -1.475
REMARK UNBOUND:                -1.061
REMARK SMILES CCCCCCCCCCCCCCCCCC(=O)[O-]
REMARK SMILES IDX 10 1 11 2 12 3 13 4 14 5 15 6 16 7 17 8 18 9 19 10 20 11
REMARK SMILES IDX 9 12 8 13 7 14 6 15 5 16 4 17 3 18 2 19 1 20
REMARK H PARENT
REMARK Flexibility Score: inf
ROOT
ATOM      1  C   UNL     1      27.766   1.839   6.725  1.00  0.00     0.000 C 
ENDROOT
BRANCH   1   2
ATOM      2  C   UNL     1      28.554   1.530   8.008  1.00  0.00     0.000 C 
BRANCH   2   3
ATOM      3  C   UNL     1      27.768   1.873   9.285  1.00  0.00     0.000 C 
BRANCH   3   4
ATOM      4  C   UNL     1      27.384   0.626  10.103  1.00  0.00     0.000 C 
BRANCH   4   5
ATOM      5  C   UNL     1      26.033  -0.017   9.725  1.00  0.00     0.000 C 
BRANCH   5   6
ATOM      6  C   UNL     1      26.103  -1.492   9.289  1.00  0.00     0.000 C 
BRANCH   6   7
ATOM      7  C   UNL     1      25.415  -2.492  10.239  1.00  0.00     0.006 C 
BRANCH   7   8
ATOM      8  C   UNL     1      24.087  -3.054   9.698  1.00  0.00     0.053 C 
BRANCH   8   9
ATOM      9  C   UNL     1      23.074  -3.290  10.779  1.00  0.00     0.041 C 
ATOM     10  O   UNL     1      21.920  -3.704  10.490  1.00  0.00    -0.550 OA
ATOM     11  O   UNL     1      23.393  -3.016  12.104  1.00  0.00    -0.550 OA
ENDBRANCH   8   9
ENDBRANCH   7   8
ENDBRANCH   6   7
ENDBRANCH   5   6
ENDBRANCH   4   5
ENDBRANCH   3   4
ENDBRANCH   2   3
ENDBRANCH   1   2
BRANCH   1  12
ATOM     12  C   UNL     1      26.963   0.634   6.213  1.00  0.00     0.000 C 
BRANCH  12  13
ATOM     13  C   UNL     1      25.458   0.926   6.239  1.00  0.00    -0.000 C 
BRANCH  13  14
ATOM     14  C   UNL     1      25.190   2.414   6.518  1.00  0.00    -0.000 C 
BRANCH  14  15
ATOM     15  C   UNL     1      23.888   2.912   5.870  1.00  0.00    -0.000 C 
BRANCH  15  16
ATOM     16  C   UNL     1      23.028   1.763   5.314  1.00  0.00    -0.000 C 
BRANCH  16  17
ATOM     17  C   UNL     1      21.524   2.003   5.541  1.00  0.00    -0.000 C 
BRANCH  17  18
ATOM     18  C   UNL     1      21.112   3.485   5.394  1.00  0.00    -0.000 C 
BRANCH  18  19
ATOM     19  C   UNL     1      19.822   3.686   4.581  1.00  0.00    -0.003 C 
ATOM     20  C   UNL     1      18.893   4.732   5.191  1.00  0.00     0.004 C 
ENDBRANCH  18  19
ENDBRANCH  17  18
ENDBRANCH  16  17
ENDBRANCH  15  16
ENDBRANCH  14  15
ENDBRANCH  13  14
ENDBRANCH  12  13
ENDBRANCH   1  12
TORSDOF 16
ENDMDL
