MODEL 1
REMARK VINA RESULT:    -4.484      0.000      0.000
REMARK INTER + INTRA:          -4.541
REMARK INTER:                  -6.057
REMARK INTRA:                   1.515
REMARK UNBOUND:                 1.515
REMARK SMILES C=C1C(=O)O[C@@H]2[C@@H]1CCC(C)=CCC[C@@]1(C)O[C@H]21
REMARK SMILES IDX 6 1 7 2 2 3 1 4 3 5 4 6 5 7 8 8 9 9 10 10 11 11 12 12 18 14
REMARK SMILES IDX 15 15 17 16 16 17 14 18 13 19
REMARK H PARENT
REMARK Flexibility Score: 70.00
ROOT
ATOM      1  C   UNL     1      57.405 -10.999 133.558  1.00  0.00     0.216 C 
ATOM      2  C   UNL     1      57.111 -10.544 135.023  1.00  0.00     0.070 C 
ATOM      3  C   UNL     1      58.379  -9.817 135.367  1.00  0.00     0.037 C 
ATOM      4  C   UNL     1      58.611  -9.052 136.434  1.00  0.00     0.021 C 
ATOM      5  C   UNL     1      59.390 -10.320 134.452  1.00  0.00     0.334 C 
ATOM      6  O   UNL     1      60.627 -10.097 134.532  1.00  0.00    -0.247 OA
ATOM      7  O   UNL     1      58.817 -11.128 133.488  1.00  0.00    -0.455 OA
ENDROOT
BRANCH   2   8
ATOM      8  C   UNL     1      55.777  -9.764 135.213  1.00  0.00     0.017 C 
BRANCH   8   9
ATOM      9  C   UNL     1      54.450 -10.595 135.103  1.00  0.00     0.031 C 
BRANCH   9  10
ATOM     10  C   UNL     1      54.485 -12.006 135.702  1.00  0.00    -0.077 C 
ATOM     11  C   UNL     1      54.837 -12.129 137.165  1.00  0.00     0.039 C 
ATOM     12  C   UNL     1      54.149 -13.164 135.050  1.00  0.00    -0.028 CG0
ATOM     13  G   UNL     1      53.674 -13.349 133.612  1.00  0.00     0.000 G0
ENDBRANCH   9  10
ENDBRANCH   8   9
ENDBRANCH   2   8
BRANCH   1  14
ATOM     14  C   UNL     1      56.655 -12.300 133.281  1.00  0.00     0.192 C 
ATOM     15  C   UNL     1      55.870 -12.996 132.201  1.00  0.00     0.096 C 
ATOM     16  O   UNL     1      55.525 -11.746 132.609  1.00  0.00    -0.362 OA
ATOM     17  C   UNL     1      56.426 -13.012 130.783  1.00  0.00     0.045 C 
BRANCH  15  18
ATOM     18  C   UNL     1      54.747 -13.971 132.643  1.00  0.00     0.042 C 
BRANCH  18  19
ATOM     19  C   UNL     1      53.679 -13.347 133.605  1.00  0.00     0.030 CG0
ATOM     20  G   UNL     1      54.163 -13.164 135.040  1.00  0.00     0.000 G0
ENDBRANCH  18  19
ENDBRANCH  15  18
ENDBRANCH   1  14
TORSDOF 0
ENDMDL
MODEL 2
REMARK VINA RESULT:    -4.445      1.569      3.421
REMARK INTER + INTRA:          -4.489
REMARK INTER:                  -5.907
REMARK INTRA:                   1.418
REMARK UNBOUND:                 1.515
REMARK SMILES C=C1C(=O)O[C@@H]2[C@@H]1CCC(C)=CCC[C@@]1(C)O[C@H]21
REMARK SMILES IDX 6 1 7 2 2 3 1 4 3 5 4 6 5 7 8 8 9 9 10 10 11 11 12 12 18 14
REMARK SMILES IDX 15 15 17 16 16 17 14 18 13 19
REMARK H PARENT
REMARK Flexibility Score: 70.00
ROOT
ATOM      1  C   UNL     1      56.871 -11.301 135.704  1.00  0.00     0.216 C 
ATOM      2  C   UNL     1      57.757 -11.454 134.427  1.00  0.00     0.070 C 
ATOM      3  C   UNL     1      58.860 -10.477 134.713  1.00  0.00     0.037 C 
ATOM      4  C   UNL     1      60.006 -10.329 134.046  1.00  0.00     0.021 C 
ATOM      5  C   UNL     1      58.326  -9.545 135.692  1.00  0.00     0.334 C 
ATOM      6  O   UNL     1      58.873  -8.471 136.057  1.00  0.00    -0.247 OA
ATOM      7  O   UNL     1      57.094  -9.972 136.151  1.00  0.00    -0.455 OA
ENDROOT
BRANCH   2   8
ATOM      8  C   UNL     1      58.178 -12.915 134.091  1.00  0.00     0.017 C 
BRANCH   8   9
ATOM      9  C   UNL     1      57.032 -13.902 133.671  1.00  0.00     0.031 C 
BRANCH   9  10
ATOM     10  C   UNL     1      56.003 -13.357 132.673  1.00  0.00    -0.077 C 
ATOM     11  C   UNL     1      56.526 -12.817 131.364  1.00  0.00     0.039 C 
ATOM     12  C   UNL     1      54.642 -13.387 132.827  1.00  0.00    -0.028 CG0
ATOM     13  G   UNL     1      53.822 -13.944 133.987  1.00  0.00     0.000 G0
ENDBRANCH   9  10
ENDBRANCH   8   9
ENDBRANCH   2   8
BRANCH   1  14
ATOM     14  C   UNL     1      55.417 -11.590 135.339  1.00  0.00     0.192 C 
ATOM     15  C   UNL     1      54.161 -12.195 135.909  1.00  0.00     0.096 C 
ATOM     16  O   UNL     1      55.323 -12.901 135.897  1.00  0.00    -0.362 OA
ATOM     17  C   UNL     1      53.732 -11.805 137.318  1.00  0.00     0.045 C 
BRANCH  15  18
ATOM     18  C   UNL     1      53.177 -12.874 134.921  1.00  0.00     0.042 C 
BRANCH  18  19
ATOM     19  C   UNL     1      53.825 -13.961 133.995  1.00  0.00     0.030 CG0
ATOM     20  G   UNL     1      54.645 -13.390 132.842  1.00  0.00     0.000 G0
ENDBRANCH  18  19
ENDBRANCH  15  18
ENDBRANCH   1  14
TORSDOF 0
ENDMDL
MODEL 3
REMARK VINA RESULT:    -4.442      2.345      4.964
REMARK INTER + INTRA:          -4.485
REMARK INTER:                  -5.914
REMARK INTRA:                   1.429
REMARK UNBOUND:                 1.515
REMARK SMILES C=C1C(=O)O[C@@H]2[C@@H]1CCC(C)=CCC[C@@]1(C)O[C@H]21
REMARK SMILES IDX 6 1 7 2 2 3 1 4 3 5 4 6 5 7 8 8 9 9 10 10 11 11 12 12 18 14
REMARK SMILES IDX 15 15 17 16 16 17 14 18 13 19
REMARK H PARENT
REMARK Flexibility Score: 70.00
ROOT
ATOM      1  C   UNL     1      57.377 -11.443 133.972  1.00  0.00     0.216 C 
ATOM      2  C   UNL     1      55.831 -11.464 134.190  1.00  0.00     0.070 C 
ATOM      3  C   UNL     1      55.395 -12.428 133.126  1.00  0.00     0.037 C 
ATOM      4  C   UNL     1      54.188 -12.975 132.973  1.00  0.00     0.021 C 
ATOM      5  C   UNL     1      56.462 -12.447 132.140  1.00  0.00     0.334 C 
ATOM      6  O   UNL     1      56.403 -12.990 131.005  1.00  0.00    -0.247 OA
ATOM      7  O   UNL     1      57.559 -11.741 132.595  1.00  0.00    -0.455 OA
ENDROOT
BRANCH   2   8
ATOM      8  C   UNL     1      55.379 -11.770 135.648  1.00  0.00     0.017 C 
BRANCH   8   9
ATOM      9  C   UNL     1      55.671 -10.667 136.726  1.00  0.00     0.031 C 
BRANCH   9  10
ATOM     10  C   UNL     1      55.456  -9.215 136.282  1.00  0.00    -0.077 C 
ATOM     11  C   UNL     1      54.080  -8.839 135.787  1.00  0.00     0.039 C 
ATOM     12  C   UNL     1      56.378  -8.205 136.367  1.00  0.00    -0.028 CG0
ATOM     13  G   UNL     1      57.807  -8.255 136.900  1.00  0.00     0.000 G0
ENDBRANCH   9  10
ENDBRANCH   8   9
ENDBRANCH   2   8
BRANCH   1  14
ATOM     14  C   UNL     1      57.920 -10.076 134.381  1.00  0.00     0.192 C 
ATOM     15  C   UNL     1      59.136  -9.429 134.988  1.00  0.00     0.096 C 
ATOM     16  O   UNL     1      58.510 -10.454 135.625  1.00  0.00    -0.362 OA
ATOM     17  C   UNL     1      60.514  -9.822 134.470  1.00  0.00     0.045 C 
BRANCH  15  18
ATOM     18  C   UNL     1      58.923  -8.142 135.827  1.00  0.00     0.042 C 
BRANCH  18  19
ATOM     19  C   UNL     1      57.800  -8.248 136.916  1.00  0.00     0.030 CG0
ATOM     20  G   UNL     1      56.382  -8.205 136.355  1.00  0.00     0.000 G0
ENDBRANCH  18  19
ENDBRANCH  15  18
ENDBRANCH   1  14
TORSDOF 0
ENDMDL
MODEL 4
REMARK VINA RESULT:    -4.405      6.258      8.696
REMARK INTER + INTRA:          -4.435
REMARK INTER:                  -5.794
REMARK INTRA:                   1.359
REMARK UNBOUND:                 1.515
REMARK SMILES C=C1C(=O)O[C@@H]2[C@@H]1CCC(C)=CCC[C@@]1(C)O[C@H]21
REMARK SMILES IDX 6 1 7 2 2 3 1 4 3 5 4 6 5 7 8 8 9 9 10 10 11 11 12 12 18 14
REMARK SMILES IDX 15 15 17 16 16 17 14 18 13 19
REMARK H PARENT
REMARK Flexibility Score: 70.00
ROOT
ATOM      1  C   UNL     1      50.832 -18.641 134.433  1.00  0.00     0.216 C 
ATOM      2  C   UNL     1      52.237 -18.176 134.932  1.00  0.00     0.070 C 
ATOM      3  C   UNL     1      52.710 -19.397 135.665  1.00  0.00     0.037 C 
ATOM      4  C   UNL     1      53.935 -19.637 136.135  1.00  0.00     0.021 C 
ATOM      5  C   UNL     1      51.515 -20.153 135.998  1.00  0.00     0.334 C 
ATOM      6  O   UNL     1      51.466 -21.147 136.769  1.00  0.00    -0.247 OA
ATOM      7  O   UNL     1      50.404 -19.606 135.383  1.00  0.00    -0.455 OA
ENDROOT
BRANCH   2   8
ATOM      8  C   UNL     1      53.173 -17.612 133.823  1.00  0.00     0.017 C 
BRANCH   8   9
ATOM      9  C   UNL     1      52.738 -16.264 133.148  1.00  0.00     0.031 C 
BRANCH   9  10
ATOM     10  C   UNL     1      52.204 -15.177 134.090  1.00  0.00    -0.077 C 
ATOM     11  C   UNL     1      53.106 -14.735 135.217  1.00  0.00     0.039 C 
ATOM     12  C   UNL     1      51.013 -14.514 133.956  1.00  0.00    -0.028 CG0
ATOM     13  G   UNL     1      49.942 -14.674 132.881  1.00  0.00     0.000 G0
ENDBRANCH   9  10
ENDBRANCH   8   9
ENDBRANCH   2   8
BRANCH   1  14
ATOM     14  C   UNL     1      49.912 -17.427 134.334  1.00  0.00     0.192 C 
ATOM     15  C   UNL     1      48.735 -16.906 133.552  1.00  0.00     0.096 C 
ATOM     16  O   UNL     1      49.857 -17.327 132.911  1.00  0.00    -0.362 OA
ATOM     17  C   UNL     1      47.546 -17.829 133.311  1.00  0.00     0.045 C 
BRANCH  15  18
ATOM     18  C   UNL     1      48.620 -15.371 133.361  1.00  0.00     0.042 C 
BRANCH  18  19
ATOM     19  C   UNL     1      49.933 -14.674 132.864  1.00  0.00     0.030 CG0
ATOM     20  G   UNL     1      51.000 -14.511 133.943  1.00  0.00     0.000 G0
ENDBRANCH  18  19
ENDBRANCH  15  18
ENDBRANCH   1  14
TORSDOF 0
ENDMDL
MODEL 5
REMARK VINA RESULT:    -4.400      3.734      5.419
REMARK INTER + INTRA:          -4.428
REMARK INTER:                  -5.777
REMARK INTRA:                   1.349
REMARK UNBOUND:                 1.515
REMARK SMILES C=C1C(=O)O[C@@H]2[C@@H]1CCC(C)=CCC[C@@]1(C)O[C@H]21
REMARK SMILES IDX 6 1 7 2 2 3 1 4 3 5 4 6 5 7 8 8 9 9 10 10 11 11 12 12 18 14
REMARK SMILES IDX 15 15 17 16 16 17 14 18 13 19
REMARK H PARENT
REMARK Flexibility Score: 70.00
ROOT
ATOM      1  C   UNL     1      52.872 -14.122 133.073  1.00  0.00     0.216 C 
ATOM      2  C   UNL     1      53.460 -14.102 134.519  1.00  0.00     0.070 C 
ATOM      3  C   UNL     1      54.754 -13.374 134.302  1.00  0.00     0.037 C 
ATOM      4  C   UNL     1      55.584 -12.900 135.233  1.00  0.00     0.021 C 
ATOM      5  C   UNL     1      55.062 -13.515 132.890  1.00  0.00     0.334 C 
ATOM      6  O   UNL     1      56.152 -13.202 132.342  1.00  0.00    -0.247 OA
ATOM      7  O   UNL     1      54.003 -14.090 132.214  1.00  0.00    -0.455 OA
ENDROOT
BRANCH   2   8
ATOM      8  C   UNL     1      52.504 -13.534 135.609  1.00  0.00     0.017 C 
BRANCH   8   9
ATOM      9  C   UNL     1      51.153 -14.301 135.834  1.00  0.00     0.031 C 
BRANCH   9  10
ATOM     10  C   UNL     1      51.262 -15.818 136.033  1.00  0.00    -0.077 C 
ATOM     11  C   UNL     1      52.197 -16.309 137.112  1.00  0.00     0.039 C 
ATOM     12  C   UNL     1      50.528 -16.769 135.374  1.00  0.00    -0.028 CG0
ATOM     13  G   UNL     1      49.454 -16.580 134.307  1.00  0.00     0.000 G0
ENDBRANCH   9  10
ENDBRANCH   8   9
ENDBRANCH   2   8
BRANCH   1  14
ATOM     14  C   UNL     1      52.008 -15.369 132.903  1.00  0.00     0.192 C 
ATOM     15  C   UNL     1      50.798 -15.867 132.158  1.00  0.00     0.096 C 
ATOM     16  O   UNL     1      50.729 -14.735 132.907  1.00  0.00    -0.362 OA
ATOM     17  C   UNL     1      50.686 -15.586 130.665  1.00  0.00     0.045 C 
BRANCH  15  18
ATOM     18  C   UNL     1      49.925 -16.950 132.846  1.00  0.00     0.042 C 
BRANCH  18  19
ATOM     19  C   UNL     1      49.451 -16.585 134.295  1.00  0.00     0.030 CG0
ATOM     20  G   UNL     1      50.520 -16.771 135.366  1.00  0.00     0.000 G0
ENDBRANCH  18  19
ENDBRANCH  15  18
ENDBRANCH   1  14
TORSDOF 0
ENDMDL
MODEL 6
REMARK VINA RESULT:    -4.389      5.917      9.207
REMARK INTER + INTRA:          -4.413
REMARK INTER:                  -5.765
REMARK INTRA:                   1.352
REMARK UNBOUND:                 1.515
REMARK SMILES C=C1C(=O)O[C@@H]2[C@@H]1CCC(C)=CCC[C@@]1(C)O[C@H]21
REMARK SMILES IDX 6 1 7 2 2 3 1 4 3 5 4 6 5 7 8 8 9 9 10 10 11 11 12 12 18 14
REMARK SMILES IDX 15 15 17 16 16 17 14 18 13 19
REMARK H PARENT
REMARK Flexibility Score: 70.00
ROOT
ATOM      1  C   UNL     1      50.226 -17.573 135.411  1.00  0.00     0.216 C 
ATOM      2  C   UNL     1      49.341 -17.603 134.124  1.00  0.00     0.070 C 
ATOM      3  C   UNL     1      48.378 -18.705 134.452  1.00  0.00     0.037 C 
ATOM      4  C   UNL     1      47.270 -19.039 133.788  1.00  0.00     0.021 C 
ATOM      5  C   UNL     1      49.021 -19.509 135.478  1.00  0.00     0.334 C 
ATOM      6  O   UNL     1      48.620 -20.629 135.892  1.00  0.00    -0.247 OA
ATOM      7  O   UNL     1      50.180 -18.898 135.921  1.00  0.00    -0.455 OA
ENDROOT
BRANCH   2   8
ATOM      8  C   UNL     1      48.731 -16.230 133.716  1.00  0.00     0.017 C 
BRANCH   8   9
ATOM      9  C   UNL     1      49.737 -15.117 133.256  1.00  0.00     0.031 C 
BRANCH   9  10
ATOM     10  C   UNL     1      50.861 -15.569 132.315  1.00  0.00    -0.077 C 
ATOM     11  C   UNL     1      50.456 -16.249 131.030  1.00  0.00     0.039 C 
ATOM     12  C   UNL     1      52.200 -15.342 132.497  1.00  0.00    -0.028 CG0
ATOM     13  G   UNL     1      52.901 -14.611 133.639  1.00  0.00     0.000 G0
ENDBRANCH   9  10
ENDBRANCH   8   9
ENDBRANCH   2   8
BRANCH   1  14
ATOM     14  C   UNL     1      51.631 -17.108 135.039  1.00  0.00     0.192 C 
ATOM     15  C   UNL     1      52.812 -16.368 135.609  1.00  0.00     0.096 C 
ATOM     16  O   UNL     1      51.575 -15.805 135.620  1.00  0.00    -0.362 OA
ATOM     17  C   UNL     1      53.300 -16.728 137.007  1.00  0.00     0.045 C 
BRANCH  15  18
ATOM     18  C   UNL     1      53.699 -15.560 134.625  1.00  0.00     0.042 C 
BRANCH  18  19
ATOM     19  C   UNL     1      52.908 -14.615 133.657  1.00  0.00     0.030 CG0
ATOM     20  G   UNL     1      52.206 -15.340 132.512  1.00  0.00     0.000 G0
ENDBRANCH  18  19
ENDBRANCH  15  18
ENDBRANCH   1  14
TORSDOF 0
ENDMDL
MODEL 7
REMARK VINA RESULT:    -4.387      2.462      5.428
REMARK INTER + INTRA:          -4.410
REMARK INTER:                  -5.804
REMARK INTRA:                   1.394
REMARK UNBOUND:                 1.515
REMARK SMILES C=C1C(=O)O[C@@H]2[C@@H]1CCC(C)=CCC[C@@]1(C)O[C@H]21
REMARK SMILES IDX 6 1 7 2 2 3 1 4 3 5 4 6 5 7 8 8 9 9 10 10 11 11 12 12 18 14
REMARK SMILES IDX 15 15 17 16 16 17 14 18 13 19
REMARK H PARENT
REMARK Flexibility Score: 70.00
ROOT
ATOM      1  C   UNL     1      54.222 -14.491 133.084  1.00  0.00     0.216 C 
ATOM      2  C   UNL     1      53.599 -14.562 134.515  1.00  0.00     0.070 C 
ATOM      3  C   UNL     1      52.324 -15.306 134.245  1.00  0.00     0.037 C 
ATOM      4  C   UNL     1      51.480 -15.820 135.141  1.00  0.00     0.021 C 
ATOM      5  C   UNL     1      52.048 -15.130 132.829  1.00  0.00     0.334 C 
ATOM      6  O   UNL     1      50.977 -15.446 132.245  1.00  0.00    -0.247 OA
ATOM      7  O   UNL     1      53.114 -14.518 132.197  1.00  0.00    -0.455 OA
ENDROOT
BRANCH   2   8
ATOM      8  C   UNL     1      54.537 -15.145 135.611  1.00  0.00     0.017 C 
BRANCH   8   9
ATOM      9  C   UNL     1      55.843 -14.333 135.929  1.00  0.00     0.031 C 
BRANCH   9  10
ATOM     10  C   UNL     1      55.665 -12.827 136.153  1.00  0.00    -0.077 C 
ATOM     11  C   UNL     1      54.661 -12.396 137.195  1.00  0.00     0.039 C 
ATOM     12  C   UNL     1      56.391 -11.834 135.549  1.00  0.00    -0.028 CG0
ATOM     13  G   UNL     1      57.522 -11.958 134.533  1.00  0.00     0.000 G0
ENDBRANCH   9  10
ENDBRANCH   8   9
ENDBRANCH   2   8
BRANCH   1  14
ATOM     14  C   UNL     1      55.068 -13.226 132.971  1.00  0.00     0.192 C 
ATOM     15  C   UNL     1      56.316 -12.702 132.310  1.00  0.00     0.096 C 
ATOM     16  O   UNL     1      56.357 -13.832 133.065  1.00  0.00    -0.362 OA
ATOM     17  C   UNL     1      56.536 -12.983 130.829  1.00  0.00     0.045 C 
BRANCH  15  18
ATOM     18  C   UNL     1      57.115 -11.599 133.053  1.00  0.00     0.042 C 
BRANCH  18  19
ATOM     19  C   UNL     1      57.525 -11.965 134.522  1.00  0.00     0.030 CG0
ATOM     20  G   UNL     1      56.397 -11.821 135.539  1.00  0.00     0.000 G0
ENDBRANCH  18  19
ENDBRANCH  15  18
ENDBRANCH   1  14
TORSDOF 0
ENDMDL
MODEL 8
REMARK VINA RESULT:    -4.385      7.107      9.592
REMARK INTER + INTRA:          -4.408
REMARK INTER:                  -5.735
REMARK INTRA:                   1.328
REMARK UNBOUND:                 1.515
REMARK SMILES C=C1C(=O)O[C@@H]2[C@@H]1CCC(C)=CCC[C@@]1(C)O[C@H]21
REMARK SMILES IDX 6 1 7 2 2 3 1 4 3 5 4 6 5 7 8 8 9 9 10 10 11 11 12 12 18 14
REMARK SMILES IDX 15 15 17 16 16 17 14 18 13 19
REMARK H PARENT
REMARK Flexibility Score: 70.00
ROOT
ATOM      1  C   UNL     1      49.784 -17.410 133.975  1.00  0.00     0.216 C 
ATOM      2  C   UNL     1      51.325 -17.158 133.927  1.00  0.00     0.070 C 
ATOM      3  C   UNL     1      51.407 -16.016 132.957  1.00  0.00     0.037 C 
ATOM      4  C   UNL     1      52.473 -15.261 132.682  1.00  0.00     0.021 C 
ATOM      5  C   UNL     1      50.179 -16.057 132.183  1.00  0.00     0.334 C 
ATOM      6  O   UNL     1      49.942 -15.380 131.147  1.00  0.00    -0.247 OA
ATOM      7  O   UNL     1      49.301 -16.985 132.709  1.00  0.00    -0.455 OA
ENDROOT
BRANCH   2   8
ATOM      8  C   UNL     1      52.001 -16.957 135.314  1.00  0.00     0.017 C 
BRANCH   8   9
ATOM      9  C   UNL     1      51.857 -18.130 136.348  1.00  0.00     0.031 C 
BRANCH   9  10
ATOM     10  C   UNL     1      52.320 -19.512 135.871  1.00  0.00    -0.077 C 
ATOM     11  C   UNL     1      53.713 -19.615 135.298  1.00  0.00     0.039 C 
ATOM     12  C   UNL     1      51.614 -20.680 135.989  1.00  0.00    -0.028 CG0
ATOM     13  G   UNL     1      50.234 -20.907 136.599  1.00  0.00     0.000 G0
ENDBRANCH   9  10
ENDBRANCH   8   9
ENDBRANCH   2   8
BRANCH   1  14
ATOM     14  C   UNL     1      49.529 -18.887 134.265  1.00  0.00     0.192 C 
ATOM     15  C   UNL     1      48.537 -19.797 134.940  1.00  0.00     0.096 C 
ATOM     16  O   UNL     1      49.091 -18.757 135.618  1.00  0.00    -0.362 OA
ATOM     17  C   UNL     1      47.051 -19.591 134.672  1.00  0.00     0.045 C 
BRANCH  15  18
ATOM     18  C   UNL     1      49.074 -21.114 135.559  1.00  0.00     0.042 C 
BRANCH  18  19
ATOM     19  C   UNL     1      50.226 -20.923 136.604  1.00  0.00     0.030 CG0
ATOM     20  G   UNL     1      51.598 -20.680 135.983  1.00  0.00     0.000 G0
ENDBRANCH  18  19
ENDBRANCH  15  18
ENDBRANCH   1  14
TORSDOF 0
ENDMDL
MODEL 9
REMARK VINA RESULT:    -4.362      4.812      6.882
REMARK INTER + INTRA:          -4.376
REMARK INTER:                  -5.919
REMARK INTRA:                   1.543
REMARK UNBOUND:                 1.515
REMARK SMILES C=C1C(=O)O[C@@H]2[C@@H]1CCC(C)=CCC[C@@]1(C)O[C@H]21
REMARK SMILES IDX 6 1 7 2 2 3 1 4 3 5 4 6 5 7 8 8 9 9 10 10 11 11 12 12 18 14
REMARK SMILES IDX 15 15 17 16 16 17 14 18 13 19
REMARK H PARENT
REMARK Flexibility Score: 70.00
ROOT
ATOM      1  C   UNL     1      53.204 -16.109 134.417  1.00  0.00     0.216 C 
ATOM      2  C   UNL     1      52.566 -14.837 133.774  1.00  0.00     0.070 C 
ATOM      3  C   UNL     1      53.706 -13.863 133.850  1.00  0.00     0.037 C 
ATOM      4  C   UNL     1      53.790 -12.666 133.269  1.00  0.00     0.021 C 
ATOM      5  C   UNL     1      54.589 -14.360 134.891  1.00  0.00     0.334 C 
ATOM      6  O   UNL     1      55.564 -13.735 135.386  1.00  0.00    -0.247 OA
ATOM      7  O   UNL     1      54.190 -15.615 135.312  1.00  0.00    -0.455 OA
ENDROOT
BRANCH   2   8
ATOM      8  C   UNL     1      51.922 -15.062 132.374  1.00  0.00     0.017 C 
BRANCH   8   9
ATOM      9  C   UNL     1      50.691 -16.033 132.310  1.00  0.00     0.031 C 
BRANCH   9  10
ATOM     10  C   UNL     1      49.570 -15.771 133.324  1.00  0.00    -0.077 C 
ATOM     11  C   UNL     1      49.006 -14.372 133.387  1.00  0.00     0.039 C 
ATOM     12  C   UNL     1      48.979 -16.711 134.127  1.00  0.00    -0.028 CG0
ATOM     13  G   UNL     1      49.267 -18.206 134.223  1.00  0.00     0.000 G0
ENDBRANCH   9  10
ENDBRANCH   8   9
ENDBRANCH   2   8
BRANCH   1  14
ATOM     14  C   UNL     1      52.110 -16.925 135.100  1.00  0.00     0.192 C 
ATOM     15  C   UNL     1      51.668 -18.348 135.317  1.00  0.00     0.096 C 
ATOM     16  O   UNL     1      51.886 -17.878 134.060  1.00  0.00    -0.362 OA
ATOM     17  C   UNL     1      52.704 -19.382 135.739  1.00  0.00     0.045 C 
BRANCH  15  18
ATOM     18  C   UNL     1      50.148 -18.614 135.473  1.00  0.00     0.042 C 
BRANCH  18  19
ATOM     19  C   UNL     1      49.283 -18.218 134.227  1.00  0.00     0.030 CG0
ATOM     20  G   UNL     1      48.970 -16.728 134.133  1.00  0.00     0.000 G0
ENDBRANCH  18  19
ENDBRANCH  15  18
ENDBRANCH   1  14
TORSDOF 0
ENDMDL
