MODEL 1
REMARK VINA RESULT:    -6.279      0.000      0.000
REMARK INTER + INTRA:          -9.889
REMARK INTER:                  -8.665
REMARK INTRA:                  -1.223
REMARK UNBOUND:                -1.223
REMARK SMILES O=C([O-])[C@@H]1O[C@H](Oc2cc3oc(-c4ccccc4)cc(=O)c3c(O)c2O)[C@H](O)[C@@H](O)[C@H]1O
REMARK SMILES IDX 7 1 6 2 4 3 31 4 5 5 29 6 27 7 2 8 1 9 3 10 32 11 30 13
REMARK SMILES IDX 28 15 8 17 25 18 9 19 23 20 10 21 22 22 11 23 20 24 12 25
REMARK SMILES IDX 19 26 21 27 26 28 24 30 13 32 14 33 18 34 15 35 17 36 16 37
REMARK H PARENT 32 12 30 14 28 16 26 29 24 31
REMARK Flexibility Score: inf
ROOT
ATOM      1  O   UNL     1     -13.138   4.546 -24.629  1.00  0.00    -0.458 OA
ENDROOT
BRANCH   1   2
ATOM      2  C   UNL     1     -14.292   3.697 -24.703  1.00  0.00     0.339 C 
ATOM      3  C   UNL     1     -15.862   5.483 -24.515  1.00  0.00     0.199 C 
ATOM      4  C   UNL     1     -16.317   5.328 -25.988  1.00  0.00     0.180 C 
ATOM      5  O   UNL     1     -15.368   4.263 -23.963  1.00  0.00    -0.328 OA
ATOM      6  C   UNL     1     -15.197   4.692 -26.832  1.00  0.00     0.181 C 
ATOM      7  C   UNL     1     -14.708   3.400 -26.163  1.00  0.00     0.214 C 
BRANCH   3   8
ATOM      8  C   UNL     1     -14.919   6.637 -24.260  1.00  0.00     0.073 C 
ATOM      9  O   UNL     1     -14.633   7.462 -25.169  1.00  0.00    -0.547 OA
ATOM     10  O   UNL     1     -14.384   6.814 -22.991  1.00  0.00    -0.547 OA
ENDBRANCH   3   8
BRANCH   4  11
ATOM     11  O   UNL     1     -17.469   4.520 -26.017  1.00  0.00    -0.387 OA
ATOM     12  H   UNL     1     -17.806   4.525 -26.951  1.00  0.00     0.211 HD
ENDBRANCH   4  11
BRANCH   6  13
ATOM     13  O   UNL     1     -15.623   4.462 -28.155  1.00  0.00    -0.387 OA
ATOM     14  H   UNL     1     -15.613   5.328 -28.639  1.00  0.00     0.211 HD
ENDBRANCH   6  13
BRANCH   7  15
ATOM     15  O   UNL     1     -13.638   2.864 -26.896  1.00  0.00    -0.384 OA
ATOM     16  H   UNL     1     -14.032   2.404 -27.683  1.00  0.00     0.211 HD
ENDBRANCH   7  15
ENDBRANCH   1   2
BRANCH   1  17
ATOM     17  C   UNL     1     -11.972   4.261 -23.906  1.00  0.00     0.172 A 
ATOM     18  C   UNL     1     -11.981   4.059 -22.515  1.00  0.00     0.201 A 
ATOM     19  C   UNL     1     -10.771   4.200 -24.605  1.00  0.00     0.098 A 
ATOM     20  C   UNL     1     -10.790   3.728 -21.836  1.00  0.00     0.176 A 
ATOM     21  C   UNL     1      -9.573   3.920 -23.949  1.00  0.00     0.146 A 
ATOM     22  C   UNL     1      -9.555   3.697 -22.549  1.00  0.00     0.111 A 
ATOM     23  O   UNL     1      -8.454   3.875 -24.664  1.00  0.00    -0.456 OA
ATOM     24  C   UNL     1      -8.285   3.492 -21.954  1.00  0.00     0.197 A 
ATOM     25  C   UNL     1      -7.256   3.646 -24.136  1.00  0.00     0.138 A 
ATOM     26  C   UNL     1      -7.143   3.447 -22.754  1.00  0.00     0.100 A 
ATOM     27  O   UNL     1      -8.142   3.376 -20.709  1.00  0.00    -0.289 OA
BRANCH  18  28
ATOM     28  O   UNL     1     -13.176   4.202 -21.809  1.00  0.00    -0.502 OA
ATOM     29  H   UNL     1     -14.025   3.712 -22.065  1.00  0.00     0.293 HD
ENDBRANCH  18  28
BRANCH  20  30
ATOM     30  O   UNL     1     -10.897   3.424 -20.475  1.00  0.00    -0.504 OA
ATOM     31  H   UNL     1     -11.211   2.539 -20.106  1.00  0.00     0.293 HD
ENDBRANCH  20  30
BRANCH  25  32
ATOM     32  C   UNL     1      -6.076   3.606 -25.036  1.00  0.00     0.017 A 
ATOM     33  C   UNL     1      -6.036   2.666 -26.082  1.00  0.00     0.012 A 
ATOM     34  C   UNL     1      -5.001   4.507 -24.892  1.00  0.00     0.012 A 
ATOM     35  C   UNL     1      -4.939   2.613 -26.948  1.00  0.00     0.001 A 
ATOM     36  C   UNL     1      -3.908   4.450 -25.762  1.00  0.00     0.001 A 
ATOM     37  C   UNL     1      -3.875   3.503 -26.787  1.00  0.00     0.000 A 
ENDBRANCH  25  32
ENDBRANCH   1  17
TORSDOF 9
ENDMDL
MODEL 2
REMARK VINA RESULT:    -6.059     11.367     14.564
REMARK INTER + INTRA:          -9.585
REMARK INTER:                  -8.360
REMARK INTRA:                  -1.225
REMARK UNBOUND:                -1.223
REMARK SMILES O=C([O-])[C@@H]1O[C@H](Oc2cc3oc(-c4ccccc4)cc(=O)c3c(O)c2O)[C@H](O)[C@@H](O)[C@H]1O
REMARK SMILES IDX 7 1 6 2 4 3 31 4 5 5 29 6 27 7 2 8 1 9 3 10 32 11 30 13
REMARK SMILES IDX 28 15 8 17 25 18 9 19 23 20 10 21 22 22 11 23 20 24 12 25
REMARK SMILES IDX 19 26 21 27 26 28 24 30 13 32 14 33 18 34 15 35 17 36 16 37
REMARK H PARENT 32 12 30 14 28 16 26 29 24 31
REMARK Flexibility Score: inf
ROOT
ATOM      1  O   UNL     1     -10.370  14.669 -30.006  1.00  0.00    -0.458 OA
ENDROOT
BRANCH   1   2
ATOM      2  C   UNL     1      -9.650  13.854 -29.071  1.00  0.00     0.339 C 
ATOM      3  C   UNL     1     -10.718  11.823 -29.722  1.00  0.00     0.199 C 
ATOM      4  C   UNL     1      -9.426  11.274 -30.378  1.00  0.00     0.180 C 
ATOM      5  O   UNL     1     -10.448  12.745 -28.668  1.00  0.00    -0.328 OA
ATOM      6  C   UNL     1      -8.509  12.434 -30.810  1.00  0.00     0.181 C 
ATOM      7  C   UNL     1      -8.285  13.390 -29.630  1.00  0.00     0.214 C 
BRANCH   3   8
ATOM      8  C   UNL     1     -11.743  12.363 -30.694  1.00  0.00     0.073 C 
ATOM      9  O   UNL     1     -11.480  12.489 -31.920  1.00  0.00    -0.547 OA
ATOM     10  O   UNL     1     -13.011  12.693 -30.235  1.00  0.00    -0.547 OA
ENDBRANCH   3   8
BRANCH   4  11
ATOM     11  O   UNL     1      -8.766  10.452 -29.446  1.00  0.00    -0.387 OA
ATOM     12  H   UNL     1      -8.862  10.881 -28.556  1.00  0.00     0.211 HD
ENDBRANCH   4  11
BRANCH   6  13
ATOM     13  O   UNL     1      -7.290  11.955 -31.328  1.00  0.00    -0.387 OA
ATOM     14  H   UNL     1      -6.730  12.735 -31.578  1.00  0.00     0.211 HD
ENDBRANCH   6  13
BRANCH   7  15
ATOM     15  O   UNL     1      -7.510  14.483 -30.048  1.00  0.00    -0.384 OA
ATOM     16  H   UNL     1      -7.836  15.274 -29.544  1.00  0.00     0.211 HD
ENDBRANCH   7  15
ENDBRANCH   1   2
BRANCH   1  17
ATOM     17  C   UNL     1     -11.286  15.674 -29.661  1.00  0.00     0.172 A 
ATOM     18  C   UNL     1     -12.352  16.039 -30.503  1.00  0.00     0.201 A 
ATOM     19  C   UNL     1     -11.106  16.332 -28.449  1.00  0.00     0.098 A 
ATOM     20  C   UNL     1     -13.277  17.023 -30.094  1.00  0.00     0.176 A 
ATOM     21  C   UNL     1     -11.980  17.340 -28.045  1.00  0.00     0.146 A 
ATOM     22  C   UNL     1     -13.072  17.718 -28.866  1.00  0.00     0.111 A 
ATOM     23  O   UNL     1     -11.761  17.938 -26.879  1.00  0.00    -0.456 OA
ATOM     24  C   UNL     1     -13.865  18.801 -28.410  1.00  0.00     0.197 A 
ATOM     25  C   UNL     1     -12.513  18.929 -26.411  1.00  0.00     0.138 A 
ATOM     26  C   UNL     1     -13.594  19.388 -27.175  1.00  0.00     0.100 A 
ATOM     27  O   UNL     1     -14.801  19.279 -29.102  1.00  0.00    -0.289 OA
BRANCH  18  28
ATOM     28  O   UNL     1     -12.479  15.431 -31.752  1.00  0.00    -0.502 OA
ATOM     29  H   UNL     1     -13.325  15.487 -32.306  1.00  0.00     0.293 HD
ENDBRANCH  18  28
BRANCH  20  30
ATOM     30  O   UNL     1     -14.376  17.248 -30.928  1.00  0.00    -0.504 OA
ATOM     31  H   UNL     1     -15.256  16.759 -30.865  1.00  0.00     0.293 HD
ENDBRANCH  20  30
BRANCH  25  32
ATOM     32  C   UNL     1     -12.180  19.513 -25.087  1.00  0.00     0.017 A 
ATOM     33  C   UNL     1     -13.098  20.376 -24.462  1.00  0.00     0.012 A 
ATOM     34  C   UNL     1     -10.977  19.204 -24.421  1.00  0.00     0.012 A 
ATOM     35  C   UNL     1     -12.811  20.934 -23.211  1.00  0.00     0.001 A 
ATOM     36  C   UNL     1     -10.696  19.763 -23.169  1.00  0.00     0.001 A 
ATOM     37  C   UNL     1     -11.611  20.629 -22.567  1.00  0.00     0.000 A 
ENDBRANCH  25  32
ENDBRANCH   1  17
TORSDOF 9
ENDMDL
MODEL 3
REMARK VINA RESULT:    -5.900      3.785      9.212
REMARK INTER + INTRA:          -9.365
REMARK INTER:                  -8.033
REMARK INTRA:                  -1.331
REMARK UNBOUND:                -1.223
REMARK SMILES O=C([O-])[C@@H]1O[C@H](Oc2cc3oc(-c4ccccc4)cc(=O)c3c(O)c2O)[C@H](O)[C@@H](O)[C@H]1O
REMARK SMILES IDX 7 1 6 2 4 3 31 4 5 5 29 6 27 7 2 8 1 9 3 10 32 11 30 13
REMARK SMILES IDX 28 15 8 17 25 18 9 19 23 20 10 21 22 22 11 23 20 24 12 25
REMARK SMILES IDX 19 26 21 27 26 28 24 30 13 32 14 33 18 34 15 35 17 36 16 37
REMARK H PARENT 32 12 30 14 28 16 26 29 24 31
REMARK Flexibility Score: inf
ROOT
ATOM      1  O   UNL     1     -11.670   4.039 -23.011  1.00  0.00    -0.458 OA
ENDROOT
BRANCH   1   2
ATOM      2  C   UNL     1     -10.869   2.886 -23.303  1.00  0.00     0.339 C 
ATOM      3  C   UNL     1      -9.457   4.018 -24.857  1.00  0.00     0.199 C 
ATOM      4  C   UNL     1      -8.240   3.957 -23.899  1.00  0.00     0.180 C 
ATOM      5  O   UNL     1     -10.380   2.952 -24.639  1.00  0.00    -0.328 OA
ATOM      6  C   UNL     1      -8.712   3.856 -22.436  1.00  0.00     0.181 C 
ATOM      7  C   UNL     1      -9.715   2.703 -22.290  1.00  0.00     0.214 C 
BRANCH   3   8
ATOM      8  C   UNL     1     -10.151   5.359 -24.915  1.00  0.00     0.073 C 
ATOM      9  O   UNL     1      -9.675   6.370 -24.332  1.00  0.00    -0.547 OA
ATOM     10  O   UNL     1     -11.318   5.492 -25.657  1.00  0.00    -0.547 OA
ENDBRANCH   3   8
BRANCH   4  11
ATOM     11  O   UNL     1      -7.460   2.836 -24.238  1.00  0.00    -0.387 OA
ATOM     12  H   UNL     1      -6.508   3.099 -24.136  1.00  0.00     0.211 HD
ENDBRANCH   4  11
BRANCH   6  13
ATOM     13  O   UNL     1      -7.622   3.711 -21.557  1.00  0.00    -0.387 OA
ATOM     14  H   UNL     1      -7.120   2.896 -21.817  1.00  0.00     0.211 HD
ENDBRANCH   6  13
BRANCH   7  15
ATOM     15  O   UNL     1     -10.198   2.661 -20.973  1.00  0.00    -0.384 OA
ATOM     16  H   UNL     1     -10.011   3.550 -20.571  1.00  0.00     0.211 HD
ENDBRANCH   7  15
ENDBRANCH   1   2
BRANCH   1  17
ATOM     17  C   UNL     1     -13.067   4.043 -22.896  1.00  0.00     0.172 A 
ATOM     18  C   UNL     1     -13.912   3.801 -23.995  1.00  0.00     0.201 A 
ATOM     19  C   UNL     1     -13.618   4.317 -21.649  1.00  0.00     0.098 A 
ATOM     20  C   UNL     1     -15.311   3.768 -23.823  1.00  0.00     0.176 A 
ATOM     21  C   UNL     1     -14.999   4.336 -21.464  1.00  0.00     0.146 A 
ATOM     22  C   UNL     1     -15.874   4.080 -22.550  1.00  0.00     0.111 A 
ATOM     23  O   UNL     1     -15.473   4.605 -20.252  1.00  0.00    -0.456 OA
ATOM     24  C   UNL     1     -17.262   4.192 -22.288  1.00  0.00     0.197 A 
ATOM     25  C   UNL     1     -16.770   4.677 -19.972  1.00  0.00     0.138 A 
ATOM     26  C   UNL     1     -17.705   4.470 -20.995  1.00  0.00     0.100 A 
ATOM     27  O   UNL     1     -18.124   4.077 -23.198  1.00  0.00    -0.289 OA
BRANCH  18  28
ATOM     28  O   UNL     1     -13.353   3.607 -25.259  1.00  0.00    -0.502 OA
ATOM     29  H   UNL     1     -13.068   2.697 -25.598  1.00  0.00     0.293 HD
ENDBRANCH  18  28
BRANCH  20  30
ATOM     30  O   UNL     1     -16.080   3.403 -24.932  1.00  0.00    -0.504 OA
ATOM     31  H   UNL     1     -15.760   2.813 -25.686  1.00  0.00     0.293 HD
ENDBRANCH  20  30
BRANCH  25  32
ATOM     32  C   UNL     1     -17.183   4.973 -18.577  1.00  0.00     0.017 A 
ATOM     33  C   UNL     1     -16.221   4.946 -17.551  1.00  0.00     0.012 A 
ATOM     34  C   UNL     1     -18.512   5.310 -18.252  1.00  0.00     0.012 A 
ATOM     35  C   UNL     1     -16.582   5.228 -16.229  1.00  0.00     0.001 A 
ATOM     36  C   UNL     1     -18.868   5.593 -16.929  1.00  0.00     0.001 A 
ATOM     37  C   UNL     1     -17.905   5.550 -15.918  1.00  0.00     0.000 A 
ENDBRANCH  25  32
ENDBRANCH   1  17
TORSDOF 9
ENDMDL
MODEL 4
REMARK VINA RESULT:    -5.790     13.801     16.692
REMARK INTER + INTRA:          -9.213
REMARK INTER:                  -8.351
REMARK INTRA:                  -0.862
REMARK UNBOUND:                -1.223
REMARK SMILES O=C([O-])[C@@H]1O[C@H](Oc2cc3oc(-c4ccccc4)cc(=O)c3c(O)c2O)[C@H](O)[C@@H](O)[C@H]1O
REMARK SMILES IDX 7 1 6 2 4 3 31 4 5 5 29 6 27 7 2 8 1 9 3 10 32 11 30 13
REMARK SMILES IDX 28 15 8 17 25 18 9 19 23 20 10 21 22 22 11 23 20 24 12 25
REMARK SMILES IDX 19 26 21 27 26 28 24 30 13 32 14 33 18 34 15 35 17 36 16 37
REMARK H PARENT 32 12 30 14 28 16 26 29 24 31
REMARK Flexibility Score: inf
ROOT
ATOM      1  O   UNL     1      -7.300  18.777 -21.992  1.00  0.00    -0.458 OA
ENDROOT
BRANCH   1   2
ATOM      2  C   UNL     1      -6.678  17.504 -22.216  1.00  0.00     0.339 C 
ATOM      3  C   UNL     1      -4.538  18.191 -21.418  1.00  0.00     0.199 C 
ATOM      4  C   UNL     1      -4.653  17.310 -20.148  1.00  0.00     0.180 C 
ATOM      5  O   UNL     1      -5.296  17.677 -22.512  1.00  0.00    -0.328 OA
ATOM      6  C   UNL     1      -6.133  17.066 -19.796  1.00  0.00     0.181 C 
ATOM      7  C   UNL     1      -6.881  16.536 -21.027  1.00  0.00     0.214 C 
BRANCH   3   8
ATOM      8  C   UNL     1      -4.799  19.663 -21.195  1.00  0.00     0.073 C 
ATOM      9  O   UNL     1      -5.084  20.112 -20.052  1.00  0.00    -0.547 OA
ATOM     10  O   UNL     1      -4.689  20.545 -22.261  1.00  0.00    -0.547 OA
ENDBRANCH   3   8
BRANCH   4  11
ATOM     11  O   UNL     1      -4.002  16.087 -20.392  1.00  0.00    -0.387 OA
ATOM     12  H   UNL     1      -4.091  15.538 -19.569  1.00  0.00     0.211 HD
ENDBRANCH   4  11
BRANCH   6  13
ATOM     13  O   UNL     1      -6.259  16.196 -18.697  1.00  0.00    -0.387 OA
ATOM     14  H   UNL     1      -7.157  16.327 -18.298  1.00  0.00     0.211 HD
ENDBRANCH   6  13
BRANCH   7  15
ATOM     15  O   UNL     1      -8.243  16.386 -20.724  1.00  0.00    -0.384 OA
ATOM     16  H   UNL     1      -8.295  15.812 -19.915  1.00  0.00     0.211 HD
ENDBRANCH   7  15
ENDBRANCH   1   2
BRANCH   1  17
ATOM     17  C   UNL     1      -8.658  19.058 -22.200  1.00  0.00     0.172 A 
ATOM     18  C   UNL     1      -9.516  19.437 -21.152  1.00  0.00     0.201 A 
ATOM     19  C   UNL     1      -9.159  18.934 -23.492  1.00  0.00     0.098 A 
ATOM     20  C   UNL     1     -10.864  19.756 -21.416  1.00  0.00     0.176 A 
ATOM     21  C   UNL     1     -10.499  19.199 -23.769  1.00  0.00     0.146 A 
ATOM     22  C   UNL     1     -11.383  19.598 -22.735  1.00  0.00     0.111 A 
ATOM     23  O   UNL     1     -10.926  19.063 -25.020  1.00  0.00    -0.456 OA
ATOM     24  C   UNL     1     -12.742  19.775 -23.093  1.00  0.00     0.197 A 
ATOM     25  C   UNL     1     -12.187  19.262 -25.389  1.00  0.00     0.138 A 
ATOM     26  C   UNL     1     -13.134  19.626 -24.423  1.00  0.00     0.100 A 
ATOM     27  O   UNL     1     -13.628  20.038 -22.239  1.00  0.00    -0.289 OA
BRANCH  18  28
ATOM     28  O   UNL     1      -9.025  19.480 -19.846  1.00  0.00    -0.502 OA
ATOM     29  H   UNL     1      -8.299  20.124 -19.556  1.00  0.00     0.293 HD
ENDBRANCH  18  28
BRANCH  20  30
ATOM     30  O   UNL     1     -11.624  20.239 -20.346  1.00  0.00    -0.504 OA
ATOM     31  H   UNL     1     -12.603  20.478 -20.398  1.00  0.00     0.293 HD
ENDBRANCH  20  30
BRANCH  25  32
ATOM     32  C   UNL     1     -12.547  19.092 -26.820  1.00  0.00     0.017 A 
ATOM     33  C   UNL     1     -11.700  18.349 -27.662  1.00  0.00     0.012 A 
ATOM     34  C   UNL     1     -13.733  19.632 -27.356  1.00  0.00     0.012 A 
ATOM     35  C   UNL     1     -12.020  18.168 -29.012  1.00  0.00     0.001 A 
ATOM     36  C   UNL     1     -14.049  19.447 -28.706  1.00  0.00     0.001 A 
ATOM     37  C   UNL     1     -13.192  18.718 -29.534  1.00  0.00     0.000 A 
ENDBRANCH  25  32
ENDBRANCH   1  17
TORSDOF 9
ENDMDL
MODEL 5
REMARK VINA RESULT:    -5.786     14.030     16.586
REMARK INTER + INTRA:          -9.208
REMARK INTER:                  -7.880
REMARK INTRA:                  -1.328
REMARK UNBOUND:                -1.223
REMARK SMILES O=C([O-])[C@@H]1O[C@H](Oc2cc3oc(-c4ccccc4)cc(=O)c3c(O)c2O)[C@H](O)[C@@H](O)[C@H]1O
REMARK SMILES IDX 7 1 6 2 4 3 31 4 5 5 29 6 27 7 2 8 1 9 3 10 32 11 30 13
REMARK SMILES IDX 28 15 8 17 25 18 9 19 23 20 10 21 22 22 11 23 20 24 12 25
REMARK SMILES IDX 19 26 21 27 26 28 24 30 13 32 14 33 18 34 15 35 17 36 16 37
REMARK H PARENT 32 12 30 14 28 16 26 29 24 31
REMARK Flexibility Score: inf
ROOT
ATOM      1  O   UNL     1      -8.021  18.317 -21.583  1.00  0.00    -0.458 OA
ENDROOT
BRANCH   1   2
ATOM      2  C   UNL     1      -6.940  19.154 -21.146  1.00  0.00     0.339 C 
ATOM      3  C   UNL     1      -6.509  17.896 -19.166  1.00  0.00     0.199 C 
ATOM      4  C   UNL     1      -5.164  17.361 -19.718  1.00  0.00     0.180 C 
ATOM      5  O   UNL     1      -6.866  19.159 -19.725  1.00  0.00    -0.328 OA
ATOM      6  C   UNL     1      -5.177  17.358 -21.258  1.00  0.00     0.181 C 
ATOM      7  C   UNL     1      -5.589  18.742 -21.778  1.00  0.00     0.214 C 
BRANCH   3   8
ATOM      8  C   UNL     1      -7.655  16.912 -19.224  1.00  0.00     0.073 C 
ATOM      9  O   UNL     1      -7.521  15.781 -19.765  1.00  0.00    -0.547 OA
ATOM     10  O   UNL     1      -8.870  17.243 -18.638  1.00  0.00    -0.547 OA
ENDBRANCH   3   8
BRANCH   4  11
ATOM     11  O   UNL     1      -4.126  18.182 -19.240  1.00  0.00    -0.387 OA
ATOM     12  H   UNL     1      -3.604  18.483 -20.029  1.00  0.00     0.211 HD
ENDBRANCH   4  11
BRANCH   6  13
ATOM     13  O   UNL     1      -3.932  16.958 -21.778  1.00  0.00    -0.387 OA
ATOM     14  H   UNL     1      -3.264  17.658 -21.560  1.00  0.00     0.211 HD
ENDBRANCH   6  13
BRANCH   7  15
ATOM     15  O   UNL     1      -5.673  18.715 -23.179  1.00  0.00    -0.384 OA
ATOM     16  H   UNL     1      -5.632  17.760 -23.450  1.00  0.00     0.211 HD
ENDBRANCH   7  15
ENDBRANCH   1   2
BRANCH   1  17
ATOM     17  C   UNL     1      -9.273  18.777 -22.013  1.00  0.00     0.172 A 
ATOM     18  C   UNL     1     -10.188  19.393 -21.140  1.00  0.00     0.201 A 
ATOM     19  C   UNL     1      -9.612  18.591 -23.350  1.00  0.00     0.098 A 
ATOM     20  C   UNL     1     -11.417  19.883 -21.627  1.00  0.00     0.176 A 
ATOM     21  C   UNL     1     -10.841  19.024 -23.844  1.00  0.00     0.146 A 
ATOM     22  C   UNL     1     -11.776  19.662 -22.990  1.00  0.00     0.111 A 
ATOM     23  O   UNL     1     -11.116  18.819 -25.127  1.00  0.00    -0.456 OA
ATOM     24  C   UNL     1     -13.028  20.004 -23.560  1.00  0.00     0.197 A 
ATOM     25  C   UNL     1     -12.267  19.166 -25.695  1.00  0.00     0.138 A 
ATOM     26  C   UNL     1     -13.260  19.772 -24.915  1.00  0.00     0.100 A 
ATOM     27  O   UNL     1     -13.964  20.489 -22.872  1.00  0.00    -0.289 OA
BRANCH  18  28
ATOM     28  O   UNL     1      -9.874  19.503 -19.785  1.00  0.00    -0.502 OA
ATOM     29  H   UNL     1      -9.738  20.396 -19.325  1.00  0.00     0.293 HD
ENDBRANCH  18  28
BRANCH  20  30
ATOM     30  O   UNL     1     -12.222  20.589 -20.727  1.00  0.00    -0.504 OA
ATOM     31  H   UNL     1     -13.202  20.789 -20.866  1.00  0.00     0.293 HD
ENDBRANCH  20  30
BRANCH  25  32
ATOM     32  C   UNL     1     -12.457  18.898 -27.143  1.00  0.00     0.017 A 
ATOM     33  C   UNL     1     -13.607  19.384 -27.791  1.00  0.00     0.012 A 
ATOM     34  C   UNL     1     -11.499  18.193 -27.900  1.00  0.00     0.012 A 
ATOM     35  C   UNL     1     -13.806  19.152 -29.156  1.00  0.00     0.001 A 
ATOM     36  C   UNL     1     -11.702  17.966 -29.265  1.00  0.00     0.001 A 
ATOM     37  C   UNL     1     -12.855  18.442 -29.892  1.00  0.00     0.000 A 
ENDBRANCH  25  32
ENDBRANCH   1  17
TORSDOF 9
ENDMDL
MODEL 6
REMARK VINA RESULT:    -5.749     15.262     16.630
REMARK INTER + INTRA:          -9.157
REMARK INTER:                  -8.258
REMARK INTRA:                  -0.899
REMARK UNBOUND:                -1.223
REMARK SMILES O=C([O-])[C@@H]1O[C@H](Oc2cc3oc(-c4ccccc4)cc(=O)c3c(O)c2O)[C@H](O)[C@@H](O)[C@H]1O
REMARK SMILES IDX 7 1 6 2 4 3 31 4 5 5 29 6 27 7 2 8 1 9 3 10 32 11 30 13
REMARK SMILES IDX 28 15 8 17 25 18 9 19 23 20 10 21 22 22 11 23 20 24 12 25
REMARK SMILES IDX 19 26 21 27 26 28 24 30 13 32 14 33 18 34 15 35 17 36 16 37
REMARK H PARENT 32 12 30 14 28 16 26 29 24 31
REMARK Flexibility Score: inf
ROOT
ATOM      1  O   UNL     1     -17.456  19.217 -25.345  1.00  0.00    -0.458 OA
ENDROOT
BRANCH   1   2
ATOM      2  C   UNL     1     -18.439  18.723 -24.424  1.00  0.00     0.339 C 
ATOM      3  C   UNL     1     -20.005  20.469 -24.855  1.00  0.00     0.199 C 
ATOM      4  C   UNL     1     -20.981  19.508 -25.580  1.00  0.00     0.180 C 
ATOM      5  O   UNL     1     -19.196  19.802 -23.887  1.00  0.00    -0.328 OA
ATOM      6  C   UNL     1     -20.216  18.303 -26.159  1.00  0.00     0.181 C 
ATOM      7  C   UNL     1     -19.357  17.655 -25.064  1.00  0.00     0.214 C 
BRANCH   3   8
ATOM      8  C   UNL     1     -19.179  21.344 -25.770  1.00  0.00     0.073 C 
ATOM      9  O   UNL     1     -18.301  22.125 -25.315  1.00  0.00    -0.547 OA
ATOM     10  O   UNL     1     -19.365  21.261 -27.144  1.00  0.00    -0.547 OA
ENDBRANCH   3   8
BRANCH   4  11
ATOM     11  O   UNL     1     -21.949  19.073 -24.656  1.00  0.00    -0.387 OA
ATOM     12  H   UNL     1     -21.520  18.384 -24.084  1.00  0.00     0.211 HD
ENDBRANCH   4  11
BRANCH   6  13
ATOM     13  O   UNL     1     -21.097  17.374 -26.745  1.00  0.00    -0.387 OA
ATOM     14  H   UNL     1     -21.430  17.757 -27.597  1.00  0.00     0.211 HD
ENDBRANCH   6  13
BRANCH   7  15
ATOM     15  O   UNL     1     -18.606  16.604 -25.613  1.00  0.00    -0.384 OA
ATOM     16  H   UNL     1     -17.773  17.006 -25.975  1.00  0.00     0.211 HD
ENDBRANCH   7  15
ENDBRANCH   1   2
BRANCH   1  17
ATOM     17  C   UNL     1     -16.093  19.377 -25.061  1.00  0.00     0.172 A 
ATOM     18  C   UNL     1     -15.123  19.494 -26.073  1.00  0.00     0.201 A 
ATOM     19  C   UNL     1     -15.704  19.399 -23.726  1.00  0.00     0.098 A 
ATOM     20  C   UNL     1     -13.769  19.702 -25.740  1.00  0.00     0.176 A 
ATOM     21  C   UNL     1     -14.365  19.556 -23.373  1.00  0.00     0.146 A 
ATOM     22  C   UNL     1     -13.368  19.692 -24.372  1.00  0.00     0.111 A 
ATOM     23  O   UNL     1     -14.047  19.568 -22.083  1.00  0.00    -0.456 OA
ATOM     24  C   UNL     1     -12.026  19.773 -23.924  1.00  0.00     0.197 A 
ATOM     25  C   UNL     1     -12.800  19.683 -21.636  1.00  0.00     0.138 A 
ATOM     26  C   UNL     1     -11.750  19.789 -22.557  1.00  0.00     0.100 A 
ATOM     27  O   UNL     1     -11.056  19.803 -24.725  1.00  0.00    -0.289 OA
BRANCH  18  28
ATOM     28  O   UNL     1     -15.511  19.390 -27.409  1.00  0.00    -0.502 OA
ATOM     29  H   UNL     1     -15.947  18.558 -27.790  1.00  0.00     0.293 HD
ENDBRANCH  18  28
BRANCH  20  30
ATOM     30  O   UNL     1     -12.881  19.929 -26.797  1.00  0.00    -0.504 OA
ATOM     31  H   UNL     1     -13.030  19.627 -27.749  1.00  0.00     0.293 HD
ENDBRANCH  20  30
BRANCH  25  32
ATOM     32  C   UNL     1     -12.566  19.697 -20.170  1.00  0.00     0.017 A 
ATOM     33  C   UNL     1     -11.394  20.286 -19.663  1.00  0.00     0.012 A 
ATOM     34  C   UNL     1     -13.504  19.162 -19.263  1.00  0.00     0.012 A 
ATOM     35  C   UNL     1     -11.154  20.319 -18.285  1.00  0.00     0.001 A 
ATOM     36  C   UNL     1     -13.259  19.200 -17.887  1.00  0.00     0.001 A 
ATOM     37  C   UNL     1     -12.084  19.775 -17.398  1.00  0.00     0.000 A 
ENDBRANCH  25  32
ENDBRANCH   1  17
TORSDOF 9
ENDMDL
MODEL 7
REMARK VINA RESULT:    -5.732     11.582     14.656
REMARK INTER + INTRA:          -9.133
REMARK INTER:                  -7.907
REMARK INTRA:                  -1.226
REMARK UNBOUND:                -1.223
REMARK SMILES O=C([O-])[C@@H]1O[C@H](Oc2cc3oc(-c4ccccc4)cc(=O)c3c(O)c2O)[C@H](O)[C@@H](O)[C@H]1O
REMARK SMILES IDX 7 1 6 2 4 3 31 4 5 5 29 6 27 7 2 8 1 9 3 10 32 11 30 13
REMARK SMILES IDX 28 15 8 17 25 18 9 19 23 20 10 21 22 22 11 23 20 24 12 25
REMARK SMILES IDX 19 26 21 27 26 28 24 30 13 32 14 33 18 34 15 35 17 36 16 37
REMARK H PARENT 32 12 30 14 28 16 26 29 24 31
REMARK Flexibility Score: inf
ROOT
ATOM      1  O   UNL     1     -10.891  14.951 -29.314  1.00  0.00    -0.458 OA
ENDROOT
BRANCH   1   2
ATOM      2  C   UNL     1      -9.750  15.002 -30.183  1.00  0.00     0.339 C 
ATOM      3  C   UNL     1      -8.545  13.303 -29.021  1.00  0.00     0.199 C 
ATOM      4  C   UNL     1      -8.715  12.292 -30.183  1.00  0.00     0.180 C 
ATOM      5  O   UNL     1      -8.569  14.658 -29.465  1.00  0.00    -0.328 OA
ATOM      6  C   UNL     1      -9.967  12.633 -31.012  1.00  0.00     0.181 C 
ATOM      7  C   UNL     1      -9.928  14.109 -31.434  1.00  0.00     0.214 C 
BRANCH   3   8
ATOM      8  C   UNL     1      -9.470  13.080 -27.845  1.00  0.00     0.073 C 
ATOM      9  O   UNL     1     -10.378  12.207 -27.883  1.00  0.00    -0.547 OA
ATOM     10  O   UNL     1      -9.293  13.825 -26.687  1.00  0.00    -0.547 OA
ENDBRANCH   3   8
BRANCH   4  11
ATOM     11  O   UNL     1      -7.565  12.344 -30.992  1.00  0.00    -0.387 OA
ATOM     12  H   UNL     1      -6.806  12.012 -30.444  1.00  0.00     0.211 HD
ENDBRANCH   4  11
BRANCH   6  13
ATOM     13  O   UNL     1     -10.090  11.779 -32.125  1.00  0.00    -0.387 OA
ATOM     14  H   UNL     1     -10.588  12.262 -32.834  1.00  0.00     0.211 HD
ENDBRANCH   6  13
BRANCH   7  15
ATOM     15  O   UNL     1     -11.105  14.434 -32.125  1.00  0.00    -0.384 OA
ATOM     16  H   UNL     1     -10.861  14.514 -33.084  1.00  0.00     0.211 HD
ENDBRANCH   7  15
ENDBRANCH   1   2
BRANCH   1  17
ATOM     17  C   UNL     1     -11.587  16.068 -28.831  1.00  0.00     0.172 A 
ATOM     18  C   UNL     1     -12.536  16.755 -29.607  1.00  0.00     0.201 A 
ATOM     19  C   UNL     1     -11.299  16.508 -27.542  1.00  0.00     0.098 A 
ATOM     20  C   UNL     1     -13.247  17.845 -29.063  1.00  0.00     0.176 A 
ATOM     21  C   UNL     1     -11.954  17.612 -27.000  1.00  0.00     0.146 A 
ATOM     22  C   UNL     1     -12.928  18.314 -27.754  1.00  0.00     0.111 A 
ATOM     23  O   UNL     1     -11.641  17.991 -25.766  1.00  0.00    -0.456 OA
ATOM     24  C   UNL     1     -13.490  19.466 -27.151  1.00  0.00     0.197 A 
ATOM     25  C   UNL     1     -12.182  19.045 -25.163  1.00  0.00     0.138 A 
ATOM     26  C   UNL     1     -13.129  19.815 -25.850  1.00  0.00     0.100 A 
ATOM     27  O   UNL     1     -14.293  20.216 -27.765  1.00  0.00    -0.289 OA
BRANCH  18  28
ATOM     28  O   UNL     1     -12.760  16.358 -30.926  1.00  0.00    -0.502 OA
ATOM     29  H   UNL     1     -12.203  16.695 -31.702  1.00  0.00     0.293 HD
ENDBRANCH  18  28
BRANCH  20  30
ATOM     30  O   UNL     1     -14.259  18.403 -29.851  1.00  0.00    -0.504 OA
ATOM     31  H   UNL     1     -15.208  18.555 -29.545  1.00  0.00     0.293 HD
ENDBRANCH  20  30
BRANCH  25  32
ATOM     32  C   UNL     1     -11.763  19.366 -23.775  1.00  0.00     0.017 A 
ATOM     33  C   UNL     1     -10.434  19.123 -23.381  1.00  0.00     0.012 A 
ATOM     34  C   UNL     1     -12.653  19.938 -22.844  1.00  0.00     0.012 A 
ATOM     35  C   UNL     1     -10.013  19.424 -22.081  1.00  0.00     0.001 A 
ATOM     36  C   UNL     1     -12.225  20.239 -21.547  1.00  0.00     0.001 A 
ATOM     37  C   UNL     1     -10.908  19.980 -21.165  1.00  0.00     0.000 A 
ENDBRANCH  25  32
ENDBRANCH   1  17
TORSDOF 9
ENDMDL
MODEL 8
REMARK VINA RESULT:    -5.702      1.941      3.313
REMARK INTER + INTRA:          -9.093
REMARK INTER:                  -7.861
REMARK INTRA:                  -1.232
REMARK UNBOUND:                -1.223
REMARK SMILES O=C([O-])[C@@H]1O[C@H](Oc2cc3oc(-c4ccccc4)cc(=O)c3c(O)c2O)[C@H](O)[C@@H](O)[C@H]1O
REMARK SMILES IDX 7 1 6 2 4 3 31 4 5 5 29 6 27 7 2 8 1 9 3 10 32 11 30 13
REMARK SMILES IDX 28 15 8 17 25 18 9 19 23 20 10 21 22 22 11 23 20 24 12 25
REMARK SMILES IDX 19 26 21 27 26 28 24 30 13 32 14 33 18 34 15 35 17 36 16 37
REMARK H PARENT 32 12 30 14 28 16 26 29 24 31
REMARK Flexibility Score: inf
ROOT
ATOM      1  O   UNL     1     -12.578   3.946 -21.816  1.00  0.00    -0.458 OA
ENDROOT
BRANCH   1   2
ATOM      2  C   UNL     1     -13.265   5.100 -21.314  1.00  0.00     0.339 C 
ATOM      3  C   UNL     1     -14.409   5.550 -23.358  1.00  0.00     0.199 C 
ATOM      4  C   UNL     1     -15.779   5.137 -22.761  1.00  0.00     0.180 C 
ATOM      5  O   UNL     1     -13.502   6.029 -22.367  1.00  0.00    -0.328 OA
ATOM      6  C   UNL     1     -15.581   4.150 -21.595  1.00  0.00     0.181 C 
ATOM      7  C   UNL     1     -14.579   4.728 -20.586  1.00  0.00     0.214 C 
BRANCH   3   8
ATOM      8  C   UNL     1     -13.769   4.513 -24.252  1.00  0.00     0.073 C 
ATOM      9  O   UNL     1     -14.292   3.378 -24.419  1.00  0.00    -0.547 OA
ATOM     10  O   UNL     1     -12.600   4.827 -24.933  1.00  0.00    -0.547 OA
ENDBRANCH   3   8
BRANCH   4  11
ATOM     11  O   UNL     1     -16.438   6.296 -22.313  1.00  0.00    -0.387 OA
ATOM     12  H   UNL     1     -15.741   6.923 -21.986  1.00  0.00     0.211 HD
ENDBRANCH   4  11
BRANCH   6  13
ATOM     13  O   UNL     1     -16.809   3.832 -20.983  1.00  0.00    -0.387 OA
ATOM     14  H   UNL     1     -16.744   2.912 -20.617  1.00  0.00     0.211 HD
ENDBRANCH   6  13
BRANCH   7  15
ATOM     15  O   UNL     1     -14.346   3.795 -19.565  1.00  0.00    -0.384 OA
ATOM     16  H   UNL     1     -15.073   3.121 -19.620  1.00  0.00     0.211 HD
ENDBRANCH   7  15
ENDBRANCH   1   2
BRANCH   1  17
ATOM     17  C   UNL     1     -11.218   3.667 -21.618  1.00  0.00     0.172 A 
ATOM     18  C   UNL     1     -10.735   3.081 -20.434  1.00  0.00     0.201 A 
ATOM     19  C   UNL     1     -10.329   4.009 -22.632  1.00  0.00     0.098 A 
ATOM     20  C   UNL     1      -9.365   2.776 -20.298  1.00  0.00     0.176 A 
ATOM     21  C   UNL     1      -8.964   3.760 -22.501  1.00  0.00     0.146 A 
ATOM     22  C   UNL     1      -8.451   3.155 -21.326  1.00  0.00     0.111 A 
ATOM     23  O   UNL     1      -8.158   4.107 -23.499  1.00  0.00    -0.456 OA
ATOM     24  C   UNL     1      -7.044   3.007 -21.248  1.00  0.00     0.197 A 
ATOM     25  C   UNL     1      -6.839   3.943 -23.468  1.00  0.00     0.138 A 
ATOM     26  C   UNL     1      -6.246   3.382 -22.329  1.00  0.00     0.100 A 
ATOM     27  O   UNL     1      -6.475   2.568 -20.215  1.00  0.00    -0.289 OA
BRANCH  18  28
ATOM     28  O   UNL     1     -11.622   2.816 -19.390  1.00  0.00    -0.502 OA
ATOM     29  H   UNL     1     -11.372   2.935 -18.416  1.00  0.00     0.293 HD
ENDBRANCH  18  28
BRANCH  20  30
ATOM     30  O   UNL     1      -8.978   2.085 -19.145  1.00  0.00    -0.504 OA
ATOM     31  H   UNL     1      -8.250   1.387 -19.109  1.00  0.00     0.293 HD
ENDBRANCH  20  30
BRANCH  25  32
ATOM     32  C   UNL     1      -6.040   4.358 -24.648  1.00  0.00     0.017 A 
ATOM     33  C   UNL     1      -4.651   4.536 -24.515  1.00  0.00     0.012 A 
ATOM     34  C   UNL     1      -6.631   4.550 -25.914  1.00  0.00     0.012 A 
ATOM     35  C   UNL     1      -3.875   4.919 -25.613  1.00  0.00     0.001 A 
ATOM     36  C   UNL     1      -5.849   4.931 -27.009  1.00  0.00     0.001 A 
ATOM     37  C   UNL     1      -4.474   5.119 -26.859  1.00  0.00     0.000 A 
ENDBRANCH  25  32
ENDBRANCH   1  17
TORSDOF 9
ENDMDL
