MODEL 1
REMARK VINA RESULT:    -2.822      0.000      0.000
REMARK INTER + INTRA:          -4.154
REMARK INTER:                  -3.977
REMARK INTRA:                  -0.177
REMARK UNBOUND:                -0.177
REMARK SMILES CC1=CCC(=C(C)C)C(=O)CC(C)=CCC1
REMARK SMILES IDX 12 1 14 2 13 3 15 4 16 5 2 6 1 7 3 8 11 10 9 11 10 12 5 13
REMARK SMILES IDX 6 14 7 15 8 16 4 17
REMARK H PARENT
REMARK Flexibility Score: 60.00
ROOT
ATOM      1  C   UNL     1      75.679  71.746  22.063  1.00  0.00    -0.070 C 
ATOM      2  C   UNL     1      76.231  72.770  21.373  1.00  0.00    -0.027 C 
ATOM      3  C   UNL     1      76.596  70.679  22.606  1.00  0.00     0.039 C 
ENDROOT
BRANCH   2   4
ATOM      4  C   UNL     1      75.457  73.835  20.640  1.00  0.00     0.032 C 
BRANCH   4   5
ATOM      5  C   UNL     1      75.435  75.125  21.468  1.00  0.00     0.034 C 
BRANCH   5   6
ATOM      6  C   UNL     1      74.094  75.829  21.409  1.00  0.00    -0.077 C 
ATOM      7  C   UNL     1      73.792  76.711  20.223  1.00  0.00     0.039 C 
ATOM      8  C   UNL     1      73.113  75.656  22.332  1.00  0.00    -0.023 CG0
ATOM      9  G   UNL     1      73.197  74.873  23.629  1.00  0.00     0.000 G0
ENDBRANCH   5   6
ENDBRANCH   4   5
ENDBRANCH   2   4
BRANCH   1  10
ATOM     10  C   UNL     1      74.192  71.627  22.332  1.00  0.00     0.111 C 
BRANCH  10  11
ATOM     11  C   UNL     1      73.786  72.360  23.587  1.00  0.00     0.163 C 
ATOM     12  O   UNL     1      74.395  72.060  24.650  1.00  0.00    -0.294 OA
BRANCH  11  13
ATOM     13  C   UNL     1      72.728  73.424  23.628  1.00  0.00    -0.002 C 
ATOM     14  C   UNL     1      71.412  73.090  23.803  1.00  0.00    -0.069 C 
ATOM     15  C   UNL     1      70.936  71.660  23.678  1.00  0.00     0.039 C 
ATOM     16  C   UNL     1      70.351  74.131  24.080  1.00  0.00     0.039 C 
BRANCH  13  17
ATOM     17  C   UNL     1      73.182  74.880  23.651  1.00  0.00     0.066 CG0
ATOM     18  G   UNL     1      73.124  75.628  22.332  1.00  0.00     0.000 G0
ENDBRANCH  13  17
ENDBRANCH  11  13
ENDBRANCH  10  11
ENDBRANCH   1  10
TORSDOF 0
ENDMDL
MODEL 2
REMARK VINA RESULT:    -2.684      1.686      4.084
REMARK INTER + INTRA:          -3.959
REMARK INTER:                  -3.783
REMARK INTRA:                  -0.176
REMARK UNBOUND:                -0.177
REMARK SMILES CC1=CCC(=C(C)C)C(=O)CC(C)=CCC1
REMARK SMILES IDX 12 1 14 2 13 3 15 4 16 5 2 6 1 7 3 8 11 10 9 11 10 12 5 13
REMARK SMILES IDX 6 14 7 15 8 16 4 17
REMARK H PARENT
REMARK Flexibility Score: 60.00
ROOT
ATOM      1  C   UNL     1      72.429  73.900  24.153  1.00  0.00    -0.070 C 
ATOM      2  C   UNL     1      72.169  75.021  23.443  1.00  0.00    -0.027 C 
ATOM      3  C   UNL     1      71.329  73.334  25.016  1.00  0.00     0.039 C 
ENDROOT
BRANCH   2   4
ATOM      4  C   UNL     1      73.189  75.799  22.652  1.00  0.00     0.032 C 
BRANCH   4   5
ATOM      5  C   UNL     1      73.041  75.484  21.160  1.00  0.00     0.034 C 
BRANCH   5   6
ATOM      6  C   UNL     1      74.378  75.346  20.460  1.00  0.00    -0.077 C 
ATOM      7  C   UNL     1      75.094  76.597  20.014  1.00  0.00     0.039 C 
ATOM      8  C   UNL     1      75.009  74.159  20.274  1.00  0.00    -0.023 CG0
ATOM      9  G   UNL     1      74.474  72.772  20.581  1.00  0.00     0.000 G0
ENDBRANCH   5   6
ENDBRANCH   4   5
ENDBRANCH   2   4
BRANCH   1  10
ATOM     10  C   UNL     1      73.760  73.176  24.111  1.00  0.00     0.111 C 
BRANCH  10  11
ATOM     11  C   UNL     1      73.813  72.158  22.998  1.00  0.00     0.163 C 
ATOM     12  O   UNL     1      72.907  71.282  22.977  1.00  0.00    -0.294 OA
BRANCH  11  13
ATOM     13  C   UNL     1      74.860  72.152  21.921  1.00  0.00    -0.002 C 
ATOM     14  C   UNL     1      76.043  71.490  22.106  1.00  0.00    -0.069 C 
ATOM     15  C   UNL     1      76.465  70.989  23.469  1.00  0.00     0.039 C 
ATOM     16  C   UNL     1      77.019  71.264  20.973  1.00  0.00     0.039 C 
BRANCH  13  17
ATOM     17  C   UNL     1      74.490  72.747  20.566  1.00  0.00     0.066 CG0
ATOM     18  G   UNL     1      74.995  74.149  20.282  1.00  0.00     0.000 G0
ENDBRANCH  13  17
ENDBRANCH  11  13
ENDBRANCH  10  11
ENDBRANCH   1  10
TORSDOF 0
ENDMDL
MODEL 3
REMARK VINA RESULT:    -2.647     12.053     13.885
REMARK INTER + INTRA:          -3.908
REMARK INTER:                  -5.856
REMARK INTRA:                   1.948
REMARK UNBOUND:                -0.177
REMARK SMILES CC1=CCC(=C(C)C)C(=O)CC(C)=CCC1
REMARK SMILES IDX 12 1 14 2 13 3 15 4 16 5 2 6 1 7 3 8 11 10 9 11 10 12 5 13
REMARK SMILES IDX 6 14 7 15 8 16 4 17
REMARK H PARENT
REMARK Flexibility Score: 60.00
ROOT
ATOM      1  C   UNL     1      72.604  61.622  28.182  1.00  0.00    -0.070 C 
ATOM      2  C   UNL     1      72.748  62.698  27.375  1.00  0.00    -0.027 C 
ATOM      3  C   UNL     1      73.826  60.794  28.490  1.00  0.00     0.039 C 
ENDROOT
BRANCH   2   4
ATOM      4  C   UNL     1      71.616  63.541  26.849  1.00  0.00     0.032 C 
BRANCH   4   5
ATOM      5  C   UNL     1      70.499  62.638  26.314  1.00  0.00     0.034 C 
BRANCH   5   6
ATOM      6  C   UNL     1      70.917  61.868  25.078  1.00  0.00    -0.077 C 
ATOM      7  C   UNL     1      71.775  62.562  24.049  1.00  0.00     0.039 C 
ATOM      8  C   UNL     1      70.624  60.558  24.874  1.00  0.00    -0.023 CG0
ATOM      9  G   UNL     1      69.739  59.669  25.726  1.00  0.00     0.000 G0
ENDBRANCH   5   6
ENDBRANCH   4   5
ENDBRANCH   2   4
BRANCH   1  10
ATOM     10  C   UNL     1      71.283  61.219  28.806  1.00  0.00     0.111 C 
BRANCH  10  11
ATOM     11  C   UNL     1      70.678  60.018  28.121  1.00  0.00     0.163 C 
ATOM     12  O   UNL     1      71.181  58.893  28.385  1.00  0.00    -0.294 OA
BRANCH  11  13
ATOM     13  C   UNL     1      69.514  60.094  27.175  1.00  0.00    -0.002 C 
ATOM     14  C   UNL     1      68.344  60.691  27.559  1.00  0.00    -0.069 C 
ATOM     15  C   UNL     1      68.070  61.037  29.006  1.00  0.00     0.039 C 
ATOM     16  C   UNL     1      67.238  60.994  26.574  1.00  0.00     0.039 C 
BRANCH  13  17
ATOM     17  C   UNL     1      69.739  59.653  25.732  1.00  0.00     0.066 CG0
ATOM     18  G   UNL     1      70.621  60.547  24.881  1.00  0.00     0.000 G0
ENDBRANCH  13  17
ENDBRANCH  11  13
ENDBRANCH  10  11
ENDBRANCH   1  10
TORSDOF 0
ENDMDL
MODEL 4
REMARK VINA RESULT:    -2.611      1.659      4.190
REMARK INTER + INTRA:          -3.856
REMARK INTER:                  -4.068
REMARK INTRA:                   0.211
REMARK UNBOUND:                -0.177
REMARK SMILES CC1=CCC(=C(C)C)C(=O)CC(C)=CCC1
REMARK SMILES IDX 12 1 14 2 13 3 15 4 16 5 2 6 1 7 3 8 11 10 9 11 10 12 5 13
REMARK SMILES IDX 6 14 7 15 8 16 4 17
REMARK H PARENT
REMARK Flexibility Score: 60.00
ROOT
ATOM      1  C   UNL     1      74.324  72.833  24.661  1.00  0.00    -0.070 C 
ATOM      2  C   UNL     1      73.069  72.573  25.093  1.00  0.00    -0.027 C 
ATOM      3  C   UNL     1      74.988  74.104  25.127  1.00  0.00     0.039 C 
ENDROOT
BRANCH   2   4
ATOM      4  C   UNL     1      72.208  71.433  24.612  1.00  0.00     0.032 C 
BRANCH   4   5
ATOM      5  C   UNL     1      71.297  71.912  23.476  1.00  0.00     0.034 C 
BRANCH   5   6
ATOM      6  C   UNL     1      71.237  73.423  23.379  1.00  0.00    -0.077 C 
ATOM      7  C   UNL     1      70.374  74.177  24.362  1.00  0.00     0.039 C 
ATOM      8  C   UNL     1      71.973  74.150  22.501  1.00  0.00    -0.023 CG0
ATOM      9  G   UNL     1      72.862  73.625  21.389  1.00  0.00     0.000 G0
ENDBRANCH   5   6
ENDBRANCH   4   5
ENDBRANCH   2   4
BRANCH   1  10
ATOM     10  C   UNL     1      75.101  71.904  23.749  1.00  0.00     0.111 C 
BRANCH  10  11
ATOM     11  C   UNL     1      74.736  72.102  22.298  1.00  0.00     0.163 C 
ATOM     12  O   UNL     1      74.757  71.082  21.557  1.00  0.00    -0.294 OA
BRANCH  11  13
ATOM     13  C   UNL     1      74.334  73.424  21.710  1.00  0.00    -0.002 C 
ATOM     14  C   UNL     1      75.284  74.339  21.344  1.00  0.00    -0.069 C 
ATOM     15  C   UNL     1      76.729  74.191  21.767  1.00  0.00     0.039 C 
ATOM     16  C   UNL     1      74.939  75.573  20.543  1.00  0.00     0.039 C 
BRANCH  13  17
ATOM     17  C   UNL     1      72.863  73.634  21.370  1.00  0.00     0.066 CG0
ATOM     18  G   UNL     1      71.975  74.144  22.490  1.00  0.00     0.000 G0
ENDBRANCH  13  17
ENDBRANCH  11  13
ENDBRANCH  10  11
ENDBRANCH   1  10
TORSDOF 0
ENDMDL
MODEL 5
REMARK VINA RESULT:    -2.585      1.838      3.892
REMARK INTER + INTRA:          -3.820
REMARK INTER:                  -3.786
REMARK INTRA:                  -0.034
REMARK UNBOUND:                -0.177
REMARK SMILES CC1=CCC(=C(C)C)C(=O)CC(C)=CCC1
REMARK SMILES IDX 12 1 14 2 13 3 15 4 16 5 2 6 1 7 3 8 11 10 9 11 10 12 5 13
REMARK SMILES IDX 6 14 7 15 8 16 4 17
REMARK H PARENT
REMARK Flexibility Score: 60.00
ROOT
ATOM      1  C   UNL     1      76.648  71.863  22.069  1.00  0.00    -0.070 C 
ATOM      2  C   UNL     1      76.210  71.224  23.178  1.00  0.00    -0.027 C 
ATOM      3  C   UNL     1      77.359  71.052  21.016  1.00  0.00     0.039 C 
ENDROOT
BRANCH   2   4
ATOM      4  C   UNL     1      75.616  71.900  24.387  1.00  0.00     0.032 C 
BRANCH   4   5
ATOM      5  C   UNL     1      74.116  72.132  24.169  1.00  0.00     0.034 C 
BRANCH   5   6
ATOM      6  C   UNL     1      73.666  73.499  24.645  1.00  0.00    -0.077 C 
ATOM      7  C   UNL     1      73.762  73.821  26.116  1.00  0.00     0.039 C 
ATOM      8  C   UNL     1      73.246  74.484  23.810  1.00  0.00    -0.023 CG0
ATOM      9  G   UNL     1      73.012  74.387  22.314  1.00  0.00     0.000 G0
ENDBRANCH   5   6
ENDBRANCH   4   5
ENDBRANCH   2   4
BRANCH   1  10
ATOM     10  C   UNL     1      76.443  73.345  21.825  1.00  0.00     0.111 C 
BRANCH  10  11
ATOM     11  C   UNL     1      75.166  73.621  21.069  1.00  0.00     0.163 C 
ATOM     12  O   UNL     1      74.896  72.858  20.101  1.00  0.00    -0.294 OA
BRANCH  11  13
ATOM     13  C   UNL     1      74.209  74.723  21.419  1.00  0.00    -0.002 C 
ATOM     14  C   UNL     1      74.316  75.951  20.825  1.00  0.00    -0.069 C 
ATOM     15  C   UNL     1      75.540  76.340  20.027  1.00  0.00     0.039 C 
ATOM     16  C   UNL     1      73.244  77.008  20.973  1.00  0.00     0.039 C 
BRANCH  13  17
ATOM     17  C   UNL     1      73.020  74.377  22.310  1.00  0.00     0.066 CG0
ATOM     18  G   UNL     1      73.239  74.496  23.807  1.00  0.00     0.000 G0
ENDBRANCH  13  17
ENDBRANCH  11  13
ENDBRANCH  10  11
ENDBRANCH   1  10
TORSDOF 0
ENDMDL
MODEL 6
REMARK VINA RESULT:    -2.546      2.059      4.230
REMARK INTER + INTRA:          -3.765
REMARK INTER:                  -3.673
REMARK INTRA:                  -0.092
REMARK UNBOUND:                -0.177
REMARK SMILES CC1=CCC(=C(C)C)C(=O)CC(C)=CCC1
REMARK SMILES IDX 12 1 14 2 13 3 15 4 16 5 2 6 1 7 3 8 11 10 9 11 10 12 5 13
REMARK SMILES IDX 6 14 7 15 8 16 4 17
REMARK H PARENT
REMARK Flexibility Score: 60.00
ROOT
ATOM      1  C   UNL     1      71.627  73.373  24.343  1.00  0.00    -0.070 C 
ATOM      2  C   UNL     1      71.284  73.708  23.078  1.00  0.00    -0.027 C 
ATOM      3  C   UNL     1      70.593  72.688  25.201  1.00  0.00     0.039 C 
ENDROOT
BRANCH   2   4
ATOM      4  C   UNL     1      72.137  74.523  22.140  1.00  0.00     0.032 C 
BRANCH   4   5
ATOM      5  C   UNL     1      72.848  73.597  21.146  1.00  0.00     0.034 C 
BRANCH   5   6
ATOM      6  C   UNL     1      74.324  73.916  21.011  1.00  0.00    -0.077 C 
ATOM      7  C   UNL     1      74.738  75.046  20.100  1.00  0.00     0.039 C 
ATOM      8  C   UNL     1      75.297  73.289  21.719  1.00  0.00    -0.023 CG0
ATOM      9  G   UNL     1      75.139  72.097  22.645  1.00  0.00     0.000 G0
ENDBRANCH   5   6
ENDBRANCH   4   5
ENDBRANCH   2   4
BRANCH   1  10
ATOM     10  C   UNL     1      72.999  73.632  24.933  1.00  0.00     0.111 C 
BRANCH  10  11
ATOM     11  C   UNL     1      73.874  72.404  24.887  1.00  0.00     0.163 C 
ATOM     12  O   UNL     1      73.458  71.380  25.494  1.00  0.00    -0.294 OA
BRANCH  11  13
ATOM     13  C   UNL     1      75.180  72.335  24.149  1.00  0.00    -0.002 C 
ATOM     14  C   UNL     1      76.365  72.346  24.833  1.00  0.00    -0.069 C 
ATOM     15  C   UNL     1      76.429  72.709  26.300  1.00  0.00     0.039 C 
ATOM     16  C   UNL     1      77.683  72.048  24.155  1.00  0.00     0.039 C 
BRANCH  13  17
ATOM     17  C   UNL     1      75.136  72.073  22.647  1.00  0.00     0.066 CG0
ATOM     18  G   UNL     1      75.290  73.282  21.744  1.00  0.00     0.000 G0
ENDBRANCH  13  17
ENDBRANCH  11  13
ENDBRANCH  10  11
ENDBRANCH   1  10
TORSDOF 0
ENDMDL
MODEL 7
REMARK VINA RESULT:    -2.377      1.931      3.646
REMARK INTER + INTRA:          -3.527
REMARK INTER:                  -3.645
REMARK INTRA:                   0.118
REMARK UNBOUND:                -0.177
REMARK SMILES CC1=CCC(=C(C)C)C(=O)CC(C)=CCC1
REMARK SMILES IDX 12 1 14 2 13 3 15 4 16 5 2 6 1 7 3 8 11 10 9 11 10 12 5 13
REMARK SMILES IDX 6 14 7 15 8 16 4 17
REMARK H PARENT
REMARK Flexibility Score: 60.00
ROOT
ATOM      1  C   UNL     1      73.943  75.803  23.738  1.00  0.00    -0.070 C 
ATOM      2  C   UNL     1      75.269  75.537  23.755  1.00  0.00    -0.027 C 
ATOM      3  C   UNL     1      73.302  76.308  25.006  1.00  0.00     0.039 C 
ENDROOT
BRANCH   2   4
ATOM      4  C   UNL     1      76.036  74.891  22.630  1.00  0.00     0.032 C 
BRANCH   4   5
ATOM      5  C   UNL     1      76.311  73.421  22.965  1.00  0.00     0.034 C 
BRANCH   5   6
ATOM      6  C   UNL     1      75.432  72.472  22.175  1.00  0.00    -0.077 C 
ATOM      7  C   UNL     1      75.949  71.928  20.866  1.00  0.00     0.039 C 
ATOM      8  C   UNL     1      74.228  72.023  22.612  1.00  0.00    -0.023 CG0
ATOM      9  G   UNL     1      73.477  72.462  23.855  1.00  0.00     0.000 G0
ENDBRANCH   5   6
ENDBRANCH   4   5
ENDBRANCH   2   4
BRANCH   1  10
ATOM     10  C   UNL     1      73.075  75.638  22.506  1.00  0.00     0.111 C 
BRANCH  10  11
ATOM     11  C   UNL     1      72.313  74.335  22.524  1.00  0.00     0.163 C 
ATOM     12  O   UNL     1      71.679  74.027  21.478  1.00  0.00    -0.294 OA
BRANCH  11  13
ATOM     13  C   UNL     1      72.292  73.395  23.694  1.00  0.00    -0.002 C 
ATOM     14  C   UNL     1      71.172  73.279  24.472  1.00  0.00    -0.069 C 
ATOM     15  C   UNL     1      70.034  74.271  24.373  1.00  0.00     0.039 C 
ATOM     16  C   UNL     1      71.026  72.187  25.508  1.00  0.00     0.039 C 
BRANCH  13  17
ATOM     17  C   UNL     1      73.479  72.454  23.873  1.00  0.00     0.066 CG0
ATOM     18  G   UNL     1      74.216  72.046  22.611  1.00  0.00     0.000 G0
ENDBRANCH  13  17
ENDBRANCH  11  13
ENDBRANCH  10  11
ENDBRANCH   1  10
TORSDOF 0
ENDMDL
MODEL 8
REMARK VINA RESULT:    -2.315      1.840      4.185
REMARK INTER + INTRA:          -3.440
REMARK INTER:                  -3.507
REMARK INTRA:                   0.067
REMARK UNBOUND:                -0.177
REMARK SMILES CC1=CCC(=C(C)C)C(=O)CC(C)=CCC1
REMARK SMILES IDX 12 1 14 2 13 3 15 4 16 5 2 6 1 7 3 8 11 10 9 11 10 12 5 13
REMARK SMILES IDX 6 14 7 15 8 16 4 17
REMARK H PARENT
REMARK Flexibility Score: 60.00
ROOT
ATOM      1  C   UNL     1      74.496  72.609  21.551  1.00  0.00    -0.070 C 
ATOM      2  C   UNL     1      74.002  71.770  22.489  1.00  0.00    -0.027 C 
ATOM      3  C   UNL     1      75.959  72.503  21.202  1.00  0.00     0.039 C 
ENDROOT
BRANCH   2   4
ATOM      4  C   UNL     1      72.609  71.837  23.061  1.00  0.00     0.032 C 
BRANCH   4   5
ATOM      5  C   UNL     1      72.649  72.479  24.453  1.00  0.00     0.034 C 
BRANCH   5   6
ATOM      6  C   UNL     1      72.073  73.881  24.461  1.00  0.00    -0.077 C 
ATOM      7  C   UNL     1      70.597  74.055  24.719  1.00  0.00     0.039 C 
ATOM      8  C   UNL     1      72.825  75.002  24.321  1.00  0.00    -0.023 CG0
ATOM      9  G   UNL     1      74.305  75.085  23.999  1.00  0.00     0.000 G0
ENDBRANCH   5   6
ENDBRANCH   4   5
ENDBRANCH   2   4
BRANCH   1  10
ATOM     10  C   UNL     1      73.652  73.635  20.821  1.00  0.00     0.111 C 
BRANCH  10  11
ATOM     11  C   UNL     1      73.701  74.986  21.491  1.00  0.00     0.163 C 
ATOM     12  O   UNL     1      72.835  75.832  21.140  1.00  0.00    -0.294 OA
BRANCH  11  13
ATOM     13  C   UNL     1      74.698  75.357  22.551  1.00  0.00    -0.002 C 
ATOM     14  C   UNL     1      75.832  76.052  22.225  1.00  0.00    -0.069 C 
ATOM     15  C   UNL     1      76.269  76.223  20.788  1.00  0.00     0.039 C 
ATOM     16  C   UNL     1      76.739  76.643  23.280  1.00  0.00     0.039 C 
BRANCH  13  17
ATOM     17  C   UNL     1      74.321  75.098  24.005  1.00  0.00     0.066 CG0
ATOM     18  G   UNL     1      72.837  75.016  24.315  1.00  0.00     0.000 G0
ENDBRANCH  13  17
ENDBRANCH  11  13
ENDBRANCH  10  11
ENDBRANCH   1  10
TORSDOF 0
ENDMDL
MODEL 9
REMARK VINA RESULT:    -2.230      1.963      3.893
REMARK INTER + INTRA:          -3.320
REMARK INTER:                  -3.521
REMARK INTRA:                   0.201
REMARK UNBOUND:                -0.177
REMARK SMILES CC1=CCC(=C(C)C)C(=O)CC(C)=CCC1
REMARK SMILES IDX 12 1 14 2 13 3 15 4 16 5 2 6 1 7 3 8 11 10 9 11 10 12 5 13
REMARK SMILES IDX 6 14 7 15 8 16 4 17
REMARK H PARENT
REMARK Flexibility Score: 60.00
ROOT
ATOM      1  C   UNL     1      73.707  71.944  23.604  1.00  0.00    -0.070 C 
ATOM      2  C   UNL     1      73.796  72.185  24.932  1.00  0.00    -0.027 C 
ATOM      3  C   UNL     1      74.968  71.575  22.863  1.00  0.00     0.039 C 
ENDROOT
BRANCH   2   4
ATOM      4  C   UNL     1      72.673  72.706  25.792  1.00  0.00     0.032 C 
BRANCH   4   5
ATOM      5  C   UNL     1      72.766  74.232  25.900  1.00  0.00     0.034 C 
BRANCH   5   6
ATOM      6  C   UNL     1      74.112  74.765  25.454  1.00  0.00    -0.077 C 
ATOM      7  C   UNL     1      75.286  74.642  26.394  1.00  0.00     0.039 C 
ATOM      8  C   UNL     1      74.344  75.284  24.221  1.00  0.00    -0.023 CG0
ATOM      9  G   UNL     1      73.324  75.562  23.132  1.00  0.00     0.000 G0
ENDBRANCH   5   6
ENDBRANCH   4   5
ENDBRANCH   2   4
BRANCH   1  10
ATOM     10  C   UNL     1      72.406  72.009  22.829  1.00  0.00     0.111 C 
BRANCH  10  11
ATOM     11  C   UNL     1      72.073  73.417  22.402  1.00  0.00     0.163 C 
ATOM     12  O   UNL     1      70.851  73.719  22.321  1.00  0.00    -0.294 OA
BRANCH  11  13
ATOM     13  C   UNL     1      73.105  74.464  22.095  1.00  0.00    -0.002 C 
ATOM     14  C   UNL     1      73.703  74.511  20.865  1.00  0.00    -0.069 C 
ATOM     15  C   UNL     1      73.572  73.373  19.878  1.00  0.00     0.039 C 
ATOM     16  C   UNL     1      74.567  75.676  20.439  1.00  0.00     0.039 C 
BRANCH  13  17
ATOM     17  C   UNL     1      73.328  75.567  23.125  1.00  0.00     0.066 CG0
ATOM     18  G   UNL     1      74.342  75.279  24.216  1.00  0.00     0.000 G0
ENDBRANCH  13  17
ENDBRANCH  11  13
ENDBRANCH  10  11
ENDBRANCH   1  10
TORSDOF 0
ENDMDL
