MODEL 1
REMARK VINA RESULT:    -5.147      0.000      0.000
REMARK INTER + INTRA:          -8.876
REMARK INTER:                  -7.856
REMARK INTRA:                  -1.021
REMARK UNBOUND:                -1.021
REMARK SMILES O=C([O-])CCCCCCCCC(=O)[O-]
REMARK SMILES IDX 7 1 6 2 5 3 4 4 2 5 1 6 3 7 8 8 9 9 10 10 11 11 12 12 13 13
REMARK SMILES IDX 14 14
REMARK H PARENT
REMARK Flexibility Score: inf
ROOT
ATOM      1  C   UNL     1     -15.323  -0.480 -19.355  1.00  0.00     0.000 C 
ENDROOT
BRANCH   1   2
ATOM      2  C   UNL     1     -15.287   0.682 -20.354  1.00  0.00     0.000 C 
BRANCH   2   3
ATOM      3  C   UNL     1     -14.583   1.904 -19.754  1.00  0.00     0.006 C 
BRANCH   3   4
ATOM      4  C   UNL     1     -13.757   1.513 -18.524  1.00  0.00     0.053 C 
BRANCH   4   5
ATOM      5  C   UNL     1     -13.378   2.729 -17.739  1.00  0.00     0.041 C 
ATOM      6  O   UNL     1     -12.881   3.729 -18.320  1.00  0.00    -0.550 OA
ATOM      7  O   UNL     1     -13.528   2.739 -16.358  1.00  0.00    -0.550 OA
ENDBRANCH   4   5
ENDBRANCH   3   4
ENDBRANCH   2   3
ENDBRANCH   1   2
BRANCH   1   8
ATOM      8  C   UNL     1     -16.744  -1.039 -19.210  1.00  0.00     0.000 C 
BRANCH   8   9
ATOM      9  C   UNL     1     -17.775   0.095 -19.123  1.00  0.00     0.000 C 
BRANCH   9  10
ATOM     10  C   UNL     1     -18.145   0.449 -17.674  1.00  0.00     0.006 C 
BRANCH  10  11
ATOM     11  C   UNL     1     -17.165   1.445 -17.041  1.00  0.00     0.053 C 
BRANCH  11  12
ATOM     12  C   UNL     1     -16.528   0.849 -15.825  1.00  0.00     0.041 C 
ATOM     13  O   UNL     1     -16.293  -0.387 -15.775  1.00  0.00    -0.550 OA
ATOM     14  O   UNL     1     -16.239   1.649 -14.728  1.00  0.00    -0.550 OA
ENDBRANCH  11  12
ENDBRANCH  10  11
ENDBRANCH   9  10
ENDBRANCH   8   9
ENDBRANCH   1   8
TORSDOF 9
ENDMDL
MODEL 2
REMARK VINA RESULT:    -5.029      2.037      3.849
REMARK INTER + INTRA:          -8.696
REMARK INTER:                  -7.962
REMARK INTRA:                  -0.734
REMARK UNBOUND:                -1.021
REMARK SMILES O=C([O-])CCCCCCCCC(=O)[O-]
REMARK SMILES IDX 7 1 6 2 5 3 4 4 2 5 1 6 3 7 8 8 9 9 10 10 11 11 12 12 13 13
REMARK SMILES IDX 14 14
REMARK H PARENT
REMARK Flexibility Score: inf
ROOT
ATOM      1  C   UNL     1     -13.404   3.250 -18.314  1.00  0.00     0.000 C 
ENDROOT
BRANCH   1   2
ATOM      2  C   UNL     1     -13.256   3.422 -16.798  1.00  0.00     0.000 C 
BRANCH   2   3
ATOM      3  C   UNL     1     -13.843   2.222 -16.047  1.00  0.00     0.006 C 
BRANCH   3   4
ATOM      4  C   UNL     1     -15.127   2.610 -15.307  1.00  0.00     0.053 C 
BRANCH   4   5
ATOM      5  C   UNL     1     -15.020   2.269 -13.855  1.00  0.00     0.041 C 
ATOM      6  O   UNL     1     -14.867   1.072 -13.495  1.00  0.00    -0.550 OA
ATOM      7  O   UNL     1     -15.138   3.266 -12.896  1.00  0.00    -0.550 OA
ENDBRANCH   4   5
ENDBRANCH   3   4
ENDBRANCH   2   3
ENDBRANCH   1   2
BRANCH   1   8
ATOM      8  C   UNL     1     -13.670   1.785 -18.679  1.00  0.00     0.000 C 
BRANCH   8   9
ATOM      9  C   UNL     1     -14.842   1.668 -19.665  1.00  0.00     0.000 C 
BRANCH   9  10
ATOM     10  C   UNL     1     -15.398   0.238 -19.756  1.00  0.00     0.006 C 
BRANCH  10  11
ATOM     11  C   UNL     1     -16.866   0.146 -19.319  1.00  0.00     0.053 C 
BRANCH  11  12
ATOM     12  C   UNL     1     -16.999   0.471 -17.864  1.00  0.00     0.041 C 
ATOM     13  O   UNL     1     -17.642   1.491 -17.500  1.00  0.00    -0.550 OA
ATOM     14  O   UNL     1     -16.371  -0.322 -16.914  1.00  0.00    -0.550 OA
ENDBRANCH  11  12
ENDBRANCH  10  11
ENDBRANCH   9  10
ENDBRANCH   8   9
ENDBRANCH   1   8
TORSDOF 9
ENDMDL
MODEL 3
REMARK VINA RESULT:    -5.018      3.209      4.773
REMARK INTER + INTRA:          -8.678
REMARK INTER:                  -8.221
REMARK INTRA:                  -0.457
REMARK UNBOUND:                -1.021
REMARK SMILES O=C([O-])CCCCCCCCC(=O)[O-]
REMARK SMILES IDX 7 1 6 2 5 3 4 4 2 5 1 6 3 7 8 8 9 9 10 10 11 11 12 12 13 13
REMARK SMILES IDX 14 14
REMARK H PARENT
REMARK Flexibility Score: inf
ROOT
ATOM      1  C   UNL     1     -13.268   2.647 -15.252  1.00  0.00     0.000 C 
ENDROOT
BRANCH   1   2
ATOM      2  C   UNL     1     -13.043   3.423 -16.555  1.00  0.00     0.000 C 
BRANCH   2   3
ATOM      3  C   UNL     1     -14.331   3.491 -17.384  1.00  0.00     0.006 C 
BRANCH   3   4
ATOM      4  C   UNL     1     -14.052   3.186 -18.859  1.00  0.00     0.053 C 
BRANCH   4   5
ATOM      5  C   UNL     1     -14.684   1.890 -19.256  1.00  0.00     0.041 C 
ATOM      6  O   UNL     1     -15.078   1.082 -18.374  1.00  0.00    -0.550 OA
ATOM      7  O   UNL     1     -14.792   1.551 -20.598  1.00  0.00    -0.550 OA
ENDBRANCH   4   5
ENDBRANCH   3   4
ENDBRANCH   2   3
ENDBRANCH   1   2
BRANCH   1   8
ATOM      8  C   UNL     1     -14.761   2.389 -15.014  1.00  0.00     0.000 C 
BRANCH   8   9
ATOM      9  C   UNL     1     -15.159   2.754 -13.576  1.00  0.00     0.000 C 
BRANCH   9  10
ATOM     10  C   UNL     1     -15.270   1.524 -12.662  1.00  0.00     0.006 C 
BRANCH  10  11
ATOM     11  C   UNL     1     -15.935   1.844 -11.318  1.00  0.00     0.053 C 
BRANCH  11  12
ATOM     12  C   UNL     1     -17.180   1.031 -11.145  1.00  0.00     0.041 C 
ATOM     13  O   UNL     1     -17.856   0.687 -12.150  1.00  0.00    -0.550 OA
ATOM     14  O   UNL     1     -17.620   0.695  -9.872  1.00  0.00    -0.550 OA
ENDBRANCH  11  12
ENDBRANCH  10  11
ENDBRANCH   9  10
ENDBRANCH   8   9
ENDBRANCH   1   8
TORSDOF 9
ENDMDL
MODEL 4
REMARK VINA RESULT:    -5.017      3.213      6.272
REMARK INTER + INTRA:          -8.678
REMARK INTER:                  -8.213
REMARK INTRA:                  -0.464
REMARK UNBOUND:                -1.021
REMARK SMILES O=C([O-])CCCCCCCCC(=O)[O-]
REMARK SMILES IDX 7 1 6 2 5 3 4 4 2 5 1 6 3 7 8 8 9 9 10 10 11 11 12 12 13 13
REMARK SMILES IDX 14 14
REMARK H PARENT
REMARK Flexibility Score: inf
ROOT
ATOM      1  C   UNL     1     -15.105   2.451 -15.033  1.00  0.00     0.000 C 
ENDROOT
BRANCH   1   2
ATOM      2  C   UNL     1     -15.453   2.816 -13.586  1.00  0.00     0.000 C 
BRANCH   2   3
ATOM      3  C   UNL     1     -15.347   1.592 -12.668  1.00  0.00     0.006 C 
BRANCH   3   4
ATOM      4  C   UNL     1     -15.979   1.873 -11.301  1.00  0.00     0.053 C 
BRANCH   4   5
ATOM      5  C   UNL     1     -17.208   1.044 -11.111  1.00  0.00     0.041 C 
ATOM      6  O   UNL     1     -17.872   0.657 -12.108  1.00  0.00    -0.550 OA
ATOM      7  O   UNL     1     -17.650   0.739  -9.830  1.00  0.00    -0.550 OA
ENDBRANCH   4   5
ENDBRANCH   3   4
ENDBRANCH   2   3
ENDBRANCH   1   2
BRANCH   1   8
ATOM      8  C   UNL     1     -13.589   2.491 -15.263  1.00  0.00     0.000 C 
BRANCH   8   9
ATOM      9  C   UNL     1     -13.237   3.403 -16.448  1.00  0.00     0.000 C 
BRANCH   9  10
ATOM     10  C   UNL     1     -14.389   3.533 -17.457  1.00  0.00     0.006 C 
BRANCH  10  11
ATOM     11  C   UNL     1     -14.027   2.980 -18.841  1.00  0.00     0.053 C 
BRANCH  11  12
ATOM     12  C   UNL     1     -14.631   1.625 -19.035  1.00  0.00     0.041 C 
ATOM     13  O   UNL     1     -13.993   0.729 -19.649  1.00  0.00    -0.550 OA
ATOM     14  O   UNL     1     -15.917   1.364 -18.582  1.00  0.00    -0.550 OA
ENDBRANCH  11  12
ENDBRANCH  10  11
ENDBRANCH   9  10
ENDBRANCH   8   9
ENDBRANCH   1   8
TORSDOF 9
ENDMDL
MODEL 5
REMARK VINA RESULT:    -5.006      2.556      5.049
REMARK INTER + INTRA:          -8.660
REMARK INTER:                  -7.931
REMARK INTRA:                  -0.728
REMARK UNBOUND:                -1.021
REMARK SMILES O=C([O-])CCCCCCCCC(=O)[O-]
REMARK SMILES IDX 7 1 6 2 5 3 4 4 2 5 1 6 3 7 8 8 9 9 10 10 11 11 12 12 13 13
REMARK SMILES IDX 14 14
REMARK H PARENT
REMARK Flexibility Score: inf
ROOT
ATOM      1  C   UNL     1     -13.118   3.388 -16.444  1.00  0.00     0.000 C 
ENDROOT
BRANCH   1   2
ATOM      2  C   UNL     1     -13.621   2.618 -15.217  1.00  0.00     0.000 C 
BRANCH   2   3
ATOM      3  C   UNL     1     -15.147   2.701 -15.101  1.00  0.00     0.006 C 
BRANCH   3   4
ATOM      4  C   UNL     1     -15.584   2.783 -13.635  1.00  0.00     0.053 C 
BRANCH   4   5
ATOM      5  C   UNL     1     -15.568   1.426 -13.006  1.00  0.00     0.041 C 
ATOM      6  O   UNL     1     -15.891   0.413 -13.679  1.00  0.00    -0.550 OA
ATOM      7  O   UNL     1     -15.244   1.287 -11.663  1.00  0.00    -0.550 OA
ENDBRANCH   4   5
ENDBRANCH   3   4
ENDBRANCH   2   3
ENDBRANCH   1   2
BRANCH   1   8
ATOM      8  C   UNL     1     -14.258   3.647 -17.437  1.00  0.00     0.000 C 
BRANCH   8   9
ATOM      9  C   UNL     1     -13.935   3.043 -18.813  1.00  0.00     0.000 C 
BRANCH   9  10
ATOM     10  C   UNL     1     -13.860   1.509 -18.783  1.00  0.00     0.006 C 
BRANCH  10  11
ATOM     11  C   UNL     1     -15.182   0.861 -18.351  1.00  0.00     0.053 C 
BRANCH  11  12
ATOM     12  C   UNL     1     -15.981   0.456 -19.550  1.00  0.00     0.041 C 
ATOM     13  O   UNL     1     -15.432   0.387 -20.682  1.00  0.00    -0.550 OA
ATOM     14  O   UNL     1     -17.340   0.203 -19.428  1.00  0.00    -0.550 OA
ENDBRANCH  11  12
ENDBRANCH  10  11
ENDBRANCH   9  10
ENDBRANCH   8   9
ENDBRANCH   1   8
TORSDOF 9
ENDMDL
MODEL 6
REMARK VINA RESULT:    -4.995      2.509      4.267
REMARK INTER + INTRA:          -8.644
REMARK INTER:                  -8.139
REMARK INTRA:                  -0.505
REMARK UNBOUND:                -1.021
REMARK SMILES O=C([O-])CCCCCCCCC(=O)[O-]
REMARK SMILES IDX 7 1 6 2 5 3 4 4 2 5 1 6 3 7 8 8 9 9 10 10 11 11 12 12 13 13
REMARK SMILES IDX 14 14
REMARK H PARENT
REMARK Flexibility Score: inf
ROOT
ATOM      1  C   UNL     1     -13.103   3.746 -17.000  1.00  0.00     0.000 C 
ENDROOT
BRANCH   1   2
ATOM      2  C   UNL     1     -13.342   3.303 -18.448  1.00  0.00     0.000 C 
BRANCH   2   3
ATOM      3  C   UNL     1     -13.638   1.800 -18.523  1.00  0.00     0.006 C 
BRANCH   3   4
ATOM      4  C   UNL     1     -14.852   1.522 -19.414  1.00  0.00     0.053 C 
BRANCH   4   5
ATOM      5  C   UNL     1     -15.829   0.636 -18.710  1.00  0.00     0.041 C 
ATOM      6  O   UNL     1     -15.507   0.068 -17.633  1.00  0.00    -0.550 OA
ATOM      7  O   UNL     1     -17.079   0.398 -19.267  1.00  0.00    -0.550 OA
ENDBRANCH   4   5
ENDBRANCH   3   4
ENDBRANCH   2   3
ENDBRANCH   1   2
BRANCH   1   8
ATOM      8  C   UNL     1     -13.670   2.722 -16.009  1.00  0.00     0.000 C 
BRANCH   8   9
ATOM      9  C   UNL     1     -15.155   2.996 -15.726  1.00  0.00     0.000 C 
BRANCH   9  10
ATOM     10  C   UNL     1     -15.681   2.209 -14.515  1.00  0.00     0.006 C 
BRANCH  10  11
ATOM     11  C   UNL     1     -15.305   2.861 -13.179  1.00  0.00     0.053 C 
BRANCH  11  12
ATOM     12  C   UNL     1     -15.823   2.046 -12.036  1.00  0.00     0.041 C 
ATOM     13  O   UNL     1     -15.121   1.122 -11.547  1.00  0.00    -0.550 OA
ATOM     14  O   UNL     1     -17.101   2.273 -11.542  1.00  0.00    -0.550 OA
ENDBRANCH  11  12
ENDBRANCH  10  11
ENDBRANCH   9  10
ENDBRANCH   8   9
ENDBRANCH   1   8
TORSDOF 9
ENDMDL
MODEL 7
REMARK VINA RESULT:    -4.995      1.978      3.997
REMARK INTER + INTRA:          -8.643
REMARK INTER:                  -8.033
REMARK INTRA:                  -0.611
REMARK UNBOUND:                -1.021
REMARK SMILES O=C([O-])CCCCCCCCC(=O)[O-]
REMARK SMILES IDX 7 1 6 2 5 3 4 4 2 5 1 6 3 7 8 8 9 9 10 10 11 11 12 12 13 13
REMARK SMILES IDX 14 14
REMARK H PARENT
REMARK Flexibility Score: inf
ROOT
ATOM      1  C   UNL     1     -14.859   1.549 -19.778  1.00  0.00     0.000 C 
ENDROOT
BRANCH   1   2
ATOM      2  C   UNL     1     -15.503   0.202 -20.128  1.00  0.00     0.000 C 
BRANCH   2   3
ATOM      3  C   UNL     1     -16.743  -0.056 -19.266  1.00  0.00     0.006 C 
BRANCH   3   4
ATOM      4  C   UNL     1     -16.897  -1.548 -18.956  1.00  0.00     0.053 C 
BRANCH   4   5
ATOM      5  C   UNL     1     -16.137  -1.908 -17.719  1.00  0.00     0.041 C 
ATOM      6  O   UNL     1     -16.721  -1.947 -16.605  1.00  0.00    -0.550 OA
ATOM      7  O   UNL     1     -14.771  -2.152 -17.789  1.00  0.00    -0.550 OA
ENDBRANCH   4   5
ENDBRANCH   3   4
ENDBRANCH   2   3
ENDBRANCH   1   2
BRANCH   1   8
ATOM      8  C   UNL     1     -13.863   1.401 -18.622  1.00  0.00     0.000 C 
BRANCH   8   9
ATOM      9  C   UNL     1     -13.375   2.774 -18.136  1.00  0.00     0.000 C 
BRANCH   9  10
ATOM     10  C   UNL     1     -13.691   3.024 -16.653  1.00  0.00     0.006 C 
BRANCH  10  11
ATOM     11  C   UNL     1     -15.196   2.994 -16.357  1.00  0.00     0.053 C 
BRANCH  11  12
ATOM     12  C   UNL     1     -15.475   2.143 -15.158  1.00  0.00     0.041 C 
ATOM     13  O   UNL     1     -15.521   0.889 -15.268  1.00  0.00    -0.550 OA
ATOM     14  O   UNL     1     -15.732   2.735 -13.929  1.00  0.00    -0.550 OA
ENDBRANCH  11  12
ENDBRANCH  10  11
ENDBRANCH   9  10
ENDBRANCH   8   9
ENDBRANCH   1   8
TORSDOF 9
ENDMDL
MODEL 8
REMARK VINA RESULT:    -4.994      1.713      2.533
REMARK INTER + INTRA:          -8.642
REMARK INTER:                  -8.263
REMARK INTRA:                  -0.379
REMARK UNBOUND:                -1.021
REMARK SMILES O=C([O-])CCCCCCCCC(=O)[O-]
REMARK SMILES IDX 7 1 6 2 5 3 4 4 2 5 1 6 3 7 8 8 9 9 10 10 11 11 12 12 13 13
REMARK SMILES IDX 14 14
REMARK H PARENT
REMARK Flexibility Score: inf
ROOT
ATOM      1  C   UNL     1     -14.711   1.660 -20.339  1.00  0.00     0.000 C 
ENDROOT
BRANCH   1   2
ATOM      2  C   UNL     1     -13.921   1.835 -19.037  1.00  0.00     0.000 C 
BRANCH   2   3
ATOM      3  C   UNL     1     -13.866   3.310 -18.621  1.00  0.00     0.006 C 
BRANCH   3   4
ATOM      4  C   UNL     1     -13.036   3.491 -17.346  1.00  0.00     0.053 C 
BRANCH   4   5
ATOM      5  C   UNL     1     -13.793   3.000 -16.153  1.00  0.00     0.041 C 
ATOM      6  O   UNL     1     -13.176   2.531 -15.161  1.00  0.00    -0.550 OA
ATOM      7  O   UNL     1     -15.182   3.015 -16.156  1.00  0.00    -0.550 OA
ENDBRANCH   4   5
ENDBRANCH   3   4
ENDBRANCH   2   3
ENDBRANCH   1   2
BRANCH   1   8
ATOM      8  C   UNL     1     -15.689   0.483 -20.236  1.00  0.00     0.000 C 
BRANCH   8   9
ATOM      9  C   UNL     1     -16.502   0.556 -18.935  1.00  0.00     0.000 C 
BRANCH   9  10
ATOM     10  C   UNL     1     -17.705  -0.400 -18.934  1.00  0.00     0.006 C 
BRANCH  10  11
ATOM     11  C   UNL     1     -17.319  -1.835 -18.554  1.00  0.00     0.053 C 
BRANCH  11  12
ATOM     12  C   UNL     1     -16.296  -1.828 -17.462  1.00  0.00     0.041 C 
ATOM     13  O   UNL     1     -15.108  -2.168 -17.706  1.00  0.00    -0.550 OA
ATOM     14  O   UNL     1     -16.663  -1.493 -16.166  1.00  0.00    -0.550 OA
ENDBRANCH  11  12
ENDBRANCH  10  11
ENDBRANCH   9  10
ENDBRANCH   8   9
ENDBRANCH   1   8
TORSDOF 9
ENDMDL
MODEL 9
REMARK VINA RESULT:    -4.963      1.783      4.527
REMARK INTER + INTRA:          -8.595
REMARK INTER:                  -8.036
REMARK INTRA:                  -0.559
REMARK UNBOUND:                -1.021
REMARK SMILES O=C([O-])CCCCCCCCC(=O)[O-]
REMARK SMILES IDX 7 1 6 2 5 3 4 4 2 5 1 6 3 7 8 8 9 9 10 10 11 11 12 12 13 13
REMARK SMILES IDX 14 14
REMARK H PARENT
REMARK Flexibility Score: inf
ROOT
ATOM      1  C   UNL     1     -15.673   0.751 -19.879  1.00  0.00     0.000 C 
ENDROOT
BRANCH   1   2
ATOM      2  C   UNL     1     -16.583   0.621 -18.652  1.00  0.00     0.000 C 
BRANCH   2   3
ATOM      3  C   UNL     1     -17.767  -0.309 -18.941  1.00  0.00     0.006 C 
BRANCH   3   4
ATOM      4  C   UNL     1     -17.325  -1.776 -18.951  1.00  0.00     0.053 C 
BRANCH   4   5
ATOM      5  C   UNL     1     -17.038  -2.248 -17.561  1.00  0.00     0.041 C 
ATOM      6  O   UNL     1     -17.984  -2.552 -16.788  1.00  0.00    -0.550 OA
ATOM      7  O   UNL     1     -15.728  -2.305 -17.103  1.00  0.00    -0.550 OA
ENDBRANCH   4   5
ENDBRANCH   3   4
ENDBRANCH   2   3
ENDBRANCH   1   2
BRANCH   1   8
ATOM      8  C   UNL     1     -14.229   0.360 -19.538  1.00  0.00     0.000 C 
BRANCH   8   9
ATOM      9  C   UNL     1     -13.726   1.132 -18.309  1.00  0.00     0.000 C 
BRANCH   9  10
ATOM     10  C   UNL     1     -13.686   2.651 -18.540  1.00  0.00     0.006 C 
BRANCH  10  11
ATOM     11  C   UNL     1     -13.232   3.426 -17.297  1.00  0.00     0.053 C 
BRANCH  11  12
ATOM     12  C   UNL     1     -13.999   2.975 -16.093  1.00  0.00     0.041 C 
ATOM     13  O   UNL     1     -13.392   2.494 -15.099  1.00  0.00    -0.550 OA
ATOM     14  O   UNL     1     -15.385   3.039 -16.087  1.00  0.00    -0.550 OA
ENDBRANCH  11  12
ENDBRANCH  10  11
ENDBRANCH   9  10
ENDBRANCH   8   9
ENDBRANCH   1   8
TORSDOF 9
ENDMDL
