MODEL 1
REMARK VINA RESULT:    -3.398      0.000      0.000
REMARK INTER + INTRA:          -4.334
REMARK INTER:                  -4.789
REMARK INTRA:                   0.455
REMARK UNBOUND:                 0.455
REMARK SMILES CC1=CCC(=C(C)C)C(=O)CC(C)=CCC1
REMARK SMILES IDX 12 1 14 2 13 3 15 4 16 5 2 6 1 7 3 8 11 10 9 11 10 12 5 13
REMARK SMILES IDX 6 14 7 15 8 16 4 17
REMARK H PARENT
REMARK Flexibility Score: 60.00
ROOT
ATOM      1  C   UNL     1      14.933  62.329  37.022  1.00  0.00    -0.070 C 
ATOM      2  C   UNL     1      14.337  63.466  37.451  1.00  0.00    -0.027 C 
ATOM      3  C   UNL     1      14.718  61.080  37.841  1.00  0.00     0.039 C 
ENDROOT
BRANCH   2   4
ATOM      4  C   UNL     1      14.330  64.796  36.736  1.00  0.00     0.032 C 
BRANCH   4   5
ATOM      5  C   UNL     1      13.093  64.977  35.835  1.00  0.00     0.034 C 
BRANCH   5   6
ATOM      6  C   UNL     1      13.464  65.420  34.434  1.00  0.00    -0.077 C 
ATOM      7  C   UNL     1      13.757  66.881  34.199  1.00  0.00     0.039 C 
ATOM      8  C   UNL     1      13.525  64.584  33.374  1.00  0.00    -0.023 CG0
ATOM      9  G   UNL     1      13.233  63.103  33.400  1.00  0.00     0.000 G0
ENDBRANCH   5   6
ENDBRANCH   4   5
ENDBRANCH   2   4
BRANCH   1  10
ATOM     10  C   UNL     1      15.741  62.230  35.738  1.00  0.00     0.111 C 
BRANCH  10  11
ATOM     11  C   UNL     1      14.947  61.583  34.631  1.00  0.00     0.163 C 
ATOM     12  O   UNL     1      14.626  60.371  34.760  1.00  0.00    -0.294 OA
BRANCH  11  13
ATOM     13  C   UNL     1      14.582  62.324  33.382  1.00  0.00    -0.002 C 
ATOM     14  C   UNL     1      15.362  62.268  32.260  1.00  0.00    -0.069 C 
ATOM     15  C   UNL     1      16.596  61.396  32.195  1.00  0.00     0.039 C 
ATOM     16  C   UNL     1      15.007  63.050  31.013  1.00  0.00     0.039 C 
BRANCH  13  17
ATOM     17  C   UNL     1      13.268  63.083  33.388  1.00  0.00     0.066 CG0
ATOM     18  G   UNL     1      13.535  64.569  33.369  1.00  0.00     0.000 G0
ENDBRANCH  13  17
ENDBRANCH  11  13
ENDBRANCH  10  11
ENDBRANCH   1  10
TORSDOF 0
ENDMDL
MODEL 2
REMARK VINA RESULT:    -3.240     10.991     11.886
REMARK INTER + INTRA:          -4.112
REMARK INTER:                  -4.451
REMARK INTRA:                   0.339
REMARK UNBOUND:                 0.455
REMARK SMILES CC1=CCC(=C(C)C)C(=O)CC(C)=CCC1
REMARK SMILES IDX 12 1 14 2 13 3 15 4 16 5 2 6 1 7 3 8 11 10 9 11 10 12 5 13
REMARK SMILES IDX 6 14 7 15 8 16 4 17
REMARK H PARENT
REMARK Flexibility Score: 60.00
ROOT
ATOM      1  C   UNL     1      17.767  52.527  35.025  1.00  0.00    -0.070 C 
ATOM      2  C   UNL     1      16.563  52.588  35.643  1.00  0.00    -0.027 C 
ATOM      3  C   UNL     1      18.909  53.288  35.652  1.00  0.00     0.039 C 
ENDROOT
BRANCH   2   4
ATOM      4  C   UNL     1      15.320  51.826  35.253  1.00  0.00     0.032 C 
BRANCH   4   5
ATOM      5  C   UNL     1      14.615  52.431  34.024  1.00  0.00     0.034 C 
BRANCH   5   6
ATOM      6  C   UNL     1      14.342  51.394  32.953  1.00  0.00    -0.077 C 
ATOM      7  C   UNL     1      13.462  50.220  33.301  1.00  0.00     0.039 C 
ATOM      8  C   UNL     1      14.862  51.447  31.706  1.00  0.00    -0.023 CG0
ATOM      9  G   UNL     1      15.788  52.518  31.180  1.00  0.00     0.000 G0
ENDBRANCH   5   6
ENDBRANCH   4   5
ENDBRANCH   2   4
BRANCH   1  10
ATOM     10  C   UNL     1      18.040  51.689  33.787  1.00  0.00     0.111 C 
BRANCH  10  11
ATOM     11  C   UNL     1      17.980  52.521  32.529  1.00  0.00     0.163 C 
ATOM     12  O   UNL     1      18.535  53.652  32.539  1.00  0.00    -0.294 OA
BRANCH  11  13
ATOM     13  C   UNL     1      17.243  52.061  31.311  1.00  0.00    -0.002 C 
ATOM     14  C   UNL     1      17.818  51.225  30.395  1.00  0.00    -0.069 C 
ATOM     15  C   UNL     1      19.206  50.658  30.602  1.00  0.00     0.039 C 
ATOM     16  C   UNL     1      17.081  50.795  29.146  1.00  0.00     0.039 C 
BRANCH  13  17
ATOM     17  C   UNL     1      15.798  52.505  31.169  1.00  0.00     0.066 CG0
ATOM     18  G   UNL     1      14.879  51.438  31.714  1.00  0.00     0.000 G0
ENDBRANCH  13  17
ENDBRANCH  11  13
ENDBRANCH  10  11
ENDBRANCH   1  10
TORSDOF 0
ENDMDL
MODEL 3
REMARK VINA RESULT:    -3.165      7.253      9.217
REMARK INTER + INTRA:          -4.005
REMARK INTER:                  -4.326
REMARK INTRA:                   0.321
REMARK UNBOUND:                 0.455
REMARK SMILES CC1=CCC(=C(C)C)C(=O)CC(C)=CCC1
REMARK SMILES IDX 12 1 14 2 13 3 15 4 16 5 2 6 1 7 3 8 11 10 9 11 10 12 5 13
REMARK SMILES IDX 6 14 7 15 8 16 4 17
REMARK H PARENT
REMARK Flexibility Score: 60.00
ROOT
ATOM      1  C   UNL     1      15.790  52.282  35.462  1.00  0.00    -0.070 C 
ATOM      2  C   UNL     1      17.140  52.259  35.353  1.00  0.00    -0.027 C 
ATOM      3  C   UNL     1      15.174  51.539  36.622  1.00  0.00     0.039 C 
ENDROOT
BRANCH   2   4
ATOM      4  C   UNL     1      17.967  53.014  34.341  1.00  0.00     0.032 C 
BRANCH   4   5
ATOM      5  C   UNL     1      18.263  54.461  34.778  1.00  0.00     0.034 C 
BRANCH   5   6
ATOM      6  C   UNL     1      18.007  55.459  33.666  1.00  0.00    -0.077 C 
ATOM      7  C   UNL     1      18.966  55.496  32.503  1.00  0.00     0.039 C 
ATOM      8  C   UNL     1      16.980  56.338  33.668  1.00  0.00    -0.023 CG0
ATOM      9  G   UNL     1      15.940  56.479  34.753  1.00  0.00     0.000 G0
ENDBRANCH   5   6
ENDBRANCH   4   5
ENDBRANCH   2   4
BRANCH   1  10
ATOM     10  C   UNL     1      14.880  53.062  34.528  1.00  0.00     0.111 C 
BRANCH  10  11
ATOM     11  C   UNL     1      14.474  54.386  35.127  1.00  0.00     0.163 C 
ATOM     12  O   UNL     1      13.910  54.379  36.255  1.00  0.00    -0.294 OA
BRANCH  11  13
ATOM     13  C   UNL     1      14.676  55.679  34.401  1.00  0.00    -0.002 C 
ATOM     14  C   UNL     1      13.755  56.154  33.509  1.00  0.00    -0.069 C 
ATOM     15  C   UNL     1      12.446  55.437  33.263  1.00  0.00     0.039 C 
ATOM     16  C   UNL     1      13.984  57.443  32.749  1.00  0.00     0.039 C 
BRANCH  13  17
ATOM     17  C   UNL     1      15.916  56.480  34.751  1.00  0.00     0.066 CG0
ATOM     18  G   UNL     1      16.947  56.332  33.658  1.00  0.00     0.000 G0
ENDBRANCH  13  17
ENDBRANCH  11  13
ENDBRANCH  10  11
ENDBRANCH   1  10
TORSDOF 0
ENDMDL
MODEL 4
REMARK VINA RESULT:    -3.116      7.365      9.474
REMARK INTER + INTRA:          -3.937
REMARK INTER:                  -4.457
REMARK INTRA:                   0.520
REMARK UNBOUND:                 0.455
REMARK SMILES CC1=CCC(=C(C)C)C(=O)CC(C)=CCC1
REMARK SMILES IDX 12 1 14 2 13 3 15 4 16 5 2 6 1 7 3 8 11 10 9 11 10 12 5 13
REMARK SMILES IDX 6 14 7 15 8 16 4 17
REMARK H PARENT
REMARK Flexibility Score: 60.00
ROOT
ATOM      1  C   UNL     1      19.303  53.679  34.224  1.00  0.00    -0.070 C 
ATOM      2  C   UNL     1      18.679  52.857  35.101  1.00  0.00    -0.027 C 
ATOM      3  C   UNL     1      20.495  53.127  33.481  1.00  0.00     0.039 C 
ENDROOT
BRANCH   2   4
ATOM      4  C   UNL     1      17.415  53.163  35.867  1.00  0.00     0.032 C 
BRANCH   4   5
ATOM      5  C   UNL     1      16.143  52.776  35.090  1.00  0.00     0.034 C 
BRANCH   5   6
ATOM      6  C   UNL     1      15.029  53.788  35.273  1.00  0.00    -0.077 C 
ATOM      7  C   UNL     1      14.278  53.797  36.580  1.00  0.00     0.039 C 
ATOM      8  C   UNL     1      14.652  54.670  34.320  1.00  0.00    -0.023 CG0
ATOM      9  G   UNL     1      15.255  54.791  32.941  1.00  0.00     0.000 G0
ENDBRANCH   5   6
ENDBRANCH   4   5
ENDBRANCH   2   4
BRANCH   1  10
ATOM     10  C   UNL     1      18.831  55.087  33.902  1.00  0.00     0.111 C 
BRANCH  10  11
ATOM     11  C   UNL     1      17.799  55.088  32.801  1.00  0.00     0.163 C 
ATOM     12  O   UNL     1      18.111  54.572  31.695  1.00  0.00    -0.294 OA
BRANCH  11  13
ATOM     13  C   UNL     1      16.455  55.725  32.976  1.00  0.00    -0.002 C 
ATOM     14  C   UNL     1      16.311  57.080  33.094  1.00  0.00    -0.069 C 
ATOM     15  C   UNL     1      17.495  58.015  32.979  1.00  0.00     0.039 C 
ATOM     16  C   UNL     1      14.954  57.713  33.309  1.00  0.00     0.039 C 
BRANCH  13  17
ATOM     17  C   UNL     1      15.247  54.807  32.944  1.00  0.00     0.066 CG0
ATOM     18  G   UNL     1      14.661  54.684  34.330  1.00  0.00     0.000 G0
ENDBRANCH  13  17
ENDBRANCH  11  13
ENDBRANCH  10  11
ENDBRANCH   1  10
TORSDOF 0
ENDMDL
MODEL 5
REMARK VINA RESULT:    -3.083      7.893     10.060
REMARK INTER + INTRA:          -3.890
REMARK INTER:                  -4.548
REMARK INTRA:                   0.658
REMARK UNBOUND:                 0.455
REMARK SMILES CC1=CCC(=C(C)C)C(=O)CC(C)=CCC1
REMARK SMILES IDX 12 1 14 2 13 3 15 4 16 5 2 6 1 7 3 8 11 10 9 11 10 12 5 13
REMARK SMILES IDX 6 14 7 15 8 16 4 17
REMARK H PARENT
REMARK Flexibility Score: 60.00
ROOT
ATOM      1  C   UNL     1      15.508  52.527  34.639  1.00  0.00    -0.070 C 
ATOM      2  C   UNL     1      16.692  52.137  35.168  1.00  0.00    -0.027 C 
ATOM      3  C   UNL     1      14.580  51.447  34.141  1.00  0.00     0.039 C 
ENDROOT
BRANCH   2   4
ATOM      4  C   UNL     1      17.718  53.034  35.818  1.00  0.00     0.032 C 
BRANCH   4   5
ATOM      5  C   UNL     1      19.115  52.892  35.183  1.00  0.00     0.034 C 
BRANCH   5   6
ATOM      6  C   UNL     1      19.114  53.248  33.710  1.00  0.00    -0.077 C 
ATOM      7  C   UNL     1      19.750  52.284  32.740  1.00  0.00     0.039 C 
ATOM      8  C   UNL     1      18.595  54.394  33.215  1.00  0.00    -0.023 CG0
ATOM      9  G   UNL     1      17.950  55.493  34.025  1.00  0.00     0.000 G0
ENDBRANCH   5   6
ENDBRANCH   4   5
ENDBRANCH   2   4
BRANCH   1  10
ATOM     10  C   UNL     1      15.042  53.973  34.583  1.00  0.00     0.111 C 
BRANCH  10  11
ATOM     11  C   UNL     1      15.580  54.683  33.365  1.00  0.00     0.163 C 
ATOM     12  O   UNL     1      15.218  54.271  32.230  1.00  0.00    -0.294 OA
BRANCH  11  13
ATOM     13  C   UNL     1      16.557  55.811  33.473  1.00  0.00    -0.002 C 
ATOM     14  C   UNL     1      16.215  57.093  33.142  1.00  0.00    -0.069 C 
ATOM     15  C   UNL     1      14.808  57.453  32.719  1.00  0.00     0.039 C 
ATOM     16  C   UNL     1      17.219  58.222  33.217  1.00  0.00     0.039 C 
BRANCH  13  17
ATOM     17  C   UNL     1      17.927  55.486  34.038  1.00  0.00     0.066 CG0
ATOM     18  G   UNL     1      18.581  54.408  33.208  1.00  0.00     0.000 G0
ENDBRANCH  13  17
ENDBRANCH  11  13
ENDBRANCH  10  11
ENDBRANCH   1  10
TORSDOF 0
ENDMDL
MODEL 6
REMARK VINA RESULT:    -3.007     12.123     13.763
REMARK INTER + INTRA:          -3.783
REMARK INTER:                  -4.588
REMARK INTRA:                   0.805
REMARK UNBOUND:                 0.455
REMARK SMILES CC1=CCC(=C(C)C)C(=O)CC(C)=CCC1
REMARK SMILES IDX 12 1 14 2 13 3 15 4 16 5 2 6 1 7 3 8 11 10 9 11 10 12 5 13
REMARK SMILES IDX 6 14 7 15 8 16 4 17
REMARK H PARENT
REMARK Flexibility Score: 60.00
ROOT
ATOM      1  C   UNL     1      13.572  60.733  21.684  1.00  0.00    -0.070 C 
ATOM      2  C   UNL     1      14.356  61.253  20.711  1.00  0.00    -0.027 C 
ATOM      3  C   UNL     1      12.229  60.179  21.273  1.00  0.00     0.039 C 
ENDROOT
BRANCH   2   4
ATOM      4  C   UNL     1      15.768  61.761  20.878  1.00  0.00     0.032 C 
BRANCH   4   5
ATOM      5  C   UNL     1      16.814  60.828  20.238  1.00  0.00     0.034 C 
BRANCH   5   6
ATOM      6  C   UNL     1      17.478  59.927  21.260  1.00  0.00    -0.077 C 
ATOM      7  C   UNL     1      18.835  60.320  21.787  1.00  0.00     0.039 C 
ATOM      8  C   UNL     1      16.934  58.773  21.709  1.00  0.00    -0.023 CG0
ATOM      9  G   UNL     1      15.608  58.195  21.278  1.00  0.00     0.000 G0
ENDBRANCH   5   6
ENDBRANCH   4   5
ENDBRANCH   2   4
BRANCH   1  10
ATOM     10  C   UNL     1      13.994  60.619  23.140  1.00  0.00     0.111 C 
BRANCH  10  11
ATOM     11  C   UNL     1      14.689  59.308  23.414  1.00  0.00     0.163 C 
ATOM     12  O   UNL     1      15.367  59.205  24.471  1.00  0.00    -0.294 OA
BRANCH  11  13
ATOM     13  C   UNL     1      14.632  58.165  22.449  1.00  0.00    -0.002 C 
ATOM     14  C   UNL     1      13.703  57.169  22.568  1.00  0.00    -0.069 C 
ATOM     15  C   UNL     1      12.634  57.206  23.637  1.00  0.00     0.039 C 
ATOM     16  C   UNL     1      13.676  55.997  21.611  1.00  0.00     0.039 C 
BRANCH  13  17
ATOM     17  C   UNL     1      15.606  58.195  21.285  1.00  0.00     0.066 CG0
ATOM     18  G   UNL     1      16.922  58.784  21.734  1.00  0.00     0.000 G0
ENDBRANCH  13  17
ENDBRANCH  11  13
ENDBRANCH  10  11
ENDBRANCH   1  10
TORSDOF 0
ENDMDL
MODEL 7
REMARK VINA RESULT:    -2.996      9.472     12.748
REMARK INTER + INTRA:          -3.767
REMARK INTER:                  -4.546
REMARK INTRA:                   0.779
REMARK UNBOUND:                 0.455
REMARK SMILES CC1=CCC(=C(C)C)C(=O)CC(C)=CCC1
REMARK SMILES IDX 12 1 14 2 13 3 15 4 16 5 2 6 1 7 3 8 11 10 9 11 10 12 5 13
REMARK SMILES IDX 6 14 7 15 8 16 4 17
REMARK H PARENT
REMARK Flexibility Score: 60.00
ROOT
ATOM      1  C   UNL     1      13.444  60.979  20.701  1.00  0.00    -0.070 C 
ATOM      2  C   UNL     1      14.725  60.760  20.323  1.00  0.00    -0.027 C 
ATOM      3  C   UNL     1      12.394  60.028  20.180  1.00  0.00     0.039 C 
ENDROOT
BRANCH   2   4
ATOM      4  C   UNL     1      15.940  61.516  20.805  1.00  0.00     0.032 C 
BRANCH   4   5
ATOM      5  C   UNL     1      16.921  60.624  21.588  1.00  0.00     0.034 C 
BRANCH   5   6
ATOM      6  C   UNL     1      16.228  59.833  22.681  1.00  0.00    -0.077 C 
ATOM      7  C   UNL     1      16.176  58.332  22.554  1.00  0.00     0.039 C 
ATOM      8  C   UNL     1      15.631  60.399  23.753  1.00  0.00    -0.023 CG0
ATOM      9  G   UNL     1      15.546  61.880  24.037  1.00  0.00     0.000 G0
ENDBRANCH   5   6
ENDBRANCH   4   5
ENDBRANCH   2   4
BRANCH   1  10
ATOM     10  C   UNL     1      13.022  62.076  21.664  1.00  0.00     0.111 C 
BRANCH  10  11
ATOM     11  C   UNL     1      13.181  61.644  23.101  1.00  0.00     0.163 C 
ATOM     12  O   UNL     1      12.470  60.690  23.516  1.00  0.00    -0.294 OA
BRANCH  11  13
ATOM     13  C   UNL     1      14.111  62.346  24.040  1.00  0.00    -0.002 C 
ATOM     14  C   UNL     1      13.673  63.324  24.890  1.00  0.00    -0.069 C 
ATOM     15  C   UNL     1      12.210  63.698  24.980  1.00  0.00     0.039 C 
ATOM     16  C   UNL     1      14.627  64.056  25.809  1.00  0.00     0.039 C 
BRANCH  13  17
ATOM     17  C   UNL     1      15.554  61.876  24.062  1.00  0.00     0.066 CG0
ATOM     18  G   UNL     1      15.616  60.399  23.753  1.00  0.00     0.000 G0
ENDBRANCH  13  17
ENDBRANCH  11  13
ENDBRANCH  10  11
ENDBRANCH   1  10
TORSDOF 0
ENDMDL
MODEL 8
REMARK VINA RESULT:    -2.965      9.558     11.598
REMARK INTER + INTRA:          -3.724
REMARK INTER:                  -4.405
REMARK INTRA:                   0.681
REMARK UNBOUND:                 0.455
REMARK SMILES CC1=CCC(=C(C)C)C(=O)CC(C)=CCC1
REMARK SMILES IDX 12 1 14 2 13 3 15 4 16 5 2 6 1 7 3 8 11 10 9 11 10 12 5 13
REMARK SMILES IDX 6 14 7 15 8 16 4 17
REMARK H PARENT
REMARK Flexibility Score: 60.00
ROOT
ATOM      1  C   UNL     1      19.791  52.508  32.694  1.00  0.00    -0.070 C 
ATOM      2  C   UNL     1      19.721  53.005  33.952  1.00  0.00    -0.027 C 
ATOM      3  C   UNL     1      20.825  53.101  31.769  1.00  0.00     0.039 C 
ENDROOT
BRANCH   2   4
ATOM      4  C   UNL     1      18.841  52.494  35.067  1.00  0.00     0.032 C 
BRANCH   4   5
ATOM      5  C   UNL     1      17.794  53.530  35.518  1.00  0.00     0.034 C 
BRANCH   5   6
ATOM      6  C   UNL     1      17.168  54.260  34.347  1.00  0.00    -0.077 C 
ATOM      7  C   UNL     1      17.402  55.745  34.221  1.00  0.00     0.039 C 
ATOM      8  C   UNL     1      16.389  53.661  33.418  1.00  0.00    -0.023 CG0
ATOM      9  G   UNL     1      16.012  52.199  33.393  1.00  0.00     0.000 G0
ENDBRANCH   5   6
ENDBRANCH   4   5
ENDBRANCH   2   4
BRANCH   1  10
ATOM     10  C   UNL     1      18.940  51.352  32.194  1.00  0.00     0.111 C 
BRANCH  10  11
ATOM     11  C   UNL     1      17.707  51.842  31.475  1.00  0.00     0.163 C 
ATOM     12  O   UNL     1      17.862  52.504  30.414  1.00  0.00    -0.294 OA
BRANCH  11  13
ATOM     13  C   UNL     1      16.331  51.608  32.015  1.00  0.00    -0.002 C 
ATOM     14  C   UNL     1      15.413  50.850  31.340  1.00  0.00    -0.069 C 
ATOM     15  C   UNL     1      15.763  50.147  30.048  1.00  0.00     0.039 C 
ATOM     16  C   UNL     1      14.011  50.650  31.873  1.00  0.00     0.039 C 
BRANCH  13  17
ATOM     17  C   UNL     1      16.018  52.186  33.382  1.00  0.00     0.066 CG0
ATOM     18  G   UNL     1      16.376  53.653  33.412  1.00  0.00     0.000 G0
ENDBRANCH  13  17
ENDBRANCH  11  13
ENDBRANCH  10  11
ENDBRANCH   1  10
TORSDOF 0
ENDMDL
MODEL 9
REMARK VINA RESULT:    -2.923     11.408     13.299
REMARK INTER + INTRA:          -3.665
REMARK INTER:                  -4.411
REMARK INTRA:                   0.746
REMARK UNBOUND:                 0.455
REMARK SMILES CC1=CCC(=C(C)C)C(=O)CC(C)=CCC1
REMARK SMILES IDX 12 1 14 2 13 3 15 4 16 5 2 6 1 7 3 8 11 10 9 11 10 12 5 13
REMARK SMILES IDX 6 14 7 15 8 16 4 17
REMARK H PARENT
REMARK Flexibility Score: 60.00
ROOT
ATOM      1  C   UNL     1      13.427  61.087  20.328  1.00  0.00    -0.070 C 
ATOM      2  C   UNL     1      14.742  61.078  20.003  1.00  0.00    -0.027 C 
ATOM      3  C   UNL     1      12.595  62.241  19.825  1.00  0.00     0.039 C 
ENDROOT
BRANCH   2   4
ATOM      4  C   UNL     1      15.729  59.977  20.307  1.00  0.00     0.032 C 
BRANCH   4   5
ATOM      5  C   UNL     1      16.995  60.495  21.016  1.00  0.00     0.034 C 
BRANCH   5   6
ATOM      6  C   UNL     1      16.698  61.021  22.406  1.00  0.00    -0.077 C 
ATOM      7  C   UNL     1      17.340  62.317  22.834  1.00  0.00     0.039 C 
ATOM      8  C   UNL     1      15.909  60.381  23.298  1.00  0.00    -0.023 CG0
ATOM      9  G   UNL     1      15.210  59.062  23.072  1.00  0.00     0.000 G0
ENDBRANCH   5   6
ENDBRANCH   4   5
ENDBRANCH   2   4
BRANCH   1  10
ATOM     10  C   UNL     1      12.741  59.975  21.104  1.00  0.00     0.111 C 
BRANCH  10  11
ATOM     11  C   UNL     1      12.926  60.142  22.593  1.00  0.00     0.163 C 
ATOM     12  O   UNL     1      12.418  61.155  23.144  1.00  0.00    -0.294 OA
BRANCH  11  13
ATOM     13  C   UNL     1      13.730  59.174  23.403  1.00  0.00    -0.002 C 
ATOM     14  C   UNL     1      13.154  58.384  24.359  1.00  0.00    -0.069 C 
ATOM     15  C   UNL     1      11.660  58.390  24.598  1.00  0.00     0.039 C 
ATOM     16  C   UNL     1      13.979  57.436  25.202  1.00  0.00     0.039 C 
BRANCH  13  17
ATOM     17  C   UNL     1      15.205  59.053  23.070  1.00  0.00     0.066 CG0
ATOM     18  G   UNL     1      15.891  60.381  23.287  1.00  0.00     0.000 G0
ENDBRANCH  13  17
ENDBRANCH  11  13
ENDBRANCH  10  11
ENDBRANCH   1  10
TORSDOF 0
ENDMDL
