MODEL 1
REMARK VINA RESULT:    -3.600      0.000      0.000
REMARK INTER + INTRA:          -5.793
REMARK INTER:                  -5.494
REMARK INTRA:                  -0.299
REMARK UNBOUND:                -0.299
REMARK SMILES CC1=CCC[C@H](C)C(=O)C[C@H](C(C)C)C(=O)C1
REMARK SMILES IDX 8 1 9 2 6 3 7 4 5 5 4 6 3 7 2 8 1 9 10 11 11 12 15 13 16 14
REMARK SMILES IDX 17 15 12 17 13 18 14 19
REMARK H PARENT
REMARK Flexibility Score: 70.00
ROOT
ATOM      1  C   UNL     1      25.262  31.139 138.376  1.00  0.00     0.136 C 
ATOM      2  O   UNL     1      24.996  32.301 138.105  1.00  0.00    -0.299 OA
ENDROOT
BRANCH   1   3
ATOM      3  C   UNL     1      24.278  30.349 139.263  1.00  0.00     0.053 C 
ATOM      4  C   UNL     1      24.493  28.833 139.130  1.00  0.00     0.016 C 
BRANCH   3   5
ATOM      5  C   UNL     1      24.489  30.820 140.689  1.00  0.00     0.015 C 
BRANCH   5   6
ATOM      6  C   UNL     1      25.629  30.411 141.593  1.00  0.00     0.028 C 
BRANCH   6   7
ATOM      7  C   UNL     1      26.469  31.643 141.924  1.00  0.00    -0.028 C 
ATOM      8  C   UNL     1      27.814  31.851 141.723  1.00  0.00    -0.070 CG0
ATOM      9  C   UNL     1      28.342  33.219 142.088  1.00  0.00     0.039 C 
ATOM     10  G   UNL     1      28.829  30.832 141.163  1.00  0.00     0.000 G0
ENDBRANCH   6   7
ENDBRANCH   5   6
ENDBRANCH   3   5
ENDBRANCH   1   3
BRANCH   1  11
ATOM     11  C   UNL     1      26.626  30.587 137.911  1.00  0.00     0.087 C 
BRANCH  11  12
ATOM     12  C   UNL     1      27.985  31.066 138.570  1.00  0.00     0.066 C 
BRANCH  12  13
ATOM     13  C   UNL     1      28.463  30.245 139.795  1.00  0.00     0.140 C 
ATOM     14  O   UNL     1      28.518  29.029 139.671  1.00  0.00    -0.299 OA
BRANCH  13  15
ATOM     15  C   UNL     1      28.839  30.826 141.164  1.00  0.00     0.106 CG0
ATOM     16  G   UNL     1      27.808  31.841 141.706  1.00  0.00     0.000 G0
ENDBRANCH  13  15
ENDBRANCH  12  13
BRANCH  12  17
ATOM     17  C   UNL     1      29.105  31.621 137.617  1.00  0.00    -0.006 C 
ATOM     18  C   UNL     1      29.668  32.954 138.144  1.00  0.00     0.008 C 
ATOM     19  C   UNL     1      28.731  31.804 136.135  1.00  0.00     0.008 C 
ENDBRANCH  12  17
ENDBRANCH  11  12
ENDBRANCH   1  11
TORSDOF 1
ENDMDL
MODEL 2
REMARK VINA RESULT:    -3.583      2.148      4.367
REMARK INTER + INTRA:          -5.767
REMARK INTER:                  -5.446
REMARK INTRA:                  -0.322
REMARK UNBOUND:                -0.299
REMARK SMILES CC1=CCC[C@H](C)C(=O)C[C@H](C(C)C)C(=O)C1
REMARK SMILES IDX 8 1 9 2 6 3 7 4 5 5 4 6 3 7 2 8 1 9 10 11 11 12 15 13 16 14
REMARK SMILES IDX 17 15 12 17 13 18 14 19
REMARK H PARENT
REMARK Flexibility Score: 70.00
ROOT
ATOM      1  C   UNL     1      27.515  32.595 137.606  1.00  0.00     0.136 C 
ATOM      2  O   UNL     1      28.314  33.368 137.097  1.00  0.00    -0.299 OA
ENDROOT
BRANCH   1   3
ATOM      3  C   UNL     1      27.838  31.088 137.586  1.00  0.00     0.053 C 
ATOM      4  C   UNL     1      28.432  30.658 136.234  1.00  0.00     0.016 C 
BRANCH   3   5
ATOM      5  C   UNL     1      28.801  30.824 138.727  1.00  0.00     0.015 C 
BRANCH   5   6
ATOM      6  C   UNL     1      28.687  29.704 139.736  1.00  0.00     0.028 C 
BRANCH   6   7
ATOM      7  C   UNL     1      27.296  29.081 139.634  1.00  0.00    -0.028 C 
ATOM      8  C   UNL     1      26.118  29.499 140.208  1.00  0.00    -0.070 CG0
ATOM      9  C   UNL     1      24.881  28.708 139.852  1.00  0.00     0.039 C 
ATOM     10  G   UNL     1      25.937  30.690 141.175  1.00  0.00     0.000 G0
ENDBRANCH   6   7
ENDBRANCH   5   6
ENDBRANCH   3   5
ENDBRANCH   1   3
BRANCH   1  11
ATOM     11  C   UNL     1      26.182  33.177 138.122  1.00  0.00     0.087 C 
BRANCH  11  12
ATOM     12  C   UNL     1      25.254  32.371 139.122  1.00  0.00     0.066 C 
BRANCH  12  13
ATOM     13  C   UNL     1      25.867  32.073 140.515  1.00  0.00     0.140 C 
ATOM     14  O   UNL     1      26.386  33.006 141.113  1.00  0.00    -0.299 OA
BRANCH  13  15
ATOM     15  C   UNL     1      25.910  30.697 141.191  1.00  0.00     0.106 CG0
ATOM     16  G   UNL     1      26.121  29.530 140.202  1.00  0.00     0.000 G0
ENDBRANCH  13  15
ENDBRANCH  12  13
BRANCH  12  17
ATOM     17  C   UNL     1      23.709  32.661 139.083  1.00  0.00    -0.006 C 
ATOM     18  C   UNL     1      23.421  34.022 138.421  1.00  0.00     0.008 C 
ATOM     19  C   UNL     1      22.956  32.605 140.425  1.00  0.00     0.008 C 
ENDBRANCH  12  17
ENDBRANCH  11  12
ENDBRANCH   1  11
TORSDOF 1
ENDMDL
MODEL 3
REMARK VINA RESULT:    -3.582      1.925      3.893
REMARK INTER + INTRA:          -5.767
REMARK INTER:                  -5.174
REMARK INTRA:                  -0.593
REMARK UNBOUND:                -0.299
REMARK SMILES CC1=CCC[C@H](C)C(=O)C[C@H](C(C)C)C(=O)C1
REMARK SMILES IDX 8 1 9 2 6 3 7 4 5 5 4 6 3 7 2 8 1 9 10 11 11 12 15 13 16 14
REMARK SMILES IDX 17 15 12 17 13 18 14 19
REMARK H PARENT
REMARK Flexibility Score: 70.00
ROOT
ATOM      1  C   UNL     1      27.339  32.440 137.996  1.00  0.00     0.136 C 
ATOM      2  O   UNL     1      27.900  33.277 137.304  1.00  0.00    -0.299 OA
ENDROOT
BRANCH   1   3
ATOM      3  C   UNL     1      27.575  30.949 137.681  1.00  0.00     0.053 C 
ATOM      4  C   UNL     1      28.123  30.755 136.258  1.00  0.00     0.016 C 
BRANCH   3   5
ATOM      5  C   UNL     1      28.536  30.420 138.727  1.00  0.00     0.015 C 
BRANCH   5   6
ATOM      6  C   UNL     1      28.169  29.528 139.891  1.00  0.00     0.028 C 
BRANCH   6   7
ATOM      7  C   UNL     1      28.371  30.301 141.193  1.00  0.00    -0.028 C 
ATOM      8  C   UNL     1      27.426  30.750 142.086  1.00  0.00    -0.070 CG0
ATOM      9  C   UNL     1      27.949  31.422 143.334  1.00  0.00     0.039 C 
ATOM     10  G   UNL     1      25.893  30.635 141.939  1.00  0.00     0.000 G0
ENDBRANCH   6   7
ENDBRANCH   5   6
ENDBRANCH   3   5
ENDBRANCH   1   3
BRANCH   1  11
ATOM     11  C   UNL     1      26.337  32.942 139.057  1.00  0.00     0.087 C 
BRANCH  11  12
ATOM     12  C   UNL     1      25.214  31.996 139.654  1.00  0.00     0.066 C 
BRANCH  12  13
ATOM     13  C   UNL     1      25.250  31.798 141.191  1.00  0.00     0.140 C 
ATOM     14  O   UNL     1      24.744  32.671 141.883  1.00  0.00    -0.299 OA
BRANCH  13  15
ATOM     15  C   UNL     1      25.899  30.616 141.921  1.00  0.00     0.106 CG0
ATOM     16  G   UNL     1      27.431  30.747 142.065  1.00  0.00     0.000 G0
ENDBRANCH  13  15
ENDBRANCH  12  13
BRANCH  12  17
ATOM     17  C   UNL     1      23.792  32.036 138.985  1.00  0.00    -0.006 C 
ATOM     18  C   UNL     1      23.480  30.706 138.273  1.00  0.00     0.008 C 
ATOM     19  C   UNL     1      23.517  33.188 138.001  1.00  0.00     0.008 C 
ENDBRANCH  12  17
ENDBRANCH  11  12
ENDBRANCH   1  11
TORSDOF 1
ENDMDL
MODEL 4
REMARK VINA RESULT:    -3.570      1.400      1.637
REMARK INTER + INTRA:          -5.747
REMARK INTER:                  -5.139
REMARK INTRA:                  -0.608
REMARK UNBOUND:                -0.299
REMARK SMILES CC1=CCC[C@H](C)C(=O)C[C@H](C(C)C)C(=O)C1
REMARK SMILES IDX 8 1 9 2 6 3 7 4 5 5 4 6 3 7 2 8 1 9 10 11 11 12 15 13 16 14
REMARK SMILES IDX 17 15 12 17 13 18 14 19
REMARK H PARENT
REMARK Flexibility Score: 70.00
ROOT
ATOM      1  C   UNL     1      24.916  32.203 138.953  1.00  0.00     0.136 C 
ATOM      2  O   UNL     1      24.533  32.825 137.972  1.00  0.00    -0.299 OA
ENDROOT
BRANCH   1   3
ATOM      3  C   UNL     1      24.020  31.075 139.502  1.00  0.00     0.053 C 
ATOM      4  C   UNL     1      24.340  29.728 138.835  1.00  0.00     0.016 C 
BRANCH   3   5
ATOM      5  C   UNL     1      24.241  31.023 141.001  1.00  0.00     0.015 C 
BRANCH   5   6
ATOM      6  C   UNL     1      24.875  29.879 141.760  1.00  0.00     0.028 C 
BRANCH   6   7
ATOM      7  C   UNL     1      26.060  30.411 142.562  1.00  0.00    -0.028 C 
ATOM      8  C   UNL     1      27.368  30.571 142.168  1.00  0.00    -0.070 CG0
ATOM      9  C   UNL     1      28.300  31.200 143.177  1.00  0.00     0.039 C 
ATOM     10  G   UNL     1      27.974  30.175 140.804  1.00  0.00     0.000 G0
ENDBRANCH   6   7
ENDBRANCH   5   6
ENDBRANCH   3   5
ENDBRANCH   1   3
BRANCH   1  11
ATOM     11  C   UNL     1      26.213  32.678 139.642  1.00  0.00     0.087 C 
BRANCH  11  12
ATOM     12  C   UNL     1      27.643  32.305 139.070  1.00  0.00     0.066 C 
BRANCH  12  13
ATOM     13  C   UNL     1      28.497  31.363 139.959  1.00  0.00     0.140 C 
ATOM     14  O   UNL     1      29.704  31.561 139.992  1.00  0.00    -0.299 OA
BRANCH  13  15
ATOM     15  C   UNL     1      27.959  30.180 140.772  1.00  0.00     0.106 CG0
ATOM     16  G   UNL     1      27.387  30.587 142.148  1.00  0.00     0.000 G0
ENDBRANCH  13  15
ENDBRANCH  12  13
BRANCH  12  17
ATOM     17  C   UNL     1      27.784  32.120 137.515  1.00  0.00    -0.006 C 
ATOM     18  C   UNL     1      27.779  30.627 137.134  1.00  0.00     0.008 C 
ATOM     19  C   UNL     1      28.997  32.789 136.842  1.00  0.00     0.008 C 
ENDBRANCH  12  17
ENDBRANCH  11  12
ENDBRANCH   1  11
TORSDOF 1
ENDMDL
MODEL 5
REMARK VINA RESULT:    -3.480     10.440     12.634
REMARK INTER + INTRA:          -5.610
REMARK INTER:                  -5.242
REMARK INTRA:                  -0.368
REMARK UNBOUND:                -0.299
REMARK SMILES CC1=CCC[C@H](C)C(=O)C[C@H](C(C)C)C(=O)C1
REMARK SMILES IDX 8 1 9 2 6 3 7 4 5 5 4 6 3 7 2 8 1 9 10 11 11 12 15 13 16 14
REMARK SMILES IDX 17 15 12 17 13 18 14 19
REMARK H PARENT
REMARK Flexibility Score: 70.00
ROOT
ATOM      1  C   UNL     1      27.113  44.639 142.009  1.00  0.00     0.136 C 
ATOM      2  O   UNL     1      26.939  45.844 142.118  1.00  0.00    -0.299 OA
ENDROOT
BRANCH   1   3
ATOM      3  C   UNL     1      28.216  43.977 142.858  1.00  0.00     0.053 C 
ATOM      4  C   UNL     1      27.946  44.143 144.362  1.00  0.00     0.016 C 
BRANCH   3   5
ATOM      5  C   UNL     1      28.269  42.516 142.457  1.00  0.00     0.015 C 
BRANCH   5   6
ATOM      6  C   UNL     1      28.089  41.339 143.389  1.00  0.00     0.028 C 
BRANCH   6   7
ATOM      7  C   UNL     1      26.961  40.454 142.863  1.00  0.00    -0.028 C 
ATOM      8  C   UNL     1      25.602  40.649 142.942  1.00  0.00    -0.070 CG0
ATOM      9  C   UNL     1      24.736  39.622 142.250  1.00  0.00     0.039 C 
ATOM     10  G   UNL     1      24.879  41.807 143.664  1.00  0.00     0.000 G0
ENDBRANCH   6   7
ENDBRANCH   5   6
ENDBRANCH   3   5
ENDBRANCH   1   3
BRANCH   1  11
ATOM     11  C   UNL     1      26.294  43.890 140.936  1.00  0.00     0.087 C 
BRANCH  11  12
ATOM     12  C   UNL     1      24.939  43.149 141.291  1.00  0.00     0.066 C 
BRANCH  12  13
ATOM     13  C   UNL     1      24.612  43.035 142.802  1.00  0.00     0.140 C 
ATOM     14  O   UNL     1      24.147  44.023 143.354  1.00  0.00    -0.299 OA
BRANCH  13  15
ATOM     15  C   UNL     1      24.856  41.797 143.673  1.00  0.00     0.106 CG0
ATOM     16  G   UNL     1      25.595  40.660 142.934  1.00  0.00     0.000 G0
ENDBRANCH  13  15
ENDBRANCH  12  13
BRANCH  12  17
ATOM     17  C   UNL     1      23.717  43.354 140.322  1.00  0.00    -0.006 C 
ATOM     18  C   UNL     1      22.593  42.348 140.632  1.00  0.00     0.008 C 
ATOM     19  C   UNL     1      24.010  43.305 138.812  1.00  0.00     0.008 C 
ENDBRANCH  12  17
ENDBRANCH  11  12
ENDBRANCH   1  11
TORSDOF 1
ENDMDL
MODEL 6
REMARK VINA RESULT:    -3.461      2.200      4.096
REMARK INTER + INTRA:          -5.581
REMARK INTER:                  -5.071
REMARK INTRA:                  -0.511
REMARK UNBOUND:                -0.299
REMARK SMILES CC1=CCC[C@H](C)C(=O)C[C@H](C(C)C)C(=O)C1
REMARK SMILES IDX 8 1 9 2 6 3 7 4 5 5 4 6 3 7 2 8 1 9 10 11 11 12 15 13 16 14
REMARK SMILES IDX 17 15 12 17 13 18 14 19
REMARK H PARENT
REMARK Flexibility Score: 70.00
ROOT
ATOM      1  C   UNL     1      29.063  31.485 140.140  1.00  0.00     0.136 C 
ATOM      2  O   UNL     1      30.184  31.826 140.489  1.00  0.00    -0.299 OA
ENDROOT
BRANCH   1   3
ATOM      3  C   UNL     1      28.757  29.979 140.022  1.00  0.00     0.053 C 
ATOM      4  C   UNL     1      29.787  29.134 140.791  1.00  0.00     0.016 C 
BRANCH   3   5
ATOM      5  C   UNL     1      27.353  29.767 140.553  1.00  0.00     0.015 C 
BRANCH   5   6
ATOM      6  C   UNL     1      26.106  29.618 139.712  1.00  0.00     0.028 C 
BRANCH   6   7
ATOM      7  C   UNL     1      24.996  30.479 140.311  1.00  0.00    -0.028 C 
ATOM      8  C   UNL     1      24.345  31.556 139.756  1.00  0.00    -0.070 CG0
ATOM      9  C   UNL     1      23.227  32.158 140.575  1.00  0.00     0.039 C 
ATOM     10  G   UNL     1      24.641  32.206 138.387  1.00  0.00     0.000 G0
ENDBRANCH   6   7
ENDBRANCH   5   6
ENDBRANCH   3   5
ENDBRANCH   1   3
BRANCH   1  11
ATOM     11  C   UNL     1      28.073  32.594 139.723  1.00  0.00     0.087 C 
BRANCH  11  12
ATOM     12  C   UNL     1      27.339  32.568 138.319  1.00  0.00     0.066 C 
BRANCH  12  13
ATOM     13  C   UNL     1      25.880  33.093 138.313  1.00  0.00     0.140 C 
ATOM     14  O   UNL     1      25.719  34.306 138.290  1.00  0.00    -0.299 OA
BRANCH  13  15
ATOM     15  C   UNL     1      24.621  32.220 138.373  1.00  0.00     0.106 CG0
ATOM     16  G   UNL     1      24.378  31.582 139.758  1.00  0.00     0.000 G0
ENDBRANCH  13  15
ENDBRANCH  12  13
BRANCH  12  17
ATOM     17  C   UNL     1      28.199  32.872 137.038  1.00  0.00    -0.006 C 
ATOM     18  C   UNL     1      28.775  31.575 136.439  1.00  0.00     0.008 C 
ATOM     19  C   UNL     1      29.346  33.887 137.194  1.00  0.00     0.008 C 
ENDBRANCH  12  17
ENDBRANCH  11  12
ENDBRANCH   1  11
TORSDOF 1
ENDMDL
MODEL 7
REMARK VINA RESULT:    -3.441      2.807      4.798
REMARK INTER + INTRA:          -5.551
REMARK INTER:                  -4.873
REMARK INTRA:                  -0.679
REMARK UNBOUND:                -0.299
REMARK SMILES CC1=CCC[C@H](C)C(=O)C[C@H](C(C)C)C(=O)C1
REMARK SMILES IDX 8 1 9 2 6 3 7 4 5 5 4 6 3 7 2 8 1 9 10 11 11 12 15 13 16 14
REMARK SMILES IDX 17 15 12 17 13 18 14 19
REMARK H PARENT
REMARK Flexibility Score: 70.00
ROOT
ATOM      1  C   UNL     1      28.012  31.124 143.873  1.00  0.00     0.136 C 
ATOM      2  O   UNL     1      28.273  31.983 144.703  1.00  0.00    -0.299 OA
ENDROOT
BRANCH   1   3
ATOM      3  C   UNL     1      27.892  29.661 144.345  1.00  0.00     0.053 C 
ATOM      4  C   UNL     1      28.990  29.306 145.360  1.00  0.00     0.016 C 
BRANCH   3   5
ATOM      5  C   UNL     1      26.507  29.498 144.939  1.00  0.00     0.015 C 
BRANCH   5   6
ATOM      6  C   UNL     1      25.250  29.165 144.169  1.00  0.00     0.028 C 
BRANCH   6   7
ATOM      7  C   UNL     1      24.502  30.458 143.853  1.00  0.00    -0.028 C 
ATOM      8  C   UNL     1      24.205  31.006 142.626  1.00  0.00    -0.070 CG0
ATOM      9  C   UNL     1      23.376  32.270 142.640  1.00  0.00     0.039 C 
ATOM     10  G   UNL     1      24.630  30.459 141.246  1.00  0.00     0.000 G0
ENDBRANCH   6   7
ENDBRANCH   5   6
ENDBRANCH   3   5
ENDBRANCH   1   3
BRANCH   1  11
ATOM     11  C   UNL     1      27.946  31.554 142.392  1.00  0.00     0.087 C 
BRANCH  11  12
ATOM     12  C   UNL     1      27.352  30.599 141.275  1.00  0.00     0.066 C 
BRANCH  12  13
ATOM     13  C   UNL     1      25.965  31.005 140.712  1.00  0.00     0.140 C 
ATOM     14  O   UNL     1      25.944  31.839 139.817  1.00  0.00    -0.299 OA
BRANCH  13  15
ATOM     15  C   UNL     1      24.615  30.476 141.209  1.00  0.00     0.106 CG0
ATOM     16  G   UNL     1      24.219  31.011 142.603  1.00  0.00     0.000 G0
ENDBRANCH  13  15
ENDBRANCH  12  13
BRANCH  12  17
ATOM     17  C   UNL     1      28.359  29.948 140.258  1.00  0.00    -0.006 C 
ATOM     18  C   UNL     1      27.699  28.780 139.500  1.00  0.00     0.008 C 
ATOM     19  C   UNL     1      29.704  29.460 140.826  1.00  0.00     0.008 C 
ENDBRANCH  12  17
ENDBRANCH  11  12
ENDBRANCH   1  11
TORSDOF 1
ENDMDL
MODEL 8
REMARK VINA RESULT:    -3.262      2.253      5.060
REMARK INTER + INTRA:          -5.278
REMARK INTER:                  -4.888
REMARK INTRA:                  -0.389
REMARK UNBOUND:                -0.299
REMARK SMILES CC1=CCC[C@H](C)C(=O)C[C@H](C(C)C)C(=O)C1
REMARK SMILES IDX 8 1 9 2 6 3 7 4 5 5 4 6 3 7 2 8 1 9 10 11 11 12 15 13 16 14
REMARK SMILES IDX 17 15 12 17 13 18 14 19
REMARK H PARENT
REMARK Flexibility Score: 70.00
ROOT
ATOM      1  C   UNL     1      27.244  30.063 140.140  1.00  0.00     0.136 C 
ATOM      2  O   UNL     1      27.017  28.920 139.770  1.00  0.00    -0.299 OA
ENDROOT
BRANCH   1   3
ATOM      3  C   UNL     1      28.525  30.757 139.637  1.00  0.00     0.053 C 
ATOM      4  C   UNL     1      29.782  30.155 140.285  1.00  0.00     0.016 C 
BRANCH   3   5
ATOM      5  C   UNL     1      28.548  30.606 138.128  1.00  0.00     0.015 C 
BRANCH   5   6
ATOM      6  C   UNL     1      27.596  31.271 137.161  1.00  0.00     0.028 C 
BRANCH   6   7
ATOM      7  C   UNL     1      27.269  32.674 137.668  1.00  0.00    -0.028 C 
ATOM      8  C   UNL     1      26.069  33.169 138.125  1.00  0.00    -0.070 CG0
ATOM      9  C   UNL     1      26.083  34.591 138.637  1.00  0.00     0.039 C 
ATOM     10  G   UNL     1      24.720  32.420 138.166  1.00  0.00     0.000 G0
ENDBRANCH   6   7
ENDBRANCH   5   6
ENDBRANCH   3   5
ENDBRANCH   1   3
BRANCH   1  11
ATOM     11  C   UNL     1      26.290  30.682 141.185  1.00  0.00     0.087 C 
BRANCH  11  12
ATOM     12  C   UNL     1      25.128  31.674 140.765  1.00  0.00     0.066 C 
BRANCH  12  13
ATOM     13  C   UNL     1      24.547  31.465 139.343  1.00  0.00     0.140 C 
ATOM     14  O   UNL     1      23.929  30.430 139.134  1.00  0.00    -0.299 OA
BRANCH  13  15
ATOM     15  C   UNL     1      24.714  32.430 138.163  1.00  0.00     0.106 CG0
ATOM     16  G   UNL     1      26.077  33.156 138.149  1.00  0.00     0.000 G0
ENDBRANCH  13  15
ENDBRANCH  12  13
BRANCH  12  17
ATOM     17  C   UNL     1      24.113  32.125 141.878  1.00  0.00    -0.006 C 
ATOM     18  C   UNL     1      23.691  30.931 142.756  1.00  0.00     0.008 C 
ATOM     19  C   UNL     1      22.841  32.854 141.407  1.00  0.00     0.008 C 
ENDBRANCH  12  17
ENDBRANCH  11  12
ENDBRANCH   1  11
TORSDOF 1
ENDMDL
MODEL 9
REMARK VINA RESULT:    -3.235     13.098     14.746
REMARK INTER + INTRA:          -5.236
REMARK INTER:                  -4.588
REMARK INTRA:                  -0.648
REMARK UNBOUND:                -0.299
REMARK SMILES CC1=CCC[C@H](C)C(=O)C[C@H](C(C)C)C(=O)C1
REMARK SMILES IDX 8 1 9 2 6 3 7 4 5 5 4 6 3 7 2 8 1 9 10 11 11 12 15 13 16 14
REMARK SMILES IDX 17 15 12 17 13 18 14 19
REMARK H PARENT
REMARK Flexibility Score: 70.00
ROOT
ATOM      1  C   UNL     1      32.935  41.400 149.229  1.00  0.00     0.136 C 
ATOM      2  O   UNL     1      32.641  41.497 150.412  1.00  0.00    -0.299 OA
ENDROOT
BRANCH   1   3
ATOM      3  C   UNL     1      32.060  40.510 148.325  1.00  0.00     0.053 C 
ATOM      4  C   UNL     1      30.640  41.081 148.178  1.00  0.00     0.016 C 
BRANCH   3   5
ATOM      5  C   UNL     1      32.762  40.409 146.986  1.00  0.00     0.015 C 
BRANCH   5   6
ATOM      6  C   UNL     1      33.634  39.261 146.532  1.00  0.00     0.028 C 
BRANCH   6   7
ATOM      7  C   UNL     1      33.569  38.144 147.572  1.00  0.00    -0.028 C 
ATOM      8  C   UNL     1      34.459  37.848 148.578  1.00  0.00    -0.070 CG0
ATOM      9  C   UNL     1      34.074  36.717 149.502  1.00  0.00     0.039 C 
ATOM     10  G   UNL     1      35.805  38.554 148.854  1.00  0.00     0.000 G0
ENDBRANCH   6   7
ENDBRANCH   5   6
ENDBRANCH   3   5
ENDBRANCH   1   3
BRANCH   1  11
ATOM     11  C   UNL     1      34.237  42.081 148.756  1.00  0.00     0.087 C 
BRANCH  11  12
ATOM     12  C   UNL     1      35.622  41.310 148.744  1.00  0.00     0.066 C 
BRANCH  12  13
ATOM     13  C   UNL     1      35.644  39.958 149.503  1.00  0.00     0.140 C 
ATOM     14  O   UNL     1      35.544  39.995 150.722  1.00  0.00    -0.299 OA
BRANCH  13  15
ATOM     15  C   UNL     1      35.818  38.579 148.857  1.00  0.00     0.106 CG0
ATOM     16  G   UNL     1      34.483  37.854 148.582  1.00  0.00     0.000 G0
ENDBRANCH  13  15
ENDBRANCH  12  13
BRANCH  12  17
ATOM     17  C   UNL     1      36.497  41.397 147.441  1.00  0.00    -0.006 C 
ATOM     18  C   UNL     1      37.920  41.890 147.764  1.00  0.00     0.008 C 
ATOM     19  C   UNL     1      35.940  42.247 146.284  1.00  0.00     0.008 C 
ENDBRANCH  12  17
ENDBRANCH  11  12
ENDBRANCH   1  11
TORSDOF 1
ENDMDL
