MODEL 1
REMARK VINA RESULT:    -4.724      0.000      0.000
REMARK INTER + INTRA:          -7.872
REMARK INTER:                  -6.933
REMARK INTRA:                  -0.939
REMARK UNBOUND:                -0.939
REMARK SMILES CC(C)COC(=O)c1ccccc1C(=O)OCC(C)C
REMARK SMILES IDX 8 1 9 2 10 3 11 4 12 5 13 6 6 7 7 8 5 9 4 10 2 11 1 12 3 13
REMARK SMILES IDX 14 14 15 15 16 16 17 17 18 18 19 19 20 20
REMARK H PARENT
REMARK Flexibility Score: inf
ROOT
ATOM      1  C   UNL     1       0.210  -4.784  -4.926  1.00  0.00     0.074 A 
ATOM      2  C   UNL     1       0.649  -6.120  -4.937  1.00  0.00     0.016 A 
ATOM      3  C   UNL     1      -0.233  -7.158  -5.240  1.00  0.00     0.001 A 
ATOM      4  C   UNL     1      -1.566  -6.879  -5.535  1.00  0.00     0.001 A 
ATOM      5  C   UNL     1      -2.015  -5.558  -5.553  1.00  0.00     0.016 A 
ATOM      6  C   UNL     1      -1.138  -4.494  -5.271  1.00  0.00     0.074 A 
ENDROOT
BRANCH   1   7
ATOM      7  C   UNL     1       1.169  -3.746  -4.492  1.00  0.00     0.339 C 
ATOM      8  O   UNL     1       1.779  -3.044  -5.346  1.00  0.00    -0.246 OA
BRANCH   7   9
ATOM      9  O   UNL     1       1.358  -3.512  -3.127  1.00  0.00    -0.462 OA
BRANCH   9  10
ATOM     10  C   UNL     1       2.475  -4.020  -2.404  1.00  0.00     0.236 C 
BRANCH  10  11
ATOM     11  C   UNL     1       2.629  -3.288  -1.061  1.00  0.00     0.021 C 
ATOM     12  C   UNL     1       3.743  -2.236  -1.129  1.00  0.00     0.011 C 
ATOM     13  C   UNL     1       1.304  -2.649  -0.626  1.00  0.00     0.011 C 
ENDBRANCH  10  11
ENDBRANCH   9  10
ENDBRANCH   7   9
ENDBRANCH   1   7
BRANCH   6  14
ATOM     14  C   UNL     1      -1.641  -3.110  -5.429  1.00  0.00     0.339 C 
ATOM     15  O   UNL     1      -2.066  -2.479  -4.422  1.00  0.00    -0.246 OA
BRANCH  14  16
ATOM     16  O   UNL     1      -1.689  -2.526  -6.702  1.00  0.00    -0.462 OA
BRANCH  16  17
ATOM     17  C   UNL     1      -2.882  -2.020  -7.303  1.00  0.00     0.236 C 
BRANCH  17  18
ATOM     18  C   UNL     1      -4.028  -3.048  -7.240  1.00  0.00     0.021 C 
ATOM     19  C   UNL     1      -4.438  -3.536  -8.635  1.00  0.00     0.011 C 
ATOM     20  C   UNL     1      -5.237  -2.484  -6.485  1.00  0.00     0.011 C 
ENDBRANCH  17  18
ENDBRANCH  16  17
ENDBRANCH  14  16
ENDBRANCH   6  14
TORSDOF 8
ENDMDL
MODEL 2
REMARK VINA RESULT:    -4.723      0.057      6.361
REMARK INTER + INTRA:          -7.870
REMARK INTER:                  -6.934
REMARK INTRA:                  -0.936
REMARK UNBOUND:                -0.939
REMARK SMILES CC(C)COC(=O)c1ccccc1C(=O)OCC(C)C
REMARK SMILES IDX 8 1 9 2 10 3 11 4 12 5 13 6 6 7 7 8 5 9 4 10 2 11 1 12 3 13
REMARK SMILES IDX 14 14 15 15 16 16 17 17 18 18 19 19 20 20
REMARK H PARENT
REMARK Flexibility Score: inf
ROOT
ATOM      1  C   UNL     1      -1.142  -4.526  -5.294  1.00  0.00     0.074 A 
ATOM      2  C   UNL     1      -2.023  -5.590  -5.562  1.00  0.00     0.016 A 
ATOM      3  C   UNL     1      -1.572  -6.910  -5.550  1.00  0.00     0.001 A 
ATOM      4  C   UNL     1      -0.236  -7.189  -5.272  1.00  0.00     0.001 A 
ATOM      5  C   UNL     1       0.649  -6.151  -4.980  1.00  0.00     0.016 A 
ATOM      6  C   UNL     1       0.211  -4.813  -4.966  1.00  0.00     0.074 A 
ENDROOT
BRANCH   1   7
ATOM      7  C   UNL     1      -1.662  -3.149  -5.429  1.00  0.00     0.339 C 
ATOM      8  O   UNL     1      -2.031  -2.503  -4.409  1.00  0.00    -0.246 OA
BRANCH   7   9
ATOM      9  O   UNL     1      -1.692  -2.547  -6.690  1.00  0.00    -0.462 OA
BRANCH   9  10
ATOM     10  C   UNL     1      -2.882  -2.012  -7.261  1.00  0.00     0.236 C 
BRANCH  10  11
ATOM     11  C   UNL     1      -4.034  -3.024  -7.157  1.00  0.00     0.021 C 
ATOM     12  C   UNL     1      -5.239  -2.419  -6.427  1.00  0.00     0.011 C 
ATOM     13  C   UNL     1      -4.442  -3.542  -8.542  1.00  0.00     0.011 C 
ENDBRANCH  10  11
ENDBRANCH   9  10
ENDBRANCH   7   9
ENDBRANCH   1   7
BRANCH   6  14
ATOM     14  C   UNL     1       1.163  -3.767  -4.526  1.00  0.00     0.339 C 
ATOM     15  O   UNL     1       1.835  -3.131  -5.384  1.00  0.00    -0.246 OA
BRANCH  14  16
ATOM     16  O   UNL     1       1.352  -3.525  -3.159  1.00  0.00    -0.462 OA
BRANCH  16  17
ATOM     17  C   UNL     1       2.430  -4.066  -2.393  1.00  0.00     0.236 C 
BRANCH  17  18
ATOM     18  C   UNL     1       2.618  -3.305  -1.066  1.00  0.00     0.021 C 
ATOM     19  C   UNL     1       1.315  -2.655  -0.588  1.00  0.00     0.011 C 
ATOM     20  C   UNL     1       3.736  -2.262  -1.180  1.00  0.00     0.011 C 
ENDBRANCH  17  18
ENDBRANCH  16  17
ENDBRANCH  14  16
ENDBRANCH   6  14
TORSDOF 8
ENDMDL
MODEL 3
REMARK VINA RESULT:    -4.649      1.283      1.806
REMARK INTER + INTRA:          -7.762
REMARK INTER:                  -6.355
REMARK INTRA:                  -1.407
REMARK UNBOUND:                -0.939
REMARK SMILES CC(C)COC(=O)c1ccccc1C(=O)OCC(C)C
REMARK SMILES IDX 8 1 9 2 10 3 11 4 12 5 13 6 6 7 7 8 5 9 4 10 2 11 1 12 3 13
REMARK SMILES IDX 14 14 15 15 16 16 17 17 18 18 19 19 20 20
REMARK H PARENT
REMARK Flexibility Score: inf
ROOT
ATOM      1  C   UNL     1       0.244  -4.823  -4.919  1.00  0.00     0.074 A 
ATOM      2  C   UNL     1       0.724  -6.145  -4.929  1.00  0.00     0.016 A 
ATOM      3  C   UNL     1      -0.129  -7.212  -5.214  1.00  0.00     0.001 A 
ATOM      4  C   UNL     1      -1.474  -6.976  -5.491  1.00  0.00     0.001 A 
ATOM      5  C   UNL     1      -1.965  -5.670  -5.510  1.00  0.00     0.016 A 
ATOM      6  C   UNL     1      -1.118  -4.578  -5.246  1.00  0.00     0.074 A 
ENDROOT
BRANCH   1   7
ATOM      7  C   UNL     1       1.176  -3.753  -4.504  1.00  0.00     0.339 C 
ATOM      8  O   UNL     1       1.730  -3.019  -5.369  1.00  0.00    -0.246 OA
BRANCH   7   9
ATOM      9  O   UNL     1       1.400  -3.526  -3.143  1.00  0.00    -0.462 OA
BRANCH   9  10
ATOM     10  C   UNL     1       2.601  -3.913  -2.483  1.00  0.00     0.236 C 
BRANCH  10  11
ATOM     11  C   UNL     1       2.467  -3.727  -0.963  1.00  0.00     0.021 C 
ATOM     12  C   UNL     1       1.330  -2.755  -0.623  1.00  0.00     0.011 C 
ATOM     13  C   UNL     1       2.259  -5.074  -0.258  1.00  0.00     0.011 C 
ENDBRANCH  10  11
ENDBRANCH   9  10
ENDBRANCH   7   9
ENDBRANCH   1   7
BRANCH   6  14
ATOM     14  C   UNL     1      -1.665  -3.210  -5.404  1.00  0.00     0.339 C 
ATOM     15  O   UNL     1      -2.005  -2.550  -4.384  1.00  0.00    -0.246 OA
BRANCH  14  16
ATOM     16  O   UNL     1      -1.851  -2.676  -6.686  1.00  0.00    -0.462 OA
BRANCH  16  17
ATOM     17  C   UNL     1      -0.899  -2.791  -7.745  1.00  0.00     0.236 C 
BRANCH  17  18
ATOM     18  C   UNL     1      -1.395  -3.743  -8.850  1.00  0.00     0.021 C 
ATOM     19  C   UNL     1      -2.885  -4.068  -8.701  1.00  0.00     0.011 C 
ATOM     20  C   UNL     1      -0.560  -5.029  -8.890  1.00  0.00     0.011 C 
ENDBRANCH  17  18
ENDBRANCH  16  17
ENDBRANCH  14  16
ENDBRANCH   6  14
TORSDOF 8
ENDMDL
MODEL 4
REMARK VINA RESULT:    -4.610      1.264      6.110
REMARK INTER + INTRA:          -7.704
REMARK INTER:                  -6.337
REMARK INTRA:                  -1.367
REMARK UNBOUND:                -0.939
REMARK SMILES CC(C)COC(=O)c1ccccc1C(=O)OCC(C)C
REMARK SMILES IDX 8 1 9 2 10 3 11 4 12 5 13 6 6 7 7 8 5 9 4 10 2 11 1 12 3 13
REMARK SMILES IDX 14 14 15 15 16 16 17 17 18 18 19 19 20 20
REMARK H PARENT
REMARK Flexibility Score: inf
ROOT
ATOM      1  C   UNL     1      -1.148  -4.642  -5.251  1.00  0.00     0.074 A 
ATOM      2  C   UNL     1      -1.970  -5.755  -5.504  1.00  0.00     0.016 A 
ATOM      3  C   UNL     1      -1.445  -7.048  -5.492  1.00  0.00     0.001 A 
ATOM      4  C   UNL     1      -0.092  -7.249  -5.227  1.00  0.00     0.001 A 
ATOM      5  C   UNL     1       0.736  -6.162  -4.949  1.00  0.00     0.016 A 
ATOM      6  C   UNL     1       0.223  -4.851  -4.937  1.00  0.00     0.074 A 
ENDROOT
BRANCH   1   7
ATOM      7  C   UNL     1      -1.746  -3.297  -5.386  1.00  0.00     0.339 C 
ATOM      8  O   UNL     1      -1.975  -2.595  -4.362  1.00  0.00    -0.246 OA
BRANCH   7   9
ATOM      9  O   UNL     1      -2.006  -2.786  -6.661  1.00  0.00    -0.462 OA
BRANCH   9  10
ATOM     10  C   UNL     1      -1.037  -2.785  -7.705  1.00  0.00     0.236 C 
BRANCH  10  11
ATOM     11  C   UNL     1      -1.463  -3.731  -8.839  1.00  0.00     0.021 C 
ATOM     12  C   UNL     1      -0.585  -4.989  -8.868  1.00  0.00     0.011 C 
ATOM     13  C   UNL     1      -2.945  -4.106  -8.719  1.00  0.00     0.011 C 
ENDBRANCH  10  11
ENDBRANCH   9  10
ENDBRANCH   7   9
ENDBRANCH   1   7
BRANCH   6  14
ATOM     14  C   UNL     1       1.119  -3.750  -4.512  1.00  0.00     0.339 C 
ATOM     15  O   UNL     1       1.688  -3.035  -5.381  1.00  0.00    -0.246 OA
BRANCH  14  16
ATOM     16  O   UNL     1       1.372  -3.542  -3.149  1.00  0.00    -0.462 OA
BRANCH  16  17
ATOM     17  C   UNL     1       2.597  -3.888  -2.502  1.00  0.00     0.236 C 
BRANCH  17  18
ATOM     18  C   UNL     1       2.495  -3.722  -0.973  1.00  0.00     0.021 C 
ATOM     19  C   UNL     1       2.321  -5.069  -0.261  1.00  0.00     0.011 C 
ATOM     20  C   UNL     1       1.365  -2.758  -0.594  1.00  0.00     0.011 C 
ENDBRANCH  17  18
ENDBRANCH  16  17
ENDBRANCH  14  16
ENDBRANCH   6  14
TORSDOF 8
ENDMDL
MODEL 5
REMARK VINA RESULT:    -4.456      9.323     11.613
REMARK INTER + INTRA:          -7.479
REMARK INTER:                  -5.650
REMARK INTRA:                  -1.829
REMARK UNBOUND:                -0.939
REMARK SMILES CC(C)COC(=O)c1ccccc1C(=O)OCC(C)C
REMARK SMILES IDX 8 1 9 2 10 3 11 4 12 5 13 6 6 7 7 8 5 9 4 10 2 11 1 12 3 13
REMARK SMILES IDX 14 14 15 15 16 16 17 17 18 18 19 19 20 20
REMARK H PARENT
REMARK Flexibility Score: inf
ROOT
ATOM      1  C   UNL     1      -3.086   5.052  -1.787  1.00  0.00     0.074 A 
ATOM      2  C   UNL     1      -4.304   4.368  -1.624  1.00  0.00     0.016 A 
ATOM      3  C   UNL     1      -5.511   5.065  -1.557  1.00  0.00     0.001 A 
ATOM      4  C   UNL     1      -5.521   6.455  -1.651  1.00  0.00     0.001 A 
ATOM      5  C   UNL     1      -4.327   7.151  -1.837  1.00  0.00     0.016 A 
ATOM      6  C   UNL     1      -3.100   6.467  -1.928  1.00  0.00     0.074 A 
ENDROOT
BRANCH   1   7
ATOM      7  C   UNL     1      -1.838   4.261  -1.742  1.00  0.00     0.339 C 
ATOM      8  O   UNL     1      -1.099   4.295  -0.719  1.00  0.00    -0.246 OA
BRANCH   7   9
ATOM      9  O   UNL     1      -1.510   3.434  -2.819  1.00  0.00    -0.462 OA
BRANCH   9  10
ATOM     10  C   UNL     1      -1.328   3.928  -4.143  1.00  0.00     0.236 C 
BRANCH  10  11
ATOM     11  C   UNL     1      -2.465   3.446  -5.060  1.00  0.00     0.021 C 
ATOM     12  C   UNL     1      -3.166   2.216  -4.471  1.00  0.00     0.011 C 
ATOM     13  C   UNL     1      -3.473   4.570  -5.329  1.00  0.00     0.011 C 
ENDBRANCH  10  11
ENDBRANCH   9  10
ENDBRANCH   7   9
ENDBRANCH   1   7
BRANCH   6  14
ATOM     14  C   UNL     1      -1.883   7.247  -2.251  1.00  0.00     0.339 C 
ATOM     15  O   UNL     1      -1.514   7.361  -3.453  1.00  0.00    -0.246 OA
BRANCH  14  16
ATOM     16  O   UNL     1      -1.120   7.811  -1.221  1.00  0.00    -0.462 OA
BRANCH  16  17
ATOM     17  C   UNL     1      -1.487   8.993  -0.509  1.00  0.00     0.236 C 
BRANCH  17  18
ATOM     18  C   UNL     1      -1.729   8.702   0.985  1.00  0.00     0.021 C 
ATOM     19  C   UNL     1      -1.005   7.431   1.446  1.00  0.00     0.011 C 
ATOM     20  C   UNL     1      -3.227   8.617   1.298  1.00  0.00     0.011 C 
ENDBRANCH  17  18
ENDBRANCH  16  17
ENDBRANCH  14  16
ENDBRANCH   6  14
TORSDOF 8
ENDMDL
MODEL 6
REMARK VINA RESULT:    -4.439      9.349     10.991
REMARK INTER + INTRA:          -7.455
REMARK INTER:                  -5.618
REMARK INTRA:                  -1.837
REMARK UNBOUND:                -0.939
REMARK SMILES CC(C)COC(=O)c1ccccc1C(=O)OCC(C)C
REMARK SMILES IDX 8 1 9 2 10 3 11 4 12 5 13 6 6 7 7 8 5 9 4 10 2 11 1 12 3 13
REMARK SMILES IDX 14 14 15 15 16 16 17 17 18 18 19 19 20 20
REMARK H PARENT
REMARK Flexibility Score: inf
ROOT
ATOM      1  C   UNL     1      -3.119   6.480  -1.927  1.00  0.00     0.074 A 
ATOM      2  C   UNL     1      -4.340   7.173  -1.840  1.00  0.00     0.016 A 
ATOM      3  C   UNL     1      -5.539   6.486  -1.647  1.00  0.00     0.001 A 
ATOM      4  C   UNL     1      -5.538   5.097  -1.539  1.00  0.00     0.001 A 
ATOM      5  C   UNL     1      -4.336   4.392  -1.598  1.00  0.00     0.016 A 
ATOM      6  C   UNL     1      -3.113   5.067  -1.772  1.00  0.00     0.074 A 
ENDROOT
BRANCH   1   7
ATOM      7  C   UNL     1      -1.903   7.260  -2.239  1.00  0.00     0.339 C 
ATOM      8  O   UNL     1      -1.578   7.481  -3.439  1.00  0.00    -0.246 OA
BRANCH   7   9
ATOM      9  O   UNL     1      -1.144   7.796  -1.195  1.00  0.00    -0.462 OA
BRANCH   9  10
ATOM     10  C   UNL     1      -1.512   8.987  -0.506  1.00  0.00     0.236 C 
BRANCH  10  11
ATOM     11  C   UNL     1      -1.745   8.698   0.986  1.00  0.00     0.021 C 
ATOM     12  C   UNL     1      -3.242   8.594   1.302  1.00  0.00     0.011 C 
ATOM     13  C   UNL     1      -1.008   7.427   1.424  1.00  0.00     0.011 C 
ENDBRANCH  10  11
ENDBRANCH   9  10
ENDBRANCH   7   9
ENDBRANCH   1   7
BRANCH   6  14
ATOM     14  C   UNL     1      -1.860   4.279  -1.699  1.00  0.00     0.339 C 
ATOM     15  O   UNL     1      -1.131   4.355  -0.672  1.00  0.00    -0.246 OA
BRANCH  14  16
ATOM     16  O   UNL     1      -1.463   3.496  -2.791  1.00  0.00    -0.462 OA
BRANCH  16  17
ATOM     17  C   UNL     1      -1.323   3.993  -4.122  1.00  0.00     0.236 C 
BRANCH  17  18
ATOM     18  C   UNL     1      -2.462   3.499  -5.035  1.00  0.00     0.021 C 
ATOM     19  C   UNL     1      -3.496   4.597  -5.306  1.00  0.00     0.011 C 
ATOM     20  C   UNL     1      -3.136   2.250  -4.453  1.00  0.00     0.011 C 
ENDBRANCH  17  18
ENDBRANCH  16  17
ENDBRANCH  14  16
ENDBRANCH   6  14
TORSDOF 8
ENDMDL
MODEL 7
REMARK VINA RESULT:    -4.244      1.463      5.843
REMARK INTER + INTRA:          -7.168
REMARK INTER:                  -5.449
REMARK INTRA:                  -1.719
REMARK UNBOUND:                -0.939
REMARK SMILES CC(C)COC(=O)c1ccccc1C(=O)OCC(C)C
REMARK SMILES IDX 8 1 9 2 10 3 11 4 12 5 13 6 6 7 7 8 5 9 4 10 2 11 1 12 3 13
REMARK SMILES IDX 14 14 15 15 16 16 17 17 18 18 19 19 20 20
REMARK H PARENT
REMARK Flexibility Score: inf
ROOT
ATOM      1  C   UNL     1      -1.574  -4.228  -7.207  1.00  0.00     0.074 A 
ATOM      2  C   UNL     1      -2.078  -5.282  -7.989  1.00  0.00     0.016 A 
ATOM      3  C   UNL     1      -2.342  -6.529  -7.422  1.00  0.00     0.001 A 
ATOM      4  C   UNL     1      -2.106  -6.743  -6.065  1.00  0.00     0.001 A 
ATOM      5  C   UNL     1      -1.629  -5.704  -5.266  1.00  0.00     0.016 A 
ATOM      6  C   UNL     1      -1.375  -4.432  -5.814  1.00  0.00     0.074 A 
ENDROOT
BRANCH   1   7
ATOM      7  C   UNL     1      -1.216  -2.968  -7.893  1.00  0.00     0.339 C 
ATOM      8  O   UNL     1      -0.007  -2.693  -8.131  1.00  0.00    -0.246 OA
BRANCH   7   9
ATOM      9  O   UNL     1      -2.230  -2.108  -8.324  1.00  0.00    -0.462 OA
BRANCH   9  10
ATOM     10  C   UNL     1      -3.025  -1.342  -7.424  1.00  0.00     0.236 C 
BRANCH  10  11
ATOM     11  C   UNL     1      -4.483  -1.831  -7.442  1.00  0.00     0.021 C 
ATOM     12  C   UNL     1      -4.761  -2.698  -8.676  1.00  0.00     0.011 C 
ATOM     13  C   UNL     1      -4.827  -2.590  -6.155  1.00  0.00     0.011 C 
ENDBRANCH  10  11
ENDBRANCH   9  10
ENDBRANCH   7   9
ENDBRANCH   1   7
BRANCH   6  14
ATOM     14  C   UNL     1      -0.992  -3.336  -4.894  1.00  0.00     0.339 C 
ATOM     15  O   UNL     1      -1.886  -2.615  -4.372  1.00  0.00    -0.246 OA
BRANCH  14  16
ATOM     16  O   UNL     1       0.362  -3.070  -4.650  1.00  0.00    -0.462 OA
BRANCH  16  17
ATOM     17  C   UNL     1       1.437  -3.832  -5.200  1.00  0.00     0.236 C 
BRANCH  17  18
ATOM     18  C   UNL     1       2.186  -4.623  -4.109  1.00  0.00     0.021 C 
ATOM     19  C   UNL     1       1.759  -6.095  -4.073  1.00  0.00     0.011 C 
ATOM     20  C   UNL     1       2.009  -3.972  -2.732  1.00  0.00     0.011 C 
ENDBRANCH  17  18
ENDBRANCH  16  17
ENDBRANCH  14  16
ENDBRANCH   6  14
TORSDOF 8
ENDMDL
MODEL 8
REMARK VINA RESULT:    -4.232      2.382      5.553
REMARK INTER + INTRA:          -7.151
REMARK INTER:                  -5.178
REMARK INTRA:                  -1.972
REMARK UNBOUND:                -0.939
REMARK SMILES CC(C)COC(=O)c1ccccc1C(=O)OCC(C)C
REMARK SMILES IDX 8 1 9 2 10 3 11 4 12 5 13 6 6 7 7 8 5 9 4 10 2 11 1 12 3 13
REMARK SMILES IDX 14 14 15 15 16 16 17 17 18 18 19 19 20 20
REMARK H PARENT
REMARK Flexibility Score: inf
ROOT
ATOM      1  C   UNL     1      -1.755  -4.941  -5.584  1.00  0.00     0.074 A 
ATOM      2  C   UNL     1      -2.158  -6.264  -5.843  1.00  0.00     0.016 A 
ATOM      3  C   UNL     1      -1.237  -7.311  -5.797  1.00  0.00     0.001 A 
ATOM      4  C   UNL     1       0.098  -7.055  -5.492  1.00  0.00     0.001 A 
ATOM      5  C   UNL     1       0.513  -5.753  -5.208  1.00  0.00     0.016 A 
ATOM      6  C   UNL     1      -0.403  -4.685  -5.229  1.00  0.00     0.074 A 
ENDROOT
BRANCH   1   7
ATOM      7  C   UNL     1      -2.758  -3.868  -5.756  1.00  0.00     0.339 C 
ATOM      8  O   UNL     1      -3.211  -3.251  -4.752  1.00  0.00    -0.246 OA
BRANCH   7   9
ATOM      9  O   UNL     1      -3.163  -3.506  -7.044  1.00  0.00    -0.462 OA
BRANCH   9  10
ATOM     10  C   UNL     1      -2.240  -3.220  -8.091  1.00  0.00     0.236 C 
BRANCH  10  11
ATOM     11  C   UNL     1      -2.375  -4.248  -9.226  1.00  0.00     0.021 C 
ATOM     12  C   UNL     1      -1.183  -5.213  -9.243  1.00  0.00     0.011 C 
ATOM     13  C   UNL     1      -3.697  -5.018  -9.120  1.00  0.00     0.011 C 
ENDBRANCH  10  11
ENDBRANCH   9  10
ENDBRANCH   7   9
ENDBRANCH   1   7
BRANCH   6  14
ATOM     14  C   UNL     1       0.068  -3.348  -4.796  1.00  0.00     0.339 C 
ATOM     15  O   UNL     1       0.158  -3.085  -3.565  1.00  0.00    -0.246 OA
BRANCH  14  16
ATOM     16  O   UNL     1       0.360  -2.367  -5.752  1.00  0.00    -0.462 OA
BRANCH  16  17
ATOM     17  C   UNL     1       1.569  -2.326  -6.511  1.00  0.00     0.236 C 
BRANCH  17  18
ATOM     18  C   UNL     1       1.396  -2.995  -7.888  1.00  0.00     0.021 C 
ATOM     19  C   UNL     1       2.331  -4.197  -8.063  1.00  0.00     0.011 C 
ATOM     20  C   UNL     1       1.592  -1.984  -9.025  1.00  0.00     0.011 C 
ENDBRANCH  17  18
ENDBRANCH  16  17
ENDBRANCH  14  16
ENDBRANCH   6  14
TORSDOF 8
ENDMDL
MODEL 9
REMARK VINA RESULT:    -4.181      1.959      3.205
REMARK INTER + INTRA:          -7.075
REMARK INTER:                  -5.541
REMARK INTRA:                  -1.534
REMARK UNBOUND:                -0.939
REMARK SMILES CC(C)COC(=O)c1ccccc1C(=O)OCC(C)C
REMARK SMILES IDX 8 1 9 2 10 3 11 4 12 5 13 6 6 7 7 8 5 9 4 10 2 11 1 12 3 13
REMARK SMILES IDX 14 14 15 15 16 16 17 17 18 18 19 19 20 20
REMARK H PARENT
REMARK Flexibility Score: inf
ROOT
ATOM      1  C   UNL     1      -1.719  -4.462  -5.866  1.00  0.00     0.074 A 
ATOM      2  C   UNL     1      -1.553  -5.724  -5.267  1.00  0.00     0.016 A 
ATOM      3  C   UNL     1      -1.919  -6.888  -5.944  1.00  0.00     0.001 A 
ATOM      4  C   UNL     1      -2.455  -6.810  -7.228  1.00  0.00     0.001 A 
ATOM      5  C   UNL     1      -2.605  -5.570  -7.849  1.00  0.00     0.016 A 
ATOM      6  C   UNL     1      -2.225  -4.385  -7.192  1.00  0.00     0.074 A 
ENDROOT
BRANCH   1   7
ATOM      7  C   UNL     1      -1.412  -3.266  -5.051  1.00  0.00     0.339 C 
ATOM      8  O   UNL     1      -2.344  -2.597  -4.526  1.00  0.00    -0.246 OA
BRANCH   7   9
ATOM      9  O   UNL     1      -0.079  -2.913  -4.825  1.00  0.00    -0.462 OA
BRANCH   9  10
ATOM     10  C   UNL     1       0.933  -3.041  -5.819  1.00  0.00     0.236 C 
BRANCH  10  11
ATOM     11  C   UNL     1       1.977  -4.087  -5.396  1.00  0.00     0.021 C 
ATOM     12  C   UNL     1       1.801  -4.480  -3.923  1.00  0.00     0.011 C 
ATOM     13  C   UNL     1       1.918  -5.325  -6.299  1.00  0.00     0.011 C 
ENDBRANCH  10  11
ENDBRANCH   9  10
ENDBRANCH   7   9
ENDBRANCH   1   7
BRANCH   6  14
ATOM     14  C   UNL     1      -2.289  -3.112  -7.948  1.00  0.00     0.339 C 
ATOM     15  O   UNL     1      -1.268  -2.697  -8.561  1.00  0.00    -0.246 OA
BRANCH  14  16
ATOM     16  O   UNL     1      -3.464  -2.350  -7.934  1.00  0.00    -0.462 OA
BRANCH  16  17
ATOM     17  C   UNL     1      -4.647  -2.719  -7.224  1.00  0.00     0.236 C 
BRANCH  17  18
ATOM     18  C   UNL     1      -5.885  -2.711  -8.141  1.00  0.00     0.021 C 
ATOM     19  C   UNL     1      -7.190  -2.828  -7.345  1.00  0.00     0.011 C 
ATOM     20  C   UNL     1      -5.795  -3.814  -9.202  1.00  0.00     0.011 C 
ENDBRANCH  17  18
ENDBRANCH  16  17
ENDBRANCH  14  16
ENDBRANCH   6  14
TORSDOF 8
ENDMDL
