MODEL 1
REMARK VINA RESULT:    -4.206      0.000      0.000
REMARK INTER + INTRA:          -4.960
REMARK INTER:                  -4.821
REMARK INTRA:                  -0.139
REMARK UNBOUND:                -0.139
REMARK SMILES O=C([O-])C=Cc1ccc(O)cc1
REMARK SMILES IDX 6 1 7 2 12 3 8 4 11 5 9 6 5 7 4 8 2 9 1 10 3 11 10 12
REMARK H PARENT 10 13
REMARK Flexibility Score: inf
ROOT
ATOM      1  C   UNL     1      -5.618  -0.061  -9.130  1.00  0.00    -0.025 A 
ATOM      2  C   UNL     1      -5.575  -1.296  -9.801  1.00  0.00     0.012 A 
ATOM      3  C   UNL     1      -4.536   0.300  -8.303  1.00  0.00     0.012 A 
ATOM      4  C   UNL     1      -4.467  -2.139  -9.670  1.00  0.00     0.047 A 
ATOM      5  C   UNL     1      -3.429  -0.545  -8.174  1.00  0.00     0.047 A 
ATOM      6  C   UNL     1      -3.390  -1.763  -8.857  1.00  0.00     0.115 A 
ENDROOT
BRANCH   1   7
ATOM      7  C   UNL     1      -6.821   0.793  -9.292  1.00  0.00     0.010 C 
ATOM      8  C   UNL     1      -8.026   0.483  -8.797  1.00  0.00     0.025 C 
BRANCH   8   9
ATOM      9  C   UNL     1      -9.190   1.367  -8.971  1.00  0.00     0.064 C 
ATOM     10  O   UNL     1     -10.124   1.337  -8.128  1.00  0.00    -0.545 OA
ATOM     11  O   UNL     1      -9.278   2.232 -10.057  1.00  0.00    -0.545 OA
ENDBRANCH   8   9
ENDBRANCH   1   7
BRANCH   6  12
ATOM     12  O   UNL     1      -2.280  -2.595  -8.720  1.00  0.00    -0.508 OA
ATOM     13  H   UNL     1      -1.494  -2.336  -8.136  1.00  0.00     0.293 HD
ENDBRANCH   6  12
TORSDOF 3
ENDMDL
MODEL 2
REMARK VINA RESULT:    -4.162     16.573     18.495
REMARK INTER + INTRA:          -4.909
REMARK INTER:                  -4.764
REMARK INTRA:                  -0.145
REMARK UNBOUND:                -0.139
REMARK SMILES O=C([O-])C=Cc1ccc(O)cc1
REMARK SMILES IDX 6 1 7 2 12 3 8 4 11 5 9 6 5 7 4 8 2 9 1 10 3 11 10 12
REMARK H PARENT 10 13
REMARK Flexibility Score: inf
ROOT
ATOM      1  C   UNL     1      -0.803  -9.160   6.017  1.00  0.00    -0.025 A 
ATOM      2  C   UNL     1       0.005  -8.109   6.485  1.00  0.00     0.012 A 
ATOM      3  C   UNL     1      -1.300 -10.098   6.943  1.00  0.00     0.012 A 
ATOM      4  C   UNL     1       0.290  -7.982   7.848  1.00  0.00     0.047 A 
ATOM      5  C   UNL     1      -1.013  -9.968   8.306  1.00  0.00     0.047 A 
ATOM      6  C   UNL     1      -0.221  -8.912   8.762  1.00  0.00     0.115 A 
ENDROOT
BRANCH   1   7
ATOM      7  C   UNL     1      -1.067  -9.257   4.560  1.00  0.00     0.010 C 
ATOM      8  C   UNL     1      -0.153  -8.987   3.618  1.00  0.00     0.025 C 
BRANCH   8   9
ATOM      9  C   UNL     1      -0.456  -9.109   2.183  1.00  0.00     0.064 C 
ATOM     10  O   UNL     1      -0.059 -10.121   1.548  1.00  0.00    -0.545 OA
ATOM     11  O   UNL     1      -1.171  -8.121   1.514  1.00  0.00    -0.545 OA
ENDBRANCH   8   9
ENDBRANCH   1   7
BRANCH   6  12
ATOM     12  O   UNL     1       0.057  -8.796  10.123  1.00  0.00    -0.508 OA
ATOM     13  H   UNL     1      -0.573  -8.312  10.752  1.00  0.00     0.293 HD
ENDBRANCH   6  12
TORSDOF 3
ENDMDL
MODEL 3
REMARK VINA RESULT:    -3.538      1.616      2.158
REMARK INTER + INTRA:          -4.194
REMARK INTER:                  -4.046
REMARK INTRA:                  -0.148
REMARK UNBOUND:                -0.139
REMARK SMILES O=C([O-])C=Cc1ccc(O)cc1
REMARK SMILES IDX 6 1 7 2 12 3 8 4 11 5 9 6 5 7 4 8 2 9 1 10 3 11 10 12
REMARK H PARENT 10 13
REMARK Flexibility Score: inf
ROOT
ATOM      1  C   UNL     1      -5.543   0.417  -8.974  1.00  0.00    -0.025 A 
ATOM      2  C   UNL     1      -5.075   1.408  -9.854  1.00  0.00     0.012 A 
ATOM      3  C   UNL     1      -4.610  -0.446  -8.364  1.00  0.00     0.012 A 
ATOM      4  C   UNL     1      -3.706   1.552 -10.101  1.00  0.00     0.047 A 
ATOM      5  C   UNL     1      -3.242  -0.299  -8.613  1.00  0.00     0.047 A 
ATOM      6  C   UNL     1      -2.786   0.699  -9.479  1.00  0.00     0.115 A 
ENDROOT
BRANCH   1   7
ATOM      7  C   UNL     1      -7.006   0.297  -8.754  1.00  0.00     0.010 C 
ATOM      8  C   UNL     1      -7.854   1.333  -8.810  1.00  0.00     0.025 C 
BRANCH   8   9
ATOM      9  C   UNL     1      -9.301   1.166  -8.597  1.00  0.00     0.064 C 
ATOM     10  O   UNL     1     -10.101   2.005  -9.086  1.00  0.00    -0.545 OA
ATOM     11  O   UNL     1      -9.799   0.097  -7.860  1.00  0.00    -0.545 OA
ENDBRANCH   8   9
ENDBRANCH   1   7
BRANCH   6  12
ATOM     12  O   UNL     1      -1.420   0.833  -9.717  1.00  0.00    -0.508 OA
ATOM     13  H   UNL     1      -0.798   1.229  -9.022  1.00  0.00     0.293 HD
ENDBRANCH   6  12
TORSDOF 3
ENDMDL
MODEL 4
REMARK VINA RESULT:    -3.367     16.849     18.702
REMARK INTER + INTRA:          -3.998
REMARK INTER:                  -3.846
REMARK INTRA:                  -0.152
REMARK UNBOUND:                -0.139
REMARK SMILES O=C([O-])C=Cc1ccc(O)cc1
REMARK SMILES IDX 6 1 7 2 12 3 8 4 11 5 9 6 5 7 4 8 2 9 1 10 3 11 10 12
REMARK H PARENT 10 13
REMARK Flexibility Score: inf
ROOT
ATOM      1  C   UNL     1      -0.751  -9.444   5.585  1.00  0.00    -0.025 A 
ATOM      2  C   UNL     1       0.371  -8.699   5.182  1.00  0.00     0.012 A 
ATOM      3  C   UNL     1      -1.501 -10.125   4.605  1.00  0.00     0.012 A 
ATOM      4  C   UNL     1       0.751  -8.655   3.837  1.00  0.00     0.047 A 
ATOM      5  C   UNL     1      -1.119 -10.078   3.260  1.00  0.00     0.047 A 
ATOM      6  C   UNL     1       0.007  -9.347   2.873  1.00  0.00     0.115 A 
ENDROOT
BRANCH   1   7
ATOM      7  C   UNL     1      -1.119  -9.451   7.022  1.00  0.00     0.010 C 
ATOM      8  C   UNL     1      -0.575  -8.633   7.934  1.00  0.00     0.025 C 
BRANCH   8   9
ATOM      9  C   UNL     1      -0.980  -8.666   9.349  1.00  0.00     0.064 C 
ATOM     10  O   UNL     1      -0.608  -7.745  10.122  1.00  0.00    -0.545 OA
ATOM     11  O   UNL     1      -1.764  -9.701   9.847  1.00  0.00    -0.545 OA
ENDBRANCH   8   9
ENDBRANCH   1   7
BRANCH   6  12
ATOM     12  O   UNL     1       0.376  -9.310   1.530  1.00  0.00    -0.508 OA
ATOM     13  H   UNL     1       0.633  -8.442   1.076  1.00  0.00     0.293 HD
ENDBRANCH   6  12
TORSDOF 3
ENDMDL
MODEL 5
REMARK VINA RESULT:    -3.363      4.017      5.575
REMARK INTER + INTRA:          -3.993
REMARK INTER:                  -3.854
REMARK INTRA:                  -0.139
REMARK UNBOUND:                -0.139
REMARK SMILES O=C([O-])C=Cc1ccc(O)cc1
REMARK SMILES IDX 6 1 7 2 12 3 8 4 11 5 9 6 5 7 4 8 2 9 1 10 3 11 10 12
REMARK H PARENT 10 13
REMARK Flexibility Score: inf
ROOT
ATOM      1  C   UNL     1      -4.490  -3.162  -9.526  1.00  0.00    -0.025 A 
ATOM      2  C   UNL     1      -3.092  -3.183  -9.375  1.00  0.00     0.012 A 
ATOM      3  C   UNL     1      -5.125  -1.933  -9.794  1.00  0.00     0.012 A 
ATOM      4  C   UNL     1      -2.343  -2.010  -9.515  1.00  0.00     0.047 A 
ATOM      5  C   UNL     1      -4.373  -0.762  -9.933  1.00  0.00     0.047 A 
ATOM      6  C   UNL     1      -2.984  -0.797  -9.796  1.00  0.00     0.115 A 
ENDROOT
BRANCH   1   7
ATOM      7  C   UNL     1      -5.241  -4.431  -9.358  1.00  0.00     0.010 C 
ATOM      8  C   UNL     1      -5.244  -5.150  -8.227  1.00  0.00     0.025 C 
BRANCH   8   9
ATOM      9  C   UNL     1      -6.014  -6.398  -8.101  1.00  0.00     0.064 C 
ATOM     10  O   UNL     1      -5.433  -7.504  -8.250  1.00  0.00    -0.545 OA
ATOM     11  O   UNL     1      -7.376  -6.375  -7.823  1.00  0.00    -0.545 OA
ENDBRANCH   8   9
ENDBRANCH   1   7
BRANCH   6  12
ATOM     12  O   UNL     1      -2.247   0.378  -9.937  1.00  0.00    -0.508 OA
ATOM     13  H   UNL     1      -1.827   0.636 -10.822  1.00  0.00     0.293 HD
ENDBRANCH   6  12
TORSDOF 3
ENDMDL
MODEL 6
REMARK VINA RESULT:    -3.290     16.813     18.713
REMARK INTER + INTRA:          -3.909
REMARK INTER:                  -3.766
REMARK INTRA:                  -0.143
REMARK UNBOUND:                -0.139
REMARK SMILES O=C([O-])C=Cc1ccc(O)cc1
REMARK SMILES IDX 6 1 7 2 12 3 8 4 11 5 9 6 5 7 4 8 2 9 1 10 3 11 10 12
REMARK H PARENT 10 13
REMARK Flexibility Score: inf
ROOT
ATOM      1  C   UNL     1      -0.420  -9.021   5.796  1.00  0.00    -0.025 A 
ATOM      2  C   UNL     1      -1.478  -9.787   5.278  1.00  0.00     0.012 A 
ATOM      3  C   UNL     1       0.615  -8.618   4.928  1.00  0.00     0.012 A 
ATOM      4  C   UNL     1      -1.517 -10.123   3.921  1.00  0.00     0.047 A 
ATOM      5  C   UNL     1       0.573  -8.956   3.571  1.00  0.00     0.047 A 
ATOM      6  C   UNL     1      -0.491  -9.705   3.065  1.00  0.00     0.115 A 
ENDROOT
BRANCH   1   7
ATOM      7  C   UNL     1      -0.419  -8.700   7.245  1.00  0.00     0.010 C 
ATOM      8  C   UNL     1       0.386  -7.786   7.804  1.00  0.00     0.025 C 
BRANCH   8   9
ATOM      9  C   UNL     1       0.344  -7.490   9.246  1.00  0.00     0.064 C 
ATOM     10  O   UNL     1      -0.496  -8.079   9.976  1.00  0.00    -0.545 OA
ATOM     11  O   UNL     1       1.214  -6.567   9.814  1.00  0.00    -0.545 OA
ENDBRANCH   8   9
ENDBRANCH   1   7
BRANCH   6  12
ATOM     12  O   UNL     1      -0.519 -10.034   1.710  1.00  0.00    -0.508 OA
ATOM     13  H   UNL     1       0.334 -10.134   1.172  1.00  0.00     0.293 HD
ENDBRANCH   6  12
TORSDOF 3
ENDMDL
MODEL 7
REMARK VINA RESULT:    -3.256      3.249      5.595
REMARK INTER + INTRA:          -3.871
REMARK INTER:                  -3.737
REMARK INTRA:                  -0.133
REMARK UNBOUND:                -0.139
REMARK SMILES O=C([O-])C=Cc1ccc(O)cc1
REMARK SMILES IDX 6 1 7 2 12 3 8 4 11 5 9 6 5 7 4 8 2 9 1 10 3 11 10 12
REMARK H PARENT 10 13
REMARK Flexibility Score: inf
ROOT
ATOM      1  C   UNL     1      -4.674  -2.771  -9.429  1.00  0.00    -0.025 A 
ATOM      2  C   UNL     1      -5.496  -1.824 -10.064  1.00  0.00     0.012 A 
ATOM      3  C   UNL     1      -3.636  -2.315  -8.592  1.00  0.00     0.012 A 
ATOM      4  C   UNL     1      -5.303  -0.456  -9.851  1.00  0.00     0.047 A 
ATOM      5  C   UNL     1      -3.445  -0.946  -8.381  1.00  0.00     0.047 A 
ATOM      6  C   UNL     1      -4.277  -0.014  -9.006  1.00  0.00     0.115 A 
ENDROOT
BRANCH   1   7
ATOM      7  C   UNL     1      -4.913  -4.211  -9.696  1.00  0.00     0.010 C 
ATOM      8  C   UNL     1      -5.578  -5.023  -8.862  1.00  0.00     0.025 C 
BRANCH   8   9
ATOM      9  C   UNL     1      -5.802  -6.444  -9.174  1.00  0.00     0.064 C 
ATOM     10  O   UNL     1      -6.564  -6.758 -10.124  1.00  0.00    -0.545 OA
ATOM     11  O   UNL     1      -5.188  -7.446  -8.431  1.00  0.00    -0.545 OA
ENDBRANCH   8   9
ENDBRANCH   1   7
BRANCH   6  12
ATOM     12  O   UNL     1      -4.076   1.347  -8.786  1.00  0.00    -0.508 OA
ATOM     13  H   UNL     1      -4.454   1.813  -7.971  1.00  0.00     0.293 HD
ENDBRANCH   6  12
TORSDOF 3
ENDMDL
MODEL 8
REMARK VINA RESULT:    -3.205      4.494      6.452
REMARK INTER + INTRA:          -3.812
REMARK INTER:                  -3.666
REMARK INTRA:                  -0.146
REMARK UNBOUND:                -0.139
REMARK SMILES O=C([O-])C=Cc1ccc(O)cc1
REMARK SMILES IDX 6 1 7 2 12 3 8 4 11 5 9 6 5 7 4 8 2 9 1 10 3 11 10 12
REMARK H PARENT 10 13
REMARK Flexibility Score: inf
ROOT
ATOM      1  C   UNL     1      -5.497  -4.807  -9.273  1.00  0.00    -0.025 A 
ATOM      2  C   UNL     1      -5.304  -5.641  -8.158  1.00  0.00     0.012 A 
ATOM      3  C   UNL     1      -6.625  -5.019 -10.091  1.00  0.00     0.012 A 
ATOM      4  C   UNL     1      -6.227  -6.646  -7.851  1.00  0.00     0.047 A 
ATOM      5  C   UNL     1      -7.546  -6.026  -9.782  1.00  0.00     0.047 A 
ATOM      6  C   UNL     1      -7.352  -6.838  -8.663  1.00  0.00     0.115 A 
ENDROOT
BRANCH   1   7
ATOM      7  C   UNL     1      -4.484  -3.763  -9.562  1.00  0.00     0.010 C 
ATOM      8  C   UNL     1      -3.947  -2.967  -8.627  1.00  0.00     0.025 C 
BRANCH   8   9
ATOM      9  C   UNL     1      -2.935  -1.951  -8.958  1.00  0.00     0.064 C 
ATOM     10  O   UNL     1      -2.160  -2.141  -9.931  1.00  0.00    -0.545 OA
ATOM     11  O   UNL     1      -2.817  -0.786  -8.209  1.00  0.00    -0.545 OA
ENDBRANCH   8   9
ENDBRANCH   1   7
BRANCH   6  12
ATOM     12  O   UNL     1      -8.278  -7.837  -8.367  1.00  0.00    -0.508 OA
ATOM     13  H   UNL     1      -8.106  -8.806  -8.606  1.00  0.00     0.293 HD
ENDBRANCH   6  12
TORSDOF 3
ENDMDL
