MODEL 1
REMARK VINA RESULT:    -3.387      0.000      0.000
REMARK INTER + INTRA:          -5.493
REMARK INTER:                  -4.774
REMARK INTRA:                  -0.720
REMARK UNBOUND:                -0.720
REMARK SMILES CCCCCCCCC(=O)[O-]
REMARK SMILES IDX 6 1 7 2 8 3 9 4 10 5 11 6 5 7 4 8 3 9 2 10 1 11
REMARK H PARENT
REMARK Flexibility Score: inf
ROOT
ATOM      1  C   UNL     1      29.593  13.238 -18.354  1.00  0.00     0.000 C 
ENDROOT
BRANCH   1   2
ATOM      2  C   UNL     1      28.739  13.401 -17.091  1.00  0.00     0.006 C 
BRANCH   2   3
ATOM      3  C   UNL     1      29.620  13.609 -15.855  1.00  0.00     0.053 C 
BRANCH   3   4
ATOM      4  C   UNL     1      29.626  15.050 -15.453  1.00  0.00     0.041 C 
ATOM      5  O   UNL     1      29.434  15.374 -14.251  1.00  0.00    -0.550 OA
ATOM      6  O   UNL     1      29.894  16.033 -16.398  1.00  0.00    -0.550 OA
ENDBRANCH   3   4
ENDBRANCH   2   3
ENDBRANCH   1   2
BRANCH   1   7
ATOM      7  C   UNL     1      30.804  12.333 -18.086  1.00  0.00     0.000 C 
BRANCH   7   8
ATOM      8  C   UNL     1      30.737  10.998 -18.849  1.00  0.00    -0.000 C 
BRANCH   8   9
ATOM      9  C   UNL     1      30.569   9.750 -17.963  1.00  0.00    -0.000 C 
BRANCH   9  10
ATOM     10  C   UNL     1      30.716  10.054 -16.466  1.00  0.00    -0.003 C 
ATOM     11  C   UNL     1      29.397   9.839 -15.729  1.00  0.00     0.004 C 
ENDBRANCH   9  10
ENDBRANCH   8   9
ENDBRANCH   7   8
ENDBRANCH   1   7
TORSDOF 7
ENDMDL
MODEL 2
REMARK VINA RESULT:    -3.348      2.694      4.467
REMARK INTER + INTRA:          -5.438
REMARK INTER:                  -4.642
REMARK INTRA:                  -0.796
REMARK UNBOUND:                -0.720
REMARK SMILES CCCCCCCCC(=O)[O-]
REMARK SMILES IDX 6 1 7 2 8 3 9 4 10 5 11 6 5 7 4 8 3 9 2 10 1 11
REMARK H PARENT
REMARK Flexibility Score: inf
ROOT
ATOM      1  C   UNL     1      29.616  15.230 -17.458  1.00  0.00     0.000 C 
ENDROOT
BRANCH   1   2
ATOM      2  C   UNL     1      29.454  13.790 -17.960  1.00  0.00     0.006 C 
BRANCH   2   3
ATOM      3  C   UNL     1      30.736  12.983 -17.737  1.00  0.00     0.053 C 
BRANCH   3   4
ATOM      4  C   UNL     1      30.469  11.519 -17.898  1.00  0.00     0.041 C 
ATOM      5  O   UNL     1      30.008  10.850 -16.935  1.00  0.00    -0.550 OA
ATOM      6  O   UNL     1      30.681  10.905 -19.125  1.00  0.00    -0.550 OA
ENDBRANCH   3   4
ENDBRANCH   2   3
ENDBRANCH   1   2
BRANCH   1   7
ATOM      7  C   UNL     1      30.814  15.349 -16.505  1.00  0.00     0.000 C 
BRANCH   7   8
ATOM      8  C   UNL     1      30.445  15.982 -15.152  1.00  0.00    -0.000 C 
BRANCH   8   9
ATOM      9  C   UNL     1      29.356  15.237 -14.359  1.00  0.00    -0.000 C 
BRANCH   9  10
ATOM     10  C   UNL     1      29.707  13.765 -14.100  1.00  0.00    -0.003 C 
ATOM     11  C   UNL     1      28.532  12.851 -14.439  1.00  0.00     0.004 C 
ENDBRANCH   9  10
ENDBRANCH   8   9
ENDBRANCH   7   8
ENDBRANCH   1   7
TORSDOF 7
ENDMDL
MODEL 3
REMARK VINA RESULT:    -3.265      3.446      5.467
REMARK INTER + INTRA:          -5.321
REMARK INTER:                  -5.010
REMARK INTRA:                  -0.311
REMARK UNBOUND:                -0.720
REMARK SMILES CCCCCCCCC(=O)[O-]
REMARK SMILES IDX 6 1 7 2 8 3 9 4 10 5 11 6 5 7 4 8 3 9 2 10 1 11
REMARK H PARENT
REMARK Flexibility Score: inf
ROOT
ATOM      1  C   UNL     1      28.857  12.616 -14.262  1.00  0.00     0.000 C 
ENDROOT
BRANCH   1   2
ATOM      2  C   UNL     1      29.272  12.218 -15.684  1.00  0.00     0.006 C 
BRANCH   2   3
ATOM      3  C   UNL     1      28.419  12.945 -16.729  1.00  0.00     0.053 C 
BRANCH   3   4
ATOM      4  C   UNL     1      29.266  13.382 -17.883  1.00  0.00     0.041 C 
ATOM      5  O   UNL     1      29.234  14.579 -18.275  1.00  0.00    -0.550 OA
ATOM      6  O   UNL     1      30.126  12.479 -18.494  1.00  0.00    -0.550 OA
ENDBRANCH   3   4
ENDBRANCH   2   3
ENDBRANCH   1   2
BRANCH   1   7
ATOM      7  C   UNL     1      28.983  14.133 -14.058  1.00  0.00     0.000 C 
BRANCH   7   8
ATOM      8  C   UNL     1      28.105  14.658 -12.907  1.00  0.00    -0.000 C 
BRANCH   8   9
ATOM      9  C   UNL     1      27.099  13.641 -12.339  1.00  0.00    -0.000 C 
BRANCH   9  10
ATOM     10  C   UNL     1      25.753  14.276 -11.963  1.00  0.00    -0.003 C 
ATOM     11  C   UNL     1      25.525  14.229 -10.455  1.00  0.00     0.004 C 
ENDBRANCH   9  10
ENDBRANCH   8   9
ENDBRANCH   7   8
ENDBRANCH   1   7
TORSDOF 7
ENDMDL
MODEL 4
REMARK VINA RESULT:    -3.238      5.994      6.837
REMARK INTER + INTRA:          -5.283
REMARK INTER:                  -5.030
REMARK INTRA:                  -0.253
REMARK UNBOUND:                -0.720
REMARK SMILES CCCCCCCCC(=O)[O-]
REMARK SMILES IDX 6 1 7 2 8 3 9 4 10 5 11 6 5 7 4 8 3 9 2 10 1 11
REMARK H PARENT
REMARK Flexibility Score: inf
ROOT
ATOM      1  C   UNL     1      26.225  13.170 -11.058  1.00  0.00     0.000 C 
ENDROOT
BRANCH   1   2
ATOM      2  C   UNL     1      25.198  14.309 -11.047  1.00  0.00     0.006 C 
BRANCH   2   3
ATOM      3  C   UNL     1      25.161  15.030 -12.398  1.00  0.00     0.053 C 
BRANCH   3   4
ATOM      4  C   UNL     1      23.939  15.887 -12.502  1.00  0.00     0.041 C 
ATOM      5  O   UNL     1      23.028  15.798 -11.637  1.00  0.00    -0.550 OA
ATOM      6  O   UNL     1      23.829  16.818 -13.526  1.00  0.00    -0.550 OA
ENDBRANCH   3   4
ENDBRANCH   2   3
ENDBRANCH   1   2
BRANCH   1   7
ATOM      7  C   UNL     1      27.459  13.551 -11.888  1.00  0.00     0.000 C 
BRANCH   7   8
ATOM      8  C   UNL     1      28.720  12.765 -11.484  1.00  0.00    -0.000 C 
BRANCH   8   9
ATOM      9  C   UNL     1      28.452  11.426 -10.773  1.00  0.00    -0.000 C 
BRANCH   9  10
ATOM     10  C   UNL     1      29.277  10.267 -11.351  1.00  0.00    -0.003 C 
ATOM     11  C   UNL     1      29.983   9.489 -10.244  1.00  0.00     0.004 C 
ENDBRANCH   9  10
ENDBRANCH   8   9
ENDBRANCH   7   8
ENDBRANCH   1   7
TORSDOF 7
ENDMDL
MODEL 5
REMARK VINA RESULT:    -3.236      3.696      5.395
REMARK INTER + INTRA:          -5.279
REMARK INTER:                  -4.871
REMARK INTRA:                  -0.408
REMARK UNBOUND:                -0.720
REMARK SMILES CCCCCCCCC(=O)[O-]
REMARK SMILES IDX 6 1 7 2 8 3 9 4 10 5 11 6 5 7 4 8 3 9 2 10 1 11
REMARK H PARENT
REMARK Flexibility Score: inf
ROOT
ATOM      1  C   UNL     1      28.484  15.265 -13.455  1.00  0.00     0.000 C 
ENDROOT
BRANCH   1   2
ATOM      2  C   UNL     1      27.604  15.336 -12.201  1.00  0.00     0.006 C 
BRANCH   2   3
ATOM      3  C   UNL     1      26.425  14.363 -12.301  1.00  0.00     0.053 C 
BRANCH   3   4
ATOM      4  C   UNL     1      26.210  13.665 -10.995  1.00  0.00     0.041 C 
ATOM      5  O   UNL     1      25.458  14.174 -10.121  1.00  0.00    -0.550 OA
ATOM      6  O   UNL     1      26.801  12.430 -10.762  1.00  0.00    -0.550 OA
ENDBRANCH   3   4
ENDBRANCH   2   3
ENDBRANCH   1   2
BRANCH   1   7
ATOM      7  C   UNL     1      29.160  13.892 -13.575  1.00  0.00     0.000 C 
BRANCH   7   8
ATOM      8  C   UNL     1      30.110  13.794 -14.783  1.00  0.00    -0.000 C 
BRANCH   8   9
ATOM      9  C   UNL     1      29.939  14.901 -15.838  1.00  0.00    -0.000 C 
BRANCH   9  10
ATOM     10  C   UNL     1      29.728  14.350 -17.255  1.00  0.00    -0.003 C 
ATOM     11  C   UNL     1      28.652  13.267 -17.269  1.00  0.00     0.004 C 
ENDBRANCH   9  10
ENDBRANCH   8   9
ENDBRANCH   7   8
ENDBRANCH   1   7
TORSDOF 7
ENDMDL
MODEL 6
REMARK VINA RESULT:    -3.222     18.860     20.515
REMARK INTER + INTRA:          -5.260
REMARK INTER:                  -4.635
REMARK INTRA:                  -0.625
REMARK UNBOUND:                -0.720
REMARK SMILES CCCCCCCCC(=O)[O-]
REMARK SMILES IDX 6 1 7 2 8 3 9 4 10 5 11 6 5 7 4 8 3 9 2 10 1 11
REMARK H PARENT
REMARK Flexibility Score: inf
ROOT
ATOM      1  C   UNL     1      15.741   0.198 -11.915  1.00  0.00     0.000 C 
ENDROOT
BRANCH   1   2
ATOM      2  C   UNL     1      14.225  -0.035 -11.941  1.00  0.00     0.006 C 
BRANCH   2   3
ATOM      3  C   UNL     1      13.839  -1.020 -13.048  1.00  0.00     0.053 C 
BRANCH   3   4
ATOM      4  C   UNL     1      12.417  -0.810 -13.464  1.00  0.00     0.041 C 
ATOM      5  O   UNL     1      11.565  -0.411 -12.626  1.00  0.00    -0.550 OA
ATOM      6  O   UNL     1      12.044  -1.007 -14.787  1.00  0.00    -0.550 OA
ENDBRANCH   3   4
ENDBRANCH   2   3
ENDBRANCH   1   2
BRANCH   1   7
ATOM      7  C   UNL     1      16.498  -1.062 -12.360  1.00  0.00     0.000 C 
BRANCH   7   8
ATOM      8  C   UNL     1      17.413  -0.815 -13.574  1.00  0.00    -0.000 C 
BRANCH   8   9
ATOM      9  C   UNL     1      17.366   0.614 -14.145  1.00  0.00    -0.000 C 
BRANCH   9  10
ATOM     10  C   UNL     1      16.718   0.682 -15.534  1.00  0.00    -0.003 C 
ATOM     11  C   UNL     1      16.234  -0.694 -15.984  1.00  0.00     0.004 C 
ENDBRANCH   9  10
ENDBRANCH   8   9
ENDBRANCH   7   8
ENDBRANCH   1   7
TORSDOF 7
ENDMDL
MODEL 7
REMARK VINA RESULT:    -3.180      2.782      4.348
REMARK INTER + INTRA:          -5.201
REMARK INTER:                  -4.484
REMARK INTRA:                  -0.718
REMARK UNBOUND:                -0.720
REMARK SMILES CCCCCCCCC(=O)[O-]
REMARK SMILES IDX 6 1 7 2 8 3 9 4 10 5 11 6 5 7 4 8 3 9 2 10 1 11
REMARK H PARENT
REMARK Flexibility Score: inf
ROOT
ATOM      1  C   UNL     1      29.507  11.971 -14.695  1.00  0.00     0.000 C 
ENDROOT
BRANCH   1   2
ATOM      2  C   UNL     1      29.467  12.818 -13.417  1.00  0.00     0.006 C 
BRANCH   2   3
ATOM      3  C   UNL     1      28.301  13.811 -13.454  1.00  0.00     0.053 C 
BRANCH   3   4
ATOM      4  C   UNL     1      27.747  14.019 -12.079  1.00  0.00     0.041 C 
ATOM      5  O   UNL     1      27.489  13.030 -11.344  1.00  0.00    -0.550 OA
ATOM      6  O   UNL     1      27.563  15.307 -11.592  1.00  0.00    -0.550 OA
ENDBRANCH   3   4
ENDBRANCH   2   3
ENDBRANCH   1   2
BRANCH   1   7
ATOM      7  C   UNL     1      28.503  12.493 -15.733  1.00  0.00     0.000 C 
BRANCH   7   8
ATOM      8  C   UNL     1      29.162  12.849 -17.079  1.00  0.00    -0.000 C 
BRANCH   8   9
ATOM      9  C   UNL     1      29.249  14.356 -17.382  1.00  0.00    -0.000 C 
BRANCH   9  10
ATOM     10  C   UNL     1      30.471  15.026 -16.739  1.00  0.00    -0.003 C 
ATOM     11  C   UNL     1      30.050  16.146 -15.791  1.00  0.00     0.004 C 
ENDBRANCH   9  10
ENDBRANCH   8   9
ENDBRANCH   7   8
ENDBRANCH   1   7
TORSDOF 7
ENDMDL
MODEL 8
REMARK VINA RESULT:    -3.178      2.507      5.090
REMARK INTER + INTRA:          -5.198
REMARK INTER:                  -4.601
REMARK INTRA:                  -0.597
REMARK UNBOUND:                -0.720
REMARK SMILES CCCCCCCCC(=O)[O-]
REMARK SMILES IDX 6 1 7 2 8 3 9 4 10 5 11 6 5 7 4 8 3 9 2 10 1 11
REMARK H PARENT
REMARK Flexibility Score: inf
ROOT
ATOM      1  C   UNL     1      29.839  12.995 -14.766  1.00  0.00     0.000 C 
ENDROOT
BRANCH   1   2
ATOM      2  C   UNL     1      29.141  12.158 -15.846  1.00  0.00     0.006 C 
BRANCH   2   3
ATOM      3  C   UNL     1      28.417  13.056 -16.854  1.00  0.00     0.053 C 
BRANCH   3   4
ATOM      4  C   UNL     1      29.301  13.351 -18.024  1.00  0.00     0.041 C 
ATOM      5  O   UNL     1      30.157  12.506 -18.400  1.00  0.00    -0.550 OA
ATOM      6  O   UNL     1      29.147  14.537 -18.730  1.00  0.00    -0.550 OA
ENDBRANCH   3   4
ENDBRANCH   2   3
ENDBRANCH   1   2
BRANCH   1   7
ATOM      7  C   UNL     1      28.859  13.984 -14.119  1.00  0.00     0.000 C 
BRANCH   7   8
ATOM      8  C   UNL     1      29.310  15.450 -14.253  1.00  0.00    -0.000 C 
BRANCH   8   9
ATOM      9  C   UNL     1      30.543  15.672 -15.148  1.00  0.00    -0.000 C 
BRANCH   9  10
ATOM     10  C   UNL     1      30.296  16.699 -16.262  1.00  0.00    -0.003 C 
ATOM     11  C   UNL     1      30.367  18.125 -15.722  1.00  0.00     0.004 C 
ENDBRANCH   9  10
ENDBRANCH   8   9
ENDBRANCH   7   8
ENDBRANCH   1   7
TORSDOF 7
ENDMDL
MODEL 9
REMARK VINA RESULT:    -3.175      3.472      4.782
REMARK INTER + INTRA:          -5.194
REMARK INTER:                  -4.942
REMARK INTRA:                  -0.252
REMARK UNBOUND:                -0.720
REMARK SMILES CCCCCCCCC(=O)[O-]
REMARK SMILES IDX 6 1 7 2 8 3 9 4 10 5 11 6 5 7 4 8 3 9 2 10 1 11
REMARK H PARENT
REMARK Flexibility Score: inf
ROOT
ATOM      1  C   UNL     1      28.917  12.700 -13.403  1.00  0.00     0.000 C 
ENDROOT
BRANCH   1   2
ATOM      2  C   UNL     1      27.778  13.654 -13.025  1.00  0.00     0.006 C 
BRANCH   2   3
ATOM      3  C   UNL     1      27.142  13.250 -11.691  1.00  0.00     0.053 C 
BRANCH   3   4
ATOM      4  C   UNL     1      25.920  14.071 -11.423  1.00  0.00     0.041 C 
ATOM      5  O   UNL     1      25.332  14.659 -12.369  1.00  0.00    -0.550 OA
ATOM      6  O   UNL     1      25.403  14.148 -10.137  1.00  0.00    -0.550 OA
ENDBRANCH   3   4
ENDBRANCH   2   3
ENDBRANCH   1   2
BRANCH   1   7
ATOM      7  C   UNL     1      29.547  13.100 -14.745  1.00  0.00     0.000 C 
BRANCH   7   8
ATOM      8  C   UNL     1      28.891  12.398 -15.948  1.00  0.00    -0.000 C 
BRANCH   8   9
ATOM      9  C   UNL     1      28.599  13.309 -17.154  1.00  0.00    -0.000 C 
BRANCH   9  10
ATOM     10  C   UNL     1      29.712  13.279 -18.210  1.00  0.00    -0.003 C 
ATOM     11  C   UNL     1      30.400  11.917 -18.246  1.00  0.00     0.004 C 
ENDBRANCH   9  10
ENDBRANCH   8   9
ENDBRANCH   7   8
ENDBRANCH   1   7
TORSDOF 7
ENDMDL
