MODEL 1
REMARK VINA RESULT:    -2.367      0.000      0.000
REMARK INTER + INTRA:          -2.367
REMARK INTER:                  -2.367
REMARK INTRA:                   0.000
REMARK UNBOUND:                 0.000
REMARK SMILES CC(=O)[O-]
REMARK SMILES IDX 1 1 2 2 3 3 4 4
REMARK H PARENT
REMARK Flexibility Score: inf
ROOT
ATOM      1  C   UNL     1      26.785  29.898 -18.309  1.00  0.00     0.063 C 
ATOM      2  C   UNL     1      26.641  30.969 -19.337  1.00  0.00     0.038 C 
ATOM      3  O   UNL     1      27.330  30.930 -20.390  1.00  0.00    -0.550 OA
ATOM      4  O   UNL     1      25.787  32.040 -19.112  1.00  0.00    -0.550 OA
ENDROOT
TORSDOF 0
ENDMDL
MODEL 2
REMARK VINA RESULT:    -2.239      1.353      1.689
REMARK INTER + INTRA:          -2.239
REMARK INTER:                  -2.239
REMARK INTRA:                   0.000
REMARK UNBOUND:                 0.000
REMARK SMILES CC(=O)[O-]
REMARK SMILES IDX 1 1 2 2 3 3 4 4
REMARK H PARENT
REMARK Flexibility Score: inf
ROOT
ATOM      1  C   UNL     1      27.409  30.942 -20.492  1.00  0.00     0.063 C 
ATOM      2  C   UNL     1      26.560  30.990 -19.267  1.00  0.00     0.038 C 
ATOM      3  O   UNL     1      26.517  30.001 -18.489  1.00  0.00    -0.550 OA
ATOM      4  O   UNL     1      25.772  32.104 -19.009  1.00  0.00    -0.550 OA
ENDROOT
TORSDOF 0
ENDMDL
MODEL 3
REMARK VINA RESULT:    -2.125      6.445      6.853
REMARK INTER + INTRA:          -2.125
REMARK INTER:                  -2.125
REMARK INTRA:                   0.000
REMARK UNBOUND:                 0.000
REMARK SMILES CC(=O)[O-]
REMARK SMILES IDX 1 1 2 2 3 3 4 4
REMARK H PARENT
REMARK Flexibility Score: inf
ROOT
ATOM      1  C   UNL     1      27.112  23.915 -20.599  1.00  0.00     0.063 C 
ATOM      2  C   UNL     1      26.773  24.314 -19.202  1.00  0.00     0.038 C 
ATOM      3  O   UNL     1      27.501  23.940 -18.245  1.00  0.00    -0.550 OA
ATOM      4  O   UNL     1      25.624  25.051 -18.948  1.00  0.00    -0.550 OA
ENDROOT
TORSDOF 0
ENDMDL
MODEL 4
REMARK VINA RESULT:    -2.087      6.265      6.758
REMARK INTER + INTRA:          -2.087
REMARK INTER:                  -2.087
REMARK INTRA:                   0.000
REMARK UNBOUND:                 0.000
REMARK SMILES CC(=O)[O-]
REMARK SMILES IDX 1 1 2 2 3 3 4 4
REMARK H PARENT
REMARK Flexibility Score: inf
ROOT
ATOM      1  C   UNL     1      27.192  23.848 -20.535  1.00  0.00     0.063 C 
ATOM      2  C   UNL     1      26.655  24.498 -19.305  1.00  0.00     0.038 C 
ATOM      3  O   UNL     1      25.650  25.252 -19.377  1.00  0.00    -0.550 OA
ATOM      4  O   UNL     1      27.295  24.317 -18.086  1.00  0.00    -0.550 OA
ENDROOT
TORSDOF 0
ENDMDL
MODEL 5
REMARK VINA RESULT:    -2.045      6.743      7.092
REMARK INTER + INTRA:          -2.045
REMARK INTER:                  -2.045
REMARK INTRA:                   0.000
REMARK UNBOUND:                 0.000
REMARK SMILES CC(=O)[O-]
REMARK SMILES IDX 1 1 2 2 3 3 4 4
REMARK H PARENT
REMARK Flexibility Score: inf
ROOT
ATOM      1  C   UNL     1      25.919  25.103 -19.155  1.00  0.00     0.063 C 
ATOM      2  C   UNL     1      26.912  24.090 -19.614  1.00  0.00     0.038 C 
ATOM      3  O   UNL     1      27.035  23.837 -20.842  1.00  0.00    -0.550 OA
ATOM      4  O   UNL     1      27.664  23.382 -18.686  1.00  0.00    -0.550 OA
ENDROOT
TORSDOF 0
ENDMDL
MODEL 6
REMARK VINA RESULT:    -1.853      3.613      3.960
REMARK INTER + INTRA:          -1.853
REMARK INTER:                  -1.853
REMARK INTRA:                   0.000
REMARK UNBOUND:                 0.000
REMARK SMILES CC(=O)[O-]
REMARK SMILES IDX 1 1 2 2 3 3 4 4
REMARK H PARENT
REMARK Flexibility Score: inf
ROOT
ATOM      1  C   UNL     1      27.256  29.719 -17.700  1.00  0.00     0.063 C 
ATOM      2  C   UNL     1      28.156  28.658 -17.166  1.00  0.00     0.038 C 
ATOM      3  O   UNL     1      29.388  28.882 -17.033  1.00  0.00    -0.550 OA
ATOM      4  O   UNL     1      27.648  27.401 -16.864  1.00  0.00    -0.550 OA
ENDROOT
TORSDOF 0
ENDMDL
MODEL 7
REMARK VINA RESULT:    -1.808      5.707      6.261
REMARK INTER + INTRA:          -1.808
REMARK INTER:                  -1.808
REMARK INTRA:                   0.000
REMARK UNBOUND:                 0.000
REMARK SMILES CC(=O)[O-]
REMARK SMILES IDX 1 1 2 2 3 3 4 4
REMARK H PARENT
REMARK Flexibility Score: inf
ROOT
ATOM      1  C   UNL     1      25.812  25.074 -18.895  1.00  0.00     0.063 C 
ATOM      2  C   UNL     1      26.861  25.261 -17.852  1.00  0.00     0.038 C 
ATOM      3  O   UNL     1      27.120  26.413 -17.416  1.00  0.00    -0.550 OA
ATOM      4  O   UNL     1      27.593  24.172 -17.398  1.00  0.00    -0.550 OA
ENDROOT
TORSDOF 0
ENDMDL
MODEL 8
REMARK VINA RESULT:    -1.783      4.209      4.641
REMARK INTER + INTRA:          -1.783
REMARK INTER:                  -1.783
REMARK INTRA:                   0.000
REMARK UNBOUND:                 0.000
REMARK SMILES CC(=O)[O-]
REMARK SMILES IDX 1 1 2 2 3 3 4 4
REMARK H PARENT
REMARK Flexibility Score: inf
ROOT
ATOM      1  C   UNL     1      30.091  27.485 -16.288  1.00  0.00     0.063 C 
ATOM      2  C   UNL     1      28.807  28.069 -16.769  1.00  0.00     0.038 C 
ATOM      3  O   UNL     1      27.747  27.392 -16.721  1.00  0.00    -0.550 OA
ATOM      4  O   UNL     1      28.787  29.342 -17.324  1.00  0.00    -0.550 OA
ENDROOT
TORSDOF 0
ENDMDL
MODEL 9
REMARK VINA RESULT:    -1.774     12.486     12.924
REMARK INTER + INTRA:          -1.774
REMARK INTER:                  -1.774
REMARK INTRA:                   0.000
REMARK UNBOUND:                 0.000
REMARK SMILES CC(=O)[O-]
REMARK SMILES IDX 1 1 2 2 3 3 4 4
REMARK H PARENT
REMARK Flexibility Score: inf
ROOT
ATOM      1  C   UNL     1      40.597  29.575 -18.417  1.00  0.00     0.063 C 
ATOM      2  C   UNL     1      39.218  29.081 -18.135  1.00  0.00     0.038 C 
ATOM      3  O   UNL     1      38.365  29.028 -19.059  1.00  0.00    -0.550 OA
ATOM      4  O   UNL     1      38.855  28.732 -16.841  1.00  0.00    -0.550 OA
ENDROOT
TORSDOF 0
ENDMDL
