MODEL 1
REMARK VINA RESULT:    -0.905      0.000      0.000
REMARK INTER + INTRA:          -6.954
REMARK INTER:                  -2.069
REMARK INTRA:                  -4.885
REMARK UNBOUND:                -4.885
REMARK SMILES CCCCCCCCCCCCCCCCCCCCCCCC(=O)[O-]
REMARK SMILES IDX 13 1 14 2 15 3 16 4 17 5 18 6 19 7 20 8 21 9 22 10 23 11
REMARK SMILES IDX 24 12 25 13 26 14 12 15 11 16 10 17 9 18 8 19 7 20 6 21 5 22
REMARK SMILES IDX 4 23 3 24 2 25 1 26
REMARK H PARENT
REMARK Flexibility Score: inf
ROOT
ATOM      1  C   UNL     1      26.989  -6.479  18.106  1.00  0.00     0.000 C 
ENDROOT
BRANCH   1   2
ATOM      2  C   UNL     1      27.721  -5.944  16.863  1.00  0.00     0.000 C 
BRANCH   2   3
ATOM      3  C   UNL     1      28.779  -6.920  16.305  1.00  0.00     0.000 C 
BRANCH   3   4
ATOM      4  C   UNL     1      30.176  -6.662  16.892  1.00  0.00     0.000 C 
BRANCH   4   5
ATOM      5  C   UNL     1      31.100  -7.890  16.808  1.00  0.00     0.000 C 
BRANCH   5   6
ATOM      6  C   UNL     1      30.387  -9.176  16.344  1.00  0.00     0.000 C 
BRANCH   6   7
ATOM      7  C   UNL     1      30.673 -10.371  17.272  1.00  0.00     0.000 C 
BRANCH   7   8
ATOM      8  C   UNL     1      29.393 -10.991  17.863  1.00  0.00     0.000 C 
BRANCH   8   9
ATOM      9  C   UNL     1      28.236 -10.000  18.091  1.00  0.00     0.000 C 
BRANCH   9  10
ATOM     10  C   UNL     1      26.966 -10.374  17.309  1.00  0.00     0.006 C 
BRANCH  10  11
ATOM     11  C   UNL     1      25.828 -10.828  18.232  1.00  0.00     0.053 C 
BRANCH  11  12
ATOM     12  C   UNL     1      24.549 -10.098  17.952  1.00  0.00     0.041 C 
ATOM     13  O   UNL     1      24.399  -8.912  18.348  1.00  0.00    -0.550 OA
ATOM     14  O   UNL     1      23.522 -10.730  17.260  1.00  0.00    -0.550 OA
ENDBRANCH  11  12
ENDBRANCH  10  11
ENDBRANCH   9  10
ENDBRANCH   8   9
ENDBRANCH   7   8
ENDBRANCH   6   7
ENDBRANCH   5   6
ENDBRANCH   4   5
ENDBRANCH   3   4
ENDBRANCH   2   3
ENDBRANCH   1   2
BRANCH   1  15
ATOM     15  C   UNL     1      26.745  -5.395  19.168  1.00  0.00     0.000 C 
BRANCH  15  16
ATOM     16  C   UNL     1      28.053  -4.812  19.726  1.00  0.00     0.000 C 
BRANCH  16  17
ATOM     17  C   UNL     1      28.811  -5.813  20.617  1.00  0.00     0.000 C 
BRANCH  17  18
ATOM     18  C   UNL     1      30.341  -5.661  20.522  1.00  0.00    -0.000 C 
BRANCH  18  19
ATOM     19  C   UNL     1      31.125  -6.983  20.457  1.00  0.00    -0.000 C 
BRANCH  19  20
ATOM     20  C   UNL     1      30.212  -8.218  20.371  1.00  0.00    -0.000 C 
BRANCH  20  21
ATOM     21  C   UNL     1      30.855  -9.482  20.974  1.00  0.00    -0.000 C 
BRANCH  21  22
ATOM     22  C   UNL     1      30.031 -10.175  22.076  1.00  0.00    -0.000 C 
BRANCH  22  23
ATOM     23  C   UNL     1      28.838 -11.012  21.575  1.00  0.00    -0.000 C 
BRANCH  23  24
ATOM     24  C   UNL     1      27.501 -10.671  22.266  1.00  0.00    -0.000 C 
BRANCH  24  25
ATOM     25  C   UNL     1      27.262  -9.158  22.376  1.00  0.00    -0.003 C 
ATOM     26  C   UNL     1      26.545  -8.623  21.139  1.00  0.00     0.004 C 
ENDBRANCH  24  25
ENDBRANCH  23  24
ENDBRANCH  22  23
ENDBRANCH  21  22
ENDBRANCH  20  21
ENDBRANCH  19  20
ENDBRANCH  18  19
ENDBRANCH  17  18
ENDBRANCH  16  17
ENDBRANCH  15  16
ENDBRANCH   1  15
TORSDOF 22
ENDMDL
MODEL 2
REMARK VINA RESULT:    -0.778      2.228      3.944
REMARK INTER + INTRA:          -6.664
REMARK INTER:                  -1.942
REMARK INTRA:                  -4.722
REMARK UNBOUND:                -4.885
REMARK SMILES CCCCCCCCCCCCCCCCCCCCCCCC(=O)[O-]
REMARK SMILES IDX 13 1 14 2 15 3 16 4 17 5 18 6 19 7 20 8 21 9 22 10 23 11
REMARK SMILES IDX 24 12 25 13 26 14 12 15 11 16 10 17 9 18 8 19 7 20 6 21 5 22
REMARK SMILES IDX 4 23 3 24 2 25 1 26
REMARK H PARENT
REMARK Flexibility Score: inf
ROOT
ATOM      1  C   UNL     1      26.103  -6.587  17.525  1.00  0.00     0.000 C 
ENDROOT
BRANCH   1   2
ATOM      2  C   UNL     1      26.336  -7.906  16.768  1.00  0.00     0.000 C 
BRANCH   2   3
ATOM      3  C   UNL     1      26.776  -9.070  17.682  1.00  0.00     0.000 C 
BRANCH   3   4
ATOM      4  C   UNL     1      26.784  -8.673  19.167  1.00  0.00     0.000 C 
BRANCH   4   5
ATOM      5  C   UNL     1      28.175  -8.791  19.815  1.00  0.00     0.000 C 
BRANCH   5   6
ATOM      6  C   UNL     1      28.895 -10.119  19.505  1.00  0.00     0.000 C 
BRANCH   6   7
ATOM      7  C   UNL     1      30.409  -9.931  19.300  1.00  0.00     0.000 C 
BRANCH   7   8
ATOM      8  C   UNL     1      30.824  -9.975  17.819  1.00  0.00     0.000 C 
BRANCH   8   9
ATOM      9  C   UNL     1      30.203 -11.125  17.003  1.00  0.00     0.000 C 
BRANCH   9  10
ATOM     10  C   UNL     1      30.098 -10.806  15.502  1.00  0.00     0.006 C 
BRANCH  10  11
ATOM     11  C   UNL     1      29.562  -9.392  15.246  1.00  0.00     0.053 C 
BRANCH  11  12
ATOM     12  C   UNL     1      28.478  -9.380  14.210  1.00  0.00     0.041 C 
ATOM     13  O   UNL     1      28.483  -8.511  13.300  1.00  0.00    -0.550 OA
ATOM     14  O   UNL     1      27.459 -10.325  14.255  1.00  0.00    -0.550 OA
ENDBRANCH  11  12
ENDBRANCH  10  11
ENDBRANCH   9  10
ENDBRANCH   8   9
ENDBRANCH   7   8
ENDBRANCH   6   7
ENDBRANCH   5   6
ENDBRANCH   4   5
ENDBRANCH   3   4
ENDBRANCH   2   3
ENDBRANCH   1   2
BRANCH   1  15
ATOM     15  C   UNL     1      27.048  -5.463  17.070  1.00  0.00     0.000 C 
BRANCH  15  16
ATOM     16  C   UNL     1      28.014  -5.917  15.966  1.00  0.00     0.000 C 
BRANCH  16  17
ATOM     17  C   UNL     1      29.490  -5.781  16.382  1.00  0.00     0.000 C 
BRANCH  17  18
ATOM     18  C   UNL     1      29.823  -6.559  17.670  1.00  0.00    -0.000 C 
BRANCH  18  19
ATOM     19  C   UNL     1      30.859  -5.886  18.588  1.00  0.00    -0.000 C 
BRANCH  19  20
ATOM     20  C   UNL     1      30.248  -4.797  19.485  1.00  0.00    -0.000 C 
BRANCH  20  21
ATOM     21  C   UNL     1      29.016  -5.287  20.269  1.00  0.00    -0.000 C 
BRANCH  21  22
ATOM     22  C   UNL     1      29.168  -5.278  21.802  1.00  0.00    -0.000 C 
BRANCH  22  23
ATOM     23  C   UNL     1      29.442  -6.652  22.443  1.00  0.00    -0.000 C 
BRANCH  23  24
ATOM     24  C   UNL     1      30.914  -7.104  22.347  1.00  0.00    -0.000 C 
BRANCH  24  25
ATOM     25  C   UNL     1      31.094  -8.600  22.643  1.00  0.00    -0.003 C 
ATOM     26  C   UNL     1      29.809  -9.209  23.199  1.00  0.00     0.004 C 
ENDBRANCH  24  25
ENDBRANCH  23  24
ENDBRANCH  22  23
ENDBRANCH  21  22
ENDBRANCH  20  21
ENDBRANCH  19  20
ENDBRANCH  18  19
ENDBRANCH  17  18
ENDBRANCH  16  17
ENDBRANCH  15  16
ENDBRANCH   1  15
TORSDOF 22
ENDMDL
MODEL 3
REMARK VINA RESULT:    -0.763      3.185      6.060
REMARK INTER + INTRA:          -6.630
REMARK INTER:                  -2.123
REMARK INTRA:                  -4.507
REMARK UNBOUND:                -4.885
REMARK SMILES CCCCCCCCCCCCCCCCCCCCCCCC(=O)[O-]
REMARK SMILES IDX 13 1 14 2 15 3 16 4 17 5 18 6 19 7 20 8 21 9 22 10 23 11
REMARK SMILES IDX 24 12 25 13 26 14 12 15 11 16 10 17 9 18 8 19 7 20 6 21 5 22
REMARK SMILES IDX 4 23 3 24 2 25 1 26
REMARK H PARENT
REMARK Flexibility Score: inf
ROOT
ATOM      1  C   UNL     1      25.247 -10.379  15.388  1.00  0.00     0.000 C 
ENDROOT
BRANCH   1   2
ATOM      2  C   UNL     1      25.754 -10.249  13.941  1.00  0.00     0.000 C 
BRANCH   2   3
ATOM      3  C   UNL     1      27.259 -10.555  13.787  1.00  0.00     0.000 C 
BRANCH   3   4
ATOM      4  C   UNL     1      27.934  -9.647  12.747  1.00  0.00     0.000 C 
BRANCH   4   5
ATOM      5  C   UNL     1      29.416  -9.373  13.058  1.00  0.00     0.000 C 
BRANCH   5   6
ATOM      6  C   UNL     1      30.249 -10.649  13.295  1.00  0.00     0.000 C 
BRANCH   6   7
ATOM      7  C   UNL     1      31.044 -10.594  14.612  1.00  0.00     0.000 C 
BRANCH   7   8
ATOM      8  C   UNL     1      30.317  -9.809  15.719  1.00  0.00     0.000 C 
BRANCH   8   9
ATOM      9  C   UNL     1      29.600 -10.678  16.769  1.00  0.00     0.000 C 
BRANCH   9  10
ATOM     10  C   UNL     1      29.939 -10.272  18.214  1.00  0.00     0.006 C 
BRANCH  10  11
ATOM     11  C   UNL     1      28.904 -10.791  19.220  1.00  0.00     0.053 C 
BRANCH  11  12
ATOM     12  C   UNL     1      29.225 -10.375  20.624  1.00  0.00     0.041 C 
ATOM     13  O   UNL     1      28.867 -11.093  21.594  1.00  0.00    -0.550 OA
ATOM     14  O   UNL     1      29.915  -9.191  20.861  1.00  0.00    -0.550 OA
ENDBRANCH  11  12
ENDBRANCH  10  11
ENDBRANCH   9  10
ENDBRANCH   8   9
ENDBRANCH   7   8
ENDBRANCH   6   7
ENDBRANCH   5   6
ENDBRANCH   4   5
ENDBRANCH   3   4
ENDBRANCH   2   3
ENDBRANCH   1   2
BRANCH   1  15
ATOM     15  C   UNL     1      24.350  -9.205  15.814  1.00  0.00     0.000 C 
BRANCH  15  16
ATOM     16  C   UNL     1      24.849  -8.517  17.094  1.00  0.00     0.000 C 
BRANCH  16  17
ATOM     17  C   UNL     1      26.280  -8.940  17.471  1.00  0.00     0.000 C 
BRANCH  17  18
ATOM     18  C   UNL     1      27.162  -7.753  17.899  1.00  0.00    -0.000 C 
BRANCH  18  19
ATOM     19  C   UNL     1      27.271  -6.615  16.868  1.00  0.00    -0.000 C 
BRANCH  19  20
ATOM     20  C   UNL     1      27.800  -7.091  15.504  1.00  0.00    -0.000 C 
BRANCH  20  21
ATOM     21  C   UNL     1      27.298  -6.225  14.333  1.00  0.00    -0.000 C 
BRANCH  21  22
ATOM     22  C   UNL     1      25.963  -6.676  13.710  1.00  0.00    -0.000 C 
BRANCH  22  23
ATOM     23  C   UNL     1      24.821  -5.645  13.789  1.00  0.00    -0.000 C 
BRANCH  23  24
ATOM     24  C   UNL     1      24.973  -4.631  14.943  1.00  0.00    -0.000 C 
BRANCH  24  25
ATOM     25  C   UNL     1      24.030  -4.926  16.118  1.00  0.00    -0.003 C 
ATOM     26  C   UNL     1      22.838  -5.768  15.669  1.00  0.00     0.004 C 
ENDBRANCH  24  25
ENDBRANCH  23  24
ENDBRANCH  22  23
ENDBRANCH  21  22
ENDBRANCH  20  21
ENDBRANCH  19  20
ENDBRANCH  18  19
ENDBRANCH  17  18
ENDBRANCH  16  17
ENDBRANCH  15  16
ENDBRANCH   1  15
TORSDOF 22
ENDMDL
MODEL 4
REMARK VINA RESULT:    -0.745      2.181      5.514
REMARK INTER + INTRA:          -6.589
REMARK INTER:                  -1.627
REMARK INTRA:                  -4.961
REMARK UNBOUND:                -4.885
REMARK SMILES CCCCCCCCCCCCCCCCCCCCCCCC(=O)[O-]
REMARK SMILES IDX 13 1 14 2 15 3 16 4 17 5 18 6 19 7 20 8 21 9 22 10 23 11
REMARK SMILES IDX 24 12 25 13 26 14 12 15 11 16 10 17 9 18 8 19 7 20 6 21 5 22
REMARK SMILES IDX 4 23 3 24 2 25 1 26
REMARK H PARENT
REMARK Flexibility Score: inf
ROOT
ATOM      1  C   UNL     1      26.837  -8.715  22.569  1.00  0.00     0.000 C 
ENDROOT
BRANCH   1   2
ATOM      2  C   UNL     1      28.032  -7.875  23.056  1.00  0.00     0.000 C 
BRANCH   2   3
ATOM      3  C   UNL     1      29.271  -8.722  23.418  1.00  0.00     0.000 C 
BRANCH   3   4
ATOM      4  C   UNL     1      30.583  -8.047  22.989  1.00  0.00     0.000 C 
BRANCH   4   5
ATOM      5  C   UNL     1      30.361  -6.709  22.260  1.00  0.00     0.000 C 
BRANCH   5   6
ATOM      6  C   UNL     1      31.104  -6.603  20.913  1.00  0.00     0.000 C 
BRANCH   6   7
ATOM      7  C   UNL     1      30.224  -5.998  19.805  1.00  0.00     0.000 C 
BRANCH   7   8
ATOM      8  C   UNL     1      28.869  -6.712  19.657  1.00  0.00     0.000 C 
BRANCH   8   9
ATOM      9  C   UNL     1      27.635  -5.817  19.881  1.00  0.00     0.000 C 
BRANCH   9  10
ATOM     10  C   UNL     1      26.308  -6.559  19.648  1.00  0.00     0.006 C 
BRANCH  10  11
ATOM     11  C   UNL     1      25.148  -5.597  19.357  1.00  0.00     0.053 C 
BRANCH  11  12
ATOM     12  C   UNL     1      24.167  -5.539  20.488  1.00  0.00     0.041 C 
ATOM     13  O   UNL     1      23.032  -5.024  20.314  1.00  0.00    -0.550 OA
ATOM     14  O   UNL     1      24.509  -6.048  21.736  1.00  0.00    -0.550 OA
ENDBRANCH  11  12
ENDBRANCH  10  11
ENDBRANCH   9  10
ENDBRANCH   8   9
ENDBRANCH   7   8
ENDBRANCH   6   7
ENDBRANCH   5   6
ENDBRANCH   4   5
ENDBRANCH   3   4
ENDBRANCH   2   3
ENDBRANCH   1   2
BRANCH   1  15
ATOM     15  C   UNL     1      27.262 -10.070  21.981  1.00  0.00     0.000 C 
BRANCH  15  16
ATOM     16  C   UNL     1      27.495 -10.006  20.463  1.00  0.00     0.000 C 
BRANCH  16  17
ATOM     17  C   UNL     1      28.706 -10.845  20.018  1.00  0.00     0.000 C 
BRANCH  17  18
ATOM     18  C   UNL     1      29.999 -10.016  19.900  1.00  0.00    -0.000 C 
BRANCH  18  19
ATOM     19  C   UNL     1      30.513  -9.811  18.464  1.00  0.00    -0.000 C 
BRANCH  19  20
ATOM     20  C   UNL     1      29.925 -10.822  17.465  1.00  0.00    -0.000 C 
BRANCH  20  21
ATOM     21  C   UNL     1      29.092 -10.153  16.355  1.00  0.00    -0.000 C 
BRANCH  21  22
ATOM     22  C   UNL     1      27.594  -9.983  16.672  1.00  0.00    -0.000 C 
BRANCH  22  23
ATOM     23  C   UNL     1      27.093  -8.526  16.709  1.00  0.00    -0.000 C 
BRANCH  23  24
ATOM     24  C   UNL     1      28.100  -7.504  16.141  1.00  0.00    -0.000 C 
BRANCH  24  25
ATOM     25  C   UNL     1      27.511  -6.089  16.035  1.00  0.00    -0.003 C 
ATOM     26  C   UNL     1      28.561  -5.031  16.360  1.00  0.00     0.004 C 
ENDBRANCH  24  25
ENDBRANCH  23  24
ENDBRANCH  22  23
ENDBRANCH  21  22
ENDBRANCH  20  21
ENDBRANCH  19  20
ENDBRANCH  18  19
ENDBRANCH  17  18
ENDBRANCH  16  17
ENDBRANCH  15  16
ENDBRANCH   1  15
TORSDOF 22
ENDMDL
MODEL 5
REMARK VINA RESULT:    -0.738      2.675      4.748
REMARK INTER + INTRA:          -6.572
REMARK INTER:                  -1.962
REMARK INTRA:                  -4.609
REMARK UNBOUND:                -4.885
REMARK SMILES CCCCCCCCCCCCCCCCCCCCCCCC(=O)[O-]
REMARK SMILES IDX 13 1 14 2 15 3 16 4 17 5 18 6 19 7 20 8 21 9 22 10 23 11
REMARK SMILES IDX 24 12 25 13 26 14 12 15 11 16 10 17 9 18 8 19 7 20 6 21 5 22
REMARK SMILES IDX 4 23 3 24 2 25 1 26
REMARK H PARENT
REMARK Flexibility Score: inf
ROOT
ATOM      1  C   UNL     1      26.008  -6.207  16.928  1.00  0.00     0.000 C 
ENDROOT
BRANCH   1   2
ATOM      2  C   UNL     1      27.306  -7.034  16.954  1.00  0.00     0.000 C 
BRANCH   2   3
ATOM      3  C   UNL     1      28.441  -6.370  17.764  1.00  0.00     0.000 C 
BRANCH   3   4
ATOM      4  C   UNL     1      29.790  -6.430  17.030  1.00  0.00     0.000 C 
BRANCH   4   5
ATOM      5  C   UNL     1      30.800  -7.375  17.704  1.00  0.00     0.000 C 
BRANCH   5   6
ATOM      6  C   UNL     1      30.302  -7.974  19.034  1.00  0.00     0.000 C 
BRANCH   6   7
ATOM      7  C   UNL     1      30.184  -9.508  18.978  1.00  0.00     0.000 C 
BRANCH   7   8
ATOM      8  C   UNL     1      30.942 -10.125  17.788  1.00  0.00     0.000 C 
BRANCH   8   9
ATOM      9  C   UNL     1      30.125 -11.122  16.944  1.00  0.00     0.000 C 
BRANCH   9  10
ATOM     10  C   UNL     1      30.115 -10.770  15.447  1.00  0.00     0.006 C 
BRANCH  10  11
ATOM     11  C   UNL     1      29.125  -9.643  15.123  1.00  0.00     0.053 C 
BRANCH  11  12
ATOM     12  C   UNL     1      29.631  -8.744  14.036  1.00  0.00     0.041 C 
ATOM     13  O   UNL     1      28.846  -8.327  13.144  1.00  0.00    -0.550 OA
ATOM     14  O   UNL     1      30.970  -8.372  14.004  1.00  0.00    -0.550 OA
ENDBRANCH  11  12
ENDBRANCH  10  11
ENDBRANCH   9  10
ENDBRANCH   8   9
ENDBRANCH   7   8
ENDBRANCH   6   7
ENDBRANCH   5   6
ENDBRANCH   4   5
ENDBRANCH   3   4
ENDBRANCH   2   3
ENDBRANCH   1   2
BRANCH   1  15
ATOM     15  C   UNL     1      25.410  -6.079  15.517  1.00  0.00     0.000 C 
BRANCH  15  16
ATOM     16  C   UNL     1      24.435  -7.219  15.185  1.00  0.00     0.000 C 
BRANCH  16  17
ATOM     17  C   UNL     1      23.871  -7.897  16.446  1.00  0.00     0.000 C 
BRANCH  17  18
ATOM     18  C   UNL     1      23.675  -9.415  16.273  1.00  0.00    -0.000 C 
BRANCH  18  19
ATOM     19  C   UNL     1      24.448 -10.292  17.275  1.00  0.00    -0.000 C 
BRANCH  19  20
ATOM     20  C   UNL     1      25.962 -10.313  17.010  1.00  0.00    -0.000 C 
BRANCH  20  21
ATOM     21  C   UNL     1      26.783 -10.694  18.257  1.00  0.00    -0.000 C 
BRANCH  21  22
ATOM     22  C   UNL     1      25.957 -10.962  19.529  1.00  0.00    -0.000 C 
BRANCH  22  23
ATOM     23  C   UNL     1      26.172  -9.955  20.676  1.00  0.00    -0.000 C 
BRANCH  23  24
ATOM     24  C   UNL     1      26.764  -8.605  20.218  1.00  0.00    -0.000 C 
BRANCH  24  25
ATOM     25  C   UNL     1      25.846  -7.417  20.543  1.00  0.00    -0.003 C 
ATOM     26  C   UNL     1      24.416  -7.685  20.083  1.00  0.00     0.004 C 
ENDBRANCH  24  25
ENDBRANCH  23  24
ENDBRANCH  22  23
ENDBRANCH  21  22
ENDBRANCH  20  21
ENDBRANCH  19  20
ENDBRANCH  18  19
ENDBRANCH  17  18
ENDBRANCH  16  17
ENDBRANCH  15  16
ENDBRANCH   1  15
TORSDOF 22
ENDMDL
MODEL 6
REMARK VINA RESULT:    -0.666     10.183     13.259
REMARK INTER + INTRA:          -6.408
REMARK INTER:                  -1.198
REMARK INTRA:                  -5.210
REMARK UNBOUND:                -4.885
REMARK SMILES CCCCCCCCCCCCCCCCCCCCCCCC(=O)[O-]
REMARK SMILES IDX 13 1 14 2 15 3 16 4 17 5 18 6 19 7 20 8 21 9 22 10 23 11
REMARK SMILES IDX 24 12 25 13 26 14 12 15 11 16 10 17 9 18 8 19 7 20 6 21 5 22
REMARK SMILES IDX 4 23 3 24 2 25 1 26
REMARK H PARENT
REMARK Flexibility Score: inf
ROOT
ATOM      1  C   UNL     1      16.512  -7.143  16.209  1.00  0.00     0.000 C 
ENDROOT
BRANCH   1   2
ATOM      2  C   UNL     1      15.528  -6.220  16.949  1.00  0.00     0.000 C 
BRANCH   2   3
ATOM      3  C   UNL     1      14.264  -5.885  16.129  1.00  0.00     0.000 C 
BRANCH   3   4
ATOM      4  C   UNL     1      13.126  -6.887  16.381  1.00  0.00     0.000 C 
BRANCH   4   5
ATOM      5  C   UNL     1      13.196  -7.542  17.772  1.00  0.00     0.000 C 
BRANCH   5   6
ATOM      6  C   UNL     1      13.000  -9.071  17.751  1.00  0.00     0.000 C 
BRANCH   6   7
ATOM      7  C   UNL     1      12.735  -9.609  16.333  1.00  0.00     0.000 C 
BRANCH   7   8
ATOM      8  C   UNL     1      13.792 -10.628  15.871  1.00  0.00     0.000 C 
BRANCH   8   9
ATOM      9  C   UNL     1      14.757 -10.116  14.785  1.00  0.00     0.000 C 
BRANCH   9  10
ATOM     10  C   UNL     1      14.051  -9.283  13.701  1.00  0.00     0.006 C 
BRANCH  10  11
ATOM     11  C   UNL     1      14.991  -8.258  13.053  1.00  0.00     0.053 C 
BRANCH  11  12
ATOM     12  C   UNL     1      15.554  -8.751  11.755  1.00  0.00     0.041 C 
ATOM     13  O   UNL     1      15.074  -8.345  10.663  1.00  0.00    -0.550 OA
ATOM     14  O   UNL     1      16.603  -9.663  11.750  1.00  0.00    -0.550 OA
ENDBRANCH  11  12
ENDBRANCH  10  11
ENDBRANCH   9  10
ENDBRANCH   8   9
ENDBRANCH   7   8
ENDBRANCH   6   7
ENDBRANCH   5   6
ENDBRANCH   4   5
ENDBRANCH   3   4
ENDBRANCH   2   3
ENDBRANCH   1   2
BRANCH   1  15
ATOM     15  C   UNL     1      17.982  -6.837  16.541  1.00  0.00     0.000 C 
BRANCH  15  16
ATOM     16  C   UNL     1      18.961  -7.611  15.644  1.00  0.00     0.000 C 
BRANCH  16  17
ATOM     17  C   UNL     1      18.247  -8.617  14.724  1.00  0.00     0.000 C 
BRANCH  17  18
ATOM     18  C   UNL     1      18.509 -10.082  15.120  1.00  0.00    -0.000 C 
BRANCH  18  19
ATOM     19  C   UNL     1      19.512 -10.278  16.271  1.00  0.00    -0.000 C 
BRANCH  19  20
ATOM     20  C   UNL     1      18.844 -10.737  17.578  1.00  0.00    -0.000 C 
BRANCH  20  21
ATOM     21  C   UNL     1      17.364 -11.122  17.391  1.00  0.00    -0.000 C 
BRANCH  21  22
ATOM     22  C   UNL     1      16.369 -10.349  18.277  1.00  0.00    -0.000 C 
BRANCH  22  23
ATOM     23  C   UNL     1      16.981  -9.204  19.107  1.00  0.00    -0.000 C 
BRANCH  23  24
ATOM     24  C   UNL     1      15.975  -8.507  20.048  1.00  0.00    -0.000 C 
BRANCH  24  25
ATOM     25  C   UNL     1      16.406  -7.081  20.422  1.00  0.00    -0.003 C 
ATOM     26  C   UNL     1      17.915  -6.907  20.278  1.00  0.00     0.004 C 
ENDBRANCH  24  25
ENDBRANCH  23  24
ENDBRANCH  22  23
ENDBRANCH  21  22
ENDBRANCH  20  21
ENDBRANCH  19  20
ENDBRANCH  18  19
ENDBRANCH  17  18
ENDBRANCH  16  17
ENDBRANCH  15  16
ENDBRANCH   1  15
TORSDOF 22
ENDMDL
MODEL 7
REMARK VINA RESULT:    -0.658      2.193      4.458
REMARK INTER + INTRA:          -6.389
REMARK INTER:                  -2.009
REMARK INTRA:                  -4.380
REMARK UNBOUND:                -4.885
REMARK SMILES CCCCCCCCCCCCCCCCCCCCCCCC(=O)[O-]
REMARK SMILES IDX 13 1 14 2 15 3 16 4 17 5 18 6 19 7 20 8 21 9 22 10 23 11
REMARK SMILES IDX 24 12 25 13 26 14 12 15 11 16 10 17 9 18 8 19 7 20 6 21 5 22
REMARK SMILES IDX 4 23 3 24 2 25 1 26
REMARK H PARENT
REMARK Flexibility Score: inf
ROOT
ATOM      1  C   UNL     1      28.518  -7.110  17.740  1.00  0.00     0.000 C 
ENDROOT
BRANCH   1   2
ATOM      2  C   UNL     1      27.899  -6.731  19.097  1.00  0.00     0.000 C 
BRANCH   2   3
ATOM      3  C   UNL     1      26.395  -7.066  19.200  1.00  0.00     0.000 C 
BRANCH   3   4
ATOM      4  C   UNL     1      26.113  -8.164  20.238  1.00  0.00     0.000 C 
BRANCH   4   5
ATOM      5  C   UNL     1      24.732  -8.820  20.061  1.00  0.00     0.000 C 
BRANCH   5   6
ATOM      6  C   UNL     1      23.932  -8.273  18.861  1.00  0.00     0.000 C 
BRANCH   6   7
ATOM      7  C   UNL     1      23.623  -9.362  17.818  1.00  0.00     0.000 C 
BRANCH   7   8
ATOM      8  C   UNL     1      24.650 -10.508  17.824  1.00  0.00     0.000 C 
BRANCH   8   9
ATOM      9  C   UNL     1      25.451 -10.669  16.518  1.00  0.00     0.000 C 
BRANCH   9  10
ATOM     10  C   UNL     1      26.204  -9.390  16.116  1.00  0.00     0.006 C 
BRANCH  10  11
ATOM     11  C   UNL     1      27.400  -9.683  15.202  1.00  0.00     0.053 C 
BRANCH  11  12
ATOM     12  C   UNL     1      27.415  -8.798  13.992  1.00  0.00     0.041 C 
ATOM     13  O   UNL     1      28.509  -8.379  13.529  1.00  0.00    -0.550 OA
ATOM     14  O   UNL     1      26.222  -8.431  13.380  1.00  0.00    -0.550 OA
ENDBRANCH  11  12
ENDBRANCH  10  11
ENDBRANCH   9  10
ENDBRANCH   8   9
ENDBRANCH   7   8
ENDBRANCH   6   7
ENDBRANCH   5   6
ENDBRANCH   4   5
ENDBRANCH   3   4
ENDBRANCH   2   3
ENDBRANCH   1   2
BRANCH   1  15
ATOM     15  C   UNL     1      30.012  -7.458  17.843  1.00  0.00     0.000 C 
BRANCH  15  16
ATOM     16  C   UNL     1      30.613  -7.881  16.494  1.00  0.00     0.000 C 
BRANCH  16  17
ATOM     17  C   UNL     1      30.852  -9.399  16.405  1.00  0.00     0.000 C 
BRANCH  17  18
ATOM     18  C   UNL     1      30.707 -10.108  17.765  1.00  0.00    -0.000 C 
BRANCH  18  19
ATOM     19  C   UNL     1      29.554 -11.125  17.850  1.00  0.00    -0.000 C 
BRANCH  19  20
ATOM     20  C   UNL     1      28.434 -10.682  18.807  1.00  0.00    -0.000 C 
BRANCH  20  21
ATOM     21  C   UNL     1      28.808 -10.862  20.291  1.00  0.00    -0.000 C 
BRANCH  21  22
ATOM     22  C   UNL     1      29.291  -9.585  21.005  1.00  0.00    -0.000 C 
BRANCH  22  23
ATOM     23  C   UNL     1      28.939  -9.497  22.502  1.00  0.00    -0.000 C 
BRANCH  23  24
ATOM     24  C   UNL     1      27.577 -10.128  22.862  1.00  0.00    -0.000 C 
BRANCH  24  25
ATOM     25  C   UNL     1      26.879  -9.404  24.023  1.00  0.00    -0.003 C 
ATOM     26  C   UNL     1      27.424  -7.990  24.197  1.00  0.00     0.004 C 
ENDBRANCH  24  25
ENDBRANCH  23  24
ENDBRANCH  22  23
ENDBRANCH  21  22
ENDBRANCH  20  21
ENDBRANCH  19  20
ENDBRANCH  18  19
ENDBRANCH  17  18
ENDBRANCH  16  17
ENDBRANCH  15  16
ENDBRANCH   1  15
TORSDOF 22
ENDMDL
MODEL 8
REMARK VINA RESULT:    -0.657      2.071      4.554
REMARK INTER + INTRA:          -6.388
REMARK INTER:                  -1.737
REMARK INTRA:                  -4.651
REMARK UNBOUND:                -4.885
REMARK SMILES CCCCCCCCCCCCCCCCCCCCCCCC(=O)[O-]
REMARK SMILES IDX 13 1 14 2 15 3 16 4 17 5 18 6 19 7 20 8 21 9 22 10 23 11
REMARK SMILES IDX 24 12 25 13 26 14 12 15 11 16 10 17 9 18 8 19 7 20 6 21 5 22
REMARK SMILES IDX 4 23 3 24 2 25 1 26
REMARK H PARENT
REMARK Flexibility Score: inf
ROOT
ATOM      1  C   UNL     1      29.641  -8.911  19.384  1.00  0.00     0.000 C 
ENDROOT
BRANCH   1   2
ATOM      2  C   UNL     1      30.857  -8.765  18.452  1.00  0.00     0.000 C 
BRANCH   2   3
ATOM      3  C   UNL     1      31.117 -10.013  17.581  1.00  0.00     0.000 C 
BRANCH   3   4
ATOM      4  C   UNL     1      30.941  -9.724  16.083  1.00  0.00     0.000 C 
BRANCH   4   5
ATOM      5  C   UNL     1      29.810 -10.547  15.440  1.00  0.00     0.000 C 
BRANCH   5   6
ATOM      6  C   UNL     1      28.626  -9.694  14.941  1.00  0.00     0.000 C 
BRANCH   6   7
ATOM      7  C   UNL     1      27.331  -9.974  15.726  1.00  0.00     0.000 C 
BRANCH   7   8
ATOM      8  C   UNL     1      26.998  -8.871  16.746  1.00  0.00     0.000 C 
BRANCH   8   9
ATOM      9  C   UNL     1      27.778  -7.556  16.560  1.00  0.00     0.000 C 
BRANCH   9  10
ATOM     10  C   UNL     1      26.872  -6.373  16.176  1.00  0.00     0.006 C 
BRANCH  10  11
ATOM     11  C   UNL     1      25.406  -6.617  16.555  1.00  0.00     0.053 C 
BRANCH  11  12
ATOM     12  C   UNL     1      24.846  -5.500  17.384  1.00  0.00     0.041 C 
ATOM     13  O   UNL     1      23.638  -5.522  17.740  1.00  0.00    -0.550 OA
ATOM     14  O   UNL     1      25.655  -4.434  17.757  1.00  0.00    -0.550 OA
ENDBRANCH  11  12
ENDBRANCH  10  11
ENDBRANCH   9  10
ENDBRANCH   8   9
ENDBRANCH   7   8
ENDBRANCH   6   7
ENDBRANCH   5   6
ENDBRANCH   4   5
ENDBRANCH   3   4
ENDBRANCH   2   3
ENDBRANCH   1   2
BRANCH   1  15
ATOM     15  C   UNL     1      29.086 -10.344  19.420  1.00  0.00     0.000 C 
BRANCH  15  16
ATOM     16  C   UNL     1      28.844 -10.846  20.852  1.00  0.00     0.000 C 
BRANCH  16  17
ATOM     17  C   UNL     1      29.181  -9.784  21.913  1.00  0.00     0.000 C 
BRANCH  17  18
ATOM     18  C   UNL     1      27.963  -9.382  22.766  1.00  0.00    -0.000 C 
BRANCH  18  19
ATOM     19  C   UNL     1      26.628 -10.018  22.338  1.00  0.00    -0.000 C 
BRANCH  19  20
ATOM     20  C   UNL     1      25.579  -8.979  21.909  1.00  0.00    -0.000 C 
BRANCH  20  21
ATOM     21  C   UNL     1      25.660  -8.630  20.410  1.00  0.00    -0.000 C 
BRANCH  21  22
ATOM     22  C   UNL     1      26.500  -7.385  20.072  1.00  0.00    -0.000 C 
BRANCH  22  23
ATOM     23  C   UNL     1      26.172  -6.126  20.898  1.00  0.00    -0.000 C 
BRANCH  23  24
ATOM     24  C   UNL     1      27.305  -5.691  21.852  1.00  0.00    -0.000 C 
BRANCH  24  25
ATOM     25  C   UNL     1      28.698  -6.059  21.321  1.00  0.00    -0.003 C 
ATOM     26  C   UNL     1      29.796  -5.486  22.213  1.00  0.00     0.004 C 
ENDBRANCH  24  25
ENDBRANCH  23  24
ENDBRANCH  22  23
ENDBRANCH  21  22
ENDBRANCH  20  21
ENDBRANCH  19  20
ENDBRANCH  18  19
ENDBRANCH  17  18
ENDBRANCH  16  17
ENDBRANCH  15  16
ENDBRANCH   1  15
TORSDOF 22
ENDMDL
MODEL 9
REMARK VINA RESULT:    -0.657      3.198      5.393
REMARK INTER + INTRA:          -6.387
REMARK INTER:                  -1.409
REMARK INTRA:                  -4.978
REMARK UNBOUND:                -4.885
REMARK SMILES CCCCCCCCCCCCCCCCCCCCCCCC(=O)[O-]
REMARK SMILES IDX 13 1 14 2 15 3 16 4 17 5 18 6 19 7 20 8 21 9 22 10 23 11
REMARK SMILES IDX 24 12 25 13 26 14 12 15 11 16 10 17 9 18 8 19 7 20 6 21 5 22
REMARK SMILES IDX 4 23 3 24 2 25 1 26
REMARK H PARENT
REMARK Flexibility Score: inf
ROOT
ATOM      1  C   UNL     1      24.550  -7.351  15.529  1.00  0.00     0.000 C 
ENDROOT
BRANCH   1   2
ATOM      2  C   UNL     1      24.516  -6.722  14.124  1.00  0.00     0.000 C 
BRANCH   2   3
ATOM      3  C   UNL     1      25.897  -6.678  13.437  1.00  0.00     0.000 C 
BRANCH   3   4
ATOM      4  C   UNL     1      25.853  -7.236  12.006  1.00  0.00     0.000 C 
BRANCH   4   5
ATOM      5  C   UNL     1      27.181  -7.881  11.570  1.00  0.00     0.000 C 
BRANCH   5   6
ATOM      6  C   UNL     1      28.010  -8.451  12.738  1.00  0.00     0.000 C 
BRANCH   6   7
ATOM      7  C   UNL     1      28.192  -9.976  12.639  1.00  0.00     0.000 C 
BRANCH   7   8
ATOM      8  C   UNL     1      27.154 -10.759  13.463  1.00  0.00     0.000 C 
BRANCH   8   9
ATOM      9  C   UNL     1      25.747 -10.829  12.840  1.00  0.00     0.000 C 
BRANCH   9  10
ATOM     10  C   UNL     1      24.649 -11.125  13.875  1.00  0.00     0.006 C 
BRANCH  10  11
ATOM     11  C   UNL     1      23.361 -10.339  13.595  1.00  0.00     0.053 C 
BRANCH  11  12
ATOM     12  C   UNL     1      22.493 -10.229  14.812  1.00  0.00     0.041 C 
ATOM     13  O   UNL     1      21.372  -9.661  14.739  1.00  0.00    -0.550 OA
ATOM     14  O   UNL     1      22.924 -10.749  16.027  1.00  0.00    -0.550 OA
ENDBRANCH  11  12
ENDBRANCH  10  11
ENDBRANCH   9  10
ENDBRANCH   8   9
ENDBRANCH   7   8
ENDBRANCH   6   7
ENDBRANCH   5   6
ENDBRANCH   4   5
ENDBRANCH   3   4
ENDBRANCH   2   3
ENDBRANCH   1   2
BRANCH   1  15
ATOM     15  C   UNL     1      25.810  -8.198  15.773  1.00  0.00     0.000 C 
BRANCH  15  16
ATOM     16  C   UNL     1      25.772  -8.935  17.120  1.00  0.00     0.000 C 
BRANCH  16  17
ATOM     17  C   UNL     1      26.512 -10.283  17.075  1.00  0.00     0.000 C 
BRANCH  17  18
ATOM     18  C   UNL     1      27.472 -10.481  18.263  1.00  0.00    -0.000 C 
BRANCH  18  19
ATOM     19  C   UNL     1      28.931 -10.788  17.880  1.00  0.00    -0.000 C 
BRANCH  19  20
ATOM     20  C   UNL     1      29.255 -10.431  16.420  1.00  0.00    -0.000 C 
BRANCH  20  21
ATOM     21  C   UNL     1      30.195  -9.217  16.294  1.00  0.00    -0.000 C 
BRANCH  21  22
ATOM     22  C   UNL     1      29.490  -7.858  16.125  1.00  0.00    -0.000 C 
BRANCH  22  23
ATOM     23  C   UNL     1      29.085  -7.161  17.439  1.00  0.00    -0.000 C 
BRANCH  23  24
ATOM     24  C   UNL     1      28.307  -5.844  17.233  1.00  0.00    -0.000 C 
BRANCH  24  25
ATOM     25  C   UNL     1      28.291  -5.389  15.766  1.00  0.00    -0.003 C 
ATOM     26  C   UNL     1      28.910  -4.002  15.614  1.00  0.00     0.004 C 
ENDBRANCH  24  25
ENDBRANCH  23  24
ENDBRANCH  22  23
ENDBRANCH  21  22
ENDBRANCH  20  21
ENDBRANCH  19  20
ENDBRANCH  18  19
ENDBRANCH  17  18
ENDBRANCH  16  17
ENDBRANCH  15  16
ENDBRANCH   1  15
TORSDOF 22
ENDMDL
