MODEL 1
REMARK VINA RESULT:    -4.264      0.000      0.000
REMARK INTER + INTRA:          -5.050
REMARK INTER:                  -5.012
REMARK INTRA:                  -0.038
REMARK UNBOUND:                -0.038
REMARK SMILES O=C([O-])CCC(=O)[O-]
REMARK SMILES IDX 4 1 2 2 1 3 3 4 5 5 6 6 7 7 8 8
REMARK H PARENT
REMARK Flexibility Score: inf
ROOT
ATOM      1  C   UNL     1     -30.554   7.084   5.620  1.00  0.00     0.059 C 
ENDROOT
BRANCH   1   2
ATOM      2  C   UNL     1     -29.393   6.395   6.266  1.00  0.00     0.042 C 
ATOM      3  O   UNL     1     -28.274   6.365   5.690  1.00  0.00    -0.550 OA
ATOM      4  O   UNL     1     -29.535   5.827   7.526  1.00  0.00    -0.550 OA
ENDBRANCH   1   2
BRANCH   1   5
ATOM      5  C   UNL     1     -31.002   6.322   4.372  1.00  0.00     0.059 C 
BRANCH   5   6
ATOM      6  C   UNL     1     -32.489   6.388   4.224  1.00  0.00     0.042 C 
ATOM      7  O   UNL     1     -33.151   7.250   4.860  1.00  0.00    -0.550 OA
ATOM      8  O   UNL     1     -33.139   5.530   3.345  1.00  0.00    -0.550 OA
ENDBRANCH   5   6
ENDBRANCH   1   5
TORSDOF 3
ENDMDL
MODEL 2
REMARK VINA RESULT:    -4.214      0.126      4.243
REMARK INTER + INTRA:          -4.990
REMARK INTER:                  -4.954
REMARK INTRA:                  -0.037
REMARK UNBOUND:                -0.038
REMARK SMILES O=C([O-])CCC(=O)[O-]
REMARK SMILES IDX 4 1 2 2 1 3 3 4 5 5 6 6 7 7 8 8
REMARK H PARENT
REMARK Flexibility Score: inf
ROOT
ATOM      1  C   UNL     1     -31.075   6.281   4.357  1.00  0.00     0.059 C 
ENDROOT
BRANCH   1   2
ATOM      2  C   UNL     1     -32.562   6.358   4.214  1.00  0.00     0.042 C 
ATOM      3  O   UNL     1     -33.205   7.287   4.768  1.00  0.00    -0.550 OA
ATOM      4  O   UNL     1     -33.234   5.429   3.429  1.00  0.00    -0.550 OA
ENDBRANCH   1   2
BRANCH   1   5
ATOM      5  C   UNL     1     -30.607   7.127   5.543  1.00  0.00     0.059 C 
BRANCH   5   6
ATOM      6  C   UNL     1     -29.428   6.489   6.208  1.00  0.00     0.042 C 
ATOM      7  O   UNL     1     -28.325   6.416   5.606  1.00  0.00    -0.550 OA
ATOM      8  O   UNL     1     -29.535   6.021   7.511  1.00  0.00    -0.550 OA
ENDBRANCH   5   6
ENDBRANCH   1   5
TORSDOF 3
ENDMDL
MODEL 3
REMARK VINA RESULT:    -4.156     15.669     16.934
REMARK INTER + INTRA:          -4.922
REMARK INTER:                  -4.883
REMARK INTRA:                  -0.039
REMARK UNBOUND:                -0.038
REMARK SMILES O=C([O-])CCC(=O)[O-]
REMARK SMILES IDX 4 1 2 2 1 3 3 4 5 5 6 6 7 7 8 8
REMARK H PARENT
REMARK Flexibility Score: inf
ROOT
ATOM      1  C   UNL     1     -19.093  -4.961   1.113  1.00  0.00     0.059 C 
ENDROOT
BRANCH   1   2
ATOM      2  C   UNL     1     -19.487  -3.611   0.603  1.00  0.00     0.042 C 
ATOM      3  O   UNL     1     -19.494  -2.618   1.377  1.00  0.00    -0.550 OA
ATOM      4  O   UNL     1     -19.801  -3.439  -0.740  1.00  0.00    -0.550 OA
ENDBRANCH   1   2
BRANCH   1   5
ATOM      5  C   UNL     1     -20.228  -5.574   1.936  1.00  0.00     0.059 C 
BRANCH   5   6
ATOM      6  C   UNL     1     -20.299  -7.051   1.711  1.00  0.00     0.042 C 
ATOM      7  O   UNL     1     -19.334  -7.657   1.175  1.00  0.00    -0.550 OA
ATOM      8  O   UNL     1     -21.411  -7.767   2.138  1.00  0.00    -0.550 OA
ENDBRANCH   5   6
ENDBRANCH   1   5
TORSDOF 3
ENDMDL
MODEL 4
REMARK VINA RESULT:    -4.142     15.654     16.845
REMARK INTER + INTRA:          -4.906
REMARK INTER:                  -4.870
REMARK INTRA:                  -0.036
REMARK UNBOUND:                -0.038
REMARK SMILES O=C([O-])CCC(=O)[O-]
REMARK SMILES IDX 4 1 2 2 1 3 3 4 5 5 6 6 7 7 8 8
REMARK H PARENT
REMARK Flexibility Score: inf
ROOT
ATOM      1  C   UNL     1     -20.195  -5.541   1.910  1.00  0.00     0.059 C 
ENDROOT
BRANCH   1   2
ATOM      2  C   UNL     1     -20.267  -7.023   1.721  1.00  0.00     0.042 C 
ATOM      3  O   UNL     1     -19.315  -7.638   1.173  1.00  0.00    -0.550 OA
ATOM      4  O   UNL     1     -21.364  -7.732   2.194  1.00  0.00    -0.550 OA
ENDBRANCH   1   2
BRANCH   1   5
ATOM      5  C   UNL     1     -19.107  -4.940   1.019  1.00  0.00     0.059 C 
BRANCH   5   6
ATOM      6  C   UNL     1     -19.496  -3.567   0.570  1.00  0.00     0.042 C 
ATOM      7  O   UNL     1     -19.502  -2.610   1.389  1.00  0.00    -0.550 OA
ATOM      8  O   UNL     1     -19.805  -3.333  -0.764  1.00  0.00    -0.550 OA
ENDBRANCH   5   6
ENDBRANCH   1   5
TORSDOF 3
ENDMDL
MODEL 5
REMARK VINA RESULT:    -3.654     15.631     16.716
REMARK INTER + INTRA:          -4.332
REMARK INTER:                  -4.290
REMARK INTRA:                  -0.042
REMARK UNBOUND:                -0.038
REMARK SMILES O=C([O-])CCC(=O)[O-]
REMARK SMILES IDX 4 1 2 2 1 3 3 4 5 5 6 6 7 7 8 8
REMARK H PARENT
REMARK Flexibility Score: inf
ROOT
ATOM      1  C   UNL     1     -19.825  -6.208   1.500  1.00  0.00     0.059 C 
ENDROOT
BRANCH   1   2
ATOM      2  C   UNL     1     -20.763  -6.974   2.378  1.00  0.00     0.042 C 
ATOM      3  O   UNL     1     -21.323  -8.017   1.949  1.00  0.00    -0.550 OA
ATOM      4  O   UNL     1     -20.981  -6.564   3.687  1.00  0.00    -0.550 OA
ENDBRANCH   1   2
BRANCH   1   5
ATOM      5  C   UNL     1     -19.680  -4.769   1.998  1.00  0.00     0.059 C 
BRANCH   5   6
ATOM      6  C   UNL     1     -19.478  -3.834   0.848  1.00  0.00     0.042 C 
ATOM      7  O   UNL     1     -19.180  -4.284  -0.289  1.00  0.00    -0.550 OA
ATOM      8  O   UNL     1     -19.668  -2.468   1.020  1.00  0.00    -0.550 OA
ENDBRANCH   5   6
ENDBRANCH   1   5
TORSDOF 3
ENDMDL
MODEL 6
REMARK VINA RESULT:    -2.972     17.395     18.001
REMARK INTER + INTRA:          -3.531
REMARK INTER:                  -3.460
REMARK INTRA:                  -0.071
REMARK UNBOUND:                -0.038
REMARK SMILES O=C([O-])CCC(=O)[O-]
REMARK SMILES IDX 4 1 2 2 1 3 3 4 5 5 6 6 7 7 8 8
REMARK H PARENT
REMARK Flexibility Score: inf
ROOT
ATOM      1  C   UNL     1     -32.782 -10.990   3.723  1.00  0.00     0.059 C 
ENDROOT
BRANCH   1   2
ATOM      2  C   UNL     1     -31.536 -11.364   2.984  1.00  0.00     0.042 C 
ATOM      3  O   UNL     1     -30.409 -11.028   3.433  1.00  0.00    -0.550 OA
ATOM      4  O   UNL     1     -31.616 -12.125   1.824  1.00  0.00    -0.550 OA
ENDBRANCH   1   2
BRANCH   1   5
ATOM      5  C   UNL     1     -33.975 -11.792   3.200  1.00  0.00     0.059 C 
BRANCH   5   6
ATOM      6  C   UNL     1     -34.763 -10.981   2.220  1.00  0.00     0.042 C 
ATOM      7  O   UNL     1     -34.828 -11.335   1.013  1.00  0.00    -0.550 OA
ATOM      8  O   UNL     1     -35.465  -9.862   2.649  1.00  0.00    -0.550 OA
ENDBRANCH   5   6
ENDBRANCH   1   5
TORSDOF 3
ENDMDL
MODEL 7
REMARK VINA RESULT:    -2.943     17.374     18.141
REMARK INTER + INTRA:          -3.497
REMARK INTER:                  -3.436
REMARK INTRA:                  -0.060
REMARK UNBOUND:                -0.038
REMARK SMILES O=C([O-])CCC(=O)[O-]
REMARK SMILES IDX 4 1 2 2 1 3 3 4 5 5 6 6 7 7 8 8
REMARK H PARENT
REMARK Flexibility Score: inf
ROOT
ATOM      1  C   UNL     1     -34.356 -11.486   3.070  1.00  0.00     0.059 C 
ENDROOT
BRANCH   1   2
ATOM      2  C   UNL     1     -35.128 -10.592   2.152  1.00  0.00     0.042 C 
ATOM      3  O   UNL     1     -35.205 -10.859   0.924  1.00  0.00    -0.550 OA
ATOM      4  O   UNL     1     -35.803  -9.489   2.660  1.00  0.00    -0.550 OA
ENDBRANCH   1   2
BRANCH   1   5
ATOM      5  C   UNL     1     -32.986 -11.811   2.473  1.00  0.00     0.059 C 
BRANCH   5   6
ATOM      6  C   UNL     1     -31.895 -11.245   3.326  1.00  0.00     0.042 C 
ATOM      7  O   UNL     1     -32.092 -11.041   4.553  1.00  0.00    -0.550 OA
ATOM      8  O   UNL     1     -30.645 -10.989   2.777  1.00  0.00    -0.550 OA
ENDBRANCH   5   6
ENDBRANCH   1   5
TORSDOF 3
ENDMDL
MODEL 8
REMARK VINA RESULT:    -2.920     18.030     19.241
REMARK INTER + INTRA:          -3.470
REMARK INTER:                  -3.430
REMARK INTRA:                  -0.040
REMARK UNBOUND:                -0.038
REMARK SMILES O=C([O-])CCC(=O)[O-]
REMARK SMILES IDX 4 1 2 2 1 3 3 4 5 5 6 6 7 7 8 8
REMARK H PARENT
REMARK Flexibility Score: inf
ROOT
ATOM      1  C   UNL     1     -28.169 -10.892  11.864  1.00  0.00     0.059 C 
ENDROOT
BRANCH   1   2
ATOM      2  C   UNL     1     -29.093 -10.374  10.807  1.00  0.00     0.042 C 
ATOM      3  O   UNL     1     -29.080  -9.155  10.496  1.00  0.00    -0.550 OA
ATOM      4  O   UNL     1     -29.936 -11.248  10.131  1.00  0.00    -0.550 OA
ENDBRANCH   1   2
BRANCH   1   5
ATOM      5  C   UNL     1     -27.360 -12.076  11.334  1.00  0.00     0.059 C 
BRANCH   5   6
ATOM      6  C   UNL     1     -25.897 -11.851  11.551  1.00  0.00     0.042 C 
ATOM      7  O   UNL     1     -25.372 -12.125  12.663  1.00  0.00    -0.550 OA
ATOM      8  O   UNL     1     -25.103 -11.385  10.511  1.00  0.00    -0.550 OA
ENDBRANCH   5   6
ENDBRANCH   1   5
TORSDOF 3
ENDMDL
MODEL 9
REMARK VINA RESULT:    -2.893     12.864     14.707
REMARK INTER + INTRA:          -3.438
REMARK INTER:                  -3.402
REMARK INTRA:                  -0.037
REMARK UNBOUND:                -0.038
REMARK SMILES O=C([O-])CCC(=O)[O-]
REMARK SMILES IDX 4 1 2 2 1 3 3 4 5 5 6 6 7 7 8 8
REMARK H PARENT
REMARK Flexibility Score: inf
ROOT
ATOM      1  C   UNL     1     -37.082  -4.487  -1.382  1.00  0.00     0.059 C 
ENDROOT
BRANCH   1   2
ATOM      2  C   UNL     1     -37.054  -3.030  -1.042  1.00  0.00     0.042 C 
ATOM      3  O   UNL     1     -37.334  -2.646   0.123  1.00  0.00    -0.550 OA
ATOM      4  O   UNL     1     -36.672  -2.100  -2.001  1.00  0.00    -0.550 OA
ENDBRANCH   1   2
BRANCH   1   5
ATOM      5  C   UNL     1     -38.125  -5.215  -0.531  1.00  0.00     0.059 C 
BRANCH   5   6
ATOM      6  C   UNL     1     -37.917  -6.695  -0.601  1.00  0.00     0.042 C 
ATOM      7  O   UNL     1     -37.762  -7.260  -1.715  1.00  0.00    -0.550 OA
ATOM      8  O   UNL     1     -37.845  -7.443   0.568  1.00  0.00    -0.550 OA
ENDBRANCH   5   6
ENDBRANCH   1   5
TORSDOF 3
ENDMDL
