MODEL 1
REMARK VINA RESULT:    -5.440      0.000      0.000
REMARK INTER + INTRA:          -6.686
REMARK INTER:                  -6.395
REMARK INTRA:                  -0.291
REMARK UNBOUND:                -0.291
REMARK SMILES COc1cc2ccc(=O)oc2c(OC)c1OC
REMARK SMILES IDX 3 1 15 2 12 3 11 4 5 5 4 6 6 7 7 8 8 9 9 10 10 11 2 12 1 13
REMARK SMILES IDX 16 14 17 15 13 16 14 17
REMARK H PARENT
REMARK Flexibility Score: inf
ROOT
ATOM      1  C   UNL     1     -22.418   0.777  21.881  1.00  0.00     0.165 A 
ATOM      2  C   UNL     1     -22.405   0.741  20.458  1.00  0.00     0.207 A 
ATOM      3  C   UNL     1     -22.043  -0.465  19.795  1.00  0.00     0.208 A 
ATOM      4  C   UNL     1     -21.704  -1.598  20.545  1.00  0.00     0.184 A 
ATOM      5  C   UNL     1     -21.717  -1.554  21.951  1.00  0.00     0.025 A 
ATOM      6  C   UNL     1     -22.071  -0.377  22.609  1.00  0.00     0.062 A 
ATOM      7  C   UNL     1     -21.371  -2.708  22.663  1.00  0.00     0.020 A 
ATOM      8  C   UNL     1     -21.024  -3.864  21.966  1.00  0.00     0.094 A 
ATOM      9  C   UNL     1     -21.031  -3.838  20.569  1.00  0.00     0.336 A 
ATOM     10  O   UNL     1     -20.721  -4.869  19.919  1.00  0.00    -0.246 OA
ATOM     11  O   UNL     1     -21.365  -2.725  19.921  1.00  0.00    -0.419 OA
ENDROOT
BRANCH   1  12
ATOM     12  O   UNL     1     -22.773   1.960  22.550  1.00  0.00    -0.493 OA
ATOM     13  C   UNL     1     -24.049   2.228  23.124  1.00  0.00     0.278 C 
ENDBRANCH   1  12
BRANCH   2  14
ATOM     14  O   UNL     1     -22.741   1.859  19.671  1.00  0.00    -0.490 OA
ATOM     15  C   UNL     1     -24.045   2.292  19.295  1.00  0.00     0.278 C 
ENDBRANCH   2  14
BRANCH   3  16
ATOM     16  O   UNL     1     -22.000  -0.609  18.393  1.00  0.00    -0.490 OA
ATOM     17  C   UNL     1     -23.058  -1.036  17.542  1.00  0.00     0.278 C 
ENDBRANCH   3  16
TORSDOF 3
ENDMDL
MODEL 2
REMARK VINA RESULT:    -5.062      3.062      5.513
REMARK INTER + INTRA:          -6.241
REMARK INTER:                  -5.987
REMARK INTRA:                  -0.254
REMARK UNBOUND:                -0.291
REMARK SMILES COc1cc2ccc(=O)oc2c(OC)c1OC
REMARK SMILES IDX 3 1 15 2 12 3 11 4 5 5 4 6 6 7 7 8 8 9 9 10 10 11 2 12 1 13
REMARK SMILES IDX 16 14 17 15 13 16 14 17
REMARK H PARENT
REMARK Flexibility Score: inf
ROOT
ATOM      1  C   UNL     1     -18.877  -3.410  17.142  1.00  0.00     0.165 A 
ATOM      2  C   UNL     1     -19.973  -2.596  16.740  1.00  0.00     0.207 A 
ATOM      3  C   UNL     1     -20.922  -2.175  17.715  1.00  0.00     0.208 A 
ATOM      4  C   UNL     1     -20.768  -2.566  19.051  1.00  0.00     0.184 A 
ATOM      5  C   UNL     1     -19.683  -3.372  19.439  1.00  0.00     0.025 A 
ATOM      6  C   UNL     1     -18.748  -3.788  18.492  1.00  0.00     0.062 A 
ATOM      7  C   UNL     1     -19.566  -3.740  20.784  1.00  0.00     0.020 A 
ATOM      8  C   UNL     1     -20.522  -3.302  21.699  1.00  0.00     0.094 A 
ATOM      9  C   UNL     1     -21.575  -2.504  21.245  1.00  0.00     0.336 A 
ATOM     10  O   UNL     1     -22.449  -2.098  22.053  1.00  0.00    -0.246 OA
ATOM     11  O   UNL     1     -21.658  -2.171  19.960  1.00  0.00    -0.419 OA
ENDROOT
BRANCH   1  12
ATOM     12  O   UNL     1     -17.932  -3.833  16.192  1.00  0.00    -0.493 OA
ATOM     13  C   UNL     1     -18.027  -5.020  15.410  1.00  0.00     0.278 C 
ENDBRANCH   1  12
BRANCH   2  14
ATOM     14  O   UNL     1     -20.160  -2.183  15.407  1.00  0.00    -0.490 OA
ATOM     15  C   UNL     1     -19.614  -1.029  14.776  1.00  0.00     0.278 C 
ENDBRANCH   2  14
BRANCH   3  16
ATOM     16  O   UNL     1     -22.041  -1.368  17.426  1.00  0.00    -0.490 OA
ATOM     17  C   UNL     1     -23.224  -1.757  16.737  1.00  0.00     0.278 C 
ENDBRANCH   3  16
TORSDOF 3
ENDMDL
MODEL 3
REMARK VINA RESULT:    -4.812      3.093      5.558
REMARK INTER + INTRA:          -5.947
REMARK INTER:                  -5.707
REMARK INTRA:                  -0.241
REMARK UNBOUND:                -0.291
REMARK SMILES COc1cc2ccc(=O)oc2c(OC)c1OC
REMARK SMILES IDX 3 1 15 2 12 3 11 4 5 5 4 6 6 7 7 8 8 9 9 10 10 11 2 12 1 13
REMARK SMILES IDX 16 14 17 15 13 16 14 17
REMARK H PARENT
REMARK Flexibility Score: inf
ROOT
ATOM      1  C   UNL     1     -20.613  -2.228  16.875  1.00  0.00     0.165 A 
ATOM      2  C   UNL     1     -19.730  -3.315  17.126  1.00  0.00     0.207 A 
ATOM      3  C   UNL     1     -19.626  -3.839  18.446  1.00  0.00     0.208 A 
ATOM      4  C   UNL     1     -20.389  -3.280  19.478  1.00  0.00     0.184 A 
ATOM      5  C   UNL     1     -21.259  -2.204  19.222  1.00  0.00     0.025 A 
ATOM      6  C   UNL     1     -21.367  -1.686  17.933  1.00  0.00     0.062 A 
ATOM      7  C   UNL     1     -22.004  -1.675  20.283  1.00  0.00     0.020 A 
ATOM      8  C   UNL     1     -21.866  -2.223  21.557  1.00  0.00     0.094 A 
ATOM      9  C   UNL     1     -20.984  -3.290  21.740  1.00  0.00     0.336 A 
ATOM     10  O   UNL     1     -20.843  -3.801  22.882  1.00  0.00    -0.246 OA
ATOM     11  O   UNL     1     -20.289  -3.771  20.713  1.00  0.00    -0.419 OA
ENDROOT
BRANCH   1  12
ATOM     12  O   UNL     1     -20.727  -1.701  15.578  1.00  0.00    -0.493 OA
ATOM     13  C   UNL     1     -21.925  -1.191  15.000  1.00  0.00     0.278 C 
ENDBRANCH   1  12
BRANCH   2  14
ATOM     14  O   UNL     1     -18.947  -3.903  16.114  1.00  0.00    -0.490 OA
ATOM     15  C   UNL     1     -17.609  -3.573  15.755  1.00  0.00     0.278 C 
ENDBRANCH   2  14
BRANCH   3  16
ATOM     16  O   UNL     1     -18.785  -4.912  18.802  1.00  0.00    -0.490 OA
ATOM     17  C   UNL     1     -19.002  -6.295  18.541  1.00  0.00     0.278 C 
ENDBRANCH   3  16
TORSDOF 3
ENDMDL
MODEL 4
REMARK VINA RESULT:    -4.797      3.949      6.198
REMARK INTER + INTRA:          -5.929
REMARK INTER:                  -5.650
REMARK INTRA:                  -0.279
REMARK UNBOUND:                -0.291
REMARK SMILES COc1cc2ccc(=O)oc2c(OC)c1OC
REMARK SMILES IDX 3 1 15 2 12 3 11 4 5 5 4 6 6 7 7 8 8 9 9 10 10 11 2 12 1 13
REMARK SMILES IDX 16 14 17 15 13 16 14 17
REMARK H PARENT
REMARK Flexibility Score: inf
ROOT
ATOM      1  C   UNL     1     -21.415  -2.292  17.657  1.00  0.00     0.165 A 
ATOM      2  C   UNL     1     -20.740  -3.313  18.382  1.00  0.00     0.207 A 
ATOM      3  C   UNL     1     -19.497  -3.808  17.894  1.00  0.00     0.208 A 
ATOM      4  C   UNL     1     -18.956  -3.287  16.712  1.00  0.00     0.184 A 
ATOM      5  C   UNL     1     -19.631  -2.279  16.001  1.00  0.00     0.025 A 
ATOM      6  C   UNL     1     -20.848  -1.788  16.471  1.00  0.00     0.062 A 
ATOM      7  C   UNL     1     -19.056  -1.786  14.823  1.00  0.00     0.020 A 
ATOM      8  C   UNL     1     -17.838  -2.305  14.388  1.00  0.00     0.094 A 
ATOM      9  C   UNL     1     -17.222  -3.306  15.143  1.00  0.00     0.336 A 
ATOM     10  O   UNL     1     -16.122  -3.788  14.768  1.00  0.00    -0.246 OA
ATOM     11  O   UNL     1     -17.794  -3.753  16.257  1.00  0.00    -0.419 OA
ENDROOT
BRANCH   1  12
ATOM     12  O   UNL     1     -22.642  -1.793  18.126  1.00  0.00    -0.493 OA
ATOM     13  C   UNL     1     -22.855  -0.479  18.634  1.00  0.00     0.278 C 
ENDBRANCH   1  12
BRANCH   2  14
ATOM     14  O   UNL     1     -21.252  -3.860  19.574  1.00  0.00    -0.490 OA
ATOM     15  C   UNL     1     -20.958  -3.454  20.907  1.00  0.00     0.278 C 
ENDBRANCH   2  14
BRANCH   3  16
ATOM     16  O   UNL     1     -18.746  -4.815  18.533  1.00  0.00    -0.490 OA
ATOM     17  C   UNL     1     -18.964  -6.220  18.466  1.00  0.00     0.278 C 
ENDBRANCH   3  16
TORSDOF 3
ENDMDL
MODEL 5
REMARK VINA RESULT:    -4.792     18.832     20.474
REMARK INTER + INTRA:          -5.923
REMARK INTER:                  -5.610
REMARK INTRA:                  -0.313
REMARK UNBOUND:                -0.291
REMARK SMILES COc1cc2ccc(=O)oc2c(OC)c1OC
REMARK SMILES IDX 3 1 15 2 12 3 11 4 5 5 4 6 6 7 7 8 8 9 9 10 10 11 2 12 1 13
REMARK SMILES IDX 16 14 17 15 13 16 14 17
REMARK H PARENT
REMARK Flexibility Score: inf
ROOT
ATOM      1  C   UNL     1      -8.504  -7.937   8.603  1.00  0.00     0.165 A 
ATOM      2  C   UNL     1      -7.336  -7.497   9.287  1.00  0.00     0.207 A 
ATOM      3  C   UNL     1      -6.736  -6.261   8.917  1.00  0.00     0.208 A 
ATOM      4  C   UNL     1      -7.297  -5.494   7.888  1.00  0.00     0.184 A 
ATOM      5  C   UNL     1      -8.451  -5.937   7.216  1.00  0.00     0.025 A 
ATOM      6  C   UNL     1      -9.046  -7.146   7.572  1.00  0.00     0.062 A 
ATOM      7  C   UNL     1      -8.979  -5.140   6.193  1.00  0.00     0.020 A 
ATOM      8  C   UNL     1      -8.354  -3.938   5.868  1.00  0.00     0.094 A 
ATOM      9  C   UNL     1      -7.211  -3.560   6.577  1.00  0.00     0.336 A 
ATOM     10  O   UNL     1      -6.629  -2.478   6.301  1.00  0.00    -0.246 OA
ATOM     11  O   UNL     1      -6.732  -4.338   7.544  1.00  0.00    -0.419 OA
ENDROOT
BRANCH   1  12
ATOM     12  O   UNL     1      -9.108  -9.155   8.956  1.00  0.00    -0.493 OA
ATOM     13  C   UNL     1     -10.250  -9.292   9.796  1.00  0.00     0.278 C 
ENDBRANCH   1  12
BRANCH   2  14
ATOM     14  O   UNL     1      -6.744  -8.240  10.326  1.00  0.00    -0.490 OA
ATOM     15  C   UNL     1      -7.088  -8.218  11.708  1.00  0.00     0.278 C 
ENDBRANCH   2  14
BRANCH   3  16
ATOM     16  O   UNL     1      -5.581  -5.733   9.530  1.00  0.00    -0.490 OA
ATOM     17  C   UNL     1      -5.515  -5.000  10.748  1.00  0.00     0.278 C 
ENDBRANCH   3  16
TORSDOF 3
ENDMDL
MODEL 6
REMARK VINA RESULT:    -4.789     18.025     19.382
REMARK INTER + INTRA:          -5.919
REMARK INTER:                  -5.644
REMARK INTRA:                  -0.276
REMARK UNBOUND:                -0.291
REMARK SMILES COc1cc2ccc(=O)oc2c(OC)c1OC
REMARK SMILES IDX 3 1 15 2 12 3 11 4 5 5 4 6 6 7 7 8 8 9 9 10 10 11 2 12 1 13
REMARK SMILES IDX 16 14 17 15 13 16 14 17
REMARK H PARENT
REMARK Flexibility Score: inf
ROOT
ATOM      1  C   UNL     1      -7.494  -6.026   7.874  1.00  0.00     0.165 A 
ATOM      2  C   UNL     1      -8.493  -6.783   8.547  1.00  0.00     0.207 A 
ATOM      3  C   UNL     1      -8.464  -6.867   9.968  1.00  0.00     0.208 A 
ATOM      4  C   UNL     1      -7.457  -6.208  10.684  1.00  0.00     0.184 A 
ATOM      5  C   UNL     1      -6.472  -5.463  10.011  1.00  0.00     0.025 A 
ATOM      6  C   UNL     1      -6.493  -5.375   8.620  1.00  0.00     0.062 A 
ATOM      7  C   UNL     1      -5.484  -4.820  10.765  1.00  0.00     0.020 A 
ATOM      8  C   UNL     1      -5.499  -4.934  12.154  1.00  0.00     0.094 A 
ATOM      9  C   UNL     1      -6.507  -5.690  12.758  1.00  0.00     0.336 A 
ATOM     10  O   UNL     1      -6.541  -5.807  14.010  1.00  0.00    -0.246 OA
ATOM     11  O   UNL     1      -7.433  -6.290  12.014  1.00  0.00    -0.419 OA
ENDROOT
BRANCH   1  12
ATOM     12  O   UNL     1      -7.509  -5.933   6.472  1.00  0.00    -0.493 OA
ATOM     13  C   UNL     1      -8.206  -4.943   5.722  1.00  0.00     0.278 C 
ENDBRANCH   1  12
BRANCH   2  14
ATOM     14  O   UNL     1      -9.520  -7.458   7.861  1.00  0.00    -0.490 OA
ATOM     15  C   UNL     1     -10.871  -7.038   7.697  1.00  0.00     0.278 C 
ENDBRANCH   2  14
BRANCH   3  16
ATOM     16  O   UNL     1      -9.404  -7.588  10.732  1.00  0.00    -0.490 OA
ATOM     17  C   UNL     1      -9.438  -8.994  10.946  1.00  0.00     0.278 C 
ENDBRANCH   3  16
TORSDOF 3
ENDMDL
MODEL 7
REMARK VINA RESULT:    -4.780      3.285      5.828
REMARK INTER + INTRA:          -5.909
REMARK INTER:                  -5.704
REMARK INTRA:                  -0.206
REMARK UNBOUND:                -0.291
REMARK SMILES COc1cc2ccc(=O)oc2c(OC)c1OC
REMARK SMILES IDX 3 1 15 2 12 3 11 4 5 5 4 6 6 7 7 8 8 9 9 10 10 11 2 12 1 13
REMARK SMILES IDX 16 14 17 15 13 16 14 17
REMARK H PARENT
REMARK Flexibility Score: inf
ROOT
ATOM      1  C   UNL     1     -20.698  -3.217  19.739  1.00  0.00     0.165 A 
ATOM      2  C   UNL     1     -19.843  -3.685  18.701  1.00  0.00     0.207 A 
ATOM      3  C   UNL     1     -20.032  -3.207  17.374  1.00  0.00     0.208 A 
ATOM      4  C   UNL     1     -21.053  -2.287  17.104  1.00  0.00     0.184 A 
ATOM      5  C   UNL     1     -21.894  -1.830  18.135  1.00  0.00     0.025 A 
ATOM      6  C   UNL     1     -21.716  -2.293  19.438  1.00  0.00     0.062 A 
ATOM      7  C   UNL     1     -22.902  -0.911  17.822  1.00  0.00     0.020 A 
ATOM      8  C   UNL     1     -23.046  -0.474  16.506  1.00  0.00     0.094 A 
ATOM      9  C   UNL     1     -22.175  -0.968  15.532  1.00  0.00     0.336 A 
ATOM     10  O   UNL     1     -22.287  -0.588  14.338  1.00  0.00    -0.246 OA
ATOM     11  O   UNL     1     -21.227  -1.842  15.860  1.00  0.00    -0.419 OA
ENDROOT
BRANCH   1  12
ATOM     12  O   UNL     1     -20.524  -3.679  21.054  1.00  0.00    -0.493 OA
ATOM     13  C   UNL     1     -21.382  -3.380  22.150  1.00  0.00     0.278 C 
ENDBRANCH   1  12
BRANCH   2  14
ATOM     14  O   UNL     1     -18.807  -4.609  18.935  1.00  0.00    -0.490 OA
ATOM     15  C   UNL     1     -18.797  -5.996  18.613  1.00  0.00     0.278 C 
ENDBRANCH   2  14
BRANCH   3  16
ATOM     16  O   UNL     1     -19.242  -3.603  16.275  1.00  0.00    -0.490 OA
ATOM     17  C   UNL     1     -17.927  -3.160  15.960  1.00  0.00     0.278 C 
ENDBRANCH   3  16
TORSDOF 3
ENDMDL
MODEL 8
REMARK VINA RESULT:    -4.685     17.395     19.517
REMARK INTER + INTRA:          -5.798
REMARK INTER:                  -5.548
REMARK INTRA:                  -0.250
REMARK UNBOUND:                -0.291
REMARK SMILES COc1cc2ccc(=O)oc2c(OC)c1OC
REMARK SMILES IDX 3 1 15 2 12 3 11 4 5 5 4 6 6 7 7 8 8 9 9 10 10 11 2 12 1 13
REMARK SMILES IDX 16 14 17 15 13 16 14 17
REMARK H PARENT
REMARK Flexibility Score: inf
ROOT
ATOM      1  C   UNL     1      -8.755  -5.448   6.665  1.00  0.00     0.165 A 
ATOM      2  C   UNL     1      -8.211  -6.751   6.843  1.00  0.00     0.207 A 
ATOM      3  C   UNL     1      -8.778  -7.615   7.821  1.00  0.00     0.208 A 
ATOM      4  C   UNL     1      -9.860  -7.176   8.595  1.00  0.00     0.184 A 
ATOM      5  C   UNL     1     -10.391  -5.886   8.414  1.00  0.00     0.025 A 
ATOM      6  C   UNL     1      -9.842  -5.033   7.458  1.00  0.00     0.062 A 
ATOM      7  C   UNL     1     -11.472  -5.487   9.208  1.00  0.00     0.020 A 
ATOM      8  C   UNL     1     -11.992  -6.371  10.152  1.00  0.00     0.094 A 
ATOM      9  C   UNL     1     -11.415  -7.637  10.280  1.00  0.00     0.336 A 
ATOM     10  O   UNL     1     -11.868  -8.451  11.126  1.00  0.00    -0.246 OA
ATOM     11  O   UNL     1     -10.388  -7.987   9.511  1.00  0.00    -0.419 OA
ENDROOT
BRANCH   1  12
ATOM     12  O   UNL     1      -8.206  -4.583   5.703  1.00  0.00    -0.493 OA
ATOM     13  C   UNL     1      -7.497  -3.381   5.988  1.00  0.00     0.278 C 
ENDBRANCH   1  12
BRANCH   2  14
ATOM     14  O   UNL     1      -7.125  -7.227   6.084  1.00  0.00    -0.490 OA
ATOM     15  C   UNL     1      -7.174  -7.875   4.817  1.00  0.00     0.278 C 
ENDBRANCH   2  14
BRANCH   3  16
ATOM     16  O   UNL     1      -8.318  -8.923   8.078  1.00  0.00    -0.490 OA
ATOM     17  C   UNL     1      -7.134  -9.293   8.776  1.00  0.00     0.278 C 
ENDBRANCH   3  16
TORSDOF 3
ENDMDL
MODEL 9
REMARK VINA RESULT:    -4.668     18.096     19.660
REMARK INTER + INTRA:          -5.778
REMARK INTER:                  -5.500
REMARK INTRA:                  -0.278
REMARK UNBOUND:                -0.291
REMARK SMILES COc1cc2ccc(=O)oc2c(OC)c1OC
REMARK SMILES IDX 3 1 15 2 12 3 11 4 5 5 4 6 6 7 7 8 8 9 9 10 10 11 2 12 1 13
REMARK SMILES IDX 16 14 17 15 13 16 14 17
REMARK H PARENT
REMARK Flexibility Score: inf
ROOT
ATOM      1  C   UNL     1      -7.004  -6.277  10.653  1.00  0.00     0.165 A 
ATOM      2  C   UNL     1      -8.034  -7.125  10.159  1.00  0.00     0.207 A 
ATOM      3  C   UNL     1      -8.611  -6.852   8.886  1.00  0.00     0.208 A 
ATOM      4  C   UNL     1      -8.161  -5.756   8.139  1.00  0.00     0.184 A 
ATOM      5  C   UNL     1      -7.143  -4.922   8.635  1.00  0.00     0.025 A 
ATOM      6  C   UNL     1      -6.572  -5.183   9.880  1.00  0.00     0.062 A 
ATOM      7  C   UNL     1      -6.722  -3.838   7.856  1.00  0.00     0.020 A 
ATOM      8  C   UNL     1      -7.319  -3.613   6.617  1.00  0.00     0.094 A 
ATOM      9  C   UNL     1      -8.325  -4.481   6.185  1.00  0.00     0.336 A 
ATOM     10  O   UNL     1      -8.878  -4.297   5.070  1.00  0.00    -0.246 OA
ATOM     11  O   UNL     1      -8.703  -5.503   6.948  1.00  0.00    -0.419 OA
ENDROOT
BRANCH   1  12
ATOM     12  O   UNL     1      -6.424  -6.534  11.907  1.00  0.00    -0.493 OA
ATOM     13  C   UNL     1      -6.870  -5.990  13.145  1.00  0.00     0.278 C 
ENDBRANCH   1  12
BRANCH   2  14
ATOM     14  O   UNL     1      -8.512  -8.235  10.881  1.00  0.00    -0.490 OA
ATOM     15  C   UNL     1      -8.014  -9.569  10.845  1.00  0.00     0.278 C 
ENDBRANCH   2  14
BRANCH   3  16
ATOM     16  O   UNL     1      -9.634  -7.627   8.303  1.00  0.00    -0.490 OA
ATOM     17  C   UNL     1     -11.029  -7.547   8.574  1.00  0.00     0.278 C 
ENDBRANCH   3  16
TORSDOF 3
ENDMDL
