MODEL 1
REMARK VINA RESULT:    32.317      0.000      0.000
REMARK INTER + INTRA:          40.681
REMARK INTER:                  40.819
REMARK INTRA:                  -0.138
REMARK UNBOUND:                -0.138
REMARK SMILES O=C(C=Cc1ccc(O)cc1)c1ccc(O)cc1O
REMARK SMILES IDX 4 1 3 2 5 3 6 4 7 5 8 6 11 7 10 8 9 9 2 11 1 12 12 13 18 14
REMARK SMILES IDX 13 15 17 16 14 17 15 18 19 19 16 21
REMARK H PARENT 9 10 19 20 16 22
REMARK Flexibility Score: inf
ROOT
ATOM      1  C   UNL     1      18.338  16.387   2.267  1.00  0.00     0.012 C 
ATOM      2  C   UNL     1      19.580  15.973   1.974  1.00  0.00     0.053 C 
ENDROOT
BRANCH   1   3
ATOM      3  C   UNL     1      17.702  17.578   1.653  1.00  0.00    -0.025 A 
ATOM      4  C   UNL     1      18.312  18.314   0.617  1.00  0.00     0.012 A 
ATOM      5  C   UNL     1      17.677  19.438   0.079  1.00  0.00     0.047 A 
ATOM      6  C   UNL     1      16.434  19.848   0.570  1.00  0.00     0.115 A 
ATOM      7  C   UNL     1      16.460  18.009   2.150  1.00  0.00     0.012 A 
ATOM      8  C   UNL     1      15.828  19.133   1.609  1.00  0.00     0.047 A 
BRANCH   6   9
ATOM      9  O   UNL     1      15.814  20.969   0.022  1.00  0.00    -0.508 OA
ATOM     10  H   UNL     1      15.907  21.198  -0.960  1.00  0.00     0.293 HD
ENDBRANCH   6   9
ENDBRANCH   1   3
BRANCH   2  11
ATOM     11  C   UNL     1      20.176  14.771   2.595  1.00  0.00     0.189 C 
ATOM     12  O   UNL     1      19.430  13.888   3.101  1.00  0.00    -0.289 OA
BRANCH  11  13
ATOM     13  C   UNL     1      21.643  14.556   2.591  1.00  0.00     0.064 A 
ATOM     14  C   UNL     1      22.399  14.597   1.398  1.00  0.00     0.130 A 
ATOM     15  C   UNL     1      22.303  14.330   3.812  1.00  0.00     0.020 A 
ATOM     16  C   UNL     1      23.783  14.373   1.442  1.00  0.00     0.093 A 
ATOM     17  C   UNL     1      23.683  14.115   3.844  1.00  0.00     0.047 A 
ATOM     18  C   UNL     1      24.425  14.132   2.661  1.00  0.00     0.119 A 
BRANCH  14  19
ATOM     19  O   UNL     1      21.786  14.885   0.179  1.00  0.00    -0.507 OA
ATOM     20  H   UNL     1      21.594  14.163  -0.505  1.00  0.00     0.293 HD
ENDBRANCH  14  19
BRANCH  18  21
ATOM     21  O   UNL     1      25.800  13.910   2.710  1.00  0.00    -0.508 OA
ATOM     22  H   UNL     1      26.411  14.210   1.959  1.00  0.00     0.293 HD
ENDBRANCH  18  21
ENDBRANCH  11  13
ENDBRANCH   2  11
TORSDOF 6
ENDMDL
MODEL 2
REMARK VINA RESULT:    35.312     14.129     15.605
REMARK INTER + INTRA:          44.463
REMARK INTER:                  44.985
REMARK INTRA:                  -0.522
REMARK UNBOUND:                -0.138
REMARK SMILES O=C(C=Cc1ccc(O)cc1)c1ccc(O)cc1O
REMARK SMILES IDX 4 1 3 2 5 3 6 4 7 5 8 6 11 7 10 8 9 9 2 11 1 12 12 13 18 14
REMARK SMILES IDX 13 15 17 16 14 17 15 18 19 19 16 21
REMARK H PARENT 9 10 19 20 16 22
REMARK Flexibility Score: inf
ROOT
ATOM      1  C   UNL     1      16.191  25.945  14.728  1.00  0.00     0.012 C 
ATOM      2  C   UNL     1      15.626  24.733  14.831  1.00  0.00     0.053 C 
ENDROOT
BRANCH   1   3
ATOM      3  C   UNL     1      15.425  27.214  14.745  1.00  0.00    -0.025 A 
ATOM      4  C   UNL     1      15.676  28.239  15.682  1.00  0.00     0.012 A 
ATOM      5  C   UNL     1      14.918  29.413  15.665  1.00  0.00     0.047 A 
ATOM      6  C   UNL     1      13.896  29.580  14.726  1.00  0.00     0.115 A 
ATOM      7  C   UNL     1      14.385  27.387  13.817  1.00  0.00     0.012 A 
ATOM      8  C   UNL     1      13.629  28.562  13.803  1.00  0.00     0.047 A 
BRANCH   6   9
ATOM      9  O   UNL     1      13.150  30.757  14.723  1.00  0.00    -0.508 OA
ATOM     10  H   UNL     1      12.137  30.742  14.737  1.00  0.00     0.293 HD
ENDBRANCH   6   9
ENDBRANCH   1   3
BRANCH   2  11
ATOM     11  C   UNL     1      16.424  23.488  14.825  1.00  0.00     0.189 C 
ATOM     12  O   UNL     1      16.616  22.860  15.902  1.00  0.00    -0.289 OA
BRANCH  11  13
ATOM     13  C   UNL     1      16.966  22.933  13.562  1.00  0.00     0.064 A 
ATOM     14  C   UNL     1      16.183  22.124  12.708  1.00  0.00     0.130 A 
ATOM     15  C   UNL     1      18.286  23.242  13.191  1.00  0.00     0.020 A 
ATOM     16  C   UNL     1      16.744  21.608  11.529  1.00  0.00     0.093 A 
ATOM     17  C   UNL     1      18.832  22.729  12.012  1.00  0.00     0.047 A 
ATOM     18  C   UNL     1      18.065  21.908  11.181  1.00  0.00     0.119 A 
BRANCH  14  19
ATOM     19  O   UNL     1      14.850  21.853  13.012  1.00  0.00    -0.507 OA
ATOM     20  H   UNL     1      14.089  22.342  12.553  1.00  0.00     0.293 HD
ENDBRANCH  14  19
BRANCH  18  21
ATOM     21  O   UNL     1      18.626  21.400  10.011  1.00  0.00    -0.508 OA
ATOM     22  H   UNL     1      19.508  20.900  10.020  1.00  0.00     0.293 HD
ENDBRANCH  18  21
ENDBRANCH  11  13
ENDBRANCH   2  11
TORSDOF 6
ENDMDL
