MODEL 1
REMARK VINA RESULT:    -5.125      0.000      0.000
REMARK INTER + INTRA:          -5.275
REMARK INTER:                  -5.275
REMARK INTRA:                   0.000
REMARK UNBOUND:                 0.000
REMARK SMILES C[C@@H]1CC[C@]2(OC1)O[C@@H]1C[C@@H]3[C@H]4CC=C5C[C@H](O)CC[C@]5(C)[C@@H]4CC[C@]3(C)[C@@H]1[C@@H]2C
REMARK SMILES IDX 1 1 2 2 3 3 4 4 5 5 29 6 28 7 9 8 8 9 10 10 11 11 26 12
REMARK SMILES IDX 25 13 24 14 23 15 12 16 13 17 14 18 15 19 21 20 20 21 19 22
REMARK SMILES IDX 17 23 16 24 22 25 27 26 30 27 6 28 7 29 18 30
REMARK H PARENT 18 31
REMARK Flexibility Score: inf
ROOT
ATOM      1  C   UNL     1      24.124 -10.667  13.625  1.00  0.00     0.010 C 
ATOM      2  C   UNL     1      23.119 -11.760  13.226  1.00  0.00     0.012 C 
ATOM      3  C   UNL     1      23.802 -13.109  12.972  1.00  0.00     0.011 C 
ATOM      4  C   UNL     1      24.562 -13.118  11.641  1.00  0.00     0.066 C 
ATOM      5  C   UNL     1      23.701 -12.561  10.477  1.00  0.00     0.171 C 
ATOM      6  C   UNL     1      24.471 -12.375   9.142  1.00  0.00     0.052 C 
ATOM      7  C   UNL     1      23.281 -12.368   8.153  1.00  0.00     0.033 C 
ATOM      8  C   UNL     1      22.248 -13.223   8.866  1.00  0.00     0.126 C 
ATOM      9  O   UNL     1      22.649 -13.460  10.197  1.00  0.00    -0.346 OA
ATOM     10  C   UNL     1      22.179 -14.518   8.084  1.00  0.00     0.037 C 
ATOM     11  C   UNL     1      22.337 -14.098   6.625  1.00  0.00     0.002 C 
ATOM     12  C   UNL     1      23.254 -12.822   6.631  1.00  0.00    -0.024 C 
ATOM     13  C   UNL     1      24.626 -13.131   5.950  1.00  0.00     0.008 C 
ATOM     14  C   UNL     1      24.510 -13.760   4.531  1.00  0.00     0.005 C 
ATOM     15  C   UNL     1      23.256 -14.680   4.344  1.00  0.00     0.003 C 
ATOM     16  C   UNL     1      22.875 -15.256   5.734  1.00  0.00     0.000 C 
ATOM     17  C   UNL     1      21.875 -16.410   5.621  1.00  0.00     0.031 C 
ATOM     18  C   UNL     1      22.491 -17.492   4.791  1.00  0.00    -0.027 C 
ATOM     19  C   UNL     1      23.213 -17.206   3.685  1.00  0.00    -0.065 C 
ATOM     20  C   UNL     1      23.266 -15.758   3.152  1.00  0.00    -0.008 C 
ATOM     21  C   UNL     1      24.486 -15.577   2.189  1.00  0.00     0.014 C 
ATOM     22  C   UNL     1      24.663 -16.735   1.198  1.00  0.00     0.033 C 
ATOM     23  C   UNL     1      24.876 -18.057   1.953  1.00  0.00     0.118 C 
ATOM     24  C   UNL     1      23.654 -18.375   2.820  1.00  0.00     0.063 C 
ATOM     25  C   UNL     1      21.974 -15.558   2.306  1.00  0.00     0.016 C 
ATOM     26  C   UNL     1      22.596 -11.664   5.819  1.00  0.00     0.012 C 
ATOM     27  C   UNL     1      25.574 -13.428   8.916  1.00  0.00     0.014 C 
ATOM     28  O   UNL     1      23.170 -11.282  10.834  1.00  0.00    -0.349 OA
ATOM     29  C   UNL     1      22.329 -11.354  11.972  1.00  0.00     0.167 C 
ENDROOT
BRANCH  23  30
ATOM     30  O   UNL     1      26.018 -17.991   2.765  1.00  0.00    -0.393 OA
ATOM     31  H   UNL     1      26.406 -18.903   2.791  1.00  0.00     0.210 HD
ENDBRANCH  23  30
TORSDOF 1
ENDMDL
MODEL 2
REMARK VINA RESULT:    -3.572      1.501      8.543
REMARK INTER + INTRA:          -3.676
REMARK INTER:                  -3.676
REMARK INTRA:                   0.000
REMARK UNBOUND:                 0.000
REMARK SMILES C[C@@H]1CC[C@]2(OC1)O[C@@H]1C[C@@H]3[C@H]4CC=C5C[C@H](O)CC[C@]5(C)[C@@H]4CC[C@]3(C)[C@@H]1[C@@H]2C
REMARK SMILES IDX 1 1 2 2 3 3 4 4 5 5 29 6 28 7 9 8 8 9 10 10 11 11 26 12
REMARK SMILES IDX 25 13 24 14 23 15 12 16 13 17 14 18 15 19 21 20 20 21 19 22
REMARK SMILES IDX 17 23 16 24 22 25 27 26 30 27 6 28 7 29 18 30
REMARK H PARENT 18 31
REMARK Flexibility Score: inf
ROOT
ATOM      1  C   UNL     1      23.155 -17.857   0.922  1.00  0.00     0.010 C 
ATOM      2  C   UNL     1      24.390 -17.656   1.816  1.00  0.00     0.012 C 
ATOM      3  C   UNL     1      24.258 -18.386   3.157  1.00  0.00     0.011 C 
ATOM      4  C   UNL     1      23.280 -17.673   4.098  1.00  0.00     0.066 C 
ATOM      5  C   UNL     1      23.558 -16.149   4.176  1.00  0.00     0.171 C 
ATOM      6  C   UNL     1      22.494 -15.343   4.968  1.00  0.00     0.052 C 
ATOM      7  C   UNL     1      23.322 -14.081   5.311  1.00  0.00     0.033 C 
ATOM      8  C   UNL     1      24.742 -14.616   5.358  1.00  0.00     0.126 C 
ATOM      9  O   UNL     1      24.785 -15.928   4.839  1.00  0.00    -0.346 OA
ATOM     10  C   UNL     1      25.136 -14.602   6.820  1.00  0.00     0.037 C 
ATOM     11  C   UNL     1      24.495 -13.335   7.381  1.00  0.00     0.002 C 
ATOM     12  C   UNL     1      23.176 -13.108   6.557  1.00  0.00    -0.024 C 
ATOM     13  C   UNL     1      21.923 -13.294   7.471  1.00  0.00     0.008 C 
ATOM     14  C   UNL     1      21.948 -12.447   8.776  1.00  0.00     0.005 C 
ATOM     15  C   UNL     1      23.385 -12.225   9.361  1.00  0.00     0.003 C 
ATOM     16  C   UNL     1      24.270 -13.420   8.919  1.00  0.00     0.000 C 
ATOM     17  C   UNL     1      25.590 -13.472   9.693  1.00  0.00     0.031 C 
ATOM     18  C   UNL     1      25.280 -13.601  11.152  1.00  0.00    -0.027 C 
ATOM     19  C   UNL     1      24.271 -12.905  11.721  1.00  0.00    -0.065 C 
ATOM     20  C   UNL     1      23.529 -11.821  10.910  1.00  0.00    -0.008 C 
ATOM     21  C   UNL     1      22.151 -11.492  11.575  1.00  0.00     0.014 C 
ATOM     22  C   UNL     1      22.224 -11.350  13.101  1.00  0.00     0.033 C 
ATOM     23  C   UNL     1      22.731 -12.656  13.734  1.00  0.00     0.118 C 
ATOM     24  C   UNL     1      24.143 -12.975  13.233  1.00  0.00     0.063 C 
ATOM     25  C   UNL     1      24.404 -10.537  10.997  1.00  0.00     0.016 C 
ATOM     26  C   UNL     1      23.117 -11.653   5.998  1.00  0.00     0.012 C 
ATOM     27  C   UNL     1      21.877 -16.127   6.144  1.00  0.00     0.014 C 
ATOM     28  O   UNL     1      23.607 -15.595   2.859  1.00  0.00    -0.349 OA
ATOM     29  C   UNL     1      24.644 -16.164   2.080  1.00  0.00     0.167 C 
ENDROOT
BRANCH  23  30
ATOM     30  O   UNL     1      21.875 -13.725  13.430  1.00  0.00    -0.393 OA
ATOM     31  H   UNL     1      21.625 -14.148  14.291  1.00  0.00     0.210 HD
ENDBRANCH  23  30
TORSDOF 1
ENDMDL
