MODEL 1
REMARK VINA RESULT:    -5.103      0.000      0.000
REMARK INTER + INTRA:          -7.769
REMARK INTER:                  -7.490
REMARK INTRA:                  -0.279
REMARK UNBOUND:                -0.279
REMARK SMILES O=C([O-])CCCCCCCC(=O)[O-]
REMARK SMILES IDX 7 1 6 2 5 3 4 4 2 5 1 6 3 7 8 8 9 9 10 10 11 11 12 12 13 13
REMARK H PARENT
REMARK Flexibility Score: inf
ROOT
ATOM      1  C   UNL     1      21.409  10.752  11.522  1.00  0.00     0.000 C 
ENDROOT
BRANCH   1   2
ATOM      2  C   UNL     1      21.985   9.364  11.854  1.00  0.00     0.000 C 
BRANCH   2   3
ATOM      3  C   UNL     1      21.658   8.905  13.284  1.00  0.00     0.006 C 
BRANCH   3   4
ATOM      4  C   UNL     1      20.366   8.083  13.314  1.00  0.00     0.053 C 
BRANCH   4   5
ATOM      5  C   UNL     1      19.337   8.757  14.165  1.00  0.00     0.041 C 
ATOM      6  O   UNL     1      18.941   8.214  15.230  1.00  0.00    -0.550 OA
ATOM      7  O   UNL     1      18.850  10.009  13.808  1.00  0.00    -0.550 OA
ENDBRANCH   4   5
ENDBRANCH   3   4
ENDBRANCH   2   3
ENDBRANCH   1   2
BRANCH   1   8
ATOM      8  C   UNL     1      21.763  11.286  10.122  1.00  0.00     0.000 C 
BRANCH   8   9
ATOM      9  C   UNL     1      22.374  12.695  10.154  1.00  0.00     0.006 C 
BRANCH   9  10
ATOM     10  C   UNL     1      22.980  13.061   8.797  1.00  0.00     0.053 C 
BRANCH  10  11
ATOM     11  C   UNL     1      24.447  13.321   8.932  1.00  0.00     0.041 C 
ATOM     12  O   UNL     1      25.010  13.209  10.053  1.00  0.00    -0.550 OA
ATOM     13  O   UNL     1      25.185  13.735   7.830  1.00  0.00    -0.550 OA
ENDBRANCH  10  11
ENDBRANCH   9  10
ENDBRANCH   8   9
ENDBRANCH   1   8
TORSDOF 8
ENDMDL
MODEL 2
REMARK VINA RESULT:    -4.979      0.485      7.231
REMARK INTER + INTRA:          -7.586
REMARK INTER:                  -7.320
REMARK INTRA:                  -0.267
REMARK UNBOUND:                -0.279
REMARK SMILES O=C([O-])CCCCCCCC(=O)[O-]
REMARK SMILES IDX 7 1 6 2 5 3 4 4 2 5 1 6 3 7 8 8 9 9 10 10 11 11 12 12 13 13
REMARK H PARENT
REMARK Flexibility Score: inf
ROOT
ATOM      1  C   UNL     1      21.418  11.012  11.161  1.00  0.00     0.000 C 
ENDROOT
BRANCH   1   2
ATOM      2  C   UNL     1      21.984  11.676   9.893  1.00  0.00     0.000 C 
BRANCH   2   3
ATOM      3  C   UNL     1      22.883  12.884  10.198  1.00  0.00     0.006 C 
BRANCH   3   4
ATOM      4  C   UNL     1      23.426  13.503   8.906  1.00  0.00     0.053 C 
BRANCH   4   5
ATOM      5  C   UNL     1      24.918  13.409   8.867  1.00  0.00     0.041 C 
ATOM      6  O   UNL     1      25.542  13.685   7.809  1.00  0.00    -0.550 OA
ATOM      7  O   UNL     1      25.624  13.064  10.013  1.00  0.00    -0.550 OA
ENDBRANCH   4   5
ENDBRANCH   3   4
ENDBRANCH   2   3
ENDBRANCH   1   2
BRANCH   1   8
ATOM      8  C   UNL     1      22.068   9.667  11.536  1.00  0.00     0.000 C 
BRANCH   8   9
ATOM      9  C   UNL     1      21.886   9.306  13.018  1.00  0.00     0.006 C 
BRANCH   9  10
ATOM     10  C   UNL     1      20.782   8.261  13.196  1.00  0.00     0.053 C 
BRANCH  10  11
ATOM     11  C   UNL     1      19.614   8.851  13.920  1.00  0.00     0.041 C 
ATOM     12  O   UNL     1      19.098   8.243  14.894  1.00  0.00    -0.550 OA
ATOM     13  O   UNL     1      19.063  10.052  13.489  1.00  0.00    -0.550 OA
ENDBRANCH  10  11
ENDBRANCH   9  10
ENDBRANCH   8   9
ENDBRANCH   1   8
TORSDOF 8
ENDMDL
MODEL 3
REMARK VINA RESULT:    -4.855      1.731      6.556
REMARK INTER + INTRA:          -7.404
REMARK INTER:                  -6.841
REMARK INTRA:                  -0.563
REMARK UNBOUND:                -0.279
REMARK SMILES O=C([O-])CCCCCCCC(=O)[O-]
REMARK SMILES IDX 7 1 6 2 5 3 4 4 2 5 1 6 3 7 8 8 9 9 10 10 11 11 12 12 13 13
REMARK H PARENT
REMARK Flexibility Score: inf
ROOT
ATOM      1  C   UNL     1      21.336  10.975  11.054  1.00  0.00     0.000 C 
ENDROOT
BRANCH   1   2
ATOM      2  C   UNL     1      22.126  11.938  10.149  1.00  0.00     0.000 C 
BRANCH   2   3
ATOM      3  C   UNL     1      22.983  12.938  10.939  1.00  0.00     0.006 C 
BRANCH   3   4
ATOM      4  C   UNL     1      24.474  12.708  10.678  1.00  0.00     0.053 C 
BRANCH   4   5
ATOM      5  C   UNL     1      25.135  12.135  11.891  1.00  0.00     0.041 C 
ATOM      6  O   UNL     1      24.466  11.921  12.936  1.00  0.00    -0.550 OA
ATOM      7  O   UNL     1      26.481  11.790  11.853  1.00  0.00    -0.550 OA
ENDBRANCH   4   5
ENDBRANCH   3   4
ENDBRANCH   2   3
ENDBRANCH   1   2
BRANCH   1   8
ATOM      8  C   UNL     1      22.127   9.748  11.545  1.00  0.00     0.000 C 
BRANCH   8   9
ATOM      9  C   UNL     1      21.812   9.375  13.001  1.00  0.00     0.006 C 
BRANCH   9  10
ATOM     10  C   UNL     1      20.680   8.346  13.071  1.00  0.00     0.053 C 
BRANCH  10  11
ATOM     11  C   UNL     1      19.524   8.891  13.848  1.00  0.00     0.041 C 
ATOM     12  O   UNL     1      18.982   9.974  13.502  1.00  0.00    -0.550 OA
ATOM     13  O   UNL     1      19.075   8.229  14.984  1.00  0.00    -0.550 OA
ENDBRANCH  10  11
ENDBRANCH   9  10
ENDBRANCH   8   9
ENDBRANCH   1   8
TORSDOF 8
ENDMDL
MODEL 4
REMARK VINA RESULT:    -4.850      2.457      2.793
REMARK INTER + INTRA:          -7.397
REMARK INTER:                  -6.980
REMARK INTRA:                  -0.417
REMARK UNBOUND:                -0.279
REMARK SMILES O=C([O-])CCCCCCCC(=O)[O-]
REMARK SMILES IDX 7 1 6 2 5 3 4 4 2 5 1 6 3 7 8 8 9 9 10 10 11 11 12 12 13 13
REMARK H PARENT
REMARK Flexibility Score: inf
ROOT
ATOM      1  C   UNL     1      21.378  10.433  10.894  1.00  0.00     0.000 C 
ENDROOT
BRANCH   1   2
ATOM      2  C   UNL     1      20.678  10.199  12.244  1.00  0.00     0.000 C 
BRANCH   2   3
ATOM      3  C   UNL     1      21.512   9.349  13.214  1.00  0.00     0.006 C 
BRANCH   3   4
ATOM      4  C   UNL     1      22.897   9.051  12.630  1.00  0.00     0.053 C 
BRANCH   4   5
ATOM      5  C   UNL     1      23.955   9.787  13.390  1.00  0.00     0.041 C 
ATOM      6  O   UNL     1      24.751   9.159  14.136  1.00  0.00    -0.550 OA
ATOM      7  O   UNL     1      24.093  11.161  13.236  1.00  0.00    -0.550 OA
ENDBRANCH   4   5
ENDBRANCH   3   4
ENDBRANCH   2   3
ENDBRANCH   1   2
BRANCH   1   8
ATOM      8  C   UNL     1      21.831  11.883  10.639  1.00  0.00     0.000 C 
BRANCH   8   9
ATOM      9  C   UNL     1      22.491  12.072   9.265  1.00  0.00     0.006 C 
BRANCH   9  10
ATOM     10  C   UNL     1      23.131  13.458   9.150  1.00  0.00     0.053 C 
BRANCH  10  11
ATOM     11  C   UNL     1      24.622  13.345   9.116  1.00  0.00     0.041 C 
ATOM     12  O   UNL     1      25.260  13.068  10.166  1.00  0.00    -0.550 OA
ATOM     13  O   UNL     1      25.312  13.593   7.936  1.00  0.00    -0.550 OA
ENDBRANCH  10  11
ENDBRANCH   9  10
ENDBRANCH   8   9
ENDBRANCH   1   8
TORSDOF 8
ENDMDL
MODEL 5
REMARK VINA RESULT:    -4.833      1.539      7.168
REMARK INTER + INTRA:          -7.373
REMARK INTER:                  -7.113
REMARK INTRA:                  -0.260
REMARK UNBOUND:                -0.279
REMARK SMILES O=C([O-])CCCCCCCC(=O)[O-]
REMARK SMILES IDX 7 1 6 2 5 3 4 4 2 5 1 6 3 7 8 8 9 9 10 10 11 11 12 12 13 13
REMARK H PARENT
REMARK Flexibility Score: inf
ROOT
ATOM      1  C   UNL     1      22.414  12.496  10.197  1.00  0.00     0.000 C 
ENDROOT
BRANCH   1   2
ATOM      2  C   UNL     1      22.822  12.784   8.741  1.00  0.00     0.000 C 
BRANCH   2   3
ATOM      3  C   UNL     1      23.781  13.977   8.611  1.00  0.00     0.006 C 
BRANCH   3   4
ATOM      4  C   UNL     1      25.214  13.503   8.352  1.00  0.00     0.053 C 
BRANCH   4   5
ATOM      5  C   UNL     1      26.023  13.570   9.609  1.00  0.00     0.041 C 
ATOM      6  O   UNL     1      25.870  12.700  10.507  1.00  0.00    -0.550 OA
ATOM      7  O   UNL     1      26.979  14.565   9.770  1.00  0.00    -0.550 OA
ENDBRANCH   4   5
ENDBRANCH   3   4
ENDBRANCH   2   3
ENDBRANCH   1   2
BRANCH   1   8
ATOM      8  C   UNL     1      21.632  11.186  10.407  1.00  0.00     0.000 C 
BRANCH   8   9
ATOM      9  C   UNL     1      21.872  10.559  11.789  1.00  0.00     0.006 C 
BRANCH   9  10
ATOM     10  C   UNL     1      20.562  10.047  12.393  1.00  0.00     0.053 C 
BRANCH  10  11
ATOM     11  C   UNL     1      20.791   8.764  13.128  1.00  0.00     0.041 C 
ATOM     12  O   UNL     1      21.815   8.071  12.889  1.00  0.00    -0.550 OA
ATOM     13  O   UNL     1      19.851   8.309  14.043  1.00  0.00    -0.550 OA
ENDBRANCH  10  11
ENDBRANCH   9  10
ENDBRANCH   8   9
ENDBRANCH   1   8
TORSDOF 8
ENDMDL
MODEL 6
REMARK VINA RESULT:    -4.743      2.454      6.362
REMARK INTER + INTRA:          -7.240
REMARK INTER:                  -6.785
REMARK INTRA:                  -0.455
REMARK UNBOUND:                -0.279
REMARK SMILES O=C([O-])CCCCCCCC(=O)[O-]
REMARK SMILES IDX 7 1 6 2 5 3 4 4 2 5 1 6 3 7 8 8 9 9 10 10 11 11 12 12 13 13
REMARK H PARENT
REMARK Flexibility Score: inf
ROOT
ATOM      1  C   UNL     1      21.560  10.476  10.826  1.00  0.00     0.000 C 
ENDROOT
BRANCH   1   2
ATOM      2  C   UNL     1      21.634  11.946  10.378  1.00  0.00     0.000 C 
BRANCH   2   3
ATOM      3  C   UNL     1      23.061  12.513  10.410  1.00  0.00     0.006 C 
BRANCH   3   4
ATOM      4  C   UNL     1      23.444  13.111   9.053  1.00  0.00     0.053 C 
BRANCH   4   5
ATOM      5  C   UNL     1      24.921  13.337   8.979  1.00  0.00     0.041 C 
ATOM      6  O   UNL     1      25.646  13.123   9.987  1.00  0.00    -0.550 OA
ATOM      7  O   UNL     1      25.505  13.736   7.783  1.00  0.00    -0.550 OA
ENDBRANCH   4   5
ENDBRANCH   3   4
ENDBRANCH   2   3
ENDBRANCH   1   2
BRANCH   1   8
ATOM      8  C   UNL     1      20.749  10.227  12.112  1.00  0.00     0.000 C 
BRANCH   8   9
ATOM      9  C   UNL     1      21.508   9.379  13.144  1.00  0.00     0.006 C 
BRANCH   9  10
ATOM     10  C   UNL     1      22.903   9.012  12.633  1.00  0.00     0.053 C 
BRANCH  10  11
ATOM     11  C   UNL     1      23.954   9.731  13.418  1.00  0.00     0.041 C 
ATOM     12  O   UNL     1      24.014  10.988  13.394  1.00  0.00    -0.550 OA
ATOM     13  O   UNL     1      24.898   9.011  14.139  1.00  0.00    -0.550 OA
ENDBRANCH  10  11
ENDBRANCH   9  10
ENDBRANCH   8   9
ENDBRANCH   1   8
TORSDOF 8
ENDMDL
MODEL 7
REMARK VINA RESULT:    -4.676      1.653      6.818
REMARK INTER + INTRA:          -7.141
REMARK INTER:                  -6.773
REMARK INTRA:                  -0.368
REMARK UNBOUND:                -0.279
REMARK SMILES O=C([O-])CCCCCCCC(=O)[O-]
REMARK SMILES IDX 7 1 6 2 5 3 4 4 2 5 1 6 3 7 8 8 9 9 10 10 11 11 12 12 13 13
REMARK H PARENT
REMARK Flexibility Score: inf
ROOT
ATOM      1  C   UNL     1      23.195  10.904  12.326  1.00  0.00     0.000 C 
ENDROOT
BRANCH   1   2
ATOM      2  C   UNL     1      24.559  11.569  12.073  1.00  0.00     0.000 C 
BRANCH   2   3
ATOM      3  C   UNL     1      24.468  12.793  11.148  1.00  0.00     0.006 C 
BRANCH   3   4
ATOM      4  C   UNL     1      23.177  12.763  10.325  1.00  0.00     0.053 C 
BRANCH   4   5
ATOM      5  C   UNL     1      23.452  13.148   8.906  1.00  0.00     0.041 C 
ATOM      6  O   UNL     1      22.508  13.218   8.075  1.00  0.00    -0.550 OA
ATOM      7  O   UNL     1      24.743  13.476   8.512  1.00  0.00    -0.550 OA
ENDBRANCH   4   5
ENDBRANCH   3   4
ENDBRANCH   2   3
ENDBRANCH   1   2
BRANCH   1   8
ATOM      8  C   UNL     1      23.259   9.532  13.024  1.00  0.00     0.000 C 
BRANCH   8   9
ATOM      9  C   UNL     1      21.967   8.717  12.864  1.00  0.00     0.006 C 
BRANCH   9  10
ATOM     10  C   UNL     1      20.767   9.635  12.618  1.00  0.00     0.053 C 
BRANCH  10  11
ATOM     11  C   UNL     1      19.644   9.288  13.543  1.00  0.00     0.041 C 
ATOM     12  O   UNL     1      18.793  10.160  13.863  1.00  0.00    -0.550 OA
ATOM     13  O   UNL     1      19.562   8.014  14.092  1.00  0.00    -0.550 OA
ENDBRANCH  10  11
ENDBRANCH   9  10
ENDBRANCH   8   9
ENDBRANCH   1   8
TORSDOF 8
ENDMDL
MODEL 8
REMARK VINA RESULT:    -4.669      1.985      2.370
REMARK INTER + INTRA:          -7.132
REMARK INTER:                  -6.787
REMARK INTRA:                  -0.345
REMARK UNBOUND:                -0.279
REMARK SMILES O=C([O-])CCCCCCCC(=O)[O-]
REMARK SMILES IDX 7 1 6 2 5 3 4 4 2 5 1 6 3 7 8 8 9 9 10 10 11 11 12 12 13 13
REMARK H PARENT
REMARK Flexibility Score: inf
ROOT
ATOM      1  C   UNL     1      24.035  11.298  12.318  1.00  0.00     0.000 C 
ENDROOT
BRANCH   1   2
ATOM      2  C   UNL     1      24.024  10.207  13.404  1.00  0.00     0.000 C 
BRANCH   2   3
ATOM      3  C   UNL     1      23.002   9.095  13.127  1.00  0.00     0.006 C 
BRANCH   3   4
ATOM      4  C   UNL     1      21.769   9.650  12.408  1.00  0.00     0.053 C 
BRANCH   4   5
ATOM      5  C   UNL     1      20.517   9.102  13.016  1.00  0.00     0.041 C 
ATOM      6  O   UNL     1      20.428   7.875  13.286  1.00  0.00    -0.550 OA
ATOM      7  O   UNL     1      19.465   9.954  13.330  1.00  0.00    -0.550 OA
ENDBRANCH   4   5
ENDBRANCH   3   4
ENDBRANCH   2   3
ENDBRANCH   1   2
BRANCH   1   8
ATOM      8  C   UNL     1      25.399  11.977  12.091  1.00  0.00     0.000 C 
BRANCH   8   9
ATOM      9  C   UNL     1      25.475  12.740  10.760  1.00  0.00     0.006 C 
BRANCH   9  10
ATOM     10  C   UNL     1      24.075  13.102  10.256  1.00  0.00     0.053 C 
BRANCH  10  11
ATOM     11  C   UNL     1      24.050  13.133   8.761  1.00  0.00     0.041 C 
ATOM     12  O   UNL     1      25.020  13.616   8.120  1.00  0.00    -0.550 OA
ATOM     13  O   UNL     1      22.933  12.673   8.074  1.00  0.00    -0.550 OA
ENDBRANCH  10  11
ENDBRANCH   9  10
ENDBRANCH   8   9
ENDBRANCH   1   8
TORSDOF 8
ENDMDL
MODEL 9
REMARK VINA RESULT:    -4.649      2.168      6.412
REMARK INTER + INTRA:          -7.102
REMARK INTER:                  -6.646
REMARK INTRA:                  -0.456
REMARK UNBOUND:                -0.279
REMARK SMILES O=C([O-])CCCCCCCC(=O)[O-]
REMARK SMILES IDX 7 1 6 2 5 3 4 4 2 5 1 6 3 7 8 8 9 9 10 10 11 11 12 12 13 13
REMARK H PARENT
REMARK Flexibility Score: inf
ROOT
ATOM      1  C   UNL     1      24.024  11.268  12.995  1.00  0.00     0.000 C 
ENDROOT
BRANCH   1   2
ATOM      2  C   UNL     1      25.417  11.614  12.438  1.00  0.00     0.000 C 
BRANCH   2   3
ATOM      3  C   UNL     1      25.358  12.373  11.104  1.00  0.00     0.006 C 
BRANCH   3   4
ATOM      4  C   UNL     1      23.916  12.751  10.751  1.00  0.00     0.053 C 
BRANCH   4   5
ATOM      5  C   UNL     1      23.807  13.107   9.302  1.00  0.00     0.041 C 
ATOM      6  O   UNL     1      24.819  13.513   8.672  1.00  0.00    -0.550 OA
ATOM      7  O   UNL     1      22.600  12.943   8.635  1.00  0.00    -0.550 OA
ENDBRANCH   4   5
ENDBRANCH   3   4
ENDBRANCH   2   3
ENDBRANCH   1   2
BRANCH   1   8
ATOM      8  C   UNL     1      23.820   9.786  13.361  1.00  0.00     0.000 C 
BRANCH   8   9
ATOM      9  C   UNL     1      22.727   9.107  12.523  1.00  0.00     0.006 C 
BRANCH   9  10
ATOM     10  C   UNL     1      21.435   8.951  13.329  1.00  0.00     0.053 C 
BRANCH  10  11
ATOM     11  C   UNL     1      20.379   9.875  12.810  1.00  0.00     0.041 C 
ATOM     12  O   UNL     1      19.253   9.929  13.371  1.00  0.00    -0.550 OA
ATOM     13  O   UNL     1      20.621  10.642  11.678  1.00  0.00    -0.550 OA
ENDBRANCH  10  11
ENDBRANCH   9  10
ENDBRANCH   8   9
ENDBRANCH   1   8
TORSDOF 8
ENDMDL
