MODEL 1
REMARK VINA RESULT:    -3.329      0.000      0.000
REMARK INTER + INTRA:          -4.502
REMARK INTER:                  -4.010
REMARK INTRA:                  -0.492
REMARK UNBOUND:                -0.492
REMARK SMILES NC(=O)C[C@@H]([NH3+])C(=O)[O-]
REMARK SMILES IDX 4 1 5 2 6 3 7 7 8 8 9 9 2 10 3 11 1 12
REMARK H PARENT 6 4 6 5 6 6 1 13 1 14
REMARK Flexibility Score: inf
ROOT
ATOM      1  C   UNL     1      19.314  13.516 -17.153  1.00  0.00     0.171 C 
ENDROOT
BRANCH   1   2
ATOM      2  C   UNL     1      20.025  14.475 -16.173  1.00  0.00     0.237 C 
BRANCH   2   3
ATOM      3  N   UNL     1      19.783  14.104 -14.772  1.00  0.00    -0.350 N 
ATOM      4  H   UNL     1      20.481  14.552 -14.135  1.00  0.00     0.345 HD
ATOM      5  H   UNL     1      19.838  13.065 -14.665  1.00  0.00     0.345 HD
ATOM      6  H   UNL     1      18.823  14.410 -14.489  1.00  0.00     0.345 HD
ENDBRANCH   2   3
BRANCH   2   7
ATOM      7  C   UNL     1      21.500  14.572 -16.469  1.00  0.00     0.100 C 
ATOM      8  O   UNL     1      22.131  15.641 -16.258  1.00  0.00    -0.544 OA
ATOM      9  O   UNL     1      22.186  13.455 -16.932  1.00  0.00    -0.544 OA
ENDBRANCH   2   7
ENDBRANCH   1   2
BRANCH   1  10
ATOM     10  C   UNL     1      19.053  12.156 -16.569  1.00  0.00     0.223 C 
ATOM     11  O   UNL     1      17.920  11.887 -16.086  1.00  0.00    -0.275 OA
ATOM     12  N   UNL     1      20.073  11.156 -16.573  1.00  0.00    -0.369 N 
ATOM     13  H   UNL     1      21.015  11.359 -16.976  1.00  0.00     0.159 HD
ATOM     14  H   UNL     1      19.885  10.211 -16.176  1.00  0.00     0.159 HD
ENDBRANCH   1  10
TORSDOF 4
ENDMDL
MODEL 2
REMARK VINA RESULT:    -3.321      1.990      4.074
REMARK INTER + INTRA:          -4.493
REMARK INTER:                  -4.204
REMARK INTRA:                  -0.289
REMARK UNBOUND:                -0.492
REMARK SMILES NC(=O)C[C@@H]([NH3+])C(=O)[O-]
REMARK SMILES IDX 4 1 5 2 6 3 7 7 8 8 9 9 2 10 3 11 1 12
REMARK H PARENT 6 4 6 5 6 6 1 13 1 14
REMARK Flexibility Score: inf
ROOT
ATOM      1  C   UNL     1      20.280  15.111 -16.100  1.00  0.00     0.171 C 
ENDROOT
BRANCH   1   2
ATOM      2  C   UNL     1      20.377  13.696 -16.711  1.00  0.00     0.237 C 
BRANCH   2   3
ATOM      3  N   UNL     1      21.383  12.871 -16.026  1.00  0.00    -0.350 N 
ATOM      4  H   UNL     1      22.324  12.975 -16.470  1.00  0.00     0.345 HD
ATOM      5  H   UNL     1      21.098  11.865 -16.058  1.00  0.00     0.345 HD
ATOM      6  H   UNL     1      21.448  13.160 -15.023  1.00  0.00     0.345 HD
ENDBRANCH   2   3
BRANCH   2   7
ATOM      7  C   UNL     1      19.033  13.013 -16.740  1.00  0.00     0.100 C 
ATOM      8  O   UNL     1      18.796  12.026 -15.995  1.00  0.00    -0.544 OA
ATOM      9  O   UNL     1      18.026  13.508 -17.559  1.00  0.00    -0.544 OA
ENDBRANCH   2   7
ENDBRANCH   1   2
BRANCH   1  10
ATOM     10  C   UNL     1      20.293  16.205 -17.129  1.00  0.00     0.223 C 
ATOM     11  O   UNL     1      21.360  16.833 -17.363  1.00  0.00    -0.275 OA
ATOM     12  N   UNL     1      19.110  16.527 -17.862  1.00  0.00    -0.369 N 
ATOM     13  H   UNL     1      18.219  16.012 -17.687  1.00  0.00     0.159 HD
ATOM     14  H   UNL     1      19.126  17.281 -18.583  1.00  0.00     0.159 HD
ENDBRANCH   1  10
TORSDOF 4
ENDMDL
MODEL 3
REMARK VINA RESULT:    -3.252      2.425      4.081
REMARK INTER + INTRA:          -4.410
REMARK INTER:                  -3.907
REMARK INTRA:                  -0.502
REMARK UNBOUND:                -0.492
REMARK SMILES NC(=O)C[C@@H]([NH3+])C(=O)[O-]
REMARK SMILES IDX 4 1 5 2 6 3 7 7 8 8 9 9 2 10 3 11 1 12
REMARK H PARENT 6 4 6 5 6 6 1 13 1 14
REMARK Flexibility Score: inf
ROOT
ATOM      1  C   UNL     1      20.867  15.085 -18.094  1.00  0.00     0.171 C 
ENDROOT
BRANCH   1   2
ATOM      2  C   UNL     1      20.815  14.445 -16.690  1.00  0.00     0.237 C 
BRANCH   2   3
ATOM      3  N   UNL     1      21.016  15.439 -15.627  1.00  0.00    -0.350 N 
ATOM      4  H   UNL     1      21.514  15.023 -14.807  1.00  0.00     0.345 HD
ATOM      5  H   UNL     1      20.091  15.813 -15.311  1.00  0.00     0.345 HD
ATOM      6  H   UNL     1      21.581  16.238 -15.996  1.00  0.00     0.345 HD
ENDBRANCH   2   3
BRANCH   2   7
ATOM      7  C   UNL     1      19.538  13.670 -16.484  1.00  0.00     0.100 C 
ATOM      8  O   UNL     1      19.385  12.938 -15.470  1.00  0.00    -0.544 OA
ATOM      9  O   UNL     1      18.496  13.802 -17.393  1.00  0.00    -0.544 OA
ENDBRANCH   2   7
ENDBRANCH   1   2
BRANCH   1  10
ATOM     10  C   UNL     1      20.411  16.517 -18.111  1.00  0.00     0.223 C 
ATOM     11  O   UNL     1      21.251  17.445 -17.959  1.00  0.00    -0.275 OA
ATOM     12  N   UNL     1      19.035  16.839 -18.318  1.00  0.00    -0.369 N 
ATOM     13  H   UNL     1      18.327  16.084 -18.454  1.00  0.00     0.159 HD
ATOM     14  H   UNL     1      18.724  17.834 -18.339  1.00  0.00     0.159 HD
ENDBRANCH   1  10
TORSDOF 4
ENDMDL
MODEL 4
REMARK VINA RESULT:    -3.219      2.489      2.730
REMARK INTER + INTRA:          -4.369
REMARK INTER:                  -4.124
REMARK INTRA:                  -0.245
REMARK UNBOUND:                -0.492
REMARK SMILES NC(=O)C[C@@H]([NH3+])C(=O)[O-]
REMARK SMILES IDX 4 1 5 2 6 3 7 7 8 8 9 9 2 10 3 11 1 12
REMARK H PARENT 6 4 6 5 6 6 1 13 1 14
REMARK Flexibility Score: inf
ROOT
ATOM      1  C   UNL     1      19.828  14.712 -16.949  1.00  0.00     0.171 C 
ENDROOT
BRANCH   1   2
ATOM      2  C   UNL     1      20.524  16.066 -16.687  1.00  0.00     0.237 C 
BRANCH   2   3
ATOM      3  N   UNL     1      21.838  15.892 -16.052  1.00  0.00    -0.350 N 
ATOM      4  H   UNL     1      22.366  15.100 -16.484  1.00  0.00     0.345 HD
ATOM      5  H   UNL     1      21.716  15.704 -15.030  1.00  0.00     0.345 HD
ATOM      6  H   UNL     1      22.398  16.769 -16.158  1.00  0.00     0.345 HD
ENDBRANCH   2   3
BRANCH   2   7
ATOM      7  C   UNL     1      20.628  16.886 -17.948  1.00  0.00     0.100 C 
ATOM      8  O   UNL     1      21.633  17.615 -18.162  1.00  0.00    -0.544 OA
ATOM      9  O   UNL     1      19.630  16.801 -18.910  1.00  0.00    -0.544 OA
ENDBRANCH   2   7
ENDBRANCH   1   2
BRANCH   1  10
ATOM     10  C   UNL     1      19.954  13.748 -15.803  1.00  0.00     0.223 C 
ATOM     11  O   UNL     1      19.518  14.069 -14.664  1.00  0.00    -0.275 OA
ATOM     12  N   UNL     1      20.544  12.463 -15.996  1.00  0.00    -0.369 N 
ATOM     13  H   UNL     1      20.903  12.177 -16.934  1.00  0.00     0.159 HD
ATOM     14  H   UNL     1      20.620  11.793 -15.200  1.00  0.00     0.159 HD
ENDBRANCH   1  10
TORSDOF 4
ENDMDL
MODEL 5
REMARK VINA RESULT:    -3.211      2.081      2.325
REMARK INTER + INTRA:          -4.359
REMARK INTER:                  -4.070
REMARK INTRA:                  -0.290
REMARK UNBOUND:                -0.492
REMARK SMILES NC(=O)C[C@@H]([NH3+])C(=O)[O-]
REMARK SMILES IDX 4 1 5 2 6 3 7 7 8 8 9 9 2 10 3 11 1 12
REMARK H PARENT 6 4 6 5 6 6 1 13 1 14
REMARK Flexibility Score: inf
ROOT
ATOM      1  C   UNL     1      20.082  15.016 -16.050  1.00  0.00     0.171 C 
ENDROOT
BRANCH   1   2
ATOM      2  C   UNL     1      20.259  15.601 -17.468  1.00  0.00     0.237 C 
BRANCH   2   3
ATOM      3  N   UNL     1      19.210  16.579 -17.791  1.00  0.00    -0.350 N 
ATOM      4  H   UNL     1      19.219  16.823 -18.807  1.00  0.00     0.345 HD
ATOM      5  H   UNL     1      19.351  17.450 -17.229  1.00  0.00     0.345 HD
ATOM      6  H   UNL     1      18.273  16.182 -17.547  1.00  0.00     0.345 HD
ENDBRANCH   2   3
BRANCH   2   7
ATOM      7  C   UNL     1      21.634  16.189 -17.655  1.00  0.00     0.100 C 
ATOM      8  O   UNL     1      21.790  17.289 -18.248  1.00  0.00    -0.544 OA
ATOM      9  O   UNL     1      22.741  15.538 -17.123  1.00  0.00    -0.544 OA
ENDBRANCH   2   7
ENDBRANCH   1   2
BRANCH   1  10
ATOM     10  C   UNL     1      20.156  13.515 -16.014  1.00  0.00     0.223 C 
ATOM     11  O   UNL     1      19.100  12.839 -15.879  1.00  0.00    -0.275 OA
ATOM     12  N   UNL     1      21.410  12.846 -16.153  1.00  0.00    -0.369 N 
ATOM     13  H   UNL     1      22.293  13.389 -16.274  1.00  0.00     0.159 HD
ATOM     14  H   UNL     1      21.455  11.804 -16.138  1.00  0.00     0.159 HD
ENDBRANCH   1  10
TORSDOF 4
ENDMDL
MODEL 6
REMARK VINA RESULT:    -3.103      2.222      3.845
REMARK INTER + INTRA:          -4.230
REMARK INTER:                  -3.756
REMARK INTRA:                  -0.474
REMARK UNBOUND:                -0.492
REMARK SMILES NC(=O)C[C@@H]([NH3+])C(=O)[O-]
REMARK SMILES IDX 4 1 5 2 6 3 7 7 8 8 9 9 2 10 3 11 1 12
REMARK H PARENT 6 4 6 5 6 6 1 13 1 14
REMARK Flexibility Score: inf
ROOT
ATOM      1  C   UNL     1      18.795  12.485 -15.744  1.00  0.00     0.171 C 
ENDROOT
BRANCH   1   2
ATOM      2  C   UNL     1      18.055  12.254 -17.079  1.00  0.00     0.237 C 
BRANCH   2   3
ATOM      3  N   UNL     1      18.089  13.446 -17.938  1.00  0.00    -0.350 N 
ATOM      4  H   UNL     1      18.431  13.213 -18.898  1.00  0.00     0.345 HD
ATOM      5  H   UNL     1      18.717  14.169 -17.517  1.00  0.00     0.345 HD
ATOM      6  H   UNL     1      17.128  13.853 -18.012  1.00  0.00     0.345 HD
ENDBRANCH   2   3
BRANCH   2   7
ATOM      7  C   UNL     1      18.584  11.041 -17.801  1.00  0.00     0.100 C 
ATOM      8  O   UNL     1      19.539  10.373 -17.324  1.00  0.00    -0.544 OA
ATOM      9  O   UNL     1      17.981  10.623 -18.981  1.00  0.00    -0.544 OA
ENDBRANCH   2   7
ENDBRANCH   1   2
BRANCH   1  10
ATOM     10  C   UNL     1      20.017  13.349 -15.885  1.00  0.00     0.223 C 
ATOM     11  O   UNL     1      19.913  14.602 -15.802  1.00  0.00    -0.275 OA
ATOM     12  N   UNL     1      21.302  12.760 -16.092  1.00  0.00    -0.369 N 
ATOM     13  H   UNL     1      21.409  11.724 -16.155  1.00  0.00     0.159 HD
ATOM     14  H   UNL     1      22.149  13.362 -16.179  1.00  0.00     0.159 HD
ENDBRANCH   1  10
TORSDOF 4
ENDMDL
MODEL 7
REMARK VINA RESULT:    -3.071      1.939      3.742
REMARK INTER + INTRA:          -4.191
REMARK INTER:                  -3.900
REMARK INTRA:                  -0.290
REMARK UNBOUND:                -0.492
REMARK SMILES NC(=O)C[C@@H]([NH3+])C(=O)[O-]
REMARK SMILES IDX 4 1 5 2 6 3 7 7 8 8 9 9 2 10 3 11 1 12
REMARK H PARENT 6 4 6 5 6 6 1 13 1 14
REMARK Flexibility Score: inf
ROOT
ATOM      1  C   UNL     1      20.840  14.254 -17.178  1.00  0.00     0.171 C 
ENDROOT
BRANCH   1   2
ATOM      2  C   UNL     1      20.314  13.391 -16.012  1.00  0.00     0.237 C 
BRANCH   2   3
ATOM      3  N   UNL     1      19.828  14.215 -14.896  1.00  0.00    -0.350 N 
ATOM      4  H   UNL     1      19.196  14.976 -15.234  1.00  0.00     0.345 HD
ATOM      5  H   UNL     1      20.638  14.642 -14.391  1.00  0.00     0.345 HD
ATOM      6  H   UNL     1      19.302  13.614 -14.220  1.00  0.00     0.345 HD
ENDBRANCH   2   3
BRANCH   2   7
ATOM      7  C   UNL     1      19.260  12.418 -16.477  1.00  0.00     0.100 C 
ATOM      8  O   UNL     1      18.195  12.828 -17.010  1.00  0.00    -0.544 OA
ATOM      9  O   UNL     1      19.484  11.052 -16.364  1.00  0.00    -0.544 OA
ENDBRANCH   2   7
ENDBRANCH   1   2
BRANCH   1  10
ATOM     10  C   UNL     1      21.372  15.589 -16.736  1.00  0.00     0.223 C 
ATOM     11  O   UNL     1      20.580  16.555 -16.568  1.00  0.00    -0.275 OA
ATOM     12  N   UNL     1      22.767  15.768 -16.485  1.00  0.00    -0.369 N 
ATOM     13  H   UNL     1      23.436  14.977 -16.611  1.00  0.00     0.159 HD
ATOM     14  H   UNL     1      23.130  16.693 -16.168  1.00  0.00     0.159 HD
ENDBRANCH   1  10
TORSDOF 4
ENDMDL
MODEL 8
REMARK VINA RESULT:    -2.997      3.220      3.891
REMARK INTER + INTRA:          -4.103
REMARK INTER:                  -3.605
REMARK INTRA:                  -0.497
REMARK UNBOUND:                -0.492
REMARK SMILES NC(=O)C[C@@H]([NH3+])C(=O)[O-]
REMARK SMILES IDX 4 1 5 2 6 3 7 7 8 8 9 9 2 10 3 11 1 12
REMARK H PARENT 6 4 6 5 6 6 1 13 1 14
REMARK Flexibility Score: inf
ROOT
ATOM      1  C   UNL     1      20.688  14.752 -17.939  1.00  0.00     0.171 C 
ENDROOT
BRANCH   1   2
ATOM      2  C   UNL     1      19.995  15.864 -18.757  1.00  0.00     0.237 C 
BRANCH   2   3
ATOM      3  N   UNL     1      19.145  16.716 -17.912  1.00  0.00    -0.350 N 
ATOM      4  H   UNL     1      18.428  16.150 -17.403  1.00  0.00     0.345 HD
ATOM      5  H   UNL     1      18.661  17.430 -18.503  1.00  0.00     0.345 HD
ATOM      6  H   UNL     1      19.738  17.219 -17.213  1.00  0.00     0.345 HD
ENDBRANCH   2   3
BRANCH   2   7
ATOM      7  C   UNL     1      20.995  16.683 -19.533  1.00  0.00     0.100 C 
ATOM      8  O   UNL     1      22.157  16.874 -19.087  1.00  0.00    -0.544 OA
ATOM      9  O   UNL     1      20.650  17.192 -20.779  1.00  0.00    -0.544 OA
ENDBRANCH   2   7
ENDBRANCH   1   2
BRANCH   1  10
ATOM     10  C   UNL     1      20.915  15.126 -16.502  1.00  0.00     0.223 C 
ATOM     11  O   UNL     1      20.071  14.795 -15.626  1.00  0.00    -0.275 OA
ATOM     12  N   UNL     1      22.091  15.838 -16.113  1.00  0.00    -0.369 N 
ATOM     13  H   UNL     1      22.805  16.114 -16.823  1.00  0.00     0.159 HD
ATOM     14  H   UNL     1      22.250  16.087 -15.113  1.00  0.00     0.159 HD
ENDBRANCH   1  10
TORSDOF 4
ENDMDL
MODEL 9
REMARK VINA RESULT:    -2.953      1.098      3.961
REMARK INTER + INTRA:          -4.049
REMARK INTER:                  -3.553
REMARK INTRA:                  -0.496
REMARK UNBOUND:                -0.492
REMARK SMILES NC(=O)C[C@@H]([NH3+])C(=O)[O-]
REMARK SMILES IDX 4 1 5 2 6 3 7 7 8 8 9 9 2 10 3 11 1 12
REMARK H PARENT 6 4 6 5 6 6 1 13 1 14
REMARK Flexibility Score: inf
ROOT
ATOM      1  C   UNL     1      19.730  14.060 -17.413  1.00  0.00     0.171 C 
ENDROOT
BRANCH   1   2
ATOM      2  C   UNL     1      19.597  12.563 -17.766  1.00  0.00     0.237 C 
BRANCH   2   3
ATOM      3  N   UNL     1      20.684  11.763 -17.181  1.00  0.00    -0.350 N 
ATOM      4  H   UNL     1      21.372  11.469 -17.911  1.00  0.00     0.345 HD
ATOM      5  H   UNL     1      20.289  10.912 -16.719  1.00  0.00     0.345 HD
ATOM      6  H   UNL     1      21.182  12.328 -16.455  1.00  0.00     0.345 HD
ENDBRANCH   2   3
BRANCH   2   7
ATOM      7  C   UNL     1      18.245  12.021 -17.374  1.00  0.00     0.100 C 
ATOM      8  O   UNL     1      17.404  11.692 -18.252  1.00  0.00    -0.544 OA
ATOM      9  O   UNL     1      17.940  11.834 -16.032  1.00  0.00    -0.544 OA
ENDBRANCH   2   7
ENDBRANCH   1   2
BRANCH   1  10
ATOM     10  C   UNL     1      20.482  14.304 -16.135  1.00  0.00     0.223 C 
ATOM     11  O   UNL     1      21.704  14.613 -16.175  1.00  0.00    -0.275 OA
ATOM     12  N   UNL     1      19.820  14.209 -14.873  1.00  0.00    -0.369 N 
ATOM     13  H   UNL     1      18.807  13.962 -14.821  1.00  0.00     0.159 HD
ATOM     14  H   UNL     1      20.343  14.389 -13.989  1.00  0.00     0.159 HD
ENDBRANCH   1  10
TORSDOF 4
ENDMDL
