MODEL 1
REMARK VINA RESULT:    -2.182      0.000      0.000
REMARK INTER + INTRA:          -2.182
REMARK INTER:                  -2.182
REMARK INTRA:                   0.000
REMARK UNBOUND:                 0.000
REMARK SMILES CC(=O)[O-]
REMARK SMILES IDX 1 1 2 2 3 3 4 4
REMARK H PARENT
REMARK Flexibility Score: inf
ROOT
ATOM      1  C   UNL     1     -17.177  43.056  -7.254  1.00  0.00     0.063 C 
ATOM      2  C   UNL     1     -17.393  44.010  -6.128  1.00  0.00     0.038 C 
ATOM      3  O   UNL     1     -18.416  43.909  -5.401  1.00  0.00    -0.550 OA
ATOM      4  O   UNL     1     -16.492  45.044  -5.909  1.00  0.00    -0.550 OA
ENDROOT
TORSDOF 0
ENDMDL
MODEL 2
REMARK VINA RESULT:    -2.118      1.792      2.099
REMARK INTER + INTRA:          -2.118
REMARK INTER:                  -2.118
REMARK INTRA:                   0.000
REMARK UNBOUND:                 0.000
REMARK SMILES CC(=O)[O-]
REMARK SMILES IDX 1 1 2 2 3 3 4 4
REMARK H PARENT
REMARK Flexibility Score: inf
ROOT
ATOM      1  C   UNL     1     -19.918  44.481  -5.877  1.00  0.00     0.063 C 
ATOM      2  C   UNL     1     -18.460  44.784  -5.785  1.00  0.00     0.038 C 
ATOM      3  O   UNL     1     -17.619  43.847  -5.787  1.00  0.00    -0.550 OA
ATOM      4  O   UNL     1     -18.030  46.097  -5.646  1.00  0.00    -0.550 OA
ENDROOT
TORSDOF 0
ENDMDL
MODEL 3
REMARK VINA RESULT:    -2.114      2.071      2.545
REMARK INTER + INTRA:          -2.114
REMARK INTER:                  -2.114
REMARK INTRA:                   0.000
REMARK UNBOUND:                 0.000
REMARK SMILES CC(=O)[O-]
REMARK SMILES IDX 1 1 2 2 3 3 4 4
REMARK H PARENT
REMARK Flexibility Score: inf
ROOT
ATOM      1  C   UNL     1     -19.077  46.110  -6.141  1.00  0.00     0.063 C 
ATOM      2  C   UNL     1     -19.214  44.682  -5.731  1.00  0.00     0.038 C 
ATOM      3  O   UNL     1     -20.351  44.203  -5.480  1.00  0.00    -0.550 OA
ATOM      4  O   UNL     1     -18.083  43.892  -5.574  1.00  0.00    -0.550 OA
ENDROOT
TORSDOF 0
ENDMDL
MODEL 4
REMARK VINA RESULT:    -2.109      1.927      2.623
REMARK INTER + INTRA:          -2.109
REMARK INTER:                  -2.109
REMARK INTRA:                   0.000
REMARK UNBOUND:                 0.000
REMARK SMILES CC(=O)[O-]
REMARK SMILES IDX 1 1 2 2 3 3 4 4
REMARK H PARENT
REMARK Flexibility Score: inf
ROOT
ATOM      1  C   UNL     1     -17.823  44.039  -5.908  1.00  0.00     0.063 C 
ATOM      2  C   UNL     1     -19.104  44.796  -5.799  1.00  0.00     0.038 C 
ATOM      3  O   UNL     1     -19.139  46.023  -6.081  1.00  0.00    -0.550 OA
ATOM      4  O   UNL     1     -20.249  44.162  -5.336  1.00  0.00    -0.550 OA
ENDROOT
TORSDOF 0
ENDMDL
MODEL 5
REMARK VINA RESULT:    -2.102      2.067      2.472
REMARK INTER + INTRA:          -2.102
REMARK INTER:                  -2.102
REMARK INTRA:                   0.000
REMARK UNBOUND:                 0.000
REMARK SMILES CC(=O)[O-]
REMARK SMILES IDX 1 1 2 2 3 3 4 4
REMARK H PARENT
REMARK Flexibility Score: inf
ROOT
ATOM      1  C   UNL     1     -20.230  44.571  -6.617  1.00  0.00     0.063 C 
ATOM      2  C   UNL     1     -18.966  44.914  -5.903  1.00  0.00     0.038 C 
ATOM      3  O   UNL     1     -18.658  46.118  -5.708  1.00  0.00    -0.550 OA
ATOM      4  O   UNL     1     -18.100  43.906  -5.499  1.00  0.00    -0.550 OA
ENDROOT
TORSDOF 0
ENDMDL
MODEL 6
REMARK VINA RESULT:    -1.962     17.046     17.619
REMARK INTER + INTRA:          -1.962
REMARK INTER:                  -1.962
REMARK INTRA:                   0.000
REMARK UNBOUND:                 0.000
REMARK SMILES CC(=O)[O-]
REMARK SMILES IDX 1 1 2 2 3 3 4 4
REMARK H PARENT
REMARK Flexibility Score: inf
ROOT
ATOM      1  C   UNL     1     -31.387  43.051   2.564  1.00  0.00     0.063 C 
ATOM      2  C   UNL     1     -32.762  42.669   2.128  1.00  0.00     0.038 C 
ATOM      3  O   UNL     1     -32.923  41.771   1.261  1.00  0.00    -0.550 OA
ATOM      4  O   UNL     1     -33.865  43.341   2.639  1.00  0.00    -0.550 OA
ENDROOT
TORSDOF 0
ENDMDL
MODEL 7
REMARK VINA RESULT:    -1.890     17.210     17.765
REMARK INTER + INTRA:          -1.890
REMARK INTER:                  -1.890
REMARK INTRA:                   0.000
REMARK UNBOUND:                 0.000
REMARK SMILES CC(=O)[O-]
REMARK SMILES IDX 1 1 2 2 3 3 4 4
REMARK H PARENT
REMARK Flexibility Score: inf
ROOT
ATOM      1  C   UNL     1     -33.856  43.579   1.997  1.00  0.00     0.063 C 
ATOM      2  C   UNL     1     -32.735  42.650   2.321  1.00  0.00     0.038 C 
ATOM      3  O   UNL     1     -31.593  43.107   2.589  1.00  0.00    -0.550 OA
ATOM      4  O   UNL     1     -32.935  41.276   2.275  1.00  0.00    -0.550 OA
ENDROOT
TORSDOF 0
ENDMDL
MODEL 8
REMARK VINA RESULT:    -1.875      3.193      3.694
REMARK INTER + INTRA:          -1.875
REMARK INTER:                  -1.875
REMARK INTRA:                   0.000
REMARK UNBOUND:                 0.000
REMARK SMILES CC(=O)[O-]
REMARK SMILES IDX 1 1 2 2 3 3 4 4
REMARK H PARENT
REMARK Flexibility Score: inf
ROOT
ATOM      1  C   UNL     1     -19.558  44.625  -5.900  1.00  0.00     0.063 C 
ATOM      2  C   UNL     1     -19.959  45.575  -6.978  1.00  0.00     0.038 C 
ATOM      3  O   UNL     1     -19.574  46.773  -6.939  1.00  0.00    -0.550 OA
ATOM      4  O   UNL     1     -20.800  45.154  -8.000  1.00  0.00    -0.550 OA
ENDROOT
TORSDOF 0
ENDMDL
MODEL 9
REMARK VINA RESULT:    -1.822      2.021      2.473
REMARK INTER + INTRA:          -1.822
REMARK INTER:                  -1.822
REMARK INTRA:                   0.000
REMARK UNBOUND:                 0.000
REMARK SMILES CC(=O)[O-]
REMARK SMILES IDX 1 1 2 2 3 3 4 4
REMARK H PARENT
REMARK Flexibility Score: inf
ROOT
ATOM      1  C   UNL     1     -17.535  44.210  -5.899  1.00  0.00     0.063 C 
ATOM      2  C   UNL     1     -17.606  43.519  -7.219  1.00  0.00     0.038 C 
ATOM      3  O   UNL     1     -16.737  42.663  -7.531  1.00  0.00    -0.550 OA
ATOM      4  O   UNL     1     -18.601  43.855  -8.128  1.00  0.00    -0.550 OA
ENDROOT
TORSDOF 0
ENDMDL
