MODEL 1
REMARK VINA RESULT:    -3.554      0.000      0.000
REMARK INTER + INTRA:          -4.216
REMARK INTER:                  -3.970
REMARK INTRA:                  -0.246
REMARK UNBOUND:                -0.246
REMARK SMILES O=C([O-])C=Cc1ccccc1
REMARK SMILES IDX 4 1 5 2 2 3 1 4 3 5 6 6 7 7 11 8 8 9 10 10 9 11
REMARK H PARENT
REMARK Flexibility Score: inf
ROOT
ATOM      1  C   UNL     1       0.652   1.016   7.687  1.00  0.00     0.025 C 
ATOM      2  C   UNL     1       0.488  -0.196   8.239  1.00  0.00     0.010 C 
ENDROOT
BRANCH   1   3
ATOM      3  C   UNL     1       0.048   1.476   6.420  1.00  0.00     0.064 C 
ATOM      4  O   UNL     1       0.568   1.204   5.306  1.00  0.00    -0.545 OA
ATOM      5  O   UNL     1      -1.079   2.284   6.463  1.00  0.00    -0.545 OA
ENDBRANCH   1   3
BRANCH   2   6
ATOM      6  C   UNL     1      -0.467  -1.225   7.779  1.00  0.00    -0.026 A 
ATOM      7  C   UNL     1       0.017  -2.365   7.118  1.00  0.00     0.008 A 
ATOM      8  C   UNL     1      -1.838  -1.135   8.081  1.00  0.00     0.008 A 
ATOM      9  C   UNL     1      -0.863  -3.375   6.718  1.00  0.00     0.001 A 
ATOM     10  C   UNL     1      -2.715  -2.148   7.679  1.00  0.00     0.001 A 
ATOM     11  C   UNL     1      -2.228  -3.265   6.993  1.00  0.00     0.000 A 
ENDBRANCH   2   6
TORSDOF 2
ENDMDL
MODEL 2
REMARK VINA RESULT:    -3.304      2.720      3.666
REMARK INTER + INTRA:          -3.936
REMARK INTER:                  -3.685
REMARK INTRA:                  -0.251
REMARK UNBOUND:                -0.246
REMARK SMILES O=C([O-])C=Cc1ccccc1
REMARK SMILES IDX 4 1 5 2 2 3 1 4 3 5 6 6 7 7 11 8 8 9 10 10 9 11
REMARK H PARENT
REMARK Flexibility Score: inf
ROOT
ATOM      1  C   UNL     1       0.118   2.249   7.591  1.00  0.00     0.025 C 
ATOM      2  C   UNL     1      -1.147   2.532   7.941  1.00  0.00     0.010 C 
ENDROOT
BRANCH   1   3
ATOM      3  C   UNL     1       0.536   1.198   6.641  1.00  0.00     0.064 C 
ATOM      4  O   UNL     1       0.478   1.375   5.396  1.00  0.00    -0.545 OA
ATOM      5  O   UNL     1       0.935  -0.037   7.133  1.00  0.00    -0.545 OA
ENDBRANCH   1   3
BRANCH   2   6
ATOM      6  C   UNL     1      -2.357   1.969   7.309  1.00  0.00    -0.026 A 
ATOM      7  C   UNL     1      -2.921   2.622   6.202  1.00  0.00     0.008 A 
ATOM      8  C   UNL     1      -2.894   0.739   7.730  1.00  0.00     0.008 A 
ATOM      9  C   UNL     1      -4.038   2.081   5.558  1.00  0.00     0.001 A 
ATOM     10  C   UNL     1      -4.011   0.201   7.082  1.00  0.00     0.001 A 
ATOM     11  C   UNL     1      -4.585   0.874   6.000  1.00  0.00     0.000 A 
ENDBRANCH   2   6
TORSDOF 2
ENDMDL
MODEL 3
REMARK VINA RESULT:    -3.299      1.328      2.436
REMARK INTER + INTRA:          -3.931
REMARK INTER:                  -3.772
REMARK INTRA:                  -0.159
REMARK UNBOUND:                -0.246
REMARK SMILES O=C([O-])C=Cc1ccccc1
REMARK SMILES IDX 4 1 5 2 2 3 1 4 3 5 6 6 7 7 11 8 8 9 10 10 9 11
REMARK H PARENT
REMARK Flexibility Score: inf
ROOT
ATOM      1  C   UNL     1      -1.488   0.759   6.671  1.00  0.00     0.025 C 
ATOM      2  C   UNL     1      -1.674  -0.413   7.298  1.00  0.00     0.010 C 
ENDROOT
BRANCH   1   3
ATOM      3  C   UNL     1      -0.188   1.422   6.448  1.00  0.00     0.064 C 
ATOM      4  O   UNL     1       0.483   1.220   5.401  1.00  0.00    -0.545 OA
ATOM      5  O   UNL     1       0.338   2.232   7.444  1.00  0.00    -0.545 OA
ENDBRANCH   1   3
BRANCH   2   6
ATOM      6  C   UNL     1      -0.602  -1.339   7.718  1.00  0.00    -0.026 A 
ATOM      7  C   UNL     1       0.175  -1.025   8.844  1.00  0.00     0.008 A 
ATOM      8  C   UNL     1      -0.414  -2.576   7.076  1.00  0.00     0.008 A 
ATOM      9  C   UNL     1       1.162  -1.910   9.289  1.00  0.00     0.001 A 
ATOM     10  C   UNL     1       0.574  -3.459   7.524  1.00  0.00     0.001 A 
ATOM     11  C   UNL     1       1.364  -3.124   8.627  1.00  0.00     0.000 A 
ENDBRANCH   2   6
TORSDOF 2
ENDMDL
MODEL 4
REMARK VINA RESULT:    -3.267     10.836     12.150
REMARK INTER + INTRA:          -3.895
REMARK INTER:                  -3.627
REMARK INTRA:                  -0.268
REMARK UNBOUND:                -0.246
REMARK SMILES O=C([O-])C=Cc1ccccc1
REMARK SMILES IDX 4 1 5 2 2 3 1 4 3 5 6 6 7 7 11 8 8 9 10 10 9 11
REMARK H PARENT
REMARK Flexibility Score: inf
ROOT
ATOM      1  C   UNL     1       1.083   6.170  -0.751  1.00  0.00     0.025 C 
ATOM      2  C   UNL     1       2.095   5.292  -0.670  1.00  0.00     0.010 C 
ENDROOT
BRANCH   1   3
ATOM      3  C   UNL     1       0.867   7.140  -1.843  1.00  0.00     0.064 C 
ATOM      4  O   UNL     1       0.018   6.932  -2.750  1.00  0.00    -0.545 OA
ATOM      5  O   UNL     1       1.666   8.273  -1.909  1.00  0.00    -0.545 OA
ENDBRANCH   1   3
BRANCH   2   6
ATOM      6  C   UNL     1       3.073   5.010  -1.741  1.00  0.00    -0.026 A 
ATOM      7  C   UNL     1       4.368   5.542  -1.646  1.00  0.00     0.008 A 
ATOM      8  C   UNL     1       2.763   4.137  -2.799  1.00  0.00     0.008 A 
ATOM      9  C   UNL     1       5.324   5.248  -2.623  1.00  0.00     0.001 A 
ATOM     10  C   UNL     1       3.723   3.845  -3.774  1.00  0.00     0.001 A 
ATOM     11  C   UNL     1       5.001   4.404  -3.688  1.00  0.00     0.000 A 
ENDBRANCH   2   6
TORSDOF 2
ENDMDL
MODEL 5
REMARK VINA RESULT:    -3.232     12.674     13.186
REMARK INTER + INTRA:          -3.856
REMARK INTER:                  -3.639
REMARK INTRA:                  -0.217
REMARK UNBOUND:                -0.246
REMARK SMILES O=C([O-])C=Cc1ccccc1
REMARK SMILES IDX 4 1 5 2 2 3 1 4 3 5 6 6 7 7 11 8 8 9 10 10 9 11
REMARK H PARENT
REMARK Flexibility Score: inf
ROOT
ATOM      1  C   UNL     1      -6.858   1.343  -4.150  1.00  0.00     0.025 C 
ATOM      2  C   UNL     1      -6.451   0.356  -3.337  1.00  0.00     0.010 C 
ENDROOT
BRANCH   1   3
ATOM      3  C   UNL     1      -7.354   1.175  -5.530  1.00  0.00     0.064 C 
ATOM      4  O   UNL     1      -8.585   1.075  -5.779  1.00  0.00    -0.545 OA
ATOM      5  O   UNL     1      -6.441   1.055  -6.568  1.00  0.00    -0.545 OA
ENDBRANCH   1   3
BRANCH   2   6
ATOM      6  C   UNL     1      -6.595  -1.090  -3.606  1.00  0.00    -0.026 A 
ATOM      7  C   UNL     1      -5.657  -1.732  -4.429  1.00  0.00     0.008 A 
ATOM      8  C   UNL     1      -7.590  -1.853  -2.971  1.00  0.00     0.008 A 
ATOM      9  C   UNL     1      -5.745  -3.109  -4.658  1.00  0.00     0.001 A 
ATOM     10  C   UNL     1      -7.675  -3.230  -3.202  1.00  0.00     0.001 A 
ATOM     11  C   UNL     1      -6.756  -3.856  -4.048  1.00  0.00     0.000 A 
ENDBRANCH   2   6
TORSDOF 2
ENDMDL
MODEL 6
REMARK VINA RESULT:    -3.232      2.627      4.452
REMARK INTER + INTRA:          -3.856
REMARK INTER:                  -3.597
REMARK INTRA:                  -0.259
REMARK UNBOUND:                -0.246
REMARK SMILES O=C([O-])C=Cc1ccccc1
REMARK SMILES IDX 4 1 5 2 2 3 1 4 3 5 6 6 7 7 11 8 8 9 10 10 9 11
REMARK H PARENT
REMARK Flexibility Score: inf
ROOT
ATOM      1  C   UNL     1       0.756   0.019   6.360  1.00  0.00     0.025 C 
ATOM      2  C   UNL     1       0.570   1.349   6.394  1.00  0.00     0.010 C 
ENDROOT
BRANCH   1   3
ATOM      3  C   UNL     1       0.132  -0.962   7.271  1.00  0.00     0.064 C 
ATOM      4  O   UNL     1       0.763  -1.448   8.247  1.00  0.00    -0.545 OA
ATOM      5  O   UNL     1      -1.154  -1.409   7.006  1.00  0.00    -0.545 OA
ENDBRANCH   1   3
BRANCH   2   6
ATOM      6  C   UNL     1      -0.426   2.055   7.225  1.00  0.00    -0.026 A 
ATOM      7  C   UNL     1      -1.714   2.277   6.714  1.00  0.00     0.008 A 
ATOM      8  C   UNL     1      -0.141   2.416   8.554  1.00  0.00     0.008 A 
ATOM      9  C   UNL     1      -2.688   2.898   7.502  1.00  0.00     0.001 A 
ATOM     10  C   UNL     1      -1.118   3.038   9.339  1.00  0.00     0.001 A 
ATOM     11  C   UNL     1      -2.389   3.283   8.811  1.00  0.00     0.000 A 
ENDBRANCH   2   6
TORSDOF 2
ENDMDL
MODEL 7
REMARK VINA RESULT:    -3.195      1.264      2.356
REMARK INTER + INTRA:          -3.814
REMARK INTER:                  -3.684
REMARK INTRA:                  -0.130
REMARK UNBOUND:                -0.246
REMARK SMILES O=C([O-])C=Cc1ccccc1
REMARK SMILES IDX 4 1 5 2 2 3 1 4 3 5 6 6 7 7 11 8 8 9 10 10 9 11
REMARK H PARENT
REMARK Flexibility Score: inf
ROOT
ATOM      1  C   UNL     1      -1.663   0.883   6.694  1.00  0.00     0.025 C 
ATOM      2  C   UNL     1      -1.887  -0.286   7.314  1.00  0.00     0.010 C 
ENDROOT
BRANCH   1   3
ATOM      3  C   UNL     1      -0.349   1.539   6.538  1.00  0.00     0.064 C 
ATOM      4  O   UNL     1       0.068   2.384   7.373  1.00  0.00    -0.545 OA
ATOM      5  O   UNL     1       0.412   1.269   5.409  1.00  0.00    -0.545 OA
ENDBRANCH   1   3
BRANCH   2   6
ATOM      6  C   UNL     1      -0.844  -1.216   7.792  1.00  0.00    -0.026 A 
ATOM      7  C   UNL     1      -0.608  -2.406   7.086  1.00  0.00     0.008 A 
ATOM      8  C   UNL     1      -0.015  -0.885   8.879  1.00  0.00     0.008 A 
ATOM      9  C   UNL     1       0.408  -3.277   7.492  1.00  0.00     0.001 A 
ATOM     10  C   UNL     1       1.000  -1.759   9.282  1.00  0.00     0.001 A 
ATOM     11  C   UNL     1       1.208  -2.956   8.592  1.00  0.00     0.000 A 
ENDBRANCH   2   6
TORSDOF 2
ENDMDL
MODEL 8
REMARK VINA RESULT:    -3.181     12.834     13.843
REMARK INTER + INTRA:          -3.799
REMARK INTER:                  -3.573
REMARK INTRA:                  -0.226
REMARK UNBOUND:                -0.246
REMARK SMILES O=C([O-])C=Cc1ccccc1
REMARK SMILES IDX 4 1 5 2 2 3 1 4 3 5 6 6 7 7 11 8 8 9 10 10 9 11
REMARK H PARENT
REMARK Flexibility Score: inf
ROOT
ATOM      1  C   UNL     1      -6.314  -3.840  -5.157  1.00  0.00     0.025 C 
ATOM      2  C   UNL     1      -5.716  -2.904  -4.402  1.00  0.00     0.010 C 
ENDROOT
BRANCH   1   3
ATOM      3  C   UNL     1      -7.728  -3.832  -5.581  1.00  0.00     0.064 C 
ATOM      4  O   UNL     1      -8.599  -4.518  -4.983  1.00  0.00    -0.545 OA
ATOM      5  O   UNL     1      -8.093  -3.106  -6.706  1.00  0.00    -0.545 OA
ENDBRANCH   1   3
BRANCH   2   6
ATOM      6  C   UNL     1      -6.311  -1.609  -4.012  1.00  0.00    -0.026 A 
ATOM      7  C   UNL     1      -7.152  -1.550  -2.890  1.00  0.00     0.008 A 
ATOM      8  C   UNL     1      -5.970  -0.420  -4.680  1.00  0.00     0.008 A 
ATOM      9  C   UNL     1      -7.687  -0.327  -2.473  1.00  0.00     0.001 A 
ATOM     10  C   UNL     1      -6.507   0.802  -4.259  1.00  0.00     0.001 A 
ATOM     11  C   UNL     1      -7.368   0.847  -3.160  1.00  0.00     0.000 A 
ENDBRANCH   2   6
TORSDOF 2
ENDMDL
MODEL 9
REMARK VINA RESULT:    -2.993      2.212      3.569
REMARK INTER + INTRA:          -3.589
REMARK INTER:                  -3.318
REMARK INTRA:                  -0.272
REMARK UNBOUND:                -0.246
REMARK SMILES O=C([O-])C=Cc1ccccc1
REMARK SMILES IDX 4 1 5 2 2 3 1 4 3 5 6 6 7 7 11 8 8 9 10 10 9 11
REMARK H PARENT
REMARK Flexibility Score: inf
ROOT
ATOM      1  C   UNL     1      -2.292   3.194   8.417  1.00  0.00     0.025 C 
ATOM      2  C   UNL     1      -1.138   2.596   8.754  1.00  0.00     0.010 C 
ENDROOT
BRANCH   1   3
ATOM      3  C   UNL     1      -3.072   2.936   7.191  1.00  0.00     0.064 C 
ATOM      4  O   UNL     1      -4.111   2.225   7.208  1.00  0.00    -0.545 OA
ATOM      5  O   UNL     1      -2.611   3.432   5.979  1.00  0.00    -0.545 OA
ENDBRANCH   1   3
BRANCH   2   6
ATOM      6  C   UNL     1      -0.533   1.445   8.052  1.00  0.00    -0.026 A 
ATOM      7  C   UNL     1      -0.946   0.145   8.382  1.00  0.00     0.008 A 
ATOM      8  C   UNL     1       0.370   1.632   6.991  1.00  0.00     0.008 A 
ATOM      9  C   UNL     1      -0.424  -0.956   7.697  1.00  0.00     0.001 A 
ATOM     10  C   UNL     1       0.891   0.528   6.307  1.00  0.00     0.001 A 
ATOM     11  C   UNL     1       0.498  -0.765   6.664  1.00  0.00     0.000 A 
ENDBRANCH   2   6
TORSDOF 2
ENDMDL
