MODEL 1
REMARK VINA RESULT:    -4.217      0.000      0.000
REMARK INTER + INTRA:          -6.619
REMARK INTER:                  -5.943
REMARK INTRA:                  -0.676
REMARK UNBOUND:                -0.676
REMARK SMILES CCCCCCCCC(=O)[O-]
REMARK SMILES IDX 6 1 7 2 8 3 9 4 10 5 11 6 5 7 4 8 3 9 2 10 1 11
REMARK H PARENT
REMARK Flexibility Score: inf
ROOT
ATOM      1  C   UNL     1     -22.046 -61.410   0.075  1.00  0.00     0.000 C 
ENDROOT
BRANCH   1   2
ATOM      2  C   UNL     1     -22.549 -60.176   0.837  1.00  0.00     0.006 C 
BRANCH   2   3
ATOM      3  C   UNL     1     -23.886 -59.690   0.272  1.00  0.00     0.053 C 
BRANCH   3   4
ATOM      4  C   UNL     1     -23.711 -59.183  -1.125  1.00  0.00     0.041 C 
ATOM      5  O   UNL     1     -24.467 -59.590  -2.046  1.00  0.00    -0.550 OA
ATOM      6  O   UNL     1     -22.746 -58.222  -1.400  1.00  0.00    -0.550 OA
ENDBRANCH   3   4
ENDBRANCH   2   3
ENDBRANCH   1   2
BRANCH   1   7
ATOM      7  C   UNL     1     -22.119 -62.700   0.908  1.00  0.00     0.000 C 
BRANCH   7   8
ATOM      8  C   UNL     1     -22.699 -62.490   2.323  1.00  0.00    -0.000 C 
BRANCH   8   9
ATOM      9  C   UNL     1     -23.913 -63.398   2.592  1.00  0.00    -0.000 C 
BRANCH   9  10
ATOM     10  C   UNL     1     -25.129 -62.618   3.115  1.00  0.00    -0.003 C 
ATOM     11  C   UNL     1     -24.763 -61.224   3.622  1.00  0.00     0.004 C 
ENDBRANCH   9  10
ENDBRANCH   8   9
ENDBRANCH   7   8
ENDBRANCH   1   7
TORSDOF 7
ENDMDL
MODEL 2
REMARK VINA RESULT:    -4.179      1.098      1.922
REMARK INTER + INTRA:          -6.565
REMARK INTER:                  -6.273
REMARK INTRA:                  -0.292
REMARK UNBOUND:                -0.676
REMARK SMILES CCCCCCCCC(=O)[O-]
REMARK SMILES IDX 6 1 7 2 8 3 9 4 10 5 11 6 5 7 4 8 3 9 2 10 1 11
REMARK H PARENT
REMARK Flexibility Score: inf
ROOT
ATOM      1  C   UNL     1     -22.767 -61.624   1.576  1.00  0.00     0.000 C 
ENDROOT
BRANCH   1   2
ATOM      2  C   UNL     1     -21.907 -61.208   0.374  1.00  0.00     0.006 C 
BRANCH   2   3
ATOM      3  C   UNL     1     -21.875 -59.684   0.224  1.00  0.00     0.053 C 
BRANCH   3   4
ATOM      4  C   UNL     1     -22.690 -59.257  -0.957  1.00  0.00     0.041 C 
ATOM      5  O   UNL     1     -22.620 -58.073  -1.379  1.00  0.00    -0.550 OA
ATOM      6  O   UNL     1     -23.487 -60.180  -1.622  1.00  0.00    -0.550 OA
ENDBRANCH   3   4
ENDBRANCH   2   3
ENDBRANCH   1   2
BRANCH   1   7
ATOM      7  C   UNL     1     -22.929 -63.148   1.697  1.00  0.00     0.000 C 
BRANCH   7   8
ATOM      8  C   UNL     1     -24.018 -63.577   2.703  1.00  0.00    -0.000 C 
BRANCH   8   9
ATOM      9  C   UNL     1     -24.971 -62.419   3.054  1.00  0.00    -0.000 C 
BRANCH   9  10
ATOM     10  C   UNL     1     -26.055 -62.832   4.060  1.00  0.00    -0.003 C 
ATOM     11  C   UNL     1     -26.020 -64.324   4.389  1.00  0.00     0.004 C 
ENDBRANCH   9  10
ENDBRANCH   8   9
ENDBRANCH   7   8
ENDBRANCH   1   7
TORSDOF 7
ENDMDL
MODEL 3
REMARK VINA RESULT:    -4.142      1.285      1.823
REMARK INTER + INTRA:          -6.513
REMARK INTER:                  -5.925
REMARK INTRA:                  -0.588
REMARK UNBOUND:                -0.676
REMARK SMILES CCCCCCCCC(=O)[O-]
REMARK SMILES IDX 6 1 7 2 8 3 9 4 10 5 11 6 5 7 4 8 3 9 2 10 1 11
REMARK H PARENT
REMARK Flexibility Score: inf
ROOT
ATOM      1  C   UNL     1     -22.455 -60.247  -1.001  1.00  0.00     0.000 C 
ENDROOT
BRANCH   1   2
ATOM      2  C   UNL     1     -23.417 -59.311  -0.254  1.00  0.00     0.006 C 
BRANCH   2   3
ATOM      3  C   UNL     1     -24.857 -59.505  -0.737  1.00  0.00     0.053 C 
BRANCH   3   4
ATOM      4  C   UNL     1     -25.066 -58.813  -2.048  1.00  0.00     0.041 C 
ATOM      5  O   UNL     1     -24.657 -57.635  -2.214  1.00  0.00    -0.550 OA
ATOM      6  O   UNL     1     -25.669 -59.489  -3.102  1.00  0.00    -0.550 OA
ENDBRANCH   3   4
ENDBRANCH   2   3
ENDBRANCH   1   2
BRANCH   1   7
ATOM      7  C   UNL     1     -21.907 -61.375  -0.112  1.00  0.00     0.000 C 
BRANCH   7   8
ATOM      8  C   UNL     1     -22.488 -61.374   1.318  1.00  0.00    -0.000 C 
BRANCH   8   9
ATOM      9  C   UNL     1     -22.970 -62.772   1.749  1.00  0.00    -0.000 C 
BRANCH   9  10
ATOM     10  C   UNL     1     -24.190 -62.714   2.680  1.00  0.00    -0.003 C 
ATOM     11  C   UNL     1     -24.975 -61.409   2.546  1.00  0.00     0.004 C 
ENDBRANCH   9  10
ENDBRANCH   8   9
ENDBRANCH   7   8
ENDBRANCH   1   7
TORSDOF 7
ENDMDL
MODEL 4
REMARK VINA RESULT:    -4.025      1.260      2.059
REMARK INTER + INTRA:          -6.348
REMARK INTER:                  -5.738
REMARK INTRA:                  -0.610
REMARK UNBOUND:                -0.676
REMARK SMILES CCCCCCCCC(=O)[O-]
REMARK SMILES IDX 6 1 7 2 8 3 9 4 10 5 11 6 5 7 4 8 3 9 2 10 1 11
REMARK H PARENT
REMARK Flexibility Score: inf
ROOT
ATOM      1  C   UNL     1     -22.234 -62.138   1.933  1.00  0.00     0.000 C 
ENDROOT
BRANCH   1   2
ATOM      2  C   UNL     1     -21.901 -61.584   0.540  1.00  0.00     0.006 C 
BRANCH   2   3
ATOM      3  C   UNL     1     -22.213 -60.087   0.456  1.00  0.00     0.053 C 
BRANCH   3   4
ATOM      4  C   UNL     1     -22.133 -59.614  -0.961  1.00  0.00     0.041 C 
ATOM      5  O   UNL     1     -22.253 -58.390  -1.228  1.00  0.00    -0.550 OA
ATOM      6  O   UNL     1     -21.875 -60.520  -1.983  1.00  0.00    -0.550 OA
ENDBRANCH   3   4
ENDBRANCH   2   3
ENDBRANCH   1   2
BRANCH   1   7
ATOM      7  C   UNL     1     -23.374 -63.170   1.910  1.00  0.00     0.000 C 
BRANCH   7   8
ATOM      8  C   UNL     1     -24.526 -62.842   2.884  1.00  0.00    -0.000 C 
BRANCH   8   9
ATOM      9  C   UNL     1     -25.067 -61.415   2.680  1.00  0.00    -0.000 C 
BRANCH   9  10
ATOM     10  C   UNL     1     -24.931 -60.547   3.940  1.00  0.00    -0.003 C 
ATOM     11  C   UNL     1     -24.090 -59.293   3.706  1.00  0.00     0.004 C 
ENDBRANCH   9  10
ENDBRANCH   8   9
ENDBRANCH   7   8
ENDBRANCH   1   7
TORSDOF 7
ENDMDL
MODEL 5
REMARK VINA RESULT:    -3.978      1.321      1.771
REMARK INTER + INTRA:          -6.282
REMARK INTER:                  -5.880
REMARK INTRA:                  -0.403
REMARK UNBOUND:                -0.676
REMARK SMILES CCCCCCCCC(=O)[O-]
REMARK SMILES IDX 6 1 7 2 8 3 9 4 10 5 11 6 5 7 4 8 3 9 2 10 1 11
REMARK H PARENT
REMARK Flexibility Score: inf
ROOT
ATOM      1  C   UNL     1     -21.875 -62.358   0.903  1.00  0.00     0.000 C 
ENDROOT
BRANCH   1   2
ATOM      2  C   UNL     1     -22.036 -60.855   0.633  1.00  0.00     0.006 C 
BRANCH   2   3
ATOM      3  C   UNL     1     -21.908 -60.550  -0.862  1.00  0.00     0.053 C 
BRANCH   3   4
ATOM      4  C   UNL     1     -22.921 -59.529  -1.276  1.00  0.00     0.041 C 
ATOM      5  O   UNL     1     -24.067 -59.891  -1.651  1.00  0.00    -0.550 OA
ATOM      6  O   UNL     1     -22.616 -58.176  -1.200  1.00  0.00    -0.550 OA
ENDBRANCH   3   4
ENDBRANCH   2   3
ENDBRANCH   1   2
BRANCH   1   7
ATOM      7  C   UNL     1     -23.025 -62.943   1.740  1.00  0.00     0.000 C 
BRANCH   7   8
ATOM      8  C   UNL     1     -23.984 -61.874   2.305  1.00  0.00    -0.000 C 
BRANCH   8   9
ATOM      9  C   UNL     1     -24.064 -61.921   3.842  1.00  0.00    -0.000 C 
BRANCH   9  10
ATOM     10  C   UNL     1     -23.499 -60.654   4.501  1.00  0.00    -0.003 C 
ATOM     11  C   UNL     1     -22.525 -60.962   5.638  1.00  0.00     0.004 C 
ENDBRANCH   9  10
ENDBRANCH   8   9
ENDBRANCH   7   8
ENDBRANCH   1   7
TORSDOF 7
ENDMDL
MODEL 6
REMARK VINA RESULT:    -3.940      1.582      2.888
REMARK INTER + INTRA:          -6.228
REMARK INTER:                  -5.514
REMARK INTRA:                  -0.714
REMARK UNBOUND:                -0.676
REMARK SMILES CCCCCCCCC(=O)[O-]
REMARK SMILES IDX 6 1 7 2 8 3 9 4 10 5 11 6 5 7 4 8 3 9 2 10 1 11
REMARK H PARENT
REMARK Flexibility Score: inf
ROOT
ATOM      1  C   UNL     1     -22.572 -58.687   0.066  1.00  0.00     0.000 C 
ENDROOT
BRANCH   1   2
ATOM      2  C   UNL     1     -23.090 -59.365  -1.211  1.00  0.00     0.006 C 
BRANCH   2   3
ATOM      3  C   UNL     1     -24.610 -59.543  -1.159  1.00  0.00     0.053 C 
BRANCH   3   4
ATOM      4  C   UNL     1     -25.258 -58.839  -2.310  1.00  0.00     0.041 C 
ATOM      5  O   UNL     1     -25.029 -57.619  -2.517  1.00  0.00    -0.550 OA
ATOM      6  O   UNL     1     -26.076 -59.544  -3.184  1.00  0.00    -0.550 OA
ENDBRANCH   3   4
ENDBRANCH   2   3
ENDBRANCH   1   2
BRANCH   1   7
ATOM      7  C   UNL     1     -23.477 -58.935   1.285  1.00  0.00     0.000 C 
BRANCH   7   8
ATOM      8  C   UNL     1     -22.998 -60.094   2.185  1.00  0.00    -0.000 C 
BRANCH   8   9
ATOM      9  C   UNL     1     -23.816 -61.379   1.960  1.00  0.00    -0.000 C 
BRANCH   9  10
ATOM     10  C   UNL     1     -22.927 -62.607   1.711  1.00  0.00    -0.003 C 
ATOM     11  C   UNL     1     -21.878 -62.368   0.626  1.00  0.00     0.004 C 
ENDBRANCH   9  10
ENDBRANCH   8   9
ENDBRANCH   7   8
ENDBRANCH   1   7
TORSDOF 7
ENDMDL
MODEL 7
REMARK VINA RESULT:    -3.910      2.897      4.635
REMARK INTER + INTRA:          -6.185
REMARK INTER:                  -5.505
REMARK INTRA:                  -0.681
REMARK UNBOUND:                -0.676
REMARK SMILES CCCCCCCCC(=O)[O-]
REMARK SMILES IDX 6 1 7 2 8 3 9 4 10 5 11 6 5 7 4 8 3 9 2 10 1 11
REMARK H PARENT
REMARK Flexibility Score: inf
ROOT
ATOM      1  C   UNL     1     -23.002 -59.649   2.069  1.00  0.00     0.000 C 
ENDROOT
BRANCH   1   2
ATOM      2  C   UNL     1     -23.344 -60.885   2.915  1.00  0.00     0.006 C 
BRANCH   2   3
ATOM      3  C   UNL     1     -24.122 -61.915   2.091  1.00  0.00     0.053 C 
BRANCH   3   4
ATOM      4  C   UNL     1     -23.435 -63.244   2.131  1.00  0.00     0.041 C 
ATOM      5  O   UNL     1     -23.883 -64.166   2.861  1.00  0.00    -0.550 OA
ATOM      6  O   UNL     1     -22.330 -63.480   1.323  1.00  0.00    -0.550 OA
ENDBRANCH   3   4
ENDBRANCH   2   3
ENDBRANCH   1   2
BRANCH   1   7
ATOM      7  C   UNL     1     -22.032 -59.962   0.918  1.00  0.00     0.000 C 
BRANCH   7   8
ATOM      8  C   UNL     1     -22.348 -59.194  -0.383  1.00  0.00    -0.000 C 
BRANCH   8   9
ATOM      9  C   UNL     1     -23.345 -59.953  -1.277  1.00  0.00    -0.000 C 
BRANCH   9  10
ATOM     10  C   UNL     1     -24.651 -59.174  -1.497  1.00  0.00    -0.003 C 
ATOM     11  C   UNL     1     -25.714 -59.493  -0.448  1.00  0.00     0.004 C 
ENDBRANCH   9  10
ENDBRANCH   8   9
ENDBRANCH   7   8
ENDBRANCH   1   7
TORSDOF 7
ENDMDL
MODEL 8
REMARK VINA RESULT:    -3.717      2.981      4.339
REMARK INTER + INTRA:          -5.914
REMARK INTER:                  -5.375
REMARK INTRA:                  -0.539
REMARK UNBOUND:                -0.676
REMARK SMILES CCCCCCCCC(=O)[O-]
REMARK SMILES IDX 6 1 7 2 8 3 9 4 10 5 11 6 5 7 4 8 3 9 2 10 1 11
REMARK H PARENT
REMARK Flexibility Score: inf
ROOT
ATOM      1  C   UNL     1     -22.762 -60.265  -0.758  1.00  0.00     0.000 C 
ENDROOT
BRANCH   1   2
ATOM      2  C   UNL     1     -21.876 -61.119   0.160  1.00  0.00     0.006 C 
BRANCH   2   3
ATOM      3  C   UNL     1     -22.698 -61.740   1.293  1.00  0.00     0.053 C 
BRANCH   3   4
ATOM      4  C   UNL     1     -22.655 -63.234   1.213  1.00  0.00     0.041 C 
ATOM      5  O   UNL     1     -23.107 -63.932   2.158  1.00  0.00    -0.550 OA
ATOM      6  O   UNL     1     -22.161 -63.855   0.073  1.00  0.00    -0.550 OA
ENDBRANCH   3   4
ENDBRANCH   2   3
ENDBRANCH   1   2
BRANCH   1   7
ATOM      7  C   UNL     1     -22.691 -58.763  -0.431  1.00  0.00     0.000 C 
BRANCH   7   8
ATOM      8  C   UNL     1     -21.875 -58.445   0.841  1.00  0.00    -0.000 C 
BRANCH   8   9
ATOM      9  C   UNL     1     -22.668 -57.577   1.835  1.00  0.00    -0.000 C 
BRANCH   9  10
ATOM     10  C   UNL     1     -23.107 -58.361   3.081  1.00  0.00    -0.003 C 
ATOM     11  C   UNL     1     -24.473 -59.025   2.911  1.00  0.00     0.004 C 
ENDBRANCH   9  10
ENDBRANCH   8   9
ENDBRANCH   7   8
ENDBRANCH   1   7
TORSDOF 7
ENDMDL
MODEL 9
REMARK VINA RESULT:    -3.697      2.298      2.833
REMARK INTER + INTRA:          -5.885
REMARK INTER:                  -5.279
REMARK INTRA:                  -0.606
REMARK UNBOUND:                -0.676
REMARK SMILES CCCCCCCCC(=O)[O-]
REMARK SMILES IDX 6 1 7 2 8 3 9 4 10 5 11 6 5 7 4 8 3 9 2 10 1 11
REMARK H PARENT
REMARK Flexibility Score: inf
ROOT
ATOM      1  C   UNL     1     -23.469 -60.139   1.358  1.00  0.00     0.000 C 
ENDROOT
BRANCH   1   2
ATOM      2  C   UNL     1     -24.791 -59.858   0.630  1.00  0.00     0.006 C 
BRANCH   2   3
ATOM      3  C   UNL     1     -25.906 -59.527   1.626  1.00  0.00     0.053 C 
BRANCH   3   4
ATOM      4  C   UNL     1     -27.109 -58.999   0.909  1.00  0.00     0.041 C 
ATOM      5  O   UNL     1     -28.257 -59.428   1.198  1.00  0.00    -0.550 OA
ATOM      6  O   UNL     1     -26.967 -57.996  -0.042  1.00  0.00    -0.550 OA
ENDBRANCH   3   4
ENDBRANCH   2   3
ENDBRANCH   1   2
BRANCH   1   7
ATOM      7  C   UNL     1     -22.525 -61.051   0.556  1.00  0.00     0.000 C 
BRANCH   7   8
ATOM      8  C   UNL     1     -22.297 -62.432   1.207  1.00  0.00    -0.000 C 
BRANCH   8   9
ATOM      9  C   UNL     1     -22.855 -62.495   2.641  1.00  0.00    -0.000 C 
BRANCH   9  10
ATOM     10  C   UNL     1     -24.012 -63.496   2.780  1.00  0.00    -0.003 C 
ATOM     11  C   UNL     1     -25.301 -62.845   3.278  1.00  0.00     0.004 C 
ENDBRANCH   9  10
ENDBRANCH   8   9
ENDBRANCH   7   8
ENDBRANCH   1   7
TORSDOF 7
ENDMDL
