MODEL 1
REMARK VINA RESULT:    -6.173      0.000      0.000
REMARK INTER + INTRA:          -8.855
REMARK INTER:                  -8.338
REMARK INTRA:                  -0.516
REMARK UNBOUND:                -0.516
REMARK SMILES CC(=O)CCC=C(C)CCC=C(C)C
REMARK SMILES IDX 7 1 6 2 8 3 9 4 10 5 11 6 13 7 12 8 14 9 5 10 4 11 2 12 3 13
REMARK SMILES IDX 1 14
REMARK H PARENT
REMARK Flexibility Score: inf
ROOT
ATOM      1  C   UNL     1      15.579  19.792  29.861  1.00  0.00    -0.077 C 
ATOM      2  C   UNL     1      15.351  19.842  28.530  1.00  0.00    -0.028 C 
ATOM      3  C   UNL     1      15.264  20.960  30.761  1.00  0.00     0.039 C 
ENDROOT
BRANCH   1   4
ATOM      4  C   UNL     1      16.100  18.509  30.475  1.00  0.00     0.034 C 
BRANCH   4   5
ATOM      5  C   UNL     1      16.082  17.349  29.467  1.00  0.00     0.032 C 
BRANCH   5   6
ATOM      6  C   UNL     1      16.412  16.023  30.111  1.00  0.00    -0.028 C 
ATOM      7  C   UNL     1      17.841  14.121  30.786  1.00  0.00     0.039 C 
ATOM      8  C   UNL     1      17.644  15.468  30.139  1.00  0.00    -0.080 C 
ATOM      9  C   UNL     1      18.859  16.183  29.604  1.00  0.00     0.039 C 
ENDBRANCH   5   6
ENDBRANCH   4   5
ENDBRANCH   1   4
BRANCH   2  10
ATOM     10  C   UNL     1      14.759  21.046  27.837  1.00  0.00     0.035 C 
BRANCH  10  11
ATOM     11  C   UNL     1      14.967  20.998  26.318  1.00  0.00     0.079 C 
BRANCH  11  12
ATOM     12  C   UNL     1      15.920  22.068  25.847  1.00  0.00     0.130 C 
ATOM     13  O   UNL     1      15.513  23.207  25.678  1.00  0.00    -0.300 OA
ATOM     14  C   UNL     1      17.368  21.765  25.607  1.00  0.00     0.087 C 
ENDBRANCH  11  12
ENDBRANCH  10  11
ENDBRANCH   2  10
TORSDOF 6
ENDMDL
MODEL 2
REMARK VINA RESULT:    -5.768      3.082      7.015
REMARK INTER + INTRA:          -8.308
REMARK INTER:                  -7.739
REMARK INTRA:                  -0.568
REMARK UNBOUND:                -0.516
REMARK SMILES CC(=O)CCC=C(C)CCC=C(C)C
REMARK SMILES IDX 7 1 6 2 8 3 9 4 10 5 11 6 13 7 12 8 14 9 5 10 4 11 2 12 3 13
REMARK SMILES IDX 1 14
REMARK H PARENT
REMARK Flexibility Score: inf
ROOT
ATOM      1  C   UNL     1      15.310  20.392  29.531  1.00  0.00    -0.077 C 
ATOM      2  C   UNL     1      15.745  19.353  30.278  1.00  0.00    -0.028 C 
ATOM      3  C   UNL     1      15.030  20.241  28.056  1.00  0.00     0.039 C 
ENDROOT
BRANCH   1   4
ATOM      4  C   UNL     1      15.031  21.721  30.201  1.00  0.00     0.034 C 
BRANCH   4   5
ATOM      5  C   UNL     1      14.319  22.696  29.251  1.00  0.00     0.032 C 
BRANCH   5   6
ATOM      6  C   UNL     1      15.077  23.993  29.085  1.00  0.00    -0.028 C 
ATOM      7  C   UNL     1      16.460  25.681  27.921  1.00  0.00     0.039 C 
ATOM      8  C   UNL     1      15.709  24.374  27.953  1.00  0.00    -0.080 C 
ATOM      9  C   UNL     1      15.635  23.567  26.681  1.00  0.00     0.039 C 
ENDBRANCH   5   6
ENDBRANCH   4   5
ENDBRANCH   1   4
BRANCH   2  10
ATOM     10  C   UNL     1      15.974  17.970  29.717  1.00  0.00     0.035 C 
BRANCH  10  11
ATOM     11  C   UNL     1      17.097  17.227  30.454  1.00  0.00     0.079 C 
BRANCH  11  12
ATOM     12  C   UNL     1      17.054  15.743  30.195  1.00  0.00     0.130 C 
ATOM     13  O   UNL     1      16.011  15.224  29.825  1.00  0.00    -0.300 OA
ATOM     14  C   UNL     1      18.277  14.892  30.357  1.00  0.00     0.087 C 
ENDBRANCH  11  12
ENDBRANCH  10  11
ENDBRANCH   2  10
TORSDOF 6
ENDMDL
MODEL 3
REMARK VINA RESULT:    -5.499      1.874      2.512
REMARK INTER + INTRA:          -7.945
REMARK INTER:                  -7.429
REMARK INTRA:                  -0.516
REMARK UNBOUND:                -0.516
REMARK SMILES CC(=O)CCC=C(C)CCC=C(C)C
REMARK SMILES IDX 7 1 6 2 8 3 9 4 10 5 11 6 13 7 12 8 14 9 5 10 4 11 2 12 3 13
REMARK SMILES IDX 1 14
REMARK H PARENT
REMARK Flexibility Score: inf
ROOT
ATOM      1  C   UNL     1      15.442  19.925  29.838  1.00  0.00    -0.077 C 
ATOM      2  C   UNL     1      15.129  21.018  30.567  1.00  0.00    -0.028 C 
ATOM      3  C   UNL     1      15.203  19.873  28.349  1.00  0.00     0.039 C 
ENDROOT
BRANCH   1   4
ATOM      4  C   UNL     1      16.113  18.748  30.517  1.00  0.00     0.034 C 
BRANCH   4   5
ATOM      5  C   UNL     1      16.220  17.537  29.577  1.00  0.00     0.032 C 
BRANCH   5   6
ATOM      6  C   UNL     1      16.510  16.256  30.322  1.00  0.00    -0.028 C 
ATOM      7  C   UNL     1      17.840  14.297  31.036  1.00  0.00     0.039 C 
ATOM      8  C   UNL     1      17.682  15.585  30.271  1.00  0.00    -0.080 C 
ATOM      9  C   UNL     1      18.879  16.118  29.523  1.00  0.00     0.039 C 
ENDBRANCH   5   6
ENDBRANCH   4   5
ENDBRANCH   1   4
BRANCH   2  10
ATOM     10  C   UNL     1      14.532  22.269  29.967  1.00  0.00     0.035 C 
BRANCH  10  11
ATOM     11  C   UNL     1      15.396  23.508  30.240  1.00  0.00     0.079 C 
BRANCH  11  12
ATOM     12  C   UNL     1      15.435  24.439  29.055  1.00  0.00     0.130 C 
ATOM     13  O   UNL     1      15.520  25.644  29.235  1.00  0.00    -0.300 OA
ATOM     14  C   UNL     1      15.399  23.909  27.653  1.00  0.00     0.087 C 
ENDBRANCH  11  12
ENDBRANCH  10  11
ENDBRANCH   2  10
TORSDOF 6
ENDMDL
MODEL 4
REMARK VINA RESULT:    -4.997      3.871      6.547
REMARK INTER + INTRA:          -7.266
REMARK INTER:                  -6.332
REMARK INTRA:                  -0.934
REMARK UNBOUND:                -0.516
REMARK SMILES CC(=O)CCC=C(C)CCC=C(C)C
REMARK SMILES IDX 7 1 6 2 8 3 9 4 10 5 11 6 13 7 12 8 14 9 5 10 4 11 2 12 3 13
REMARK SMILES IDX 1 14
REMARK H PARENT
REMARK Flexibility Score: inf
ROOT
ATOM      1  C   UNL     1      14.514  22.473  29.764  1.00  0.00    -0.077 C 
ATOM      2  C   UNL     1      14.506  22.246  28.433  1.00  0.00    -0.028 C 
ATOM      3  C   UNL     1      15.020  21.439  30.739  1.00  0.00     0.039 C 
ENDROOT
BRANCH   1   4
ATOM      4  C   UNL     1      14.070  23.823  30.288  1.00  0.00     0.034 C 
BRANCH   4   5
ATOM      5  C   UNL     1      13.954  24.859  29.160  1.00  0.00     0.032 C 
BRANCH   5   6
ATOM      6  C   UNL     1      14.873  26.040  29.367  1.00  0.00    -0.028 C 
ATOM      7  C   UNL     1      16.929  27.389  29.106  1.00  0.00     0.039 C 
ATOM      8  C   UNL     1      16.090  26.176  28.795  1.00  0.00    -0.080 C 
ATOM      9  C   UNL     1      16.620  25.184  27.790  1.00  0.00     0.039 C 
ENDBRANCH   5   6
ENDBRANCH   4   5
ENDBRANCH   1   4
BRANCH   2  10
ATOM     10  C   UNL     1      15.004  20.963  27.809  1.00  0.00     0.035 C 
BRANCH  10  11
ATOM     11  C   UNL     1      14.910  20.992  26.278  1.00  0.00     0.079 C 
BRANCH  11  12
ATOM     12  C   UNL     1      15.847  22.008  25.676  1.00  0.00     0.130 C 
ATOM     13  O   UNL     1      15.398  23.054  25.231  1.00  0.00    -0.300 OA
ATOM     14  C   UNL     1      17.326  21.771  25.637  1.00  0.00     0.087 C 
ENDBRANCH  11  12
ENDBRANCH  10  11
ENDBRANCH   2  10
TORSDOF 6
ENDMDL
MODEL 5
REMARK VINA RESULT:    -4.980      4.774      7.441
REMARK INTER + INTRA:          -7.243
REMARK INTER:                  -6.347
REMARK INTRA:                  -0.897
REMARK UNBOUND:                -0.516
REMARK SMILES CC(=O)CCC=C(C)CCC=C(C)C
REMARK SMILES IDX 7 1 6 2 8 3 9 4 10 5 11 6 13 7 12 8 14 9 5 10 4 11 2 12 3 13
REMARK SMILES IDX 1 14
REMARK H PARENT
REMARK Flexibility Score: inf
ROOT
ATOM      1  C   UNL     1      17.603  25.806  27.790  1.00  0.00    -0.077 C 
ATOM      2  C   UNL     1      18.481  24.797  27.601  1.00  0.00    -0.028 C 
ATOM      3  C   UNL     1      17.969  27.238  27.490  1.00  0.00     0.039 C 
ENDROOT
BRANCH   1   4
ATOM      4  C   UNL     1      16.195  25.487  28.249  1.00  0.00     0.034 C 
BRANCH   4   5
ATOM      5  C   UNL     1      15.399  24.747  27.163  1.00  0.00     0.032 C 
BRANCH   5   6
ATOM      6  C   UNL     1      15.066  23.328  27.561  1.00  0.00    -0.028 C 
ATOM      7  C   UNL     1      15.010  20.865  27.346  1.00  0.00     0.039 C 
ATOM      8  C   UNL     1      15.430  22.229  26.863  1.00  0.00    -0.080 C 
ATOM      9  C   UNL     1      16.311  22.309  25.641  1.00  0.00     0.039 C 
ENDBRANCH   5   6
ENDBRANCH   4   5
ENDBRANCH   1   4
BRANCH   2  10
ATOM     10  C   UNL     1      19.880  25.006  27.070  1.00  0.00     0.035 C 
BRANCH  10  11
ATOM     11  C   UNL     1      20.945  24.806  28.157  1.00  0.00     0.079 C 
BRANCH  11  12
ATOM     12  C   UNL     1      21.638  26.098  28.509  1.00  0.00     0.130 C 
ATOM     13  O   UNL     1      22.731  26.349  28.026  1.00  0.00    -0.300 OA
ATOM     14  C   UNL     1      20.996  27.096  29.424  1.00  0.00     0.087 C 
ENDBRANCH  11  12
ENDBRANCH  10  11
ENDBRANCH   2  10
TORSDOF 6
ENDMDL
MODEL 6
REMARK VINA RESULT:    -4.963      2.528      5.755
REMARK INTER + INTRA:          -7.220
REMARK INTER:                  -6.479
REMARK INTRA:                  -0.741
REMARK UNBOUND:                -0.516
REMARK SMILES CC(=O)CCC=C(C)CCC=C(C)C
REMARK SMILES IDX 7 1 6 2 8 3 9 4 10 5 11 6 13 7 12 8 14 9 5 10 4 11 2 12 3 13
REMARK SMILES IDX 1 14
REMARK H PARENT
REMARK Flexibility Score: inf
ROOT
ATOM      1  C   UNL     1      15.253  20.635  29.631  1.00  0.00    -0.077 C 
ATOM      2  C   UNL     1      14.945  21.240  28.463  1.00  0.00    -0.028 C 
ATOM      3  C   UNL     1      15.646  19.180  29.687  1.00  0.00     0.039 C 
ENDROOT
BRANCH   1   4
ATOM      4  C   UNL     1      15.270  21.452  30.907  1.00  0.00     0.034 C 
BRANCH   4   5
ATOM      5  C   UNL     1      14.033  22.356  31.018  1.00  0.00     0.032 C 
BRANCH   5   6
ATOM      6  C   UNL     1      14.392  23.781  31.367  1.00  0.00    -0.028 C 
ATOM      7  C   UNL     1      14.851  26.174  30.944  1.00  0.00     0.039 C 
ATOM      8  C   UNL     1      14.449  24.798  30.478  1.00  0.00    -0.080 C 
ATOM      9  C   UNL     1      14.053  24.625  29.034  1.00  0.00     0.039 C 
ENDBRANCH   5   6
ENDBRANCH   4   5
ENDBRANCH   1   4
BRANCH   2  10
ATOM     10  C   UNL     1      14.978  20.531  27.130  1.00  0.00     0.035 C 
BRANCH  10  11
ATOM     11  C   UNL     1      15.051  21.515  25.955  1.00  0.00     0.079 C 
BRANCH  11  12
ATOM     12  C   UNL     1      16.328  22.317  25.972  1.00  0.00     0.130 C 
ATOM     13  O   UNL     1      16.317  23.462  26.396  1.00  0.00    -0.300 OA
ATOM     14  C   UNL     1      17.621  21.723  25.501  1.00  0.00     0.087 C 
ENDBRANCH  11  12
ENDBRANCH  10  11
ENDBRANCH   2  10
TORSDOF 6
ENDMDL
MODEL 7
REMARK VINA RESULT:    -4.955      4.118      6.439
REMARK INTER + INTRA:          -7.210
REMARK INTER:                  -6.624
REMARK INTRA:                  -0.586
REMARK UNBOUND:                -0.516
REMARK SMILES CC(=O)CCC=C(C)CCC=C(C)C
REMARK SMILES IDX 7 1 6 2 8 3 9 4 10 5 11 6 13 7 12 8 14 9 5 10 4 11 2 12 3 13
REMARK SMILES IDX 1 14
REMARK H PARENT
REMARK Flexibility Score: inf
ROOT
ATOM      1  C   UNL     1      15.476  24.692  27.545  1.00  0.00    -0.077 C 
ATOM      2  C   UNL     1      16.496  25.477  27.955  1.00  0.00    -0.028 C 
ATOM      3  C   UNL     1      15.688  23.579  26.549  1.00  0.00     0.039 C 
ENDROOT
BRANCH   1   4
ATOM      4  C   UNL     1      14.100  24.888  28.148  1.00  0.00     0.034 C 
BRANCH   4   5
ATOM      5  C   UNL     1      14.013  24.296  29.563  1.00  0.00     0.032 C 
BRANCH   5   6
ATOM      6  C   UNL     1      14.351  22.824  29.592  1.00  0.00    -0.028 C 
ATOM      7  C   UNL     1      15.280  20.727  30.516  1.00  0.00     0.039 C 
ATOM      8  C   UNL     1      14.967  22.197  30.619  1.00  0.00    -0.080 C 
ATOM      9  C   UNL     1      15.297  22.905  31.909  1.00  0.00     0.039 C 
ENDBRANCH   5   6
ENDBRANCH   4   5
ENDBRANCH   1   4
BRANCH   2  10
ATOM     10  C   UNL     1      17.917  25.306  27.473  1.00  0.00     0.035 C 
BRANCH  10  11
ATOM     11  C   UNL     1      18.938  25.835  28.489  1.00  0.00     0.079 C 
BRANCH  11  12
ATOM     12  C   UNL     1      20.240  25.077  28.424  1.00  0.00     0.130 C 
ATOM     13  O   UNL     1      21.004  25.107  29.376  1.00  0.00    -0.300 OA
ATOM     14  C   UNL     1      20.603  24.263  27.219  1.00  0.00     0.087 C 
ENDBRANCH  11  12
ENDBRANCH  10  11
ENDBRANCH   2  10
TORSDOF 6
ENDMDL
MODEL 8
REMARK VINA RESULT:    -4.924      4.300      6.858
REMARK INTER + INTRA:          -7.167
REMARK INTER:                  -6.248
REMARK INTRA:                  -0.919
REMARK UNBOUND:                -0.516
REMARK SMILES CC(=O)CCC=C(C)CCC=C(C)C
REMARK SMILES IDX 7 1 6 2 8 3 9 4 10 5 11 6 13 7 12 8 14 9 5 10 4 11 2 12 3 13
REMARK SMILES IDX 1 14
REMARK H PARENT
REMARK Flexibility Score: inf
ROOT
ATOM      1  C   UNL     1      15.340  24.717  28.236  1.00  0.00    -0.077 C 
ATOM      2  C   UNL     1      15.111  23.530  28.840  1.00  0.00    -0.028 C 
ATOM      3  C   UNL     1      14.683  25.076  26.927  1.00  0.00     0.039 C 
ENDROOT
BRANCH   1   4
ATOM      4  C   UNL     1      16.224  25.739  28.921  1.00  0.00     0.034 C 
BRANCH   4   5
ATOM      5  C   UNL     1      17.256  26.335  27.952  1.00  0.00     0.032 C 
BRANCH   5   6
ATOM      6  C   UNL     1      18.286  25.319  27.513  1.00  0.00    -0.028 C 
ATOM      7  C   UNL     1      20.533  24.308  27.311  1.00  0.00     0.039 C 
ATOM      8  C   UNL     1      19.597  25.364  27.838  1.00  0.00    -0.080 C 
ATOM      9  C   UNL     1      20.156  26.404  28.777  1.00  0.00     0.039 C 
ENDBRANCH   5   6
ENDBRANCH   4   5
ENDBRANCH   1   4
BRANCH   2  10
ATOM     10  C   UNL     1      14.183  22.480  28.276  1.00  0.00     0.035 C 
BRANCH  10  11
ATOM     11  C   UNL     1      14.948  21.269  27.727  1.00  0.00     0.079 C 
BRANCH  11  12
ATOM     12  C   UNL     1      15.213  21.394  26.248  1.00  0.00     0.130 C 
ATOM     13  O   UNL     1      14.381  20.993  25.449  1.00  0.00    -0.300 OA
ATOM     14  C   UNL     1      16.471  22.029  25.737  1.00  0.00     0.087 C 
ENDBRANCH  11  12
ENDBRANCH  10  11
ENDBRANCH   2  10
TORSDOF 6
ENDMDL
MODEL 9
REMARK VINA RESULT:    -4.861      5.768      8.603
REMARK INTER + INTRA:          -7.082
REMARK INTER:                  -6.442
REMARK INTRA:                  -0.639
REMARK UNBOUND:                -0.516
REMARK SMILES CC(=O)CCC=C(C)CCC=C(C)C
REMARK SMILES IDX 7 1 6 2 8 3 9 4 10 5 11 6 13 7 12 8 14 9 5 10 4 11 2 12 3 13
REMARK SMILES IDX 1 14
REMARK H PARENT
REMARK Flexibility Score: inf
ROOT
ATOM      1  C   UNL     1      18.524  25.727  27.595  1.00  0.00    -0.077 C 
ATOM      2  C   UNL     1      17.465  24.924  27.838  1.00  0.00    -0.028 C 
ATOM      3  C   UNL     1      18.376  27.226  27.519  1.00  0.00     0.039 C 
ENDROOT
BRANCH   1   4
ATOM      4  C   UNL     1      19.904  25.116  27.464  1.00  0.00     0.034 C 
BRANCH   4   5
ATOM      5  C   UNL     1      20.811  25.508  28.640  1.00  0.00     0.032 C 
BRANCH   5   6
ATOM      6  C   UNL     1      22.166  25.996  28.183  1.00  0.00    -0.028 C 
ATOM      7  C   UNL     1      23.931  27.656  27.688  1.00  0.00     0.039 C 
ATOM      8  C   UNL     1      22.562  27.288  28.200  1.00  0.00    -0.080 C 
ATOM      9  C   UNL     1      21.705  28.383  28.785  1.00  0.00     0.039 C 
ENDBRANCH   5   6
ENDBRANCH   4   5
ENDBRANCH   1   4
BRANCH   2  10
ATOM     10  C   UNL     1      16.066  25.444  28.064  1.00  0.00     0.035 C 
BRANCH  10  11
ATOM     11  C   UNL     1      15.051  24.806  27.105  1.00  0.00     0.079 C 
BRANCH  11  12
ATOM     12  C   UNL     1      15.260  23.318  26.975  1.00  0.00     0.130 C 
ATOM     13  O   UNL     1      15.008  22.588  27.921  1.00  0.00    -0.300 OA
ATOM     14  C   UNL     1      15.746  22.714  25.693  1.00  0.00     0.087 C 
ENDBRANCH  11  12
ENDBRANCH  10  11
ENDBRANCH   2  10
TORSDOF 6
ENDMDL
