MODEL 1
REMARK VINA RESULT:    -4.462      0.000      0.000
REMARK INTER + INTRA:         -13.663
REMARK INTER:                  -9.679
REMARK INTRA:                  -3.984
REMARK UNBOUND:                -3.984
REMARK SMILES CCCCCCCCCCCCCCCCCCCCCC(=O)[O-]
REMARK SMILES IDX 12 1 11 2 10 3 9 4 8 5 7 6 6 7 5 8 4 9 3 10 2 11 1 12 13 13
REMARK SMILES IDX 14 14 15 15 16 16 17 17 18 18 19 19 20 20 21 21 22 22 23 23
REMARK SMILES IDX 24 24
REMARK H PARENT
REMARK Flexibility Score: inf
ROOT
ATOM      1  C   UNL     1      62.301  18.220  38.506  1.00  0.00     0.000 C 
ENDROOT
BRANCH   1   2
ATOM      2  C   UNL     1      62.856  18.450  39.919  1.00  0.00     0.000 C 
BRANCH   2   3
ATOM      3  C   UNL     1      63.318  17.130  40.548  1.00  0.00     0.000 C 
BRANCH   3   4
ATOM      4  C   UNL     1      62.673  15.927  39.841  1.00  0.00    -0.000 C 
BRANCH   4   5
ATOM      5  C   UNL     1      63.535  14.657  39.927  1.00  0.00    -0.000 C 
BRANCH   5   6
ATOM      6  C   UNL     1      63.841  14.058  38.545  1.00  0.00    -0.000 C 
BRANCH   6   7
ATOM      7  C   UNL     1      62.621  14.071  37.610  1.00  0.00    -0.000 C 
BRANCH   7   8
ATOM      8  C   UNL     1      62.918  14.727  36.252  1.00  0.00    -0.000 C 
BRANCH   8   9
ATOM      9  C   UNL     1      64.337  15.306  36.222  1.00  0.00    -0.000 C 
BRANCH   9  10
ATOM     10  C   UNL     1      64.332  16.751  35.698  1.00  0.00    -0.000 C 
BRANCH  10  11
ATOM     11  C   UNL     1      65.458  17.603  36.303  1.00  0.00    -0.003 C 
ATOM     12  C   UNL     1      65.845  17.155  37.714  1.00  0.00     0.004 C 
ENDBRANCH  10  11
ENDBRANCH   9  10
ENDBRANCH   8   9
ENDBRANCH   7   8
ENDBRANCH   6   7
ENDBRANCH   5   6
ENDBRANCH   4   5
ENDBRANCH   3   4
ENDBRANCH   2   3
ENDBRANCH   1   2
BRANCH   1  13
ATOM     13  C   UNL     1      60.918  18.858  38.298  1.00  0.00     0.000 C 
BRANCH  13  14
ATOM     14  C   UNL     1      60.239  19.243  39.624  1.00  0.00     0.000 C 
BRANCH  14  15
ATOM     15  C   UNL     1      58.948  18.447  39.887  1.00  0.00     0.000 C 
BRANCH  15  16
ATOM     16  C   UNL     1      59.138  17.124  40.656  1.00  0.00     0.000 C 
BRANCH  16  17
ATOM     17  C   UNL     1      59.103  15.848  39.789  1.00  0.00     0.000 C 
BRANCH  17  18
ATOM     18  C   UNL     1      59.506  14.553  40.517  1.00  0.00     0.000 C 
BRANCH  18  19
ATOM     19  C   UNL     1      59.606  13.344  39.570  1.00  0.00     0.000 C 
BRANCH  19  20
ATOM     20  C   UNL     1      60.347  12.159  40.206  1.00  0.00     0.006 C 
BRANCH  20  21
ATOM     21  C   UNL     1      60.998  11.239  39.164  1.00  0.00     0.053 C 
BRANCH  21  22
ATOM     22  C   UNL     1      62.341  10.782  39.639  1.00  0.00     0.041 C 
ATOM     23  O   UNL     1      62.836  11.258  40.694  1.00  0.00    -0.550 OA
ATOM     24  O   UNL     1      63.027   9.796  38.942  1.00  0.00    -0.550 OA
ENDBRANCH  21  22
ENDBRANCH  20  21
ENDBRANCH  19  20
ENDBRANCH  18  19
ENDBRANCH  17  18
ENDBRANCH  16  17
ENDBRANCH  15  16
ENDBRANCH  14  15
ENDBRANCH  13  14
ENDBRANCH   1  13
TORSDOF 20
ENDMDL
MODEL 2
REMARK VINA RESULT:    -4.337      2.697      6.139
REMARK INTER + INTRA:         -13.391
REMARK INTER:                  -9.608
REMARK INTRA:                  -3.783
REMARK UNBOUND:                -3.984
REMARK SMILES CCCCCCCCCCCCCCCCCCCCCC(=O)[O-]
REMARK SMILES IDX 12 1 11 2 10 3 9 4 8 5 7 6 6 7 5 8 4 9 3 10 2 11 1 12 13 13
REMARK SMILES IDX 14 14 15 15 16 16 17 17 18 18 19 19 20 20 21 21 22 22 23 23
REMARK SMILES IDX 24 24
REMARK H PARENT
REMARK Flexibility Score: inf
ROOT
ATOM      1  C   UNL     1      62.807  14.587  37.536  1.00  0.00     0.000 C 
ENDROOT
BRANCH   1   2
ATOM      2  C   UNL     1      63.936  14.058  38.433  1.00  0.00     0.000 C 
BRANCH   2   3
ATOM      3  C   UNL     1      63.396  13.640  39.806  1.00  0.00     0.000 C 
BRANCH   3   4
ATOM      4  C   UNL     1      62.856  12.201  39.771  1.00  0.00    -0.000 C 
BRANCH   4   5
ATOM      5  C   UNL     1      61.399  12.102  40.250  1.00  0.00    -0.000 C 
BRANCH   5   6
ATOM      6  C   UNL     1      60.707  13.473  40.320  1.00  0.00    -0.000 C 
BRANCH   6   7
ATOM      7  C   UNL     1      59.376  13.503  39.550  1.00  0.00    -0.000 C 
BRANCH   7   8
ATOM      8  C   UNL     1      59.551  13.904  38.076  1.00  0.00    -0.000 C 
BRANCH   8   9
ATOM      9  C   UNL     1      59.131  12.761  37.144  1.00  0.00    -0.000 C 
BRANCH   9  10
ATOM     10  C   UNL     1      60.354  11.956  36.675  1.00  0.00    -0.000 C 
BRANCH  10  11
ATOM     11  C   UNL     1      60.145  10.439  36.798  1.00  0.00    -0.003 C 
ATOM     12  C   UNL     1      61.344   9.727  37.426  1.00  0.00     0.004 C 
ENDBRANCH  10  11
ENDBRANCH   9  10
ENDBRANCH   8   9
ENDBRANCH   7   8
ENDBRANCH   6   7
ENDBRANCH   5   6
ENDBRANCH   4   5
ENDBRANCH   3   4
ENDBRANCH   2   3
ENDBRANCH   1   2
BRANCH   1  13
ATOM     13  C   UNL     1      63.232  14.734  36.067  1.00  0.00     0.000 C 
BRANCH  13  14
ATOM     14  C   UNL     1      64.634  15.348  35.916  1.00  0.00     0.000 C 
BRANCH  14  15
ATOM     15  C   UNL     1      64.595  16.840  35.537  1.00  0.00     0.000 C 
BRANCH  15  16
ATOM     16  C   UNL     1      65.103  17.807  36.625  1.00  0.00     0.000 C 
BRANCH  16  17
ATOM     17  C   UNL     1      64.052  18.231  37.672  1.00  0.00     0.000 C 
BRANCH  17  18
ATOM     18  C   UNL     1      64.321  17.734  39.104  1.00  0.00     0.000 C 
BRANCH  18  19
ATOM     19  C   UNL     1      63.191  18.099  40.082  1.00  0.00     0.000 C 
BRANCH  19  20
ATOM     20  C   UNL     1      62.233  16.926  40.339  1.00  0.00     0.006 C 
BRANCH  20  21
ATOM     21  C   UNL     1      60.757  17.330  40.219  1.00  0.00     0.053 C 
BRANCH  21  22
ATOM     22  C   UNL     1      60.504  17.993  38.902  1.00  0.00     0.041 C 
ATOM     23  O   UNL     1      60.582  17.331  37.834  1.00  0.00    -0.550 OA
ATOM     24  O   UNL     1      60.135  19.331  38.856  1.00  0.00    -0.550 OA
ENDBRANCH  21  22
ENDBRANCH  20  21
ENDBRANCH  19  20
ENDBRANCH  18  19
ENDBRANCH  17  18
ENDBRANCH  16  17
ENDBRANCH  15  16
ENDBRANCH  14  15
ENDBRANCH  13  14
ENDBRANCH   1  13
TORSDOF 20
ENDMDL
MODEL 3
REMARK VINA RESULT:    -4.305      3.371      6.675
REMARK INTER + INTRA:         -13.322
REMARK INTER:                  -9.917
REMARK INTRA:                  -3.405
REMARK UNBOUND:                -3.984
REMARK SMILES CCCCCCCCCCCCCCCCCCCCCC(=O)[O-]
REMARK SMILES IDX 12 1 11 2 10 3 9 4 8 5 7 6 6 7 5 8 4 9 3 10 2 11 1 12 13 13
REMARK SMILES IDX 14 14 15 15 16 16 17 17 18 18 19 19 20 20 21 21 22 22 23 23
REMARK SMILES IDX 24 24
REMARK H PARENT
REMARK Flexibility Score: inf
ROOT
ATOM      1  C   UNL     1      63.775  18.073  39.910  1.00  0.00     0.000 C 
ENDROOT
BRANCH   1   2
ATOM      2  C   UNL     1      62.797  19.153  39.425  1.00  0.00     0.000 C 
BRANCH   2   3
ATOM      3  C   UNL     1      62.199  18.780  38.063  1.00  0.00     0.000 C 
BRANCH   3   4
ATOM      4  C   UNL     1      60.669  18.658  38.147  1.00  0.00    -0.000 C 
BRANCH   4   5
ATOM      5  C   UNL     1      60.103  19.189  39.474  1.00  0.00    -0.000 C 
BRANCH   5   6
ATOM      6  C   UNL     1      59.284  18.131  40.232  1.00  0.00    -0.000 C 
BRANCH   6   7
ATOM      7  C   UNL     1      58.977  16.894  39.372  1.00  0.00    -0.000 C 
BRANCH   7   8
ATOM      8  C   UNL     1      58.673  15.645  40.215  1.00  0.00    -0.000 C 
BRANCH   8   9
ATOM      9  C   UNL     1      58.344  14.445  39.318  1.00  0.00    -0.000 C 
BRANCH   9  10
ATOM     10  C   UNL     1      59.609  13.909  38.629  1.00  0.00    -0.000 C 
BRANCH  10  11
ATOM     11  C   UNL     1      59.415  13.698  37.120  1.00  0.00    -0.003 C 
ATOM     12  C   UNL     1      59.586  12.237  36.701  1.00  0.00     0.004 C 
ENDBRANCH  10  11
ENDBRANCH   9  10
ENDBRANCH   8   9
ENDBRANCH   7   8
ENDBRANCH   6   7
ENDBRANCH   5   6
ENDBRANCH   4   5
ENDBRANCH   3   4
ENDBRANCH   2   3
ENDBRANCH   1   2
BRANCH   1  13
ATOM     13  C   UNL     1      63.097  17.003  40.780  1.00  0.00     0.000 C 
BRANCH  13  14
ATOM     14  C   UNL     1      62.414  15.906  39.944  1.00  0.00     0.000 C 
BRANCH  14  15
ATOM     15  C   UNL     1      63.259  14.623  39.838  1.00  0.00     0.000 C 
BRANCH  15  16
ATOM     16  C   UNL     1      63.558  14.152  38.400  1.00  0.00     0.000 C 
BRANCH  16  17
ATOM     17  C   UNL     1      62.895  14.985  37.284  1.00  0.00     0.000 C 
BRANCH  17  18
ATOM     18  C   UNL     1      63.870  15.620  36.276  1.00  0.00     0.000 C 
BRANCH  18  19
ATOM     19  C   UNL     1      65.023  16.375  36.958  1.00  0.00     0.000 C 
BRANCH  19  20
ATOM     20  C   UNL     1      65.305  17.735  36.302  1.00  0.00     0.006 C 
BRANCH  20  21
ATOM     21  C   UNL     1      66.806  18.019  36.149  1.00  0.00     0.053 C 
BRANCH  21  22
ATOM     22  C   UNL     1      67.094  18.583  34.794  1.00  0.00     0.041 C 
ATOM     23  O   UNL     1      67.562  19.746  34.678  1.00  0.00    -0.550 OA
ATOM     24  O   UNL     1      66.890  17.808  33.659  1.00  0.00    -0.550 OA
ENDBRANCH  21  22
ENDBRANCH  20  21
ENDBRANCH  19  20
ENDBRANCH  18  19
ENDBRANCH  17  18
ENDBRANCH  16  17
ENDBRANCH  15  16
ENDBRANCH  14  15
ENDBRANCH  13  14
ENDBRANCH   1  13
TORSDOF 20
ENDMDL
MODEL 4
REMARK VINA RESULT:    -4.304      1.698      4.752
REMARK INTER + INTRA:         -13.321
REMARK INTER:                  -9.718
REMARK INTRA:                  -3.603
REMARK UNBOUND:                -3.984
REMARK SMILES CCCCCCCCCCCCCCCCCCCCCC(=O)[O-]
REMARK SMILES IDX 12 1 11 2 10 3 9 4 8 5 7 6 6 7 5 8 4 9 3 10 2 11 1 12 13 13
REMARK SMILES IDX 14 14 15 15 16 16 17 17 18 18 19 19 20 20 21 21 22 22 23 23
REMARK SMILES IDX 24 24
REMARK H PARENT
REMARK Flexibility Score: inf
ROOT
ATOM      1  C   UNL     1      63.678  14.789  36.952  1.00  0.00     0.000 C 
ENDROOT
BRANCH   1   2
ATOM      2  C   UNL     1      64.441  15.382  35.758  1.00  0.00     0.000 C 
BRANCH   2   3
ATOM      3  C   UNL     1      64.666  16.888  35.945  1.00  0.00     0.000 C 
BRANCH   3   4
ATOM      4  C   UNL     1      63.450  17.549  36.612  1.00  0.00    -0.000 C 
BRANCH   4   5
ATOM      5  C   UNL     1      63.844  18.517  37.738  1.00  0.00    -0.000 C 
BRANCH   5   6
ATOM      6  C   UNL     1      64.409  17.791  38.970  1.00  0.00    -0.000 C 
BRANCH   6   7
ATOM      7  C   UNL     1      63.692  18.188  40.271  1.00  0.00    -0.000 C 
BRANCH   7   8
ATOM      8  C   UNL     1      62.709  17.112  40.761  1.00  0.00    -0.000 C 
BRANCH   8   9
ATOM      9  C   UNL     1      61.354  17.244  40.054  1.00  0.00    -0.000 C 
BRANCH   9  10
ATOM     10  C   UNL     1      61.009  15.961  39.282  1.00  0.00    -0.000 C 
BRANCH  10  11
ATOM     11  C   UNL     1      60.123  16.230  38.056  1.00  0.00    -0.003 C 
ATOM     12  C   UNL     1      59.866  17.721  37.829  1.00  0.00     0.004 C 
ENDBRANCH  10  11
ENDBRANCH   9  10
ENDBRANCH   8   9
ENDBRANCH   7   8
ENDBRANCH   6   7
ENDBRANCH   5   6
ENDBRANCH   4   5
ENDBRANCH   3   4
ENDBRANCH   2   3
ENDBRANCH   1   2
BRANCH   1  13
ATOM     13  C   UNL     1      64.611  14.175  38.008  1.00  0.00     0.000 C 
BRANCH  13  14
ATOM     14  C   UNL     1      63.901  13.922  39.349  1.00  0.00     0.000 C 
BRANCH  14  15
ATOM     15  C   UNL     1      63.339  12.493  39.466  1.00  0.00     0.000 C 
BRANCH  15  16
ATOM     16  C   UNL     1      62.002  12.375  40.226  1.00  0.00     0.000 C 
BRANCH  16  17
ATOM     17  C   UNL     1      60.788  11.973  39.363  1.00  0.00     0.000 C 
BRANCH  17  18
ATOM     18  C   UNL     1      60.971  12.172  37.847  1.00  0.00     0.000 C 
BRANCH  18  19
ATOM     19  C   UNL     1      60.840  10.860  37.054  1.00  0.00     0.000 C 
BRANCH  19  20
ATOM     20  C   UNL     1      61.094   9.619  37.924  1.00  0.00     0.006 C 
BRANCH  20  21
ATOM     21  C   UNL     1      62.290   8.790  37.438  1.00  0.00     0.053 C 
BRANCH  21  22
ATOM     22  C   UNL     1      63.200   8.469  38.581  1.00  0.00     0.041 C 
ATOM     23  O   UNL     1      63.042   9.035  39.695  1.00  0.00    -0.550 OA
ATOM     24  O   UNL     1      64.193   7.509  38.432  1.00  0.00    -0.550 OA
ENDBRANCH  21  22
ENDBRANCH  20  21
ENDBRANCH  19  20
ENDBRANCH  18  19
ENDBRANCH  17  18
ENDBRANCH  16  17
ENDBRANCH  15  16
ENDBRANCH  14  15
ENDBRANCH  13  14
ENDBRANCH   1  13
TORSDOF 20
ENDMDL
MODEL 5
REMARK VINA RESULT:    -4.293      2.619      6.086
REMARK INTER + INTRA:         -13.296
REMARK INTER:                  -9.399
REMARK INTRA:                  -3.897
REMARK UNBOUND:                -3.984
REMARK SMILES CCCCCCCCCCCCCCCCCCCCCC(=O)[O-]
REMARK SMILES IDX 12 1 11 2 10 3 9 4 8 5 7 6 6 7 5 8 4 9 3 10 2 11 1 12 13 13
REMARK SMILES IDX 14 14 15 15 16 16 17 17 18 18 19 19 20 20 21 21 22 22 23 23
REMARK SMILES IDX 24 24
REMARK H PARENT
REMARK Flexibility Score: inf
ROOT
ATOM      1  C   UNL     1      63.465  13.173  39.036  1.00  0.00     0.000 C 
ENDROOT
BRANCH   1   2
ATOM      2  C   UNL     1      63.123  11.845  39.729  1.00  0.00     0.000 C 
BRANCH   2   3
ATOM      3  C   UNL     1      62.045  12.047  40.800  1.00  0.00     0.000 C 
BRANCH   3   4
ATOM      4  C   UNL     1      61.033  10.890  40.789  1.00  0.00    -0.000 C 
BRANCH   4   5
ATOM      5  C   UNL     1      59.576  11.376  40.815  1.00  0.00    -0.000 C 
BRANCH   5   6
ATOM      6  C   UNL     1      59.333  12.565  39.871  1.00  0.00    -0.000 C 
BRANCH   6   7
ATOM      7  C   UNL     1      59.113  12.127  38.413  1.00  0.00    -0.000 C 
BRANCH   7   8
ATOM      8  C   UNL     1      60.108  12.779  37.440  1.00  0.00    -0.000 C 
BRANCH   8   9
ATOM      9  C   UNL     1      60.844  11.716  36.615  1.00  0.00    -0.000 C 
BRANCH   9  10
ATOM     10  C   UNL     1      60.411  10.300  37.028  1.00  0.00    -0.000 C 
BRANCH  10  11
ATOM     11  C   UNL     1      61.598   9.413  37.431  1.00  0.00    -0.003 C 
ATOM     12  C   UNL     1      61.175   8.202  38.264  1.00  0.00     0.004 C 
ENDBRANCH  10  11
ENDBRANCH   9  10
ENDBRANCH   8   9
ENDBRANCH   7   8
ENDBRANCH   6   7
ENDBRANCH   5   6
ENDBRANCH   4   5
ENDBRANCH   3   4
ENDBRANCH   2   3
ENDBRANCH   1   2
BRANCH   1  13
ATOM     13  C   UNL     1      62.979  14.398  39.826  1.00  0.00     0.000 C 
BRANCH  13  14
ATOM     14  C   UNL     1      61.912  15.206  39.067  1.00  0.00     0.000 C 
BRANCH  14  15
ATOM     15  C   UNL     1      61.197  16.237  39.959  1.00  0.00     0.000 C 
BRANCH  15  16
ATOM     16  C   UNL     1      62.094  17.365  40.508  1.00  0.00     0.000 C 
BRANCH  16  17
ATOM     17  C   UNL     1      62.163  18.635  39.634  1.00  0.00     0.000 C 
BRANCH  17  18
ATOM     18  C   UNL     1      63.263  18.628  38.558  1.00  0.00     0.000 C 
BRANCH  18  19
ATOM     19  C   UNL     1      64.488  17.792  38.964  1.00  0.00     0.000 C 
BRANCH  19  20
ATOM     20  C   UNL     1      65.365  17.410  37.762  1.00  0.00     0.006 C 
BRANCH  20  21
ATOM     21  C   UNL     1      65.150  15.959  37.309  1.00  0.00     0.053 C 
BRANCH  21  22
ATOM     22  C   UNL     1      64.332  15.920  36.058  1.00  0.00     0.041 C 
ATOM     23  O   UNL     1      63.534  14.969  35.852  1.00  0.00    -0.550 OA
ATOM     24  O   UNL     1      64.414  16.959  35.139  1.00  0.00    -0.550 OA
ENDBRANCH  21  22
ENDBRANCH  20  21
ENDBRANCH  19  20
ENDBRANCH  18  19
ENDBRANCH  17  18
ENDBRANCH  16  17
ENDBRANCH  15  16
ENDBRANCH  14  15
ENDBRANCH  13  14
ENDBRANCH   1  13
TORSDOF 20
ENDMDL
MODEL 6
REMARK VINA RESULT:    -4.271      1.302      1.614
REMARK INTER + INTRA:         -13.250
REMARK INTER:                  -9.536
REMARK INTRA:                  -3.713
REMARK UNBOUND:                -3.984
REMARK SMILES CCCCCCCCCCCCCCCCCCCCCC(=O)[O-]
REMARK SMILES IDX 12 1 11 2 10 3 9 4 8 5 7 6 6 7 5 8 4 9 3 10 2 11 1 12 13 13
REMARK SMILES IDX 14 14 15 15 16 16 17 17 18 18 19 19 20 20 21 21 22 22 23 23
REMARK SMILES IDX 24 24
REMARK H PARENT
REMARK Flexibility Score: inf
ROOT
ATOM      1  C   UNL     1      62.040  18.607  38.142  1.00  0.00     0.000 C 
ENDROOT
BRANCH   1   2
ATOM      2  C   UNL     1      62.786  19.043  39.412  1.00  0.00     0.000 C 
BRANCH   2   3
ATOM      3  C   UNL     1      63.800  17.978  39.845  1.00  0.00     0.000 C 
BRANCH   3   4
ATOM      4  C   UNL     1      63.130  16.895  40.706  1.00  0.00    -0.000 C 
BRANCH   4   5
ATOM      5  C   UNL     1      62.587  15.725  39.870  1.00  0.00    -0.000 C 
BRANCH   5   6
ATOM      6  C   UNL     1      63.698  14.774  39.394  1.00  0.00    -0.000 C 
BRANCH   6   7
ATOM      7  C   UNL     1      63.390  14.142  38.027  1.00  0.00    -0.000 C 
BRANCH   7   8
ATOM      8  C   UNL     1      63.052  15.187  36.951  1.00  0.00    -0.000 C 
BRANCH   8   9
ATOM      9  C   UNL     1      64.292  15.540  36.121  1.00  0.00    -0.000 C 
BRANCH   9  10
ATOM     10  C   UNL     1      64.303  17.032  35.753  1.00  0.00    -0.000 C 
BRANCH  10  11
ATOM     11  C   UNL     1      65.587  17.743  36.208  1.00  0.00    -0.003 C 
ATOM     12  C   UNL     1      66.201  17.112  37.458  1.00  0.00     0.004 C 
ENDBRANCH  10  11
ENDBRANCH   9  10
ENDBRANCH   8   9
ENDBRANCH   7   8
ENDBRANCH   6   7
ENDBRANCH   5   6
ENDBRANCH   4   5
ENDBRANCH   3   4
ENDBRANCH   2   3
ENDBRANCH   1   2
BRANCH   1  13
ATOM     13  C   UNL     1      60.532  18.893  38.209  1.00  0.00     0.000 C 
BRANCH  13  14
ATOM     14  C   UNL     1      60.064  19.272  39.625  1.00  0.00     0.000 C 
BRANCH  14  15
ATOM     15  C   UNL     1      58.919  18.377  40.135  1.00  0.00     0.000 C 
BRANCH  15  16
ATOM     16  C   UNL     1      59.228  16.867  40.158  1.00  0.00     0.000 C 
BRANCH  16  17
ATOM     17  C   UNL     1      58.486  16.027  39.098  1.00  0.00     0.000 C 
BRANCH  17  18
ATOM     18  C   UNL     1      59.385  15.391  38.023  1.00  0.00     0.000 C 
BRANCH  18  19
ATOM     19  C   UNL     1      59.702  13.913  38.311  1.00  0.00     0.000 C 
BRANCH  19  20
ATOM     20  C   UNL     1      59.471  13.013  37.087  1.00  0.00     0.006 C 
BRANCH  20  21
ATOM     21  C   UNL     1      60.662  12.089  36.799  1.00  0.00     0.053 C 
BRANCH  21  22
ATOM     22  C   UNL     1      60.750  11.013  37.835  1.00  0.00     0.041 C 
ATOM     23  O   UNL     1      61.860  10.720  38.351  1.00  0.00    -0.550 OA
ATOM     24  O   UNL     1      59.599  10.366  38.265  1.00  0.00    -0.550 OA
ENDBRANCH  21  22
ENDBRANCH  20  21
ENDBRANCH  19  20
ENDBRANCH  18  19
ENDBRANCH  17  18
ENDBRANCH  16  17
ENDBRANCH  15  16
ENDBRANCH  14  15
ENDBRANCH  13  14
ENDBRANCH   1  13
TORSDOF 20
ENDMDL
MODEL 7
REMARK VINA RESULT:    -4.241      1.757      4.699
REMARK INTER + INTRA:         -13.184
REMARK INTER:                  -9.182
REMARK INTRA:                  -4.002
REMARK UNBOUND:                -3.984
REMARK SMILES CCCCCCCCCCCCCCCCCCCCCC(=O)[O-]
REMARK SMILES IDX 12 1 11 2 10 3 9 4 8 5 7 6 6 7 5 8 4 9 3 10 2 11 1 12 13 13
REMARK SMILES IDX 14 14 15 15 16 16 17 17 18 18 19 19 20 20 21 21 22 22 23 23
REMARK SMILES IDX 24 24
REMARK H PARENT
REMARK Flexibility Score: inf
ROOT
ATOM      1  C   UNL     1      65.614  17.372  36.404  1.00  0.00     0.000 C 
ENDROOT
BRANCH   1   2
ATOM      2  C   UNL     1      65.009  17.739  37.768  1.00  0.00     0.000 C 
BRANCH   2   3
ATOM      3  C   UNL     1      63.680  18.483  37.596  1.00  0.00     0.000 C 
BRANCH   3   4
ATOM      4  C   UNL     1      63.119  18.932  38.955  1.00  0.00    -0.000 C 
BRANCH   4   5
ATOM      5  C   UNL     1      63.586  18.037  40.114  1.00  0.00    -0.000 C 
BRANCH   5   6
ATOM      6  C   UNL     1      62.433  17.236  40.742  1.00  0.00    -0.000 C 
BRANCH   6   7
ATOM      7  C   UNL     1      61.089  17.480  40.036  1.00  0.00    -0.000 C 
BRANCH   7   8
ATOM      8  C   UNL     1      59.946  16.640  40.626  1.00  0.00    -0.000 C 
BRANCH   8   9
ATOM      9  C   UNL     1      59.055  16.069  39.516  1.00  0.00    -0.000 C 
BRANCH   9  10
ATOM     10  C   UNL     1      59.437  16.654  38.148  1.00  0.00    -0.000 C 
BRANCH  10  11
ATOM     11  C   UNL     1      58.562  16.111  37.008  1.00  0.00    -0.003 C 
ATOM     12  C   UNL     1      58.807  14.627  36.731  1.00  0.00     0.004 C 
ENDBRANCH  10  11
ENDBRANCH   9  10
ENDBRANCH   8   9
ENDBRANCH   7   8
ENDBRANCH   6   7
ENDBRANCH   5   6
ENDBRANCH   4   5
ENDBRANCH   3   4
ENDBRANCH   2   3
ENDBRANCH   1   2
BRANCH   1  13
ATOM     13  C   UNL     1      64.634  16.598  35.509  1.00  0.00     0.000 C 
BRANCH  13  14
ATOM     14  C   UNL     1      64.437  15.143  35.966  1.00  0.00     0.000 C 
BRANCH  14  15
ATOM     15  C   UNL     1      62.963  14.800  36.251  1.00  0.00     0.000 C 
BRANCH  15  16
ATOM     16  C   UNL     1      62.549  14.873  37.735  1.00  0.00     0.000 C 
BRANCH  16  17
ATOM     17  C   UNL     1      63.579  14.308  38.734  1.00  0.00     0.000 C 
BRANCH  17  18
ATOM     18  C   UNL     1      62.981  13.712  40.022  1.00  0.00     0.000 C 
BRANCH  18  19
ATOM     19  C   UNL     1      61.500  13.328  39.868  1.00  0.00     0.000 C 
BRANCH  19  20
ATOM     20  C   UNL     1      61.274  11.810  39.953  1.00  0.00     0.006 C 
BRANCH  20  21
ATOM     21  C   UNL     1      61.651  11.082  38.655  1.00  0.00     0.053 C 
BRANCH  21  22
ATOM     22  C   UNL     1      60.610  11.315  37.606  1.00  0.00     0.041 C 
ATOM     23  O   UNL     1      59.408  11.014  37.828  1.00  0.00    -0.550 OA
ATOM     24  O   UNL     1      60.959  11.909  36.400  1.00  0.00    -0.550 OA
ENDBRANCH  21  22
ENDBRANCH  20  21
ENDBRANCH  19  20
ENDBRANCH  18  19
ENDBRANCH  17  18
ENDBRANCH  16  17
ENDBRANCH  15  16
ENDBRANCH  14  15
ENDBRANCH  13  14
ENDBRANCH   1  13
TORSDOF 20
ENDMDL
MODEL 8
REMARK VINA RESULT:    -4.192      2.060      3.189
REMARK INTER + INTRA:         -13.077
REMARK INTER:                  -9.183
REMARK INTRA:                  -3.894
REMARK UNBOUND:                -3.984
REMARK SMILES CCCCCCCCCCCCCCCCCCCCCC(=O)[O-]
REMARK SMILES IDX 12 1 11 2 10 3 9 4 8 5 7 6 6 7 5 8 4 9 3 10 2 11 1 12 13 13
REMARK SMILES IDX 14 14 15 15 16 16 17 17 18 18 19 19 20 20 21 21 22 22 23 23
REMARK SMILES IDX 24 24
REMARK H PARENT
REMARK Flexibility Score: inf
ROOT
ATOM      1  C   UNL     1      59.772  17.671  38.320  1.00  0.00     0.000 C 
ENDROOT
BRANCH   1   2
ATOM      2  C   UNL     1      60.913  18.670  38.076  1.00  0.00     0.000 C 
BRANCH   2   3
ATOM      3  C   UNL     1      61.516  19.149  39.402  1.00  0.00     0.000 C 
BRANCH   3   4
ATOM      4  C   UNL     1      63.050  19.193  39.327  1.00  0.00    -0.000 C 
BRANCH   4   5
ATOM      5  C   UNL     1      63.718  18.123  40.204  1.00  0.00    -0.000 C 
BRANCH   5   6
ATOM      6  C   UNL     1      62.733  17.033  40.659  1.00  0.00    -0.000 C 
BRANCH   6   7
ATOM      7  C   UNL     1      63.083  15.647  40.096  1.00  0.00    -0.000 C 
BRANCH   7   8
ATOM      8  C   UNL     1      62.723  15.499  38.609  1.00  0.00    -0.000 C 
BRANCH   8   9
ATOM      9  C   UNL     1      63.975  15.237  37.764  1.00  0.00    -0.000 C 
BRANCH   9  10
ATOM     10  C   UNL     1      63.813  15.807  36.346  1.00  0.00    -0.000 C 
BRANCH  10  11
ATOM     11  C   UNL     1      64.056  17.323  36.288  1.00  0.00    -0.003 C 
ATOM     12  C   UNL     1      65.474  17.711  36.710  1.00  0.00     0.004 C 
ENDBRANCH  10  11
ENDBRANCH   9  10
ENDBRANCH   8   9
ENDBRANCH   7   8
ENDBRANCH   6   7
ENDBRANCH   5   6
ENDBRANCH   4   5
ENDBRANCH   3   4
ENDBRANCH   2   3
ENDBRANCH   1   2
BRANCH   1  13
ATOM     13  C   UNL     1      59.049  17.909  39.655  1.00  0.00     0.000 C 
BRANCH  13  14
ATOM     14  C   UNL     1      59.133  16.697  40.598  1.00  0.00     0.000 C 
BRANCH  14  15
ATOM     15  C   UNL     1      59.306  15.365  39.844  1.00  0.00     0.000 C 
BRANCH  15  16
ATOM     16  C   UNL     1      59.202  14.099  40.718  1.00  0.00     0.000 C 
BRANCH  16  17
ATOM     17  C   UNL     1      59.646  12.789  40.034  1.00  0.00     0.000 C 
BRANCH  17  18
ATOM     18  C   UNL     1      61.152  12.482  40.127  1.00  0.00     0.000 C 
BRANCH  18  19
ATOM     19  C   UNL     1      61.707  11.830  38.850  1.00  0.00     0.000 C 
BRANCH  19  20
ATOM     20  C   UNL     1      61.178  12.497  37.571  1.00  0.00     0.006 C 
BRANCH  20  21
ATOM     21  C   UNL     1      60.571  11.489  36.585  1.00  0.00     0.053 C 
BRANCH  21  22
ATOM     22  C   UNL     1      59.086  11.652  36.521  1.00  0.00     0.041 C 
ATOM     23  O   UNL     1      58.574  12.803  36.527  1.00  0.00    -0.550 OA
ATOM     24  O   UNL     1      58.267  10.536  36.407  1.00  0.00    -0.550 OA
ENDBRANCH  21  22
ENDBRANCH  20  21
ENDBRANCH  19  20
ENDBRANCH  18  19
ENDBRANCH  17  18
ENDBRANCH  16  17
ENDBRANCH  15  16
ENDBRANCH  14  15
ENDBRANCH  13  14
ENDBRANCH   1  13
TORSDOF 20
ENDMDL
MODEL 9
REMARK VINA RESULT:    -4.182      2.314      5.400
REMARK INTER + INTRA:         -13.056
REMARK INTER:                  -9.315
REMARK INTRA:                  -3.741
REMARK UNBOUND:                -3.984
REMARK SMILES CCCCCCCCCCCCCCCCCCCCCC(=O)[O-]
REMARK SMILES IDX 12 1 11 2 10 3 9 4 8 5 7 6 6 7 5 8 4 9 3 10 2 11 1 12 13 13
REMARK SMILES IDX 14 14 15 15 16 16 17 17 18 18 19 19 20 20 21 21 22 22 23 23
REMARK SMILES IDX 24 24
REMARK H PARENT
REMARK Flexibility Score: inf
ROOT
ATOM      1  C   UNL     1      64.623  15.415  36.034  1.00  0.00     0.000 C 
ENDROOT
BRANCH   1   2
ATOM      2  C   UNL     1      63.241  14.745  36.031  1.00  0.00     0.000 C 
BRANCH   2   3
ATOM      3  C   UNL     1      62.747  14.500  37.462  1.00  0.00     0.000 C 
BRANCH   3   4
ATOM      4  C   UNL     1      63.927  14.268  38.420  1.00  0.00    -0.000 C 
BRANCH   4   5
ATOM      5  C   UNL     1      63.473  13.899  39.841  1.00  0.00    -0.000 C 
BRANCH   5   6
ATOM      6  C   UNL     1      61.943  13.814  39.969  1.00  0.00    -0.000 C 
BRANCH   6   7
ATOM      7  C   UNL     1      61.464  12.426  40.426  1.00  0.00    -0.000 C 
BRANCH   7   8
ATOM      8  C   UNL     1      62.575  11.366  40.373  1.00  0.00    -0.000 C 
BRANCH   8   9
ATOM      9  C   UNL     1      62.022  10.014  39.906  1.00  0.00    -0.000 C 
BRANCH   9  10
ATOM     10  C   UNL     1      62.170   9.856  38.384  1.00  0.00    -0.000 C 
BRANCH  10  11
ATOM     11  C   UNL     1      60.846  10.074  37.636  1.00  0.00    -0.003 C 
ATOM     12  C   UNL     1      60.856  11.337  36.774  1.00  0.00     0.004 C 
ENDBRANCH  10  11
ENDBRANCH   9  10
ENDBRANCH   8   9
ENDBRANCH   7   8
ENDBRANCH   6   7
ENDBRANCH   5   6
ENDBRANCH   4   5
ENDBRANCH   3   4
ENDBRANCH   2   3
ENDBRANCH   1   2
BRANCH   1  13
ATOM     13  C   UNL     1      64.551  16.931  35.795  1.00  0.00     0.000 C 
BRANCH  13  14
ATOM     14  C   UNL     1      65.032  17.744  37.009  1.00  0.00     0.000 C 
BRANCH  14  15
ATOM     15  C   UNL     1      63.895  18.086  37.988  1.00  0.00     0.000 C 
BRANCH  15  16
ATOM     16  C   UNL     1      64.188  17.771  39.470  1.00  0.00     0.000 C 
BRANCH  16  17
ATOM     17  C   UNL     1      62.947  17.486  40.340  1.00  0.00     0.000 C 
BRANCH  17  18
ATOM     18  C   UNL     1      61.594  17.681  39.631  1.00  0.00     0.000 C 
BRANCH  18  19
ATOM     19  C   UNL     1      60.432  16.991  40.365  1.00  0.00     0.000 C 
BRANCH  19  20
ATOM     20  C   UNL     1      59.289  16.596  39.417  1.00  0.00     0.006 C 
BRANCH  20  21
ATOM     21  C   UNL     1      59.762  16.398  37.970  1.00  0.00     0.053 C 
BRANCH  21  22
ATOM     22  C   UNL     1      59.056  15.235  37.347  1.00  0.00     0.041 C 
ATOM     23  O   UNL     1      59.039  14.118  37.928  1.00  0.00    -0.550 OA
ATOM     24  O   UNL     1      58.376  15.396  36.147  1.00  0.00    -0.550 OA
ENDBRANCH  21  22
ENDBRANCH  20  21
ENDBRANCH  19  20
ENDBRANCH  18  19
ENDBRANCH  17  18
ENDBRANCH  16  17
ENDBRANCH  15  16
ENDBRANCH  14  15
ENDBRANCH  13  14
ENDBRANCH   1  13
TORSDOF 20
ENDMDL
