MODEL 1
REMARK VINA RESULT:    -6.846      0.000      0.000
REMARK INTER + INTRA:          -7.507
REMARK INTER:                  -7.446
REMARK INTRA:                  -0.061
REMARK UNBOUND:                -0.061
REMARK SMILES COc1cc2ccc(=O)oc2cc1O
REMARK SMILES IDX 3 1 13 2 12 3 11 4 5 5 4 6 6 7 7 8 8 9 9 10 10 11 2 12 1 13
REMARK SMILES IDX 14 14
REMARK H PARENT 14 15
REMARK Flexibility Score: inf
ROOT
ATOM      1  C   UNL     1      -2.534  44.858   2.490  1.00  0.00     0.161 A 
ATOM      2  C   UNL     1      -3.651  45.121   1.680  1.00  0.00     0.161 A 
ATOM      3  C   UNL     1      -3.508  45.222   0.288  1.00  0.00     0.098 A 
ATOM      4  C   UNL     1      -2.254  45.061  -0.304  1.00  0.00     0.142 A 
ATOM      5  C   UNL     1      -1.127  44.796   0.501  1.00  0.00     0.022 A 
ATOM      6  C   UNL     1      -1.267  44.696   1.892  1.00  0.00     0.062 A 
ATOM      7  C   UNL     1       0.116  44.641  -0.122  1.00  0.00     0.019 A 
ATOM      8  C   UNL     1       0.204  44.751  -1.509  1.00  0.00     0.094 A 
ATOM      9  C   UNL     1      -0.956  45.014  -2.243  1.00  0.00     0.336 A 
ATOM     10  O   UNL     1      -0.898  45.117  -3.497  1.00  0.00    -0.246 OA
ATOM     11  O   UNL     1      -2.126  45.158  -1.626  1.00  0.00    -0.423 OA
ENDROOT
BRANCH   1  12
ATOM     12  O   UNL     1      -2.723  44.766   3.877  1.00  0.00    -0.493 OA
ATOM     13  C   UNL     1      -2.126  45.637   4.833  1.00  0.00     0.278 C 
ENDBRANCH   1  12
BRANCH   2  14
ATOM     14  O   UNL     1      -4.904  45.282   2.270  1.00  0.00    -0.504 OA
ATOM     15  H   UNL     1      -5.511  46.054   2.023  1.00  0.00     0.293 HD
ENDBRANCH   2  14
TORSDOF 2
ENDMDL
MODEL 2
REMARK VINA RESULT:    -6.808      1.174      5.019
REMARK INTER + INTRA:          -7.466
REMARK INTER:                  -7.407
REMARK INTRA:                  -0.059
REMARK UNBOUND:                -0.061
REMARK SMILES COc1cc2ccc(=O)oc2cc1O
REMARK SMILES IDX 3 1 13 2 12 3 11 4 5 5 4 6 6 7 7 8 8 9 9 10 10 11 2 12 1 13
REMARK SMILES IDX 14 14
REMARK H PARENT 14 15
REMARK Flexibility Score: inf
ROOT
ATOM      1  C   UNL     1      -1.615  45.104  -0.193  1.00  0.00     0.161 A 
ATOM      2  C   UNL     1      -2.906  44.553  -0.234  1.00  0.00     0.161 A 
ATOM      3  C   UNL     1      -3.648  44.397   0.946  1.00  0.00     0.098 A 
ATOM      4  C   UNL     1      -3.108  44.789   2.173  1.00  0.00     0.142 A 
ATOM      5  C   UNL     1      -1.812  45.344   2.224  1.00  0.00     0.022 A 
ATOM      6  C   UNL     1      -1.070  45.499   1.045  1.00  0.00     0.062 A 
ATOM      7  C   UNL     1      -1.300  45.726   3.468  1.00  0.00     0.019 A 
ATOM      8  C   UNL     1      -2.078  45.550   4.612  1.00  0.00     0.094 A 
ATOM      9  C   UNL     1      -3.354  44.993   4.485  1.00  0.00     0.336 A 
ATOM     10  O   UNL     1      -4.072  44.826   5.505  1.00  0.00    -0.246 OA
ATOM     11  O   UNL     1      -3.818  44.638   3.289  1.00  0.00    -0.423 OA
ENDROOT
BRANCH   1  12
ATOM     12  O   UNL     1      -0.910  45.241  -1.398  1.00  0.00    -0.493 OA
ATOM     13  C   UNL     1       0.359  44.651  -1.662  1.00  0.00     0.278 C 
ENDBRANCH   1  12
BRANCH   2  14
ATOM     14  O   UNL     1      -3.447  44.161  -1.459  1.00  0.00    -0.504 OA
ATOM     15  H   UNL     1      -4.365  43.736  -1.522  1.00  0.00     0.293 HD
ENDBRANCH   2  14
TORSDOF 2
ENDMDL
MODEL 3
REMARK VINA RESULT:    -6.419      2.394      3.599
REMARK INTER + INTRA:          -7.043
REMARK INTER:                  -6.993
REMARK INTRA:                  -0.050
REMARK UNBOUND:                -0.061
REMARK SMILES COc1cc2ccc(=O)oc2cc1O
REMARK SMILES IDX 3 1 13 2 12 3 11 4 5 5 4 6 6 7 7 8 8 9 9 10 10 11 2 12 1 13
REMARK SMILES IDX 14 14
REMARK H PARENT 14 15
REMARK Flexibility Score: inf
ROOT
ATOM      1  C   UNL     1      -0.562  45.922   3.405  1.00  0.00     0.161 A 
ATOM      2  C   UNL     1      -1.630  45.533   4.231  1.00  0.00     0.161 A 
ATOM      3  C   UNL     1      -2.831  45.078   3.669  1.00  0.00     0.098 A 
ATOM      4  C   UNL     1      -2.976  45.008   2.281  1.00  0.00     0.142 A 
ATOM      5  C   UNL     1      -1.910  45.396   1.444  1.00  0.00     0.022 A 
ATOM      6  C   UNL     1      -0.709  45.851   2.004  1.00  0.00     0.062 A 
ATOM      7  C   UNL     1      -2.087  45.314   0.058  1.00  0.00     0.019 A 
ATOM      8  C   UNL     1      -3.300  44.855  -0.451  1.00  0.00     0.094 A 
ATOM      9  C   UNL     1      -4.313  44.487   0.440  1.00  0.00     0.336 A 
ATOM     10  O   UNL     1      -5.417  44.070   0.001  1.00  0.00    -0.246 OA
ATOM     11  O   UNL     1      -4.119  44.574   1.754  1.00  0.00    -0.423 OA
ENDROOT
BRANCH   1  12
ATOM     12  O   UNL     1       0.621  46.371   4.011  1.00  0.00    -0.493 OA
ATOM     13  C   UNL     1       1.932  46.074   3.540  1.00  0.00     0.278 C 
ENDBRANCH   1  12
BRANCH   2  14
ATOM     14  O   UNL     1      -1.486  45.603   5.616  1.00  0.00    -0.504 OA
ATOM     15  H   UNL     1      -0.943  46.335   6.058  1.00  0.00     0.293 HD
ENDBRANCH   2  14
TORSDOF 2
ENDMDL
MODEL 4
REMARK VINA RESULT:    -6.386      2.014      4.338
REMARK INTER + INTRA:          -7.007
REMARK INTER:                  -6.958
REMARK INTRA:                  -0.048
REMARK UNBOUND:                -0.061
REMARK SMILES COc1cc2ccc(=O)oc2cc1O
REMARK SMILES IDX 3 1 13 2 12 3 11 4 5 5 4 6 6 7 7 8 8 9 9 10 10 11 2 12 1 13
REMARK SMILES IDX 14 14
REMARK H PARENT 14 15
REMARK Flexibility Score: inf
ROOT
ATOM      1  C   UNL     1       0.790  44.763   0.481  1.00  0.00     0.161 A 
ATOM      2  C   UNL     1       0.399  44.862  -0.864  1.00  0.00     0.161 A 
ATOM      3  C   UNL     1      -0.959  44.958  -1.202  1.00  0.00     0.098 A 
ATOM      4  C   UNL     1      -1.934  44.957  -0.201  1.00  0.00     0.142 A 
ATOM      5  C   UNL     1      -1.551  44.859   1.152  1.00  0.00     0.022 A 
ATOM      6  C   UNL     1      -0.194  44.761   1.490  1.00  0.00     0.062 A 
ATOM      7  C   UNL     1      -2.551  44.860   2.130  1.00  0.00     0.019 A 
ATOM      8  C   UNL     1      -3.887  44.958   1.743  1.00  0.00     0.094 A 
ATOM      9  C   UNL     1      -4.192  45.053   0.382  1.00  0.00     0.336 A 
ATOM     10  O   UNL     1      -5.392  45.142   0.011  1.00  0.00    -0.246 OA
ATOM     11  O   UNL     1      -3.221  45.050  -0.529  1.00  0.00    -0.423 OA
ENDROOT
BRANCH   1  12
ATOM     12  O   UNL     1       2.160  44.668   0.772  1.00  0.00    -0.493 OA
ATOM     13  C   UNL     1       2.775  45.199   1.942  1.00  0.00     0.278 C 
ENDBRANCH   1  12
BRANCH   2  14
ATOM     14  O   UNL     1       1.371  44.863  -1.864  1.00  0.00    -0.504 OA
ATOM     15  H   UNL     1       1.196  45.275  -2.773  1.00  0.00     0.293 HD
ENDBRANCH   2  14
TORSDOF 2
ENDMDL
MODEL 5
REMARK VINA RESULT:    -6.335      2.055      3.185
REMARK INTER + INTRA:          -6.952
REMARK INTER:                  -6.903
REMARK INTRA:                  -0.049
REMARK UNBOUND:                -0.061
REMARK SMILES COc1cc2ccc(=O)oc2cc1O
REMARK SMILES IDX 3 1 13 2 12 3 11 4 5 5 4 6 6 7 7 8 8 9 9 10 10 11 2 12 1 13
REMARK SMILES IDX 14 14
REMARK H PARENT 14 15
REMARK Flexibility Score: inf
ROOT
ATOM      1  C   UNL     1      -3.831  45.016   1.002  1.00  0.00     0.161 A 
ATOM      2  C   UNL     1      -3.289  44.922   2.294  1.00  0.00     0.161 A 
ATOM      3  C   UNL     1      -1.903  44.807   2.475  1.00  0.00     0.098 A 
ATOM      4  C   UNL     1      -1.049  44.786   1.370  1.00  0.00     0.142 A 
ATOM      5  C   UNL     1      -1.584  44.881   0.068  1.00  0.00     0.022 A 
ATOM      6  C   UNL     1      -2.969  44.995  -0.113  1.00  0.00     0.062 A 
ATOM      7  C   UNL     1      -0.702  44.856  -1.018  1.00  0.00     0.019 A 
ATOM      8  C   UNL     1       0.667  44.740  -0.785  1.00  0.00     0.094 A 
ATOM      9  C   UNL     1       1.126  44.651   0.533  1.00  0.00     0.336 A 
ATOM     10  O   UNL     1       2.359  44.546   0.764  1.00  0.00    -0.246 OA
ATOM     11  O   UNL     1       0.266  44.677   1.549  1.00  0.00    -0.423 OA
ENDROOT
BRANCH   1  12
ATOM     12  O   UNL     1      -5.223  45.130   0.869  1.00  0.00    -0.493 OA
ATOM     13  C   UNL     1      -5.978  44.581  -0.207  1.00  0.00     0.278 C 
ENDBRANCH   1  12
BRANCH   2  14
ATOM     14  O   UNL     1      -4.140  44.943   3.399  1.00  0.00    -0.504 OA
ATOM     15  H   UNL     1      -4.771  44.175   3.597  1.00  0.00     0.293 HD
ENDBRANCH   2  14
TORSDOF 2
ENDMDL
MODEL 6
REMARK VINA RESULT:    -6.307      1.821      5.288
REMARK INTER + INTRA:          -6.921
REMARK INTER:                  -6.866
REMARK INTRA:                  -0.055
REMARK UNBOUND:                -0.061
REMARK SMILES COc1cc2ccc(=O)oc2cc1O
REMARK SMILES IDX 3 1 13 2 12 3 11 4 5 5 4 6 6 7 7 8 8 9 9 10 10 11 2 12 1 13
REMARK SMILES IDX 14 14
REMARK H PARENT 14 15
REMARK Flexibility Score: inf
ROOT
ATOM      1  C   UNL     1       0.356  44.791  -0.921  1.00  0.00     0.161 A 
ATOM      2  C   UNL     1       0.878  44.478   0.345  1.00  0.00     0.161 A 
ATOM      3  C   UNL     1       0.032  44.403   1.461  1.00  0.00     0.098 A 
ATOM      4  C   UNL     1      -1.338  44.639   1.322  1.00  0.00     0.142 A 
ATOM      5  C   UNL     1      -1.871  44.953   0.055  1.00  0.00     0.022 A 
ATOM      6  C   UNL     1      -1.026  45.029  -1.061  1.00  0.00     0.062 A 
ATOM      7  C   UNL     1      -3.247  45.184  -0.051  1.00  0.00     0.019 A 
ATOM      8  C   UNL     1      -4.045  45.097   1.089  1.00  0.00     0.094 A 
ATOM      9  C   UNL     1      -3.447  44.781   2.312  1.00  0.00     0.336 A 
ATOM     10  O   UNL     1      -4.150  44.697   3.354  1.00  0.00    -0.246 OA
ATOM     11  O   UNL     1      -2.135  44.565   2.386  1.00  0.00    -0.423 OA
ENDROOT
BRANCH   1  12
ATOM     12  O   UNL     1       1.240  44.855  -2.009  1.00  0.00    -0.493 OA
ATOM     13  C   UNL     1       1.054  44.166  -3.241  1.00  0.00     0.278 C 
ENDBRANCH   1  12
BRANCH   2  14
ATOM     14  O   UNL     1       2.245  44.242   0.485  1.00  0.00    -0.504 OA
ATOM     15  H   UNL     1       2.601  43.564   1.148  1.00  0.00     0.293 HD
ENDBRANCH   2  14
TORSDOF 2
ENDMDL
MODEL 7
REMARK VINA RESULT:    -6.273      1.904      4.643
REMARK INTER + INTRA:          -6.884
REMARK INTER:                  -6.836
REMARK INTRA:                  -0.048
REMARK UNBOUND:                -0.061
REMARK SMILES COc1cc2ccc(=O)oc2cc1O
REMARK SMILES IDX 3 1 13 2 12 3 11 4 5 5 4 6 6 7 7 8 8 9 9 10 10 11 2 12 1 13
REMARK SMILES IDX 14 14
REMARK H PARENT 14 15
REMARK Flexibility Score: inf
ROOT
ATOM      1  C   UNL     1      -3.596  44.492   0.036  1.00  0.00     0.161 A 
ATOM      2  C   UNL     1      -2.412  44.855  -0.626  1.00  0.00     0.161 A 
ATOM      3  C   UNL     1      -1.308  45.321   0.102  1.00  0.00     0.098 A 
ATOM      4  C   UNL     1      -1.377  45.428   1.493  1.00  0.00     0.142 A 
ATOM      5  C   UNL     1      -2.562  45.066   2.167  1.00  0.00     0.022 A 
ATOM      6  C   UNL     1      -3.666  44.601   1.440  1.00  0.00     0.062 A 
ATOM      7  C   UNL     1      -2.599  45.186   3.560  1.00  0.00     0.019 A 
ATOM      8  C   UNL     1      -1.475  45.655   4.237  1.00  0.00     0.094 A 
ATOM      9  C   UNL     1      -0.335  45.995   3.503  1.00  0.00     0.336 A 
ATOM     10  O   UNL     1       0.692  46.420   4.096  1.00  0.00    -0.246 OA
ATOM     11  O   UNL     1      -0.325  45.871   2.178  1.00  0.00    -0.423 OA
ENDROOT
BRANCH   1  12
ATOM     12  O   UNL     1      -4.676  44.031  -0.732  1.00  0.00    -0.493 OA
ATOM     13  C   UNL     1      -6.046  44.182  -0.372  1.00  0.00     0.278 C 
ENDBRANCH   1  12
BRANCH   2  14
ATOM     14  O   UNL     1      -2.341  44.748  -2.014  1.00  0.00    -0.504 OA
ATOM     15  H   UNL     1      -1.503  44.420  -2.479  1.00  0.00     0.293 HD
ENDBRANCH   2  14
TORSDOF 2
ENDMDL
MODEL 8
REMARK VINA RESULT:    -6.261      1.868      3.109
REMARK INTER + INTRA:          -6.871
REMARK INTER:                  -6.822
REMARK INTRA:                  -0.050
REMARK UNBOUND:                -0.061
REMARK SMILES COc1cc2ccc(=O)oc2cc1O
REMARK SMILES IDX 3 1 13 2 12 3 11 4 5 5 4 6 6 7 7 8 8 9 9 10 10 11 2 12 1 13
REMARK SMILES IDX 14 14
REMARK H PARENT 14 15
REMARK Flexibility Score: inf
ROOT
ATOM      1  C   UNL     1      -1.648  45.665   4.218  1.00  0.00     0.161 A 
ATOM      2  C   UNL     1      -0.494  46.107   3.551  1.00  0.00     0.161 A 
ATOM      3  C   UNL     1      -0.414  46.037   2.153  1.00  0.00     0.098 A 
ATOM      4  C   UNL     1      -1.482  45.526   1.411  1.00  0.00     0.142 A 
ATOM      5  C   UNL     1      -2.645  45.080   2.073  1.00  0.00     0.022 A 
ATOM      6  C   UNL     1      -2.726  45.149   3.470  1.00  0.00     0.062 A 
ATOM      7  C   UNL     1      -3.696  44.573   1.302  1.00  0.00     0.019 A 
ATOM      8  C   UNL     1      -3.567  44.525  -0.085  1.00  0.00     0.094 A 
ATOM      9  C   UNL     1      -2.384  44.985  -0.672  1.00  0.00     0.336 A 
ATOM     10  O   UNL     1      -2.247  44.950  -1.923  1.00  0.00    -0.246 OA
ATOM     11  O   UNL     1      -1.398  45.463   0.084  1.00  0.00    -0.423 OA
ENDROOT
BRANCH   1  12
ATOM     12  O   UNL     1      -1.685  45.754   5.618  1.00  0.00    -0.493 OA
ATOM     13  C   UNL     1      -2.843  46.092   6.375  1.00  0.00     0.278 C 
ENDBRANCH   1  12
BRANCH   2  14
ATOM     14  O   UNL     1       0.573  46.617   4.290  1.00  0.00    -0.504 OA
ATOM     15  H   UNL     1       1.484  46.175   4.281  1.00  0.00     0.293 HD
ENDBRANCH   2  14
TORSDOF 2
ENDMDL
MODEL 9
REMARK VINA RESULT:    -6.125      2.257      6.196
REMARK INTER + INTRA:          -6.723
REMARK INTER:                  -6.663
REMARK INTRA:                  -0.060
REMARK UNBOUND:                -0.061
REMARK SMILES COc1cc2ccc(=O)oc2cc1O
REMARK SMILES IDX 3 1 13 2 12 3 11 4 5 5 4 6 6 7 7 8 8 9 9 10 10 11 2 12 1 13
REMARK SMILES IDX 14 14
REMARK H PARENT 14 15
REMARK Flexibility Score: inf
ROOT
ATOM      1  C   UNL     1      -1.082  45.019   1.972  1.00  0.00     0.161 A 
ATOM      2  C   UNL     1      -0.127  45.624   2.806  1.00  0.00     0.161 A 
ATOM      3  C   UNL     1      -0.456  45.973   4.124  1.00  0.00     0.098 A 
ATOM      4  C   UNL     1      -1.738  45.722   4.619  1.00  0.00     0.142 A 
ATOM      5  C   UNL     1      -2.704  45.115   3.789  1.00  0.00     0.022 A 
ATOM      6  C   UNL     1      -2.376  44.766   2.472  1.00  0.00     0.062 A 
ATOM      7  C   UNL     1      -3.979  44.878   4.314  1.00  0.00     0.019 A 
ATOM      8  C   UNL     1      -4.255  45.244   5.631  1.00  0.00     0.094 A 
ATOM      9  C   UNL     1      -3.248  45.841   6.394  1.00  0.00     0.336 A 
ATOM     10  O   UNL     1      -3.478  46.179   7.585  1.00  0.00    -0.246 OA
ATOM     11  O   UNL     1      -2.043  46.056   5.871  1.00  0.00    -0.423 OA
ENDROOT
BRANCH   1  12
ATOM     12  O   UNL     1      -0.709  44.687   0.661  1.00  0.00    -0.493 OA
ATOM     13  C   UNL     1      -1.319  45.220  -0.511  1.00  0.00     0.278 C 
ENDBRANCH   1  12
BRANCH   2  14
ATOM     14  O   UNL     1       1.154  45.874   2.314  1.00  0.00    -0.504 OA
ATOM     15  H   UNL     1       1.940  46.026   2.934  1.00  0.00     0.293 HD
ENDBRANCH   2  14
TORSDOF 2
ENDMDL
