MODEL 1
REMARK VINA RESULT:    -3.994      0.000      0.000
REMARK INTER + INTRA:          -5.748
REMARK INTER:                  -5.162
REMARK INTRA:                  -0.586
REMARK UNBOUND:                -0.586
REMARK SMILES CO[C@@]1(CO)O[C@H](CO)[C@@H](O)[C@@H]1O
REMARK SMILES IDX 3 1 12 2 10 3 7 4 6 5 2 6 1 7 4 8 5 9 13 11 11 13 8 15 9 16
REMARK H PARENT 5 10 13 12 11 14 9 17
REMARK Flexibility Score: inf
ROOT
ATOM      1  C   UNL     1      22.338  26.918  32.950  1.00  0.00     0.221 C 
ATOM      2  C   UNL     1      20.994  27.620  33.265  1.00  0.00     0.207 C 
ATOM      3  C   UNL     1      19.974  26.708  32.644  1.00  0.00     0.180 C 
ATOM      4  C   UNL     1      20.659  25.355  32.756  1.00  0.00     0.179 C 
ATOM      5  O   UNL     1      22.056  25.546  32.729  1.00  0.00    -0.337 OA
ENDROOT
BRANCH   1   6
ATOM      6  O   UNL     1      23.224  26.980  34.066  1.00  0.00    -0.349 OA
ATOM      7  C   UNL     1      22.584  27.329  35.280  1.00  0.00     0.198 C 
ENDBRANCH   1   6
BRANCH   1   8
ATOM      8  C   UNL     1      22.996  27.441  31.644  1.00  0.00     0.224 C 
BRANCH   8   9
ATOM      9  O   UNL     1      23.719  28.612  31.912  1.00  0.00    -0.391 OA
ATOM     10  H   UNL     1      23.044  29.327  32.046  1.00  0.00     0.210 HD
ENDBRANCH   8   9
ENDBRANCH   1   8
BRANCH   2  11
ATOM     11  O   UNL     1      20.913  28.914  32.722  1.00  0.00    -0.385 OA
ATOM     12  H   UNL     1      21.336  29.524  33.381  1.00  0.00     0.211 HD
ENDBRANCH   2  11
BRANCH   3  13
ATOM     13  O   UNL     1      18.772  26.742  33.369  1.00  0.00    -0.387 OA
ATOM     14  H   UNL     1      18.828  26.011  34.038  1.00  0.00     0.211 HD
ENDBRANCH   3  13
BRANCH   4  15
ATOM     15  C   UNL     1      20.240  24.390  31.641  1.00  0.00     0.191 C 
BRANCH  15  16
ATOM     16  O   UNL     1      18.877  24.080  31.749  1.00  0.00    -0.394 OA
ATOM     17  H   UNL     1      18.655  24.149  32.714  1.00  0.00     0.210 HD
ENDBRANCH  15  16
ENDBRANCH   4  15
TORSDOF 7
ENDMDL
MODEL 2
REMARK VINA RESULT:    -3.994      1.571      3.654
REMARK INTER + INTRA:          -5.748
REMARK INTER:                  -5.362
REMARK INTRA:                  -0.385
REMARK UNBOUND:                -0.586
REMARK SMILES CO[C@@]1(CO)O[C@H](CO)[C@@H](O)[C@@H]1O
REMARK SMILES IDX 3 1 12 2 10 3 7 4 6 5 2 6 1 7 4 8 5 9 13 11 11 13 8 15 9 16
REMARK H PARENT 5 10 13 12 11 14 9 17
REMARK Flexibility Score: inf
ROOT
ATOM      1  C   UNL     1      22.053  26.897  33.351  1.00  0.00     0.221 C 
ATOM      2  C   UNL     1      20.714  27.674  33.294  1.00  0.00     0.207 C 
ATOM      3  C   UNL     1      21.038  28.858  32.428  1.00  0.00     0.180 C 
ATOM      4  C   UNL     1      22.120  28.293  31.521  1.00  0.00     0.179 C 
ATOM      5  O   UNL     1      22.807  27.273  32.211  1.00  0.00    -0.337 OA
ENDROOT
BRANCH   1   6
ATOM      6  O   UNL     1      21.836  25.491  33.254  1.00  0.00    -0.349 OA
ATOM      7  C   UNL     1      20.601  25.147  32.654  1.00  0.00     0.198 C 
ENDBRANCH   1   6
BRANCH   1   8
ATOM      8  C   UNL     1      22.915  27.278  34.585  1.00  0.00     0.224 C 
BRANCH   8   9
ATOM      9  O   UNL     1      22.317  26.786  35.754  1.00  0.00    -0.391 OA
ATOM     10  H   UNL     1      22.681  25.872  35.886  1.00  0.00     0.210 HD
ENDBRANCH   8   9
ENDBRANCH   1   8
BRANCH   2  11
ATOM     11  O   UNL     1      20.264  28.081  34.561  1.00  0.00    -0.385 OA
ATOM     12  H   UNL     1      21.022  28.555  34.992  1.00  0.00     0.211 HD
ENDBRANCH   2  11
BRANCH   3  13
ATOM     13  O   UNL     1      19.909  29.263  31.698  1.00  0.00    -0.387 OA
ATOM     14  H   UNL     1      20.239  29.869  30.985  1.00  0.00     0.211 HD
ENDBRANCH   3  13
BRANCH   4  15
ATOM     15  C   UNL     1      23.110  29.363  31.047  1.00  0.00     0.191 C 
BRANCH  15  16
ATOM     16  O   UNL     1      24.416  28.854  31.040  1.00  0.00    -0.394 OA
ATOM     17  H   UNL     1      24.949  29.457  31.621  1.00  0.00     0.210 HD
ENDBRANCH  15  16
ENDBRANCH   4  15
TORSDOF 7
ENDMDL
MODEL 3
REMARK VINA RESULT:    -3.880      1.348      4.013
REMARK INTER + INTRA:          -5.601
REMARK INTER:                  -5.208
REMARK INTRA:                  -0.393
REMARK UNBOUND:                -0.586
REMARK SMILES CO[C@@]1(CO)O[C@H](CO)[C@@H](O)[C@@H]1O
REMARK SMILES IDX 3 1 12 2 10 3 7 4 6 5 2 6 1 7 4 8 5 9 13 11 11 13 8 15 9 16
REMARK H PARENT 5 10 13 12 11 14 9 17
REMARK Flexibility Score: inf
ROOT
ATOM      1  C   UNL     1      20.631  26.123  32.185  1.00  0.00     0.221 C 
ATOM      2  C   UNL     1      21.506  26.922  31.187  1.00  0.00     0.207 C 
ATOM      3  C   UNL     1      22.510  27.601  32.075  1.00  0.00     0.180 C 
ATOM      4  C   UNL     1      22.626  26.612  33.225  1.00  0.00     0.179 C 
ATOM      5  O   UNL     1      21.405  25.917  33.354  1.00  0.00    -0.337 OA
ENDROOT
BRANCH   1   6
ATOM      6  O   UNL     1      20.314  24.832  31.670  1.00  0.00    -0.349 OA
ATOM      7  C   UNL     1      18.943  24.665  31.357  1.00  0.00     0.198 C 
ENDBRANCH   1   6
BRANCH   1   8
ATOM      8  C   UNL     1      19.368  26.906  32.635  1.00  0.00     0.224 C 
BRANCH   8   9
ATOM      9  O   UNL     1      19.492  27.277  33.981  1.00  0.00    -0.391 OA
ATOM     10  H   UNL     1      18.932  28.089  34.096  1.00  0.00     0.210 HD
ENDBRANCH   8   9
ENDBRANCH   1   8
BRANCH   2  11
ATOM     11  O   UNL     1      20.770  27.861  30.445  1.00  0.00    -0.385 OA
ATOM     12  H   UNL     1      20.182  27.343  29.836  1.00  0.00     0.211 HD
ENDBRANCH   2  11
BRANCH   3  13
ATOM     13  O   UNL     1      23.734  27.763  31.406  1.00  0.00    -0.387 OA
ATOM     14  H   UNL     1      23.627  27.332  30.518  1.00  0.00     0.211 HD
ENDBRANCH   3  13
BRANCH   4  15
ATOM     15  C   UNL     1      22.985  27.292  34.551  1.00  0.00     0.191 C 
BRANCH  15  16
ATOM     16  O   UNL     1      22.100  26.890  35.562  1.00  0.00    -0.394 OA
ATOM     17  H   UNL     1      22.429  27.311  36.399  1.00  0.00     0.210 HD
ENDBRANCH  15  16
ENDBRANCH   4  15
TORSDOF 7
ENDMDL
MODEL 4
REMARK VINA RESULT:    -3.738     15.001     16.790
REMARK INTER + INTRA:          -5.417
REMARK INTER:                  -4.892
REMARK INTRA:                  -0.525
REMARK UNBOUND:                -0.586
REMARK SMILES CO[C@@]1(CO)O[C@H](CO)[C@@H](O)[C@@H]1O
REMARK SMILES IDX 3 1 12 2 10 3 7 4 6 5 2 6 1 7 4 8 5 9 13 11 11 13 8 15 9 16
REMARK H PARENT 5 10 13 12 11 14 9 17
REMARK Flexibility Score: inf
ROOT
ATOM      1  C   UNL     1      23.789  22.574  48.806  1.00  0.00     0.221 C 
ATOM      2  C   UNL     1      22.934  23.340  47.766  1.00  0.00     0.207 C 
ATOM      3  C   UNL     1      23.285  24.779  48.023  1.00  0.00     0.180 C 
ATOM      4  C   UNL     1      24.715  24.664  48.528  1.00  0.00     0.179 C 
ATOM      5  O   UNL     1      24.879  23.411  49.155  1.00  0.00    -0.337 OA
ENDROOT
BRANCH   1   6
ATOM      6  O   UNL     1      24.347  21.390  48.239  1.00  0.00    -0.349 OA
ATOM      7  C   UNL     1      25.688  21.152  48.626  1.00  0.00     0.198 C 
ENDBRANCH   1   6
BRANCH   1   8
ATOM      8  C   UNL     1      23.020  22.292  50.125  1.00  0.00     0.224 C 
BRANCH   8   9
ATOM      9  O   UNL     1      22.142  21.214  49.942  1.00  0.00    -0.391 OA
ATOM     10  H   UNL     1      22.059  20.773  50.827  1.00  0.00     0.210 HD
ENDBRANCH   8   9
ENDBRANCH   1   8
BRANCH   2  11
ATOM     11  O   UNL     1      21.555  23.119  47.924  1.00  0.00    -0.385 OA
ATOM     12  H   UNL     1      21.102  23.966  47.673  1.00  0.00     0.211 HD
ENDBRANCH   2  11
BRANCH   3  13
ATOM     13  O   UNL     1      23.212  25.526  46.836  1.00  0.00    -0.387 OA
ATOM     14  H   UNL     1      22.435  26.135  46.936  1.00  0.00     0.211 HD
ENDBRANCH   3  13
BRANCH   4  15
ATOM     15  C   UNL     1      25.088  25.789  49.499  1.00  0.00     0.191 C 
BRANCH  15  16
ATOM     16  O   UNL     1      25.064  27.029  48.844  1.00  0.00    -0.394 OA
ATOM     17  H   UNL     1      24.358  27.563  49.293  1.00  0.00     0.210 HD
ENDBRANCH  15  16
ENDBRANCH   4  15
TORSDOF 7
ENDMDL
MODEL 5
REMARK VINA RESULT:    -3.725     15.465     17.084
REMARK INTER + INTRA:          -5.400
REMARK INTER:                  -4.831
REMARK INTRA:                  -0.569
REMARK UNBOUND:                -0.586
REMARK SMILES CO[C@@]1(CO)O[C@H](CO)[C@@H](O)[C@@H]1O
REMARK SMILES IDX 3 1 12 2 10 3 7 4 6 5 2 6 1 7 4 8 5 9 13 11 11 13 8 15 9 16
REMARK H PARENT 5 10 13 12 11 14 9 17
REMARK Flexibility Score: inf
ROOT
ATOM      1  C   UNL     1      24.157  23.786  49.033  1.00  0.00     0.221 C 
ATOM      2  C   UNL     1      24.273  22.575  48.074  1.00  0.00     0.207 C 
ATOM      3  C   UNL     1      25.703  22.141  48.237  1.00  0.00     0.180 C 
ATOM      4  C   UNL     1      25.987  22.546  49.676  1.00  0.00     0.179 C 
ATOM      5  O   UNL     1      25.177  23.652  50.008  1.00  0.00    -0.337 OA
ENDROOT
BRANCH   1   6
ATOM      6  O   UNL     1      22.915  23.767  49.734  1.00  0.00    -0.349 OA
ATOM      7  C   UNL     1      22.278  22.503  49.729  1.00  0.00     0.198 C 
ENDBRANCH   1   6
BRANCH   1   8
ATOM      8  C   UNL     1      24.413  25.142  48.321  1.00  0.00     0.224 C 
BRANCH   8   9
ATOM      9  O   UNL     1      23.352  25.431  47.452  1.00  0.00    -0.391 OA
ATOM     10  H   UNL     1      23.302  26.421  47.398  1.00  0.00     0.210 HD
ENDBRANCH   8   9
ENDBRANCH   1   8
BRANCH   2  11
ATOM     11  O   UNL     1      23.995  22.908  46.737  1.00  0.00    -0.385 OA
ATOM     12  H   UNL     1      23.033  23.148  46.700  1.00  0.00     0.211 HD
ENDBRANCH   2  11
BRANCH   3  13
ATOM     13  O   UNL     1      25.824  20.755  48.055  1.00  0.00    -0.387 OA
ATOM     14  H   UNL     1      26.589  20.619  47.437  1.00  0.00     0.211 HD
ENDBRANCH   3  13
BRANCH   4  15
ATOM     15  C   UNL     1      27.463  22.888  49.910  1.00  0.00     0.191 C 
BRANCH  15  16
ATOM     16  O   UNL     1      28.221  22.593  48.767  1.00  0.00    -0.394 OA
ATOM     17  H   UNL     1      27.569  22.476  48.028  1.00  0.00     0.210 HD
ENDBRANCH  15  16
ENDBRANCH   4  15
TORSDOF 7
ENDMDL
MODEL 6
REMARK VINA RESULT:    -3.722      1.721      4.370
REMARK INTER + INTRA:          -5.396
REMARK INTER:                  -4.800
REMARK INTRA:                  -0.596
REMARK UNBOUND:                -0.586
REMARK SMILES CO[C@@]1(CO)O[C@H](CO)[C@@H](O)[C@@H]1O
REMARK SMILES IDX 3 1 12 2 10 3 7 4 6 5 2 6 1 7 4 8 5 9 13 11 11 13 8 15 9 16
REMARK H PARENT 5 10 13 12 11 14 9 17
REMARK Flexibility Score: inf
ROOT
ATOM      1  C   UNL     1      19.762  25.818  31.133  1.00  0.00     0.221 C 
ATOM      2  C   UNL     1      19.513  26.037  32.647  1.00  0.00     0.207 C 
ATOM      3  C   UNL     1      20.799  26.653  33.122  1.00  0.00     0.180 C 
ATOM      4  C   UNL     1      21.267  27.394  31.878  1.00  0.00     0.179 C 
ATOM      5  O   UNL     1      20.779  26.723  30.737  1.00  0.00    -0.337 OA
ENDROOT
BRANCH   1   6
ATOM      6  O   UNL     1      18.603  26.144  30.371  1.00  0.00    -0.349 OA
ATOM      7  C   UNL     1      17.713  27.022  31.036  1.00  0.00     0.198 C 
ENDBRANCH   1   6
BRANCH   1   8
ATOM      8  C   UNL     1      20.299  24.397  30.813  1.00  0.00     0.224 C 
BRANCH   8   9
ATOM      9  O   UNL     1      19.261  23.461  30.917  1.00  0.00    -0.391 OA
ATOM     10  H   UNL     1      19.022  23.210  29.987  1.00  0.00     0.210 HD
ENDBRANCH   8   9
ENDBRANCH   1   8
BRANCH   2  11
ATOM     11  O   UNL     1      19.240  24.842  33.334  1.00  0.00    -0.385 OA
ATOM     12  H   UNL     1      19.551  24.102  32.750  1.00  0.00     0.211 HD
ENDBRANCH   2  11
BRANCH   3  13
ATOM     13  O   UNL     1      20.562  27.533  34.190  1.00  0.00    -0.387 OA
ATOM     14  H   UNL     1      21.082  28.356  33.997  1.00  0.00     0.211 HD
ENDBRANCH   3  13
BRANCH   4  15
ATOM     15  C   UNL     1      22.794  27.512  31.804  1.00  0.00     0.191 C 
BRANCH  15  16
ATOM     16  O   UNL     1      23.314  27.915  33.042  1.00  0.00    -0.394 OA
ATOM     17  H   UNL     1      23.615  27.086  33.497  1.00  0.00     0.210 HD
ENDBRANCH  15  16
ENDBRANCH   4  15
TORSDOF 7
ENDMDL
MODEL 7
REMARK VINA RESULT:    -3.692      1.743      3.466
REMARK INTER + INTRA:          -5.358
REMARK INTER:                  -5.047
REMARK INTRA:                  -0.311
REMARK UNBOUND:                -0.586
REMARK SMILES CO[C@@]1(CO)O[C@H](CO)[C@@H](O)[C@@H]1O
REMARK SMILES IDX 3 1 12 2 10 3 7 4 6 5 2 6 1 7 4 8 5 9 13 11 11 13 8 15 9 16
REMARK H PARENT 5 10 13 12 11 14 9 17
REMARK Flexibility Score: inf
ROOT
ATOM      1  C   UNL     1      22.358  28.109  31.303  1.00  0.00     0.221 C 
ATOM      2  C   UNL     1      21.237  27.048  31.445  1.00  0.00     0.207 C 
ATOM      3  C   UNL     1      21.471  26.481  32.817  1.00  0.00     0.180 C 
ATOM      4  C   UNL     1      22.076  27.671  33.546  1.00  0.00     0.179 C 
ATOM      5  O   UNL     1      22.754  28.482  32.611  1.00  0.00    -0.337 OA
ENDROOT
BRANCH   1   6
ATOM      6  O   UNL     1      21.869  29.289  30.669  1.00  0.00    -0.349 OA
ATOM      7  C   UNL     1      20.466  29.448  30.769  1.00  0.00     0.198 C 
ENDBRANCH   1   6
BRANCH   1   8
ATOM      8  C   UNL     1      23.628  27.549  30.608  1.00  0.00     0.224 C 
BRANCH   8   9
ATOM      9  O   UNL     1      24.671  28.482  30.701  1.00  0.00    -0.391 OA
ATOM     10  H   UNL     1      24.241  29.360  30.869  1.00  0.00     0.210 HD
ENDBRANCH   8   9
ENDBRANCH   1   8
BRANCH   2  11
ATOM     11  O   UNL     1      21.307  26.045  30.464  1.00  0.00    -0.385 OA
ATOM     12  H   UNL     1      20.541  25.435  30.627  1.00  0.00     0.211 HD
ENDBRANCH   2  11
BRANCH   3  13
ATOM     13  O   UNL     1      20.259  26.078  33.400  1.00  0.00    -0.387 OA
ATOM     14  H   UNL     1      20.102  26.686  34.169  1.00  0.00     0.211 HD
ENDBRANCH   3  13
BRANCH   4  15
ATOM     15  C   UNL     1      23.034  27.250  34.666  1.00  0.00     0.191 C 
BRANCH  15  16
ATOM     16  O   UNL     1      22.314  26.830  35.793  1.00  0.00    -0.394 OA
ATOM     17  H   UNL     1      22.414  25.843  35.831  1.00  0.00     0.210 HD
ENDBRANCH  15  16
ENDBRANCH   4  15
TORSDOF 7
ENDMDL
MODEL 8
REMARK VINA RESULT:    -3.677      1.806      4.116
REMARK INTER + INTRA:          -5.338
REMARK INTER:                  -4.718
REMARK INTRA:                  -0.620
REMARK UNBOUND:                -0.586
REMARK SMILES CO[C@@]1(CO)O[C@H](CO)[C@@H](O)[C@@H]1O
REMARK SMILES IDX 3 1 12 2 10 3 7 4 6 5 2 6 1 7 4 8 5 9 13 11 11 13 8 15 9 16
REMARK H PARENT 5 10 13 12 11 14 9 17
REMARK Flexibility Score: inf
ROOT
ATOM      1  C   UNL     1      20.312  26.131  31.823  1.00  0.00     0.221 C 
ATOM      2  C   UNL     1      20.386  27.485  32.571  1.00  0.00     0.207 C 
ATOM      3  C   UNL     1      21.690  28.067  32.103  1.00  0.00     0.180 C 
ATOM      4  C   UNL     1      21.810  27.476  30.707  1.00  0.00     0.179 C 
ATOM      5  O   UNL     1      21.139  26.236  30.676  1.00  0.00    -0.337 OA
ENDROOT
BRANCH   1   6
ATOM      6  O   UNL     1      18.989  25.877  31.353  1.00  0.00    -0.349 OA
ATOM      7  C   UNL     1      18.169  27.030  31.312  1.00  0.00     0.198 C 
ENDBRANCH   1   6
BRANCH   1   8
ATOM      8  C   UNL     1      20.878  24.952  32.659  1.00  0.00     0.224 C 
BRANCH   8   9
ATOM      9  O   UNL     1      19.908  24.501  33.565  1.00  0.00    -0.391 OA
ATOM     10  H   UNL     1      20.059  25.007  34.405  1.00  0.00     0.210 HD
ENDBRANCH   8   9
ENDBRANCH   1   8
BRANCH   2  11
ATOM     11  O   UNL     1      20.369  27.339  33.969  1.00  0.00    -0.385 OA
ATOM     12  H   UNL     1      20.028  28.194  34.339  1.00  0.00     0.211 HD
ENDBRANCH   2  11
BRANCH   3  13
ATOM     13  O   UNL     1      21.624  29.469  32.069  1.00  0.00    -0.387 OA
ATOM     14  H   UNL     1      21.255  29.754  32.945  1.00  0.00     0.211 HD
ENDBRANCH   3  13
BRANCH   4  15
ATOM     15  C   UNL     1      23.268  27.293  30.269  1.00  0.00     0.191 C 
BRANCH  15  16
ATOM     16  O   UNL     1      24.118  28.081  31.058  1.00  0.00    -0.394 OA
ATOM     17  H   UNL     1      24.845  27.478  31.364  1.00  0.00     0.210 HD
ENDBRANCH  15  16
ENDBRANCH   4  15
TORSDOF 7
ENDMDL
MODEL 9
REMARK VINA RESULT:    -3.639     15.226     17.342
REMARK INTER + INTRA:          -5.288
REMARK INTER:                  -4.796
REMARK INTRA:                  -0.493
REMARK UNBOUND:                -0.586
REMARK SMILES CO[C@@]1(CO)O[C@H](CO)[C@@H](O)[C@@H]1O
REMARK SMILES IDX 3 1 12 2 10 3 7 4 6 5 2 6 1 7 4 8 5 9 13 11 11 13 8 15 9 16
REMARK H PARENT 5 10 13 12 11 14 9 17
REMARK Flexibility Score: inf
ROOT
ATOM      1  C   UNL     1      23.347  22.259  48.674  1.00  0.00     0.221 C 
ATOM      2  C   UNL     1      24.176  23.518  49.029  1.00  0.00     0.207 C 
ATOM      3  C   UNL     1      25.536  22.959  49.342  1.00  0.00     0.180 C 
ATOM      4  C   UNL     1      25.576  21.724  48.455  1.00  0.00     0.179 C 
ATOM      5  O   UNL     1      24.260  21.252  48.270  1.00  0.00    -0.337 OA
ENDROOT
BRANCH   1   6
ATOM      6  O   UNL     1      22.490  22.506  47.562  1.00  0.00    -0.349 OA
ATOM      7  C   UNL     1      22.497  23.852  47.126  1.00  0.00     0.198 C 
ENDBRANCH   1   6
BRANCH   1   8
ATOM      8  C   UNL     1      22.580  21.683  49.895  1.00  0.00     0.224 C 
BRANCH   8   9
ATOM      9  O   UNL     1      21.376  22.380  50.073  1.00  0.00    -0.391 OA
ATOM     10  H   UNL     1      21.510  22.962  50.866  1.00  0.00     0.210 HD
ENDBRANCH   8   9
ENDBRANCH   1   8
BRANCH   2  11
ATOM     11  O   UNL     1      23.654  24.226  50.125  1.00  0.00    -0.385 OA
ATOM     12  H   UNL     1      23.329  23.546  50.771  1.00  0.00     0.211 HD
ENDBRANCH   2  11
BRANCH   3  13
ATOM     13  O   UNL     1      26.541  23.877  48.999  1.00  0.00    -0.387 OA
ATOM     14  H   UNL     1      26.618  24.507  49.762  1.00  0.00     0.211 HD
ENDBRANCH   3  13
BRANCH   4  15
ATOM     15  C   UNL     1      26.455  20.611  49.036  1.00  0.00     0.191 C 
BRANCH  15  16
ATOM     16  O   UNL     1      27.747  21.092  49.293  1.00  0.00    -0.394 OA
ATOM     17  H   UNL     1      28.167  21.238  48.406  1.00  0.00     0.210 HD
ENDBRANCH  15  16
ENDBRANCH   4  15
TORSDOF 7
ENDMDL
