MODEL 1
REMARK VINA RESULT:    -4.032      0.000      0.000
REMARK INTER + INTRA:          -4.711
REMARK INTER:                  -4.386
REMARK INTRA:                  -0.325
REMARK UNBOUND:                -0.325
REMARK SMILES CC1=CC[C@@](O)(C(C)C)CC1
REMARK SMILES IDX 1 1 2 2 3 3 4 4 5 5 10 6 11 7 7 8 8 9 9 10 6 11
REMARK H PARENT 6 12
REMARK Flexibility Score: inf
ROOT
ATOM      1  C   UNL     1     -18.713 -15.976  12.668  1.00  0.00     0.039 C 
ATOM      2  C   UNL     1     -17.980 -15.268  11.562  1.00  0.00    -0.077 C 
ATOM      3  C   UNL     1     -16.714 -15.598  11.272  1.00  0.00    -0.025 C 
ATOM      4  C   UNL     1     -16.005 -14.900  10.143  1.00  0.00     0.062 C 
ATOM      5  C   UNL     1     -16.900 -14.759   8.855  1.00  0.00     0.071 C 
ATOM      6  C   UNL     1     -18.420 -14.570   9.223  1.00  0.00     0.040 C 
ATOM      7  C   UNL     1     -18.664 -14.236  10.701  1.00  0.00     0.033 C 
ENDROOT
BRANCH   5   8
ATOM      8  C   UNL     1     -16.746 -15.997   7.888  1.00  0.00     0.015 C 
ATOM      9  C   UNL     1     -17.813 -17.088   8.110  1.00  0.00     0.010 C 
ATOM     10  C   UNL     1     -15.347 -16.641   7.930  1.00  0.00     0.010 C 
ENDBRANCH   5   8
BRANCH   5  11
ATOM     11  O   UNL     1     -16.519 -13.588   8.162  1.00  0.00    -0.389 OA
ATOM     12  H   UNL     1     -16.934 -13.597   7.260  1.00  0.00     0.211 HD
ENDBRANCH   5  11
TORSDOF 2
ENDMDL
MODEL 2
REMARK VINA RESULT:    -3.812      1.786      2.912
REMARK INTER + INTRA:          -4.471
REMARK INTER:                  -4.149
REMARK INTRA:                  -0.322
REMARK UNBOUND:                -0.325
REMARK SMILES CC1=CC[C@@](O)(C(C)C)CC1
REMARK SMILES IDX 1 1 2 2 3 3 4 4 5 5 10 6 11 7 7 8 8 9 9 10 6 11
REMARK H PARENT 6 12
REMARK Flexibility Score: inf
ROOT
ATOM      1  C   UNL     1     -19.125 -12.348  12.541  1.00  0.00     0.039 C 
ATOM      2  C   UNL     1     -19.095 -13.592  11.697  1.00  0.00    -0.077 C 
ATOM      3  C   UNL     1     -18.991 -13.501  10.364  1.00  0.00    -0.025 C 
ATOM      4  C   UNL     1     -18.933 -14.757   9.537  1.00  0.00     0.062 C 
ATOM      5  C   UNL     1     -17.967 -15.843  10.143  1.00  0.00     0.071 C 
ATOM      6  C   UNL     1     -17.957 -15.796  11.718  1.00  0.00     0.040 C 
ATOM      7  C   UNL     1     -19.098 -14.965  12.322  1.00  0.00     0.033 C 
ENDROOT
BRANCH   5   8
ATOM      8  C   UNL     1     -16.491 -15.689   9.606  1.00  0.00     0.015 C 
ATOM      9  C   UNL     1     -15.593 -14.824  10.513  1.00  0.00     0.010 C 
ATOM     10  C   UNL     1     -16.413 -15.158   8.162  1.00  0.00     0.010 C 
ENDBRANCH   5   8
BRANCH   5  11
ATOM     11  O   UNL     1     -18.448 -17.125   9.795  1.00  0.00    -0.389 OA
ATOM     12  H   UNL     1     -18.214 -17.765  10.517  1.00  0.00     0.211 HD
ENDBRANCH   5  11
TORSDOF 2
ENDMDL
MODEL 3
REMARK VINA RESULT:    -3.777      1.807      3.889
REMARK INTER + INTRA:          -4.434
REMARK INTER:                  -4.202
REMARK INTRA:                  -0.231
REMARK UNBOUND:                -0.325
REMARK SMILES CC1=CC[C@@](O)(C(C)C)CC1
REMARK SMILES IDX 1 1 2 2 3 3 4 4 5 5 10 6 11 7 7 8 8 9 9 10 6 11
REMARK H PARENT 6 12
REMARK Flexibility Score: inf
ROOT
ATOM      1  C   UNL     1     -15.346 -16.624   7.875  1.00  0.00     0.039 C 
ATOM      2  C   UNL     1     -16.267 -16.365   9.035  1.00  0.00    -0.077 C 
ATOM      3  C   UNL     1     -15.800 -15.795  10.155  1.00  0.00    -0.025 C 
ATOM      4  C   UNL     1     -16.742 -15.516  11.295  1.00  0.00     0.062 C 
ATOM      5  C   UNL     1     -18.103 -14.884  10.821  1.00  0.00     0.071 C 
ATOM      6  C   UNL     1     -18.532 -15.424   9.405  1.00  0.00     0.040 C 
ATOM      7  C   UNL     1     -17.743 -16.659   8.946  1.00  0.00     0.033 C 
ENDROOT
BRANCH   5   8
ATOM      8  C   UNL     1     -18.042 -13.307  10.782  1.00  0.00     0.015 C 
ATOM      9  C   UNL     1     -18.969 -12.629  11.811  1.00  0.00     0.010 C 
ATOM     10  C   UNL     1     -18.317 -12.715   9.385  1.00  0.00     0.010 C 
ENDBRANCH   5   8
BRANCH   5  11
ATOM     11  O   UNL     1     -19.124 -15.279  11.714  1.00  0.00    -0.389 OA
ATOM     12  H   UNL     1     -19.033 -14.762  12.557  1.00  0.00     0.211 HD
ENDBRANCH   5  11
TORSDOF 2
ENDMDL
MODEL 4
REMARK VINA RESULT:    -3.380      1.447      3.801
REMARK INTER + INTRA:          -4.001
REMARK INTER:                  -4.015
REMARK INTRA:                   0.013
REMARK UNBOUND:                -0.325
REMARK SMILES CC1=CC[C@@](O)(C(C)C)CC1
REMARK SMILES IDX 1 1 2 2 3 3 4 4 5 5 10 6 11 7 7 8 8 9 9 10 6 11
REMARK H PARENT 6 12
REMARK Flexibility Score: inf
ROOT
ATOM      1  C   UNL     1     -15.263 -16.637   7.888  1.00  0.00     0.039 C 
ATOM      2  C   UNL     1     -16.150 -15.669   8.621  1.00  0.00    -0.077 C 
ATOM      3  C   UNL     1     -17.433 -15.524   8.263  1.00  0.00    -0.025 C 
ATOM      4  C   UNL     1     -18.315 -14.572   9.027  1.00  0.00     0.062 C 
ATOM      5  C   UNL     1     -18.135 -14.692  10.586  1.00  0.00     0.071 C 
ATOM      6  C   UNL     1     -16.653 -15.061  10.973  1.00  0.00     0.040 C 
ATOM      7  C   UNL     1     -15.652 -14.901   9.820  1.00  0.00     0.033 C 
ENDROOT
BRANCH   5   8
ATOM      8  C   UNL     1     -19.118 -15.754  11.216  1.00  0.00     0.015 C 
ATOM      9  C   UNL     1     -18.915 -15.959  12.731  1.00  0.00     0.010 C 
ATOM     10  C   UNL     1     -19.081 -17.124  10.510  1.00  0.00     0.010 C 
ENDBRANCH   5   8
BRANCH   5  11
ATOM     11  O   UNL     1     -18.388 -13.432  11.172  1.00  0.00    -0.389 OA
ATOM     12  H   UNL     1     -18.475 -13.544  12.155  1.00  0.00     0.211 HD
ENDBRANCH   5  11
TORSDOF 2
ENDMDL
MODEL 5
REMARK VINA RESULT:    -3.098      1.568      2.498
REMARK INTER + INTRA:          -3.694
REMARK INTER:                  -3.466
REMARK INTRA:                  -0.228
REMARK UNBOUND:                -0.325
REMARK SMILES CC1=CC[C@@](O)(C(C)C)CC1
REMARK SMILES IDX 1 1 2 2 3 3 4 4 5 5 10 6 11 7 7 8 8 9 9 10 6 11
REMARK H PARENT 6 12
REMARK Flexibility Score: inf
ROOT
ATOM      1  C   UNL     1     -18.896 -15.773  13.425  1.00  0.00     0.039 C 
ATOM      2  C   UNL     1     -19.010 -15.630  11.933  1.00  0.00    -0.077 C 
ATOM      3  C   UNL     1     -18.937 -14.419  11.362  1.00  0.00    -0.025 C 
ATOM      4  C   UNL     1     -19.023 -14.298   9.864  1.00  0.00     0.062 C 
ATOM      5  C   UNL     1     -18.148 -15.370   9.114  1.00  0.00     0.071 C 
ATOM      6  C   UNL     1     -18.087 -16.728   9.909  1.00  0.00     0.040 C 
ATOM      7  C   UNL     1     -19.125 -16.836  11.035  1.00  0.00     0.033 C 
ENDROOT
BRANCH   5   8
ATOM      8  C   UNL     1     -16.680 -14.855   8.847  1.00  0.00     0.015 C 
ATOM      9  C   UNL     1     -15.760 -14.948  10.081  1.00  0.00     0.010 C 
ATOM     10  C   UNL     1     -16.624 -13.423   8.280  1.00  0.00     0.010 C 
ENDBRANCH   5   8
BRANCH   5  11
ATOM     11  O   UNL     1     -18.759 -15.670   7.876  1.00  0.00    -0.389 OA
ATOM     12  H   UNL     1     -19.120 -14.834   7.482  1.00  0.00     0.211 HD
ENDBRANCH   5  11
TORSDOF 2
ENDMDL
MODEL 6
REMARK VINA RESULT:    -2.890      1.789      2.912
REMARK INTER + INTRA:          -3.469
REMARK INTER:                  -3.370
REMARK INTRA:                  -0.099
REMARK UNBOUND:                -0.325
REMARK SMILES CC1=CC[C@@](O)(C(C)C)CC1
REMARK SMILES IDX 1 1 2 2 3 3 4 4 5 5 10 6 11 7 7 8 8 9 9 10 6 11
REMARK H PARENT 6 12
REMARK Flexibility Score: inf
ROOT
ATOM      1  C   UNL     1     -18.254 -11.976   9.317  1.00  0.00     0.039 C 
ATOM      2  C   UNL     1     -17.401 -13.210   9.421  1.00  0.00    -0.077 C 
ATOM      3  C   UNL     1     -17.482 -13.999  10.501  1.00  0.00    -0.025 C 
ATOM      4  C   UNL     1     -16.643 -15.246  10.576  1.00  0.00     0.062 C 
ATOM      5  C   UNL     1     -16.647 -16.065   9.231  1.00  0.00     0.071 C 
ATOM      6  C   UNL     1     -16.753 -15.120   7.976  1.00  0.00     0.040 C 
ATOM      7  C   UNL     1     -16.499 -13.639   8.291  1.00  0.00     0.033 C 
ENDROOT
BRANCH   5   8
ATOM      8  C   UNL     1     -17.816 -17.125   9.186  1.00  0.00     0.015 C 
ATOM      9  C   UNL     1     -18.636 -17.083   7.881  1.00  0.00     0.010 C 
ATOM     10  C   UNL     1     -18.775 -17.036  10.390  1.00  0.00     0.010 C 
ENDBRANCH   5   8
BRANCH   5  11
ATOM     11  O   UNL     1     -15.413 -16.742   9.106  1.00  0.00    -0.389 OA
ATOM     12  H   UNL     1     -15.290 -17.017   8.160  1.00  0.00     0.211 HD
ENDBRANCH   5  11
TORSDOF 2
ENDMDL
MODEL 7
REMARK VINA RESULT:    -2.752      1.485      2.768
REMARK INTER + INTRA:          -3.319
REMARK INTER:                  -3.116
REMARK INTRA:                  -0.202
REMARK UNBOUND:                -0.325
REMARK SMILES CC1=CC[C@@](O)(C(C)C)CC1
REMARK SMILES IDX 1 1 2 2 3 3 4 4 5 5 10 6 11 7 7 8 8 9 9 10 6 11
REMARK H PARENT 6 12
REMARK Flexibility Score: inf
ROOT
ATOM      1  C   UNL     1     -19.056 -15.927  13.103  1.00  0.00     0.039 C 
ATOM      2  C   UNL     1     -18.378 -16.033  11.765  1.00  0.00    -0.077 C 
ATOM      3  C   UNL     1     -19.106 -16.072  10.640  1.00  0.00    -0.025 C 
ATOM      4  C   UNL     1     -18.410 -16.148   9.307  1.00  0.00     0.062 C 
ATOM      5  C   UNL     1     -17.189 -15.161   9.200  1.00  0.00     0.071 C 
ATOM      6  C   UNL     1     -16.466 -14.977  10.588  1.00  0.00     0.040 C 
ATOM      7  C   UNL     1     -16.875 -16.016  11.642  1.00  0.00     0.033 C 
ENDROOT
BRANCH   5   8
ATOM      8  C   UNL     1     -17.616 -13.748   8.642  1.00  0.00     0.015 C 
ATOM      9  C   UNL     1     -16.492 -13.023   7.875  1.00  0.00     0.010 C 
ATOM     10  C   UNL     1     -18.181 -12.805   9.723  1.00  0.00     0.010 C 
ENDBRANCH   5   8
BRANCH   5  11
ATOM     11  O   UNL     1     -16.225 -15.722   8.331  1.00  0.00    -0.389 OA
ATOM     12  H   UNL     1     -16.409 -15.416   7.405  1.00  0.00     0.211 HD
ENDBRANCH   5  11
TORSDOF 2
ENDMDL
MODEL 8
REMARK VINA RESULT:    -2.347      1.928      4.075
REMARK INTER + INTRA:          -2.877
REMARK INTER:                  -2.891
REMARK INTRA:                   0.014
REMARK UNBOUND:                -0.325
REMARK SMILES CC1=CC[C@@](O)(C(C)C)CC1
REMARK SMILES IDX 1 1 2 2 3 3 4 4 5 5 10 6 11 7 7 8 8 9 9 10 6 11
REMARK H PARENT 6 12
REMARK Flexibility Score: inf
ROOT
ATOM      1  C   UNL     1     -16.130 -13.055   7.881  1.00  0.00     0.039 C 
ATOM      2  C   UNL     1     -16.614 -14.221   8.698  1.00  0.00    -0.077 C 
ATOM      3  C   UNL     1     -16.217 -14.366   9.970  1.00  0.00    -0.025 C 
ATOM      4  C   UNL     1     -16.735 -15.523  10.782  1.00  0.00     0.062 C 
ATOM      5  C   UNL     1     -18.283 -15.747  10.606  1.00  0.00     0.071 C 
ATOM      6  C   UNL     1     -18.762 -15.377   9.151  1.00  0.00     0.040 C 
ATOM      7  C   UNL     1     -17.614 -15.205   8.145  1.00  0.00     0.033 C 
ENDROOT
BRANCH   5   8
ATOM      8  C   UNL     1     -19.125 -14.923  11.657  1.00  0.00     0.015 C 
ATOM      9  C   UNL     1     -18.780 -13.420  11.681  1.00  0.00     0.010 C 
ATOM     10  C   UNL     1     -19.041 -15.485  13.090  1.00  0.00     0.010 C 
ENDBRANCH   5   8
BRANCH   5  11
ATOM     11  O   UNL     1     -18.566 -17.121  10.771  1.00  0.00    -0.389 OA
ATOM     12  H   UNL     1     -17.722 -17.603  10.970  1.00  0.00     0.211 HD
ENDBRANCH   5  11
TORSDOF 2
ENDMDL
MODEL 9
REMARK VINA RESULT:    -1.142      2.049      3.653
REMARK INTER + INTRA:          -1.567
REMARK INTER:                  -1.376
REMARK INTRA:                  -0.192
REMARK UNBOUND:                -0.325
REMARK SMILES CC1=CC[C@@](O)(C(C)C)CC1
REMARK SMILES IDX 1 1 2 2 3 3 4 4 5 5 10 6 11 7 7 8 8 9 9 10 6 11
REMARK H PARENT 6 12
REMARK Flexibility Score: inf
ROOT
ATOM      1  C   UNL     1     -17.639 -11.874   8.286  1.00  0.00     0.039 C 
ATOM      2  C   UNL     1     -17.352 -12.855   9.389  1.00  0.00    -0.077 C 
ATOM      3  C   UNL     1     -18.123 -12.885  10.485  1.00  0.00    -0.025 C 
ATOM      4  C   UNL     1     -17.840 -13.893  11.566  1.00  0.00     0.062 C 
ATOM      5  C   UNL     1     -17.547 -15.331  10.997  1.00  0.00     0.071 C 
ATOM      6  C   UNL     1     -16.812 -15.267   9.605  1.00  0.00     0.040 C 
ATOM      7  C   UNL     1     -16.251 -13.879   9.263  1.00  0.00     0.033 C 
ENDROOT
BRANCH   5   8
ATOM      8  C   UNL     1     -18.863 -16.191  10.852  1.00  0.00     0.015 C 
ATOM      9  C   UNL     1     -19.125 -17.123  12.053  1.00  0.00     0.010 C 
ATOM     10  C   UNL     1     -18.921 -17.014   9.551  1.00  0.00     0.010 C 
ENDBRANCH   5   8
BRANCH   5  11
ATOM     11  O   UNL     1     -16.661 -15.997  11.874  1.00  0.00    -0.389 OA
ATOM     12  H   UNL     1     -16.676 -16.969  11.672  1.00  0.00     0.211 HD
ENDBRANCH   5  11
TORSDOF 2
ENDMDL
