MODEL 1
REMARK VINA RESULT:    -3.072      0.000      0.000
REMARK INTER + INTRA:          -4.552
REMARK INTER:                  -4.149
REMARK INTRA:                  -0.403
REMARK UNBOUND:                -0.403
REMARK SMILES O=C[C@@H](O)[C@@H](O)[C@@H](O)CO
REMARK SMILES IDX 7 1 9 2 10 3 5 5 3 6 2 7 1 8 4 9 6 11 8 13
REMARK H PARENT 10 4 4 10 6 12 8 14
REMARK Flexibility Score: inf
ROOT
ATOM      1  C   UNL     1      19.005  40.879  10.238  1.00  0.00     0.171 C 
ENDROOT
BRANCH   1   2
ATOM      2  C   UNL     1      17.603  40.247  10.126  1.00  0.00     0.190 C 
BRANCH   2   3
ATOM      3  O   UNL     1      16.737  41.061   9.383  1.00  0.00    -0.394 OA
ATOM      4  H   UNL     1      16.814  41.976   9.760  1.00  0.00     0.210 HD
ENDBRANCH   2   3
ENDBRANCH   1   2
BRANCH   1   5
ATOM      5  C   UNL     1      19.127  41.923  11.381  1.00  0.00     0.181 C 
BRANCH   5   6
ATOM      6  C   UNL     1      20.389  41.774  12.270  1.00  0.00     0.209 C 
BRANCH   6   7
ATOM      7  C   UNL     1      20.641  42.986  13.125  1.00  0.00     0.258 C 
ATOM      8  O   UNL     1      20.826  44.080  12.617  1.00  0.00    -0.300 OA
ENDBRANCH   6   7
BRANCH   6   9
ATOM      9  O   UNL     1      20.255  40.655  13.108  1.00  0.00    -0.383 OA
ATOM     10  H   UNL     1      19.522  40.100  12.732  1.00  0.00     0.211 HD
ENDBRANCH   6   9
ENDBRANCH   5   6
BRANCH   5  11
ATOM     11  O   UNL     1      19.084  43.222  10.843  1.00  0.00    -0.387 OA
ATOM     12  H   UNL     1      18.312  43.685  11.264  1.00  0.00     0.211 HD
ENDBRANCH   5  11
ENDBRANCH   1   5
BRANCH   1  13
ATOM     13  O   UNL     1      19.971  39.872  10.397  1.00  0.00    -0.388 OA
ATOM     14  H   UNL     1      20.644  40.000   9.678  1.00  0.00     0.211 HD
ENDBRANCH   1  13
TORSDOF 8
ENDMDL
MODEL 2
REMARK VINA RESULT:    -2.308      1.182      3.924
REMARK INTER + INTRA:          -3.520
REMARK INTER:                  -2.830
REMARK INTRA:                  -0.690
REMARK UNBOUND:                -0.403
REMARK SMILES O=C[C@@H](O)[C@@H](O)[C@@H](O)CO
REMARK SMILES IDX 7 1 9 2 10 3 5 5 3 6 2 7 1 8 4 9 6 11 8 13
REMARK H PARENT 10 4 4 10 6 12 8 14
REMARK Flexibility Score: inf
ROOT
ATOM      1  C   UNL     1      20.191  43.206  12.638  1.00  0.00     0.171 C 
ENDROOT
BRANCH   1   2
ATOM      2  C   UNL     1      20.312  44.730  12.440  1.00  0.00     0.190 C 
BRANCH   2   3
ATOM      3  O   UNL     1      21.068  45.035  11.299  1.00  0.00    -0.394 OA
ATOM      4  H   UNL     1      21.772  45.673  11.587  1.00  0.00     0.210 HD
ENDBRANCH   2   3
ENDBRANCH   1   2
BRANCH   1   5
ATOM      5  C   UNL     1      19.763  42.445  11.353  1.00  0.00     0.181 C 
BRANCH   5   6
ATOM      6  C   UNL     1      19.256  40.998  11.590  1.00  0.00     0.209 C 
BRANCH   6   7
ATOM      7  C   UNL     1      18.802  40.329  10.321  1.00  0.00     0.258 C 
ATOM      8  O   UNL     1      17.657  40.462   9.920  1.00  0.00    -0.300 OA
ENDBRANCH   6   7
BRANCH   6   9
ATOM      9  O   UNL     1      20.276  40.222  12.164  1.00  0.00    -0.383 OA
ATOM     10  H   UNL     1      21.138  40.648  11.914  1.00  0.00     0.211 HD
ENDBRANCH   6   9
ENDBRANCH   5   6
BRANCH   5  11
ATOM     11  O   UNL     1      18.775  43.180  10.673  1.00  0.00    -0.387 OA
ATOM     12  H   UNL     1      18.942  44.140  10.869  1.00  0.00     0.211 HD
ENDBRANCH   5  11
ENDBRANCH   1   5
BRANCH   1  13
ATOM     13  O   UNL     1      21.402  42.690  13.125  1.00  0.00    -0.388 OA
ATOM     14  H   UNL     1      22.110  42.955  12.480  1.00  0.00     0.211 HD
ENDBRANCH   1  13
TORSDOF 8
ENDMDL
MODEL 3
REMARK VINA RESULT:    -1.951      1.104      4.090
REMARK INTER + INTRA:          -3.038
REMARK INTER:                  -2.769
REMARK INTRA:                  -0.269
REMARK UNBOUND:                -0.403
REMARK SMILES O=C[C@@H](O)[C@@H](O)[C@@H](O)CO
REMARK SMILES IDX 7 1 9 2 10 3 5 5 3 6 2 7 1 8 4 9 6 11 8 13
REMARK H PARENT 10 4 4 10 6 12 8 14
REMARK Flexibility Score: inf
ROOT
ATOM      1  C   UNL     1      20.692  42.378  12.900  1.00  0.00     0.171 C 
ENDROOT
BRANCH   1   2
ATOM      2  C   UNL     1      20.004  43.739  13.125  1.00  0.00     0.190 C 
BRANCH   2   3
ATOM      3  O   UNL     1      20.292  44.631  12.082  1.00  0.00    -0.394 OA
ATOM      4  H   UNL     1      20.827  45.367  12.478  1.00  0.00     0.210 HD
ENDBRANCH   2   3
ENDBRANCH   1   2
BRANCH   1   5
ATOM      5  C   UNL     1      19.722  41.262  12.425  1.00  0.00     0.181 C 
BRANCH   5   6
ATOM      6  C   UNL     1      19.446  41.243  10.898  1.00  0.00     0.209 C 
BRANCH   6   7
ATOM      7  C   UNL     1      18.335  40.301  10.523  1.00  0.00     0.258 C 
ATOM      8  O   UNL     1      17.417  40.671   9.808  1.00  0.00    -0.300 OA
ENDBRANCH   6   7
BRANCH   6   9
ATOM      9  O   UNL     1      19.106  42.532  10.458  1.00  0.00    -0.383 OA
ATOM     10  H   UNL     1      18.367  42.428   9.802  1.00  0.00     0.211 HD
ENDBRANCH   6   9
ENDBRANCH   5   6
BRANCH   5  11
ATOM     11  O   UNL     1      20.211  40.005  12.826  1.00  0.00    -0.387 OA
ATOM     12  H   UNL     1      19.498  39.341  12.633  1.00  0.00     0.211 HD
ENDBRANCH   5  11
ENDBRANCH   1   5
BRANCH   1  13
ATOM     13  O   UNL     1      21.748  42.522  11.986  1.00  0.00    -0.388 OA
ATOM     14  H   UNL     1      22.180  43.396  12.177  1.00  0.00     0.211 HD
ENDBRANCH   1  13
TORSDOF 8
ENDMDL
MODEL 4
REMARK VINA RESULT:    -1.685      0.743      4.180
REMARK INTER + INTRA:          -2.679
REMARK INTER:                  -2.962
REMARK INTRA:                   0.282
REMARK UNBOUND:                -0.403
REMARK SMILES O=C[C@@H](O)[C@@H](O)[C@@H](O)CO
REMARK SMILES IDX 7 1 9 2 10 3 5 5 3 6 2 7 1 8 4 9 6 11 8 13
REMARK H PARENT 10 4 4 10 6 12 8 14
REMARK Flexibility Score: inf
ROOT
ATOM      1  C   UNL     1      20.247  42.412  11.864  1.00  0.00     0.171 C 
ENDROOT
BRANCH   1   2
ATOM      2  C   UNL     1      20.800  43.105  13.125  1.00  0.00     0.190 C 
BRANCH   2   3
ATOM      3  O   UNL     1      20.573  44.488  13.085  1.00  0.00    -0.394 OA
ATOM      4  H   UNL     1      21.447  44.912  12.877  1.00  0.00     0.210 HD
ENDBRANCH   2   3
ENDBRANCH   1   2
BRANCH   1   5
ATOM      5  C   UNL     1      19.528  41.067  12.158  1.00  0.00     0.181 C 
BRANCH   5   6
ATOM      6  C   UNL     1      19.156  40.236  10.902  1.00  0.00     0.209 C 
BRANCH   6   7
ATOM      7  C   UNL     1      18.090  40.894  10.068  1.00  0.00     0.258 C 
ATOM      8  O   UNL     1      17.037  40.320   9.836  1.00  0.00    -0.300 OA
ENDBRANCH   6   7
BRANCH   6   9
ATOM      9  O   UNL     1      20.294  40.045  10.102  1.00  0.00    -0.383 OA
ATOM     10  H   UNL     1      20.446  40.894   9.608  1.00  0.00     0.211 HD
ENDBRANCH   6   9
ENDBRANCH   5   6
BRANCH   5  11
ATOM     11  O   UNL     1      20.320  40.284  13.018  1.00  0.00    -0.387 OA
ATOM     12  H   UNL     1      21.141  40.042  12.515  1.00  0.00     0.211 HD
ENDBRANCH   5  11
ENDBRANCH   1   5
BRANCH   1  13
ATOM     13  O   UNL     1      19.383  43.283  11.181  1.00  0.00    -0.388 OA
ATOM     14  H   UNL     1      19.149  42.844  10.321  1.00  0.00     0.211 HD
ENDBRANCH   1  13
TORSDOF 8
ENDMDL
MODEL 5
REMARK VINA RESULT:    -1.592      0.959      2.360
REMARK INTER + INTRA:          -2.553
REMARK INTER:                  -2.312
REMARK INTRA:                  -0.241
REMARK UNBOUND:                -0.403
REMARK SMILES O=C[C@@H](O)[C@@H](O)[C@@H](O)CO
REMARK SMILES IDX 7 1 9 2 10 3 5 5 3 6 2 7 1 8 4 9 6 11 8 13
REMARK H PARENT 10 4 4 10 6 12 8 14
REMARK Flexibility Score: inf
ROOT
ATOM      1  C   UNL     1      17.708  41.487  10.015  1.00  0.00     0.171 C 
ENDROOT
BRANCH   1   2
ATOM      2  C   UNL     1      17.190  40.037  10.097  1.00  0.00     0.190 C 
BRANCH   2   3
ATOM      3  O   UNL     1      16.004  39.880   9.366  1.00  0.00    -0.394 OA
ATOM      4  H   UNL     1      15.917  40.684   8.789  1.00  0.00     0.210 HD
ENDBRANCH   2   3
ENDBRANCH   1   2
BRANCH   1   5
ATOM      5  C   UNL     1      19.214  41.630  10.368  1.00  0.00     0.181 C 
BRANCH   5   6
ATOM      6  C   UNL     1      19.510  42.470  11.638  1.00  0.00     0.209 C 
BRANCH   6   7
ATOM      7  C   UNL     1      20.512  41.811  12.546  1.00  0.00     0.258 C 
ATOM      8  O   UNL     1      20.241  40.771  13.125  1.00  0.00    -0.300 OA
ENDBRANCH   6   7
BRANCH   6   9
ATOM      9  O   UNL     1      20.001  43.734  11.272  1.00  0.00    -0.383 OA
ATOM     10  H   UNL     1      19.427  44.408  11.724  1.00  0.00     0.211 HD
ENDBRANCH   6   9
ENDBRANCH   5   6
BRANCH   5  11
ATOM     11  O   UNL     1      19.792  40.355  10.505  1.00  0.00    -0.387 OA
ATOM     12  H   UNL     1      20.757  40.493  10.696  1.00  0.00     0.211 HD
ENDBRANCH   5  11
ENDBRANCH   1   5
BRANCH   1  13
ATOM     13  O   UNL     1      17.459  42.011   8.735  1.00  0.00    -0.388 OA
ATOM     14  H   UNL     1      16.596  42.500   8.785  1.00  0.00     0.211 HD
ENDBRANCH   1  13
TORSDOF 8
ENDMDL
