MODEL 1
REMARK VINA RESULT:    -5.315      0.000      0.000
REMARK INTER + INTRA:          -8.566
REMARK INTER:                  -8.111
REMARK INTRA:                  -0.454
REMARK UNBOUND:                -0.454
REMARK SMILES CCCCCCCCCCC(=O)[O-]
REMARK SMILES IDX 7 1 8 2 9 3 10 4 11 5 12 6 13 7 6 8 5 9 4 10 3 11 2 12 1 13
REMARK H PARENT
REMARK Flexibility Score: inf
ROOT
ATOM      1  C   UNL     1     -22.603 -31.232  24.291  1.00  0.00     0.000 C 
ENDROOT
BRANCH   1   2
ATOM      2  C   UNL     1     -24.043 -31.736  24.430  1.00  0.00     0.000 C 
BRANCH   2   3
ATOM      3  C   UNL     1     -24.222 -32.542  25.726  1.00  0.00     0.006 C 
BRANCH   3   4
ATOM      4  C   UNL     1     -25.638 -33.117  25.862  1.00  0.00     0.053 C 
BRANCH   4   5
ATOM      5  C   UNL     1     -26.686 -32.058  25.707  1.00  0.00     0.041 C 
ATOM      6  O   UNL     1     -26.806 -31.154  26.575  1.00  0.00    -0.550 OA
ATOM      7  O   UNL     1     -27.553 -32.088  24.621  1.00  0.00    -0.550 OA
ENDBRANCH   4   5
ENDBRANCH   3   4
ENDBRANCH   2   3
ENDBRANCH   1   2
BRANCH   1   8
ATOM      8  C   UNL     1     -21.821 -32.073  23.270  1.00  0.00     0.000 C 
BRANCH   8   9
ATOM      9  C   UNL     1     -20.319 -31.746  23.254  1.00  0.00    -0.000 C 
BRANCH   9  10
ATOM     10  C   UNL     1     -19.987 -30.461  24.033  1.00  0.00    -0.000 C 
BRANCH  10  11
ATOM     11  C   UNL     1     -18.487 -30.330  24.342  1.00  0.00    -0.000 C 
BRANCH  11  12
ATOM     12  C   UNL     1     -17.626 -31.305  23.523  1.00  0.00    -0.003 C 
ATOM     13  C   UNL     1     -16.442 -30.585  22.881  1.00  0.00     0.004 C 
ENDBRANCH  11  12
ENDBRANCH  10  11
ENDBRANCH   9  10
ENDBRANCH   8   9
ENDBRANCH   1   8
TORSDOF 9
ENDMDL
MODEL 2
REMARK VINA RESULT:    -5.303      0.901      1.321
REMARK INTER + INTRA:          -8.548
REMARK INTER:                  -8.163
REMARK INTRA:                  -0.385
REMARK UNBOUND:                -0.454
REMARK SMILES CCCCCCCCCCC(=O)[O-]
REMARK SMILES IDX 7 1 8 2 9 3 10 4 11 5 12 6 13 7 6 8 5 9 4 10 3 11 2 12 1 13
REMARK H PARENT
REMARK Flexibility Score: inf
ROOT
ATOM      1  C   UNL     1     -22.349 -31.709  22.875  1.00  0.00     0.000 C 
ENDROOT
BRANCH   1   2
ATOM      2  C   UNL     1     -23.196 -31.063  23.977  1.00  0.00     0.000 C 
BRANCH   2   3
ATOM      3  C   UNL     1     -24.568 -31.746  24.090  1.00  0.00     0.006 C 
BRANCH   3   4
ATOM      4  C   UNL     1     -24.823 -32.309  25.494  1.00  0.00     0.053 C 
BRANCH   4   5
ATOM      5  C   UNL     1     -26.208 -32.864  25.629  1.00  0.00     0.041 C 
ATOM      6  O   UNL     1     -26.658 -33.171  26.763  1.00  0.00    -0.550 OA
ATOM      7  O   UNL     1     -26.988 -33.073  24.498  1.00  0.00    -0.550 OA
ENDBRANCH   4   5
ENDBRANCH   3   4
ENDBRANCH   2   3
ENDBRANCH   1   2
BRANCH   1   8
ATOM      8  C   UNL     1     -20.872 -31.789  23.292  1.00  0.00     0.000 C 
BRANCH   8   9
ATOM      9  C   UNL     1     -20.469 -30.672  24.268  1.00  0.00    -0.000 C 
BRANCH   9  10
ATOM     10  C   UNL     1     -19.000 -30.242  24.099  1.00  0.00    -0.000 C 
BRANCH  10  11
ATOM     11  C   UNL     1     -18.164 -31.288  23.343  1.00  0.00    -0.000 C 
BRANCH  11  12
ATOM     12  C   UNL     1     -16.652 -31.081  23.525  1.00  0.00    -0.003 C 
ATOM     13  C   UNL     1     -16.013 -30.553  22.243  1.00  0.00     0.004 C 
ENDBRANCH  11  12
ENDBRANCH  10  11
ENDBRANCH   9  10
ENDBRANCH   8   9
ENDBRANCH   1   8
TORSDOF 9
ENDMDL
MODEL 3
REMARK VINA RESULT:    -5.251      1.271      1.695
REMARK INTER + INTRA:          -8.469
REMARK INTER:                  -8.060
REMARK INTRA:                  -0.409
REMARK UNBOUND:                -0.454
REMARK SMILES CCCCCCCCCCC(=O)[O-]
REMARK SMILES IDX 7 1 8 2 9 3 10 4 11 5 12 6 13 7 6 8 5 9 4 10 3 11 2 12 1 13
REMARK H PARENT
REMARK Flexibility Score: inf
ROOT
ATOM      1  C   UNL     1     -22.976 -31.087  24.597  1.00  0.00     0.000 C 
ENDROOT
BRANCH   1   2
ATOM      2  C   UNL     1     -23.920 -32.158  25.157  1.00  0.00     0.000 C 
BRANCH   2   3
ATOM      3  C   UNL     1     -25.388 -31.724  25.020  1.00  0.00     0.006 C 
BRANCH   3   4
ATOM      4  C   UNL     1     -26.024 -32.233  23.720  1.00  0.00     0.053 C 
BRANCH   4   5
ATOM      5  C   UNL     1     -27.289 -32.992  23.979  1.00  0.00     0.041 C 
ATOM      6  O   UNL     1     -27.811 -33.683  23.065  1.00  0.00    -0.550 OA
ATOM      7  O   UNL     1     -27.910 -32.911  25.219  1.00  0.00    -0.550 OA
ENDBRANCH   4   5
ENDBRANCH   3   4
ENDBRANCH   2   3
ENDBRANCH   1   2
BRANCH   1   8
ATOM      8  C   UNL     1     -22.185 -31.627  23.395  1.00  0.00     0.000 C 
BRANCH   8   9
ATOM      9  C   UNL     1     -20.665 -31.461  23.560  1.00  0.00    -0.000 C 
BRANCH   9  10
ATOM     10  C   UNL     1     -20.296 -30.235  24.414  1.00  0.00    -0.000 C 
BRANCH  10  11
ATOM     11  C   UNL     1     -18.778 -30.090  24.612  1.00  0.00    -0.000 C 
BRANCH  11  12
ATOM     12  C   UNL     1     -17.992 -30.246  23.301  1.00  0.00    -0.003 C 
ATOM     13  C   UNL     1     -16.746 -31.104  23.507  1.00  0.00     0.004 C 
ENDBRANCH  11  12
ENDBRANCH  10  11
ENDBRANCH   9  10
ENDBRANCH   8   9
ENDBRANCH   1   8
TORSDOF 9
ENDMDL
MODEL 4
REMARK VINA RESULT:    -5.135      4.644      7.793
REMARK INTER + INTRA:          -8.290
REMARK INTER:                  -7.963
REMARK INTRA:                  -0.327
REMARK UNBOUND:                -0.454
REMARK SMILES CCCCCCCCCCC(=O)[O-]
REMARK SMILES IDX 7 1 8 2 9 3 10 4 11 5 12 6 13 7 6 8 5 9 4 10 3 11 2 12 1 13
REMARK H PARENT
REMARK Flexibility Score: inf
ROOT
ATOM      1  C   UNL     1     -20.251 -31.081  23.731  1.00  0.00     0.000 C 
ENDROOT
BRANCH   1   2
ATOM      2  C   UNL     1     -18.871 -31.631  23.355  1.00  0.00     0.000 C 
BRANCH   2   3
ATOM      3  C   UNL     1     -17.751 -30.723  23.889  1.00  0.00     0.006 C 
BRANCH   3   4
ATOM      4  C   UNL     1     -16.491 -30.781  23.016  1.00  0.00     0.053 C 
BRANCH   4   5
ATOM      5  C   UNL     1     -16.552 -29.801  21.884  1.00  0.00     0.041 C 
ATOM      6  O   UNL     1     -16.769 -28.582  22.113  1.00  0.00    -0.550 OA
ATOM      7  O   UNL     1     -16.404 -30.240  20.574  1.00  0.00    -0.550 OA
ENDBRANCH   4   5
ENDBRANCH   3   4
ENDBRANCH   2   3
ENDBRANCH   1   2
BRANCH   1   8
ATOM      8  C   UNL     1     -21.365 -32.044  23.293  1.00  0.00     0.000 C 
BRANCH   8   9
ATOM      9  C   UNL     1     -22.668 -31.318  22.923  1.00  0.00    -0.000 C 
BRANCH   9  10
ATOM     10  C   UNL     1     -23.464 -30.868  24.161  1.00  0.00    -0.000 C 
BRANCH  10  11
ATOM     11  C   UNL     1     -23.793 -32.034  25.107  1.00  0.00    -0.000 C 
BRANCH  11  12
ATOM     12  C   UNL     1     -25.305 -32.233  25.298  1.00  0.00    -0.003 C 
ATOM     13  C   UNL     1     -25.589 -33.240  26.410  1.00  0.00     0.004 C 
ENDBRANCH  11  12
ENDBRANCH  10  11
ENDBRANCH   9  10
ENDBRANCH   8   9
ENDBRANCH   1   8
TORSDOF 9
ENDMDL
MODEL 5
REMARK VINA RESULT:    -5.051      5.671      7.827
REMARK INTER + INTRA:          -8.162
REMARK INTER:                  -7.468
REMARK INTRA:                  -0.695
REMARK UNBOUND:                -0.454
REMARK SMILES CCCCCCCCCCC(=O)[O-]
REMARK SMILES IDX 7 1 8 2 9 3 10 4 11 5 12 6 13 7 6 8 5 9 4 10 3 11 2 12 1 13
REMARK H PARENT
REMARK Flexibility Score: inf
ROOT
ATOM      1  C   UNL     1     -18.195 -30.700  23.663  1.00  0.00     0.000 C 
ENDROOT
BRANCH   1   2
ATOM      2  C   UNL     1     -16.731 -31.142  23.566  1.00  0.00     0.000 C 
BRANCH   2   3
ATOM      3  C   UNL     1     -15.990 -30.361  22.469  1.00  0.00     0.006 C 
BRANCH   3   4
ATOM      4  C   UNL     1     -16.839 -29.219  21.896  1.00  0.00     0.053 C 
BRANCH   4   5
ATOM      5  C   UNL     1     -16.519 -28.956  20.456  1.00  0.00     0.041 C 
ATOM      6  O   UNL     1     -16.287 -29.914  19.674  1.00  0.00    -0.550 OA
ATOM      7  O   UNL     1     -16.443 -27.651  19.987  1.00  0.00    -0.550 OA
ENDBRANCH   4   5
ENDBRANCH   3   4
ENDBRANCH   2   3
ENDBRANCH   1   2
BRANCH   1   8
ATOM      8  C   UNL     1     -19.139 -31.817  23.191  1.00  0.00     0.000 C 
BRANCH   8   9
ATOM      9  C   UNL     1     -20.610 -31.540  23.540  1.00  0.00    -0.000 C 
BRANCH   9  10
ATOM     10  C   UNL     1     -20.928 -30.036  23.606  1.00  0.00    -0.000 C 
BRANCH  10  11
ATOM     11  C   UNL     1     -21.463 -29.605  24.981  1.00  0.00    -0.000 C 
BRANCH  11  12
ATOM     12  C   UNL     1     -20.626 -28.485  25.618  1.00  0.00    -0.003 C 
ATOM     13  C   UNL     1     -19.550 -29.059  26.537  1.00  0.00     0.004 C 
ENDBRANCH  11  12
ENDBRANCH  10  11
ENDBRANCH   9  10
ENDBRANCH   8   9
ENDBRANCH   1   8
TORSDOF 9
ENDMDL
MODEL 6
REMARK VINA RESULT:    -5.041      3.501      7.097
REMARK INTER + INTRA:          -8.148
REMARK INTER:                  -6.910
REMARK INTRA:                  -1.239
REMARK UNBOUND:                -0.454
REMARK SMILES CCCCCCCCCCC(=O)[O-]
REMARK SMILES IDX 7 1 8 2 9 3 10 4 11 5 12 6 13 7 6 8 5 9 4 10 3 11 2 12 1 13
REMARK H PARENT
REMARK Flexibility Score: inf
ROOT
ATOM      1  C   UNL     1     -26.607 -32.801  26.315  1.00  0.00     0.000 C 
ENDROOT
BRANCH   1   2
ATOM      2  C   UNL     1     -25.176 -32.911  25.777  1.00  0.00     0.000 C 
BRANCH   2   3
ATOM      3  C   UNL     1     -24.706 -31.573  25.183  1.00  0.00     0.006 C 
BRANCH   3   4
ATOM      4  C   UNL     1     -24.071 -31.743  23.798  1.00  0.00     0.053 C 
BRANCH   4   5
ATOM      5  C   UNL     1     -22.588 -31.532  23.834  1.00  0.00     0.041 C 
ATOM      6  O   UNL     1     -21.840 -32.162  23.041  1.00  0.00    -0.550 OA
ATOM      7  O   UNL     1     -22.030 -30.666  24.766  1.00  0.00    -0.550 OA
ENDBRANCH   4   5
ENDBRANCH   3   4
ENDBRANCH   2   3
ENDBRANCH   1   2
BRANCH   1   8
ATOM      8  C   UNL     1     -27.102 -31.347  26.268  1.00  0.00     0.000 C 
BRANCH   8   9
ATOM      9  C   UNL     1     -28.428 -31.195  25.506  1.00  0.00    -0.000 C 
BRANCH   9  10
ATOM     10  C   UNL     1     -28.250 -30.501  24.144  1.00  0.00    -0.000 C 
BRANCH  10  11
ATOM     11  C   UNL     1     -28.640 -31.408  22.965  1.00  0.00    -0.000 C 
BRANCH  11  12
ATOM     12  C   UNL     1     -27.540 -32.418  22.607  1.00  0.00    -0.003 C 
ATOM     13  C   UNL     1     -27.954 -33.838  22.987  1.00  0.00     0.004 C 
ENDBRANCH  11  12
ENDBRANCH  10  11
ENDBRANCH   9  10
ENDBRANCH   8   9
ENDBRANCH   1   8
TORSDOF 9
ENDMDL
MODEL 7
REMARK VINA RESULT:    -5.035      1.202      2.038
REMARK INTER + INTRA:          -8.138
REMARK INTER:                  -7.618
REMARK INTRA:                  -0.520
REMARK UNBOUND:                -0.454
REMARK SMILES CCCCCCCCCCC(=O)[O-]
REMARK SMILES IDX 7 1 8 2 9 3 10 4 11 5 12 6 13 7 6 8 5 9 4 10 3 11 2 12 1 13
REMARK H PARENT
REMARK Flexibility Score: inf
ROOT
ATOM      1  C   UNL     1     -23.608 -31.390  22.842  1.00  0.00     0.000 C 
ENDROOT
BRANCH   1   2
ATOM      2  C   UNL     1     -24.789 -31.791  23.734  1.00  0.00     0.000 C 
BRANCH   2   3
ATOM      3  C   UNL     1     -24.324 -32.069  25.172  1.00  0.00     0.006 C 
BRANCH   3   4
ATOM      4  C   UNL     1     -25.292 -32.988  25.928  1.00  0.00     0.053 C 
BRANCH   4   5
ATOM      5  C   UNL     1     -26.674 -32.412  25.990  1.00  0.00     0.041 C 
ATOM      6  O   UNL     1     -27.636 -33.018  25.450  1.00  0.00    -0.550 OA
ATOM      7  O   UNL     1     -26.892 -31.191  26.615  1.00  0.00    -0.550 OA
ENDBRANCH   4   5
ENDBRANCH   3   4
ENDBRANCH   2   3
ENDBRANCH   1   2
BRANCH   1   8
ATOM      8  C   UNL     1     -22.276 -31.851  23.453  1.00  0.00     0.000 C 
BRANCH   8   9
ATOM      9  C   UNL     1     -21.174 -30.785  23.352  1.00  0.00    -0.000 C 
BRANCH   9  10
ATOM     10  C   UNL     1     -19.781 -31.342  23.696  1.00  0.00    -0.000 C 
BRANCH  10  11
ATOM     11  C   UNL     1     -18.845 -30.271  24.279  1.00  0.00    -0.000 C 
BRANCH  11  12
ATOM     12  C   UNL     1     -19.608 -29.061  24.841  1.00  0.00    -0.003 C 
ATOM     13  C   UNL     1     -19.631 -29.089  26.368  1.00  0.00     0.004 C 
ENDBRANCH  11  12
ENDBRANCH  10  11
ENDBRANCH   9  10
ENDBRANCH   8   9
ENDBRANCH   1   8
TORSDOF 9
ENDMDL
MODEL 8
REMARK VINA RESULT:    -4.987      3.424      7.091
REMARK INTER + INTRA:          -8.066
REMARK INTER:                  -7.355
REMARK INTRA:                  -0.711
REMARK UNBOUND:                -0.454
REMARK SMILES CCCCCCCCCCC(=O)[O-]
REMARK SMILES IDX 7 1 8 2 9 3 10 4 11 5 12 6 13 7 6 8 5 9 4 10 3 11 2 12 1 13
REMARK H PARENT
REMARK Flexibility Score: inf
ROOT
ATOM      1  C   UNL     1     -24.240 -32.530  25.770  1.00  0.00     0.000 C 
ENDROOT
BRANCH   1   2
ATOM      2  C   UNL     1     -24.000 -31.720  24.491  1.00  0.00     0.000 C 
BRANCH   2   3
ATOM      3  C   UNL     1     -22.648 -30.992  24.545  1.00  0.00     0.006 C 
BRANCH   3   4
ATOM      4  C   UNL     1     -21.670 -31.501  23.480  1.00  0.00     0.053 C 
BRANCH   4   5
ATOM      5  C   UNL     1     -20.254 -31.129  23.799  1.00  0.00     0.041 C 
ATOM      6  O   UNL     1     -19.300 -31.769  23.283  1.00  0.00    -0.550 OA
ATOM      7  O   UNL     1     -19.989 -30.099  24.692  1.00  0.00    -0.550 OA
ENDBRANCH   4   5
ENDBRANCH   3   4
ENDBRANCH   2   3
ENDBRANCH   1   2
BRANCH   1   8
ATOM      8  C   UNL     1     -25.638 -33.167  25.763  1.00  0.00     0.000 C 
BRANCH   8   9
ATOM      9  C   UNL     1     -26.758 -32.146  26.015  1.00  0.00    -0.000 C 
BRANCH   9  10
ATOM     10  C   UNL     1     -27.874 -32.220  24.958  1.00  0.00    -0.000 C 
BRANCH  10  11
ATOM     11  C   UNL     1     -27.566 -33.237  23.846  1.00  0.00    -0.000 C 
BRANCH  11  12
ATOM     12  C   UNL     1     -27.788 -32.661  22.439  1.00  0.00    -0.003 C 
ATOM     13  C   UNL     1     -26.721 -31.624  22.096  1.00  0.00     0.004 C 
ENDBRANCH  11  12
ENDBRANCH  10  11
ENDBRANCH   9  10
ENDBRANCH   8   9
ENDBRANCH   1   8
TORSDOF 9
ENDMDL
MODEL 9
REMARK VINA RESULT:    -4.962      2.063      3.313
REMARK INTER + INTRA:          -8.027
REMARK INTER:                  -7.654
REMARK INTRA:                  -0.373
REMARK UNBOUND:                -0.454
REMARK SMILES CCCCCCCCCCC(=O)[O-]
REMARK SMILES IDX 7 1 8 2 9 3 10 4 11 5 12 6 13 7 6 8 5 9 4 10 3 11 2 12 1 13
REMARK H PARENT
REMARK Flexibility Score: inf
ROOT
ATOM      1  C   UNL     1     -20.388 -30.200  24.583  1.00  0.00     0.000 C 
ENDROOT
BRANCH   1   2
ATOM      2  C   UNL     1     -20.990 -31.263  23.657  1.00  0.00     0.000 C 
BRANCH   2   3
ATOM      3  C   UNL     1     -22.508 -31.383  23.870  1.00  0.00     0.006 C 
BRANCH   3   4
ATOM      4  C   UNL     1     -23.283 -31.365  22.547  1.00  0.00     0.053 C 
BRANCH   4   5
ATOM      5  C   UNL     1     -24.728 -31.710  22.742  1.00  0.00     0.041 C 
ATOM      6  O   UNL     1     -25.514 -31.721  21.759  1.00  0.00    -0.550 OA
ATOM      7  O   UNL     1     -25.212 -31.985  24.015  1.00  0.00    -0.550 OA
ENDBRANCH   4   5
ENDBRANCH   3   4
ENDBRANCH   2   3
ENDBRANCH   1   2
BRANCH   1   8
ATOM      8  C   UNL     1     -18.870 -30.083  24.371  1.00  0.00     0.000 C 
BRANCH   8   9
ATOM      9  C   UNL     1     -18.284 -31.275  23.598  1.00  0.00    -0.000 C 
BRANCH   9  10
ATOM     10  C   UNL     1     -16.748 -31.228  23.518  1.00  0.00    -0.000 C 
BRANCH  10  11
ATOM     11  C   UNL     1     -16.240 -30.105  22.598  1.00  0.00    -0.000 C 
BRANCH  11  12
ATOM     12  C   UNL     1     -16.020 -30.577  21.152  1.00  0.00    -0.003 C 
ATOM     13  C   UNL     1     -16.224 -29.431  20.164  1.00  0.00     0.004 C 
ENDBRANCH  11  12
ENDBRANCH  10  11
ENDBRANCH   9  10
ENDBRANCH   8   9
ENDBRANCH   1   8
TORSDOF 9
ENDMDL
