MODEL 1
REMARK VINA RESULT:    -3.527      0.000      0.000
REMARK INTER + INTRA:          -5.170
REMARK INTER:                  -5.383
REMARK INTRA:                   0.212
REMARK UNBOUND:                 0.212
REMARK SMILES CC1=CCC[C@@H](C)C(=O)C[C@@H](C(C)C)C(=O)C1
REMARK SMILES IDX 8 1 9 2 6 3 7 4 5 5 4 6 3 7 2 8 1 9 10 11 11 12 15 13 16 14
REMARK SMILES IDX 17 15 12 17 13 18 14 19
REMARK H PARENT
REMARK Flexibility Score: 70.00
ROOT
ATOM      1  C   UNL     1      19.944  25.995  40.766  1.00  0.00     0.136 C 
ATOM      2  O   UNL     1      19.603  25.937  39.593  1.00  0.00    -0.299 OA
ENDROOT
BRANCH   1   3
ATOM      3  C   UNL     1      21.387  25.726  41.131  1.00  0.00     0.053 C 
ATOM      4  C   UNL     1      22.027  24.749  40.137  1.00  0.00     0.016 C 
BRANCH   3   5
ATOM      5  C   UNL     1      21.456  25.186  42.586  1.00  0.00     0.015 C 
BRANCH   5   6
ATOM      6  C   UNL     1      22.314  26.027  43.546  1.00  0.00     0.028 C 
BRANCH   6   7
ATOM      7  C   UNL     1      22.841  27.331  42.987  1.00  0.00    -0.028 C 
ATOM      8  C   UNL     1      22.162  28.500  42.884  1.00  0.00    -0.070 CG0
ATOM      9  C   UNL     1      22.938  29.715  42.441  1.00  0.00     0.039 C 
ATOM     10  G   UNL     1      20.689  28.655  43.225  1.00  0.00     0.000 G0
ENDBRANCH   6   7
ENDBRANCH   5   6
ENDBRANCH   3   5
ENDBRANCH   1   3
BRANCH   1  11
ATOM     11  C   UNL     1      18.907  26.337  41.813  1.00  0.00     0.087 C 
BRANCH  11  12
ATOM     12  C   UNL     1      18.509  27.841  41.876  1.00  0.00     0.066 C 
BRANCH  12  13
ATOM     13  C   UNL     1      19.713  28.763  42.074  1.00  0.00     0.140 C 
ATOM     14  O   UNL     1      19.927  29.630  41.239  1.00  0.00    -0.299 OA
BRANCH  13  15
ATOM     15  C   UNL     1      20.684  28.656  43.241  1.00  0.00     0.106 CG0
ATOM     16  G   UNL     1      22.147  28.498  42.859  1.00  0.00     0.000 G0
ENDBRANCH  13  15
ENDBRANCH  12  13
BRANCH  12  17
ATOM     17  C   UNL     1      17.394  28.072  42.948  1.00  0.00    -0.006 C 
ATOM     18  C   UNL     1      17.341  29.504  43.514  1.00  0.00     0.008 C 
ATOM     19  C   UNL     1      16.008  27.684  42.415  1.00  0.00     0.008 C 
ENDBRANCH  12  17
ENDBRANCH  11  12
ENDBRANCH   1  11
TORSDOF 1
ENDMDL
MODEL 2
REMARK VINA RESULT:    -3.479      2.111      2.952
REMARK INTER + INTRA:          -5.097
REMARK INTER:                  -4.744
REMARK INTRA:                  -0.353
REMARK UNBOUND:                 0.212
REMARK SMILES CC1=CCC[C@@H](C)C(=O)C[C@@H](C(C)C)C(=O)C1
REMARK SMILES IDX 8 1 9 2 6 3 7 4 5 5 4 6 3 7 2 8 1 9 10 11 11 12 15 13 16 14
REMARK SMILES IDX 17 15 12 17 13 18 14 19
REMARK H PARENT
REMARK Flexibility Score: 70.00
ROOT
ATOM      1  C   UNL     1      19.546  26.584  39.446  1.00  0.00     0.136 C 
ATOM      2  O   UNL     1      18.680  26.543  38.584  1.00  0.00    -0.299 OA
ENDROOT
BRANCH   1   3
ATOM      3  C   UNL     1      20.855  27.280  39.146  1.00  0.00     0.053 C 
ATOM      4  C   UNL     1      20.612  28.603  38.410  1.00  0.00     0.016 C 
BRANCH   3   5
ATOM      5  C   UNL     1      21.766  26.329  38.323  1.00  0.00     0.015 C 
BRANCH   5   6
ATOM      6  C   UNL     1      22.821  25.573  39.146  1.00  0.00     0.028 C 
BRANCH   6   7
ATOM      7  C   UNL     1      23.461  26.356  40.273  1.00  0.00    -0.028 C 
ATOM      8  C   UNL     1      23.141  26.289  41.588  1.00  0.00    -0.070 CG0
ATOM      9  C   UNL     1      24.019  27.043  42.555  1.00  0.00     0.039 C 
ATOM     10  G   UNL     1      21.982  25.472  42.136  1.00  0.00     0.000 G0
ENDBRANCH   6   7
ENDBRANCH   5   6
ENDBRANCH   3   5
ENDBRANCH   1   3
BRANCH   1  11
ATOM     11  C   UNL     1      19.278  25.933  40.785  1.00  0.00     0.087 C 
BRANCH  11  12
ATOM     12  C   UNL     1      19.650  26.803  42.023  1.00  0.00     0.066 C 
BRANCH  12  13
ATOM     13  C   UNL     1      20.847  26.248  42.796  1.00  0.00     0.140 C 
ATOM     14  O   UNL     1      20.914  26.458  43.998  1.00  0.00    -0.299 OA
BRANCH  13  15
ATOM     15  C   UNL     1      21.983  25.462  42.155  1.00  0.00     0.106 CG0
ATOM     16  G   UNL     1      23.125  26.300  41.603  1.00  0.00     0.000 G0
ENDBRANCH  13  15
ENDBRANCH  12  13
BRANCH  12  17
ATOM     17  C   UNL     1      18.399  27.028  42.934  1.00  0.00    -0.006 C 
ATOM     18  C   UNL     1      18.105  28.505  43.260  1.00  0.00     0.008 C 
ATOM     19  C   UNL     1      17.142  26.378  42.340  1.00  0.00     0.008 C 
ENDBRANCH  12  17
ENDBRANCH  11  12
ENDBRANCH   1  11
TORSDOF 1
ENDMDL
MODEL 3
REMARK VINA RESULT:    -3.474      2.183      3.872
REMARK INTER + INTRA:          -5.089
REMARK INTER:                  -4.979
REMARK INTRA:                  -0.110
REMARK UNBOUND:                 0.212
REMARK SMILES CC1=CCC[C@@H](C)C(=O)C[C@@H](C(C)C)C(=O)C1
REMARK SMILES IDX 8 1 9 2 6 3 7 4 5 5 4 6 3 7 2 8 1 9 10 11 11 12 15 13 16 14
REMARK SMILES IDX 17 15 12 17 13 18 14 19
REMARK H PARENT
REMARK Flexibility Score: 70.00
ROOT
ATOM      1  C   UNL     1      17.757  27.340  42.474  1.00  0.00     0.136 C 
ATOM      2  O   UNL     1      17.312  26.219  42.684  1.00  0.00    -0.299 OA
ENDROOT
BRANCH   1   3
ATOM      3  C   UNL     1      17.884  28.312  43.626  1.00  0.00     0.053 C 
ATOM      4  C   UNL     1      17.214  29.649  43.287  1.00  0.00     0.016 C 
BRANCH   3   5
ATOM      5  C   UNL     1      19.385  28.500  43.975  1.00  0.00     0.015 C 
BRANCH   5   6
ATOM      6  C   UNL     1      20.272  27.276  43.691  1.00  0.00     0.028 C 
BRANCH   6   7
ATOM      7  C   UNL     1      21.473  27.525  42.803  1.00  0.00    -0.028 C 
ATOM      8  C   UNL     1      21.735  26.931  41.613  1.00  0.00    -0.070 CG0
ATOM      9  C   UNL     1      22.912  27.449  40.825  1.00  0.00     0.039 C 
ATOM     10  G   UNL     1      20.892  25.813  41.022  1.00  0.00     0.000 G0
ENDBRANCH   6   7
ENDBRANCH   5   6
ENDBRANCH   3   5
ENDBRANCH   1   3
BRANCH   1  11
ATOM     11  C   UNL     1      18.165  27.713  41.067  1.00  0.00     0.087 C 
BRANCH  11  12
ATOM     12  C   UNL     1      18.438  26.506  40.121  1.00  0.00     0.066 C 
BRANCH  12  13
ATOM     13  C   UNL     1      19.931  26.252  39.904  1.00  0.00     0.140 C 
ATOM     14  O   UNL     1      20.388  26.387  38.778  1.00  0.00    -0.299 OA
BRANCH  13  15
ATOM     15  C   UNL     1      20.889  25.817  41.004  1.00  0.00     0.106 CG0
ATOM     16  G   UNL     1      21.723  26.928  41.619  1.00  0.00     0.000 G0
ENDBRANCH  13  15
ENDBRANCH  12  13
BRANCH  12  17
ATOM     17  C   UNL     1      17.656  26.672  38.776  1.00  0.00    -0.006 C 
ATOM     18  C   UNL     1      16.565  25.610  38.539  1.00  0.00     0.008 C 
ATOM     19  C   UNL     1      17.039  28.071  38.650  1.00  0.00     0.008 C 
ENDBRANCH  12  17
ENDBRANCH  11  12
ENDBRANCH   1  11
TORSDOF 1
ENDMDL
MODEL 4
REMARK VINA RESULT:    -3.430      2.446      4.975
REMARK INTER + INTRA:          -5.022
REMARK INTER:                  -4.504
REMARK INTRA:                  -0.518
REMARK UNBOUND:                 0.212
REMARK SMILES CC1=CCC[C@@H](C)C(=O)C[C@@H](C(C)C)C(=O)C1
REMARK SMILES IDX 8 1 9 2 6 3 7 4 5 5 4 6 3 7 2 8 1 9 10 11 11 12 15 13 16 14
REMARK SMILES IDX 17 15 12 17 13 18 14 19
REMARK H PARENT
REMARK Flexibility Score: 70.00
ROOT
ATOM      1  C   UNL     1      19.372  27.772  43.274  1.00  0.00     0.136 C 
ATOM      2  O   UNL     1      19.757  28.517  44.164  1.00  0.00    -0.299 OA
ENDROOT
BRANCH   1   3
ATOM      3  C   UNL     1      17.926  27.832  42.835  1.00  0.00     0.053 C 
ATOM      4  C   UNL     1      17.412  26.436  42.459  1.00  0.00     0.016 C 
BRANCH   3   5
ATOM      5  C   UNL     1      17.790  28.827  41.650  1.00  0.00     0.015 C 
BRANCH   5   6
ATOM      6  C   UNL     1      17.384  28.187  40.313  1.00  0.00     0.028 C 
BRANCH   6   7
ATOM      7  C   UNL     1      18.287  28.491  39.136  1.00  0.00    -0.028 C 
ATOM      8  C   UNL     1      19.365  27.773  38.738  1.00  0.00    -0.070 CG0
ATOM      9  C   UNL     1      20.024  28.174  37.441  1.00  0.00     0.039 C 
ATOM     10  G   UNL     1      19.912  26.576  39.498  1.00  0.00     0.000 G0
ENDBRANCH   6   7
ENDBRANCH   5   6
ENDBRANCH   3   5
ENDBRANCH   1   3
BRANCH   1  11
ATOM     11  C   UNL     1      20.358  26.816  42.641  1.00  0.00     0.087 C 
BRANCH  11  12
ATOM     12  C   UNL     1      21.320  27.460  41.599  1.00  0.00     0.066 C 
BRANCH  12  13
ATOM     13  C   UNL     1      21.235  26.792  40.225  1.00  0.00     0.140 C 
ATOM     14  O   UNL     1      22.271  26.438  39.683  1.00  0.00    -0.299 OA
BRANCH  13  15
ATOM     15  C   UNL     1      19.932  26.558  39.472  1.00  0.00     0.106 CG0
ATOM     16  G   UNL     1      19.371  27.771  38.749  1.00  0.00     0.000 G0
ENDBRANCH  13  15
ENDBRANCH  12  13
BRANCH  12  17
ATOM     17  C   UNL     1      22.782  27.507  42.153  1.00  0.00    -0.006 C 
ATOM     18  C   UNL     1      23.151  28.823  42.864  1.00  0.00     0.008 C 
ATOM     19  C   UNL     1      23.069  26.326  43.090  1.00  0.00     0.008 C 
ENDBRANCH  12  17
ENDBRANCH  11  12
ENDBRANCH   1  11
TORSDOF 1
ENDMDL
MODEL 5
REMARK VINA RESULT:    -3.422      2.231      3.914
REMARK INTER + INTRA:          -5.010
REMARK INTER:                  -4.678
REMARK INTRA:                  -0.332
REMARK UNBOUND:                 0.212
REMARK SMILES CC1=CCC[C@@H](C)C(=O)C[C@@H](C(C)C)C(=O)C1
REMARK SMILES IDX 8 1 9 2 6 3 7 4 5 5 4 6 3 7 2 8 1 9 10 11 11 12 15 13 16 14
REMARK SMILES IDX 17 15 12 17 13 18 14 19
REMARK H PARENT
REMARK Flexibility Score: 70.00
ROOT
ATOM      1  C   UNL     1      20.310  28.467  41.791  1.00  0.00     0.136 C 
ATOM      2  O   UNL     1      21.214  29.256  42.029  1.00  0.00    -0.299 OA
ENDROOT
BRANCH   1   3
ATOM      3  C   UNL     1      19.687  27.692  42.930  1.00  0.00     0.053 C 
ATOM      4  C   UNL     1      18.796  28.601  43.785  1.00  0.00     0.016 C 
BRANCH   3   5
ATOM      5  C   UNL     1      20.809  27.034  43.778  1.00  0.00     0.015 C 
BRANCH   5   6
ATOM      6  C   UNL     1      21.450  25.788  43.144  1.00  0.00     0.028 C 
BRANCH   6   7
ATOM      7  C   UNL     1      22.766  26.015  42.430  1.00  0.00    -0.028 C 
ATOM      8  C   UNL     1      23.002  25.864  41.104  1.00  0.00    -0.070 CG0
ATOM      9  C   UNL     1      24.351  26.299  40.587  1.00  0.00     0.039 C 
ATOM     10  G   UNL     1      21.980  25.323  40.119  1.00  0.00     0.000 G0
ENDBRANCH   6   7
ENDBRANCH   5   6
ENDBRANCH   3   5
ENDBRANCH   1   3
BRANCH   1  11
ATOM     11  C   UNL     1      19.847  28.294  40.361  1.00  0.00     0.087 C 
BRANCH  11  12
ATOM     12  C   UNL     1      19.784  26.818  39.866  1.00  0.00     0.066 C 
BRANCH  12  13
ATOM     13  C   UNL     1      21.137  26.303  39.371  1.00  0.00     0.140 C 
ATOM     14  O   UNL     1      21.557  26.707  38.297  1.00  0.00    -0.299 OA
BRANCH  13  15
ATOM     15  C   UNL     1      21.991  25.293  40.125  1.00  0.00     0.106 CG0
ATOM     16  G   UNL     1      23.003  25.887  41.090  1.00  0.00     0.000 G0
ENDBRANCH  13  15
ENDBRANCH  12  13
BRANCH  12  17
ATOM     17  C   UNL     1      18.649  26.641  38.805  1.00  0.00    -0.006 C 
ATOM     18  C   UNL     1      17.260  26.341  39.401  1.00  0.00     0.008 C 
ATOM     19  C   UNL     1      18.552  27.857  37.873  1.00  0.00     0.008 C 
ENDBRANCH  12  17
ENDBRANCH  11  12
ENDBRANCH   1  11
TORSDOF 1
ENDMDL
MODEL 6
REMARK VINA RESULT:    -3.328      2.085      3.195
REMARK INTER + INTRA:          -4.867
REMARK INTER:                  -4.853
REMARK INTRA:                  -0.015
REMARK UNBOUND:                 0.212
REMARK SMILES CC1=CCC[C@@H](C)C(=O)C[C@@H](C(C)C)C(=O)C1
REMARK SMILES IDX 8 1 9 2 6 3 7 4 5 5 4 6 3 7 2 8 1 9 10 11 11 12 15 13 16 14
REMARK SMILES IDX 17 15 12 17 13 18 14 19
REMARK H PARENT
REMARK Flexibility Score: 70.00
ROOT
ATOM      1  C   UNL     1      21.100  27.669  43.056  1.00  0.00     0.136 C 
ATOM      2  O   UNL     1      22.034  28.458  43.023  1.00  0.00    -0.299 OA
ENDROOT
BRANCH   1   3
ATOM      3  C   UNL     1      21.381  26.186  42.957  1.00  0.00     0.053 C 
ATOM      4  C   UNL     1      22.820  25.874  43.387  1.00  0.00     0.016 C 
BRANCH   3   5
ATOM      5  C   UNL     1      21.102  25.707  41.507  1.00  0.00     0.015 C 
BRANCH   5   6
ATOM      6  C   UNL     1      21.959  26.387  40.427  1.00  0.00     0.028 C 
BRANCH   6   7
ATOM      7  C   UNL     1      21.222  26.820  39.177  1.00  0.00    -0.028 C 
ATOM      8  C   UNL     1      20.583  27.999  38.982  1.00  0.00    -0.070 CG0
ATOM      9  C   UNL     1      20.051  28.278  37.598  1.00  0.00     0.039 C 
ATOM     10  G   UNL     1      20.412  29.056  40.060  1.00  0.00     0.000 G0
ENDBRANCH   6   7
ENDBRANCH   5   6
ENDBRANCH   3   5
ENDBRANCH   1   3
BRANCH   1  11
ATOM     11  C   UNL     1      19.693  28.206  43.195  1.00  0.00     0.087 C 
BRANCH  11  12
ATOM     12  C   UNL     1      18.795  28.028  41.934  1.00  0.00     0.066 C 
BRANCH  12  13
ATOM     13  C   UNL     1      19.110  29.047  40.837  1.00  0.00     0.140 C 
ATOM     14  O   UNL     1      18.264  29.883  40.558  1.00  0.00    -0.299 OA
BRANCH  13  15
ATOM     15  C   UNL     1      20.412  29.072  40.048  1.00  0.00     0.106 CG0
ATOM     16  G   UNL     1      20.555  27.988  38.992  1.00  0.00     0.000 G0
ENDBRANCH  13  15
ENDBRANCH  12  13
BRANCH  12  17
ATOM     17  C   UNL     1      17.282  28.022  42.331  1.00  0.00    -0.006 C 
ATOM     18  C   UNL     1      16.684  26.617  42.540  1.00  0.00     0.008 C 
ATOM     19  C   UNL     1      17.022  28.876  43.580  1.00  0.00     0.008 C 
ENDBRANCH  12  17
ENDBRANCH  11  12
ENDBRANCH   1  11
TORSDOF 1
ENDMDL
MODEL 7
REMARK VINA RESULT:    -3.306      2.660      5.091
REMARK INTER + INTRA:          -4.833
REMARK INTER:                  -4.482
REMARK INTRA:                  -0.352
REMARK UNBOUND:                 0.212
REMARK SMILES CC1=CCC[C@@H](C)C(=O)C[C@@H](C(C)C)C(=O)C1
REMARK SMILES IDX 8 1 9 2 6 3 7 4 5 5 4 6 3 7 2 8 1 9 10 11 11 12 15 13 16 14
REMARK SMILES IDX 17 15 12 17 13 18 14 19
REMARK H PARENT
REMARK Flexibility Score: 70.00
ROOT
ATOM      1  C   UNL     1      20.909  26.652  43.071  1.00  0.00     0.136 C 
ATOM      2  O   UNL     1      21.064  26.249  44.215  1.00  0.00    -0.299 OA
ENDROOT
BRANCH   1   3
ATOM      3  C   UNL     1      19.715  27.523  42.750  1.00  0.00     0.053 C 
ATOM      4  C   UNL     1      19.331  28.388  43.957  1.00  0.00     0.016 C 
BRANCH   3   5
ATOM      5  C   UNL     1      18.533  26.626  42.292  1.00  0.00     0.015 C 
BRANCH   5   6
ATOM      6  C   UNL     1      18.763  25.883  40.966  1.00  0.00     0.028 C 
BRANCH   6   7
ATOM      7  C   UNL     1      18.799  26.747  39.724  1.00  0.00    -0.028 C 
ATOM      8  C   UNL     1      19.837  26.885  38.864  1.00  0.00    -0.070 CG0
ATOM      9  C   UNL     1      19.593  27.678  37.604  1.00  0.00     0.039 C 
ATOM     10  G   UNL     1      21.204  26.256  39.081  1.00  0.00     0.000 G0
ENDBRANCH   6   7
ENDBRANCH   5   6
ENDBRANCH   3   5
ENDBRANCH   1   3
BRANCH   1  11
ATOM     11  C   UNL     1      21.919  26.263  42.015  1.00  0.00     0.087 C 
BRANCH  11  12
ATOM     12  C   UNL     1      22.436  27.441  41.136  1.00  0.00     0.066 C 
BRANCH  12  13
ATOM     13  C   UNL     1      22.272  27.177  39.639  1.00  0.00     0.140 C 
ATOM     14  O   UNL     1      23.020  27.748  38.860  1.00  0.00    -0.299 OA
BRANCH  13  15
ATOM     15  C   UNL     1      21.211  26.257  39.048  1.00  0.00     0.106 CG0
ATOM     16  G   UNL     1      19.838  26.881  38.862  1.00  0.00     0.000 G0
ENDBRANCH  13  15
ENDBRANCH  12  13
BRANCH  12  17
ATOM     17  C   UNL     1      23.906  27.812  41.522  1.00  0.00    -0.006 C 
ATOM     18  C   UNL     1      24.026  28.785  42.711  1.00  0.00     0.008 C 
ATOM     19  C   UNL     1      24.750  26.561  41.801  1.00  0.00     0.008 C 
ENDBRANCH  12  17
ENDBRANCH  11  12
ENDBRANCH   1  11
TORSDOF 1
ENDMDL
MODEL 8
REMARK VINA RESULT:    -3.269      3.507      6.351
REMARK INTER + INTRA:          -4.776
REMARK INTER:                  -4.665
REMARK INTRA:                  -0.112
REMARK UNBOUND:                 0.212
REMARK SMILES CC1=CCC[C@@H](C)C(=O)C[C@@H](C(C)C)C(=O)C1
REMARK SMILES IDX 8 1 9 2 6 3 7 4 5 5 4 6 3 7 2 8 1 9 10 11 11 12 15 13 16 14
REMARK SMILES IDX 17 15 12 17 13 18 14 19
REMARK H PARENT
REMARK Flexibility Score: 70.00
ROOT
ATOM      1  C   UNL     1      16.231  24.701  41.692  1.00  0.00     0.136 C 
ATOM      2  O   UNL     1      16.553  23.693  41.078  1.00  0.00    -0.299 OA
ENDROOT
BRANCH   1   3
ATOM      3  C   UNL     1      15.226  24.593  42.817  1.00  0.00     0.053 C 
ATOM      4  C   UNL     1      15.182  23.164  43.372  1.00  0.00     0.016 C 
BRANCH   3   5
ATOM      5  C   UNL     1      13.832  25.048  42.305  1.00  0.00     0.015 C 
BRANCH   5   6
ATOM      6  C   UNL     1      13.013  25.870  43.313  1.00  0.00     0.028 C 
BRANCH   6   7
ATOM      7  C   UNL     1      12.605  27.255  42.856  1.00  0.00    -0.028 C 
ATOM      8  C   UNL     1      13.389  28.360  42.825  1.00  0.00    -0.070 CG0
ATOM      9  C   UNL     1      12.816  29.599  42.182  1.00  0.00     0.039 C 
ATOM     10  G   UNL     1      14.811  28.404  43.360  1.00  0.00     0.000 G0
ENDBRANCH   6   7
ENDBRANCH   5   6
ENDBRANCH   3   5
ENDBRANCH   1   3
BRANCH   1  11
ATOM     11  C   UNL     1      16.852  26.024  41.302  1.00  0.00     0.087 C 
BRANCH  11  12
ATOM     12  C   UNL     1      16.958  27.065  42.457  1.00  0.00     0.066 C 
BRANCH  12  13
ATOM     13  C   UNL     1      15.913  28.176  42.347  1.00  0.00     0.140 C 
ATOM     14  O   UNL     1      15.966  28.934  41.390  1.00  0.00    -0.299 OA
BRANCH  13  15
ATOM     15  C   UNL     1      14.815  28.417  43.374  1.00  0.00     0.106 CG0
ATOM     16  G   UNL     1      13.396  28.374  42.833  1.00  0.00     0.000 G0
ENDBRANCH  13  15
ENDBRANCH  12  13
BRANCH  12  17
ATOM     17  C   UNL     1      18.415  27.620  42.567  1.00  0.00    -0.006 C 
ATOM     18  C   UNL     1      18.674  28.486  43.815  1.00  0.00     0.008 C 
ATOM     19  C   UNL     1      19.456  26.493  42.506  1.00  0.00     0.008 C 
ENDBRANCH  12  17
ENDBRANCH  11  12
ENDBRANCH   1  11
TORSDOF 1
ENDMDL
MODEL 9
REMARK VINA RESULT:    -3.216      1.830      3.816
REMARK INTER + INTRA:          -4.695
REMARK INTER:                  -4.643
REMARK INTRA:                  -0.052
REMARK UNBOUND:                 0.212
REMARK SMILES CC1=CCC[C@@H](C)C(=O)C[C@@H](C(C)C)C(=O)C1
REMARK SMILES IDX 8 1 9 2 6 3 7 4 5 5 4 6 3 7 2 8 1 9 10 11 11 12 15 13 16 14
REMARK SMILES IDX 17 15 12 17 13 18 14 19
REMARK H PARENT
REMARK Flexibility Score: 70.00
ROOT
ATOM      1  C   UNL     1      17.673  27.483  40.466  1.00  0.00     0.136 C 
ATOM      2  O   UNL     1      16.601  27.284  39.911  1.00  0.00    -0.299 OA
ENDROOT
BRANCH   1   3
ATOM      3  C   UNL     1      17.863  27.023  41.894  1.00  0.00     0.053 C 
ATOM      4  C   UNL     1      16.813  25.971  42.272  1.00  0.00     0.016 C 
BRANCH   3   5
ATOM      5  C   UNL     1      17.803  28.253  42.841  1.00  0.00     0.015 C 
BRANCH   5   6
ATOM      6  C   UNL     1      19.047  28.450  43.722  1.00  0.00     0.028 C 
BRANCH   6   7
ATOM      7  C   UNL     1      20.099  27.365  43.629  1.00  0.00    -0.028 C 
ATOM      8  C   UNL     1      21.295  27.449  42.997  1.00  0.00    -0.070 CG0
ATOM      9  C   UNL     1      22.252  26.296  43.169  1.00  0.00     0.039 C 
ATOM     10  G   UNL     1      21.731  28.647  42.170  1.00  0.00     0.000 G0
ENDBRANCH   6   7
ENDBRANCH   5   6
ENDBRANCH   3   5
ENDBRANCH   1   3
BRANCH   1  11
ATOM     11  C   UNL     1      18.774  28.183  39.701  1.00  0.00     0.087 C 
BRANCH  11  12
ATOM     12  C   UNL     1      20.220  27.767  40.104  1.00  0.00     0.066 C 
BRANCH  12  13
ATOM     13  C   UNL     1      20.961  28.867  40.865  1.00  0.00     0.140 C 
ATOM     14  O   UNL     1      20.953  30.000  40.407  1.00  0.00    -0.299 OA
BRANCH  13  15
ATOM     15  C   UNL     1      21.735  28.637  42.156  1.00  0.00     0.106 CG0
ATOM     16  G   UNL     1      21.281  27.445  42.983  1.00  0.00     0.000 G0
ENDBRANCH  13  15
ENDBRANCH  12  13
BRANCH  12  17
ATOM     17  C   UNL     1      21.016  27.260  38.857  1.00  0.00    -0.006 C 
ATOM     18  C   UNL     1      21.606  25.845  39.010  1.00  0.00     0.008 C 
ATOM     19  C   UNL     1      20.165  27.321  37.581  1.00  0.00     0.008 C 
ENDBRANCH  12  17
ENDBRANCH  11  12
ENDBRANCH   1  11
TORSDOF 1
ENDMDL
