MODEL 1
REMARK VINA RESULT:    -3.926      0.000      0.000
REMARK INTER + INTRA:         -12.150
REMARK INTER:                  -8.517
REMARK INTRA:                  -3.633
REMARK UNBOUND:                -3.633
REMARK SMILES CCCCCCCCCCCCCCCCCCCCCC(=O)[O-]
REMARK SMILES IDX 12 1 11 2 10 3 9 4 8 5 7 6 6 7 5 8 4 9 3 10 2 11 1 12 13 13
REMARK SMILES IDX 14 14 15 15 16 16 17 17 18 18 19 19 20 20 21 21 22 22 23 23
REMARK SMILES IDX 24 24
REMARK H PARENT
REMARK Flexibility Score: inf
ROOT
ATOM      1  C   UNL     1      16.024  17.855  14.881  1.00  0.00     0.000 C 
ENDROOT
BRANCH   1   2
ATOM      2  C   UNL     1      16.494  17.559  16.316  1.00  0.00     0.000 C 
BRANCH   2   3
ATOM      3  C   UNL     1      16.273  18.729  17.298  1.00  0.00     0.000 C 
BRANCH   3   4
ATOM      4  C   UNL     1      15.816  20.014  16.582  1.00  0.00    -0.000 C 
BRANCH   4   5
ATOM      5  C   UNL     1      14.398  20.453  16.992  1.00  0.00    -0.000 C 
BRANCH   5   6
ATOM      6  C   UNL     1      13.674  19.478  17.939  1.00  0.00    -0.000 C 
BRANCH   6   7
ATOM      7  C   UNL     1      12.453  18.809  17.281  1.00  0.00    -0.000 C 
BRANCH   7   8
ATOM      8  C   UNL     1      12.624  18.629  15.763  1.00  0.00    -0.000 C 
BRANCH   8   9
ATOM      9  C   UNL     1      12.478  17.165  15.324  1.00  0.00    -0.000 C 
BRANCH   9  10
ATOM     10  C   UNL     1      12.922  16.209  16.441  1.00  0.00    -0.000 C 
BRANCH  10  11
ATOM     11  C   UNL     1      11.809  15.237  16.862  1.00  0.00    -0.003 C 
ATOM     12  C   UNL     1      10.408  15.784  16.587  1.00  0.00     0.004 C 
ENDBRANCH  10  11
ENDBRANCH   9  10
ENDBRANCH   8   9
ENDBRANCH   7   8
ENDBRANCH   6   7
ENDBRANCH   5   6
ENDBRANCH   4   5
ENDBRANCH   3   4
ENDBRANCH   2   3
ENDBRANCH   1   2
BRANCH   1  13
ATOM     13  C   UNL     1      17.192  18.076  13.903  1.00  0.00     0.000 C 
BRANCH  13  14
ATOM     14  C   UNL     1      17.065  19.396  13.112  1.00  0.00     0.000 C 
BRANCH  14  15
ATOM     15  C   UNL     1      17.957  20.532  13.648  1.00  0.00     0.000 C 
BRANCH  15  16
ATOM     16  C   UNL     1      19.295  20.079  14.258  1.00  0.00     0.000 C 
BRANCH  16  17
ATOM     17  C   UNL     1      19.486  20.570  15.704  1.00  0.00     0.000 C 
BRANCH  17  18
ATOM     18  C   UNL     1      19.811  19.431  16.688  1.00  0.00     0.000 C 
BRANCH  18  19
ATOM     19  C   UNL     1      20.131  18.071  16.036  1.00  0.00     0.000 C 
BRANCH  19  20
ATOM     20  C   UNL     1      20.053  16.895  17.022  1.00  0.00     0.006 C 
BRANCH  20  21
ATOM     21  C   UNL     1      20.140  17.380  18.473  1.00  0.00     0.053 C 
BRANCH  21  22
ATOM     22  C   UNL     1      20.911  16.407  19.307  1.00  0.00     0.041 C 
ATOM     23  O   UNL     1      22.171  16.416  19.291  1.00  0.00    -0.550 OA
ATOM     24  O   UNL     1      20.239  15.465  20.076  1.00  0.00    -0.550 OA
ENDBRANCH  21  22
ENDBRANCH  20  21
ENDBRANCH  19  20
ENDBRANCH  18  19
ENDBRANCH  17  18
ENDBRANCH  16  17
ENDBRANCH  15  16
ENDBRANCH  14  15
ENDBRANCH  13  14
ENDBRANCH   1  13
TORSDOF 20
ENDMDL
MODEL 2
REMARK VINA RESULT:    -3.751      1.317      2.144
REMARK INTER + INTRA:         -11.771
REMARK INTER:                  -8.105
REMARK INTRA:                  -3.666
REMARK UNBOUND:                -3.633
REMARK SMILES CCCCCCCCCCCCCCCCCCCCCC(=O)[O-]
REMARK SMILES IDX 12 1 11 2 10 3 9 4 8 5 7 6 6 7 5 8 4 9 3 10 2 11 1 12 13 13
REMARK SMILES IDX 14 14 15 15 16 16 17 17 18 18 19 19 20 20 21 21 22 22 23 23
REMARK SMILES IDX 24 24
REMARK H PARENT
REMARK Flexibility Score: inf
ROOT
ATOM      1  C   UNL     1      14.751  17.230  17.502  1.00  0.00     0.000 C 
ENDROOT
BRANCH   1   2
ATOM      2  C   UNL     1      15.827  18.143  18.116  1.00  0.00     0.000 C 
BRANCH   2   3
ATOM      3  C   UNL     1      15.336  19.576  18.409  1.00  0.00     0.000 C 
BRANCH   3   4
ATOM      4  C   UNL     1      14.025  19.907  17.671  1.00  0.00    -0.000 C 
BRANCH   4   5
ATOM      5  C   UNL     1      14.254  20.714  16.380  1.00  0.00    -0.000 C 
BRANCH   5   6
ATOM      6  C   UNL     1      13.165  20.530  15.307  1.00  0.00    -0.000 C 
BRANCH   6   7
ATOM      7  C   UNL     1      13.255  19.166  14.599  1.00  0.00    -0.000 C 
BRANCH   7   8
ATOM      8  C   UNL     1      11.896  18.685  14.063  1.00  0.00    -0.000 C 
BRANCH   8   9
ATOM      9  C   UNL     1      11.378  17.443  14.802  1.00  0.00    -0.000 C 
BRANCH   9  10
ATOM     10  C   UNL     1      11.339  17.682  16.318  1.00  0.00    -0.000 C 
BRANCH  10  11
ATOM     11  C   UNL     1      10.759  16.486  17.089  1.00  0.00    -0.003 C 
ATOM     12  C   UNL     1      11.525  15.188  16.833  1.00  0.00     0.004 C 
ENDBRANCH  10  11
ENDBRANCH   9  10
ENDBRANCH   8   9
ENDBRANCH   7   8
ENDBRANCH   6   7
ENDBRANCH   5   6
ENDBRANCH   4   5
ENDBRANCH   3   4
ENDBRANCH   2   3
ENDBRANCH   1   2
BRANCH   1  13
ATOM     13  C   UNL     1      15.171  16.638  16.145  1.00  0.00     0.000 C 
BRANCH  13  14
ATOM     14  C   UNL     1      16.594  17.063  15.725  1.00  0.00     0.000 C 
BRANCH  14  15
ATOM     15  C   UNL     1      16.667  17.696  14.322  1.00  0.00     0.000 C 
BRANCH  15  16
ATOM     16  C   UNL     1      17.013  19.195  14.299  1.00  0.00     0.000 C 
BRANCH  16  17
ATOM     17  C   UNL     1      18.015  19.591  15.399  1.00  0.00     0.000 C 
BRANCH  17  18
ATOM     18  C   UNL     1      19.481  19.346  14.993  1.00  0.00     0.000 C 
BRANCH  18  19
ATOM     19  C   UNL     1      20.403  18.856  16.127  1.00  0.00     0.000 C 
BRANCH  19  20
ATOM     20  C   UNL     1      20.067  17.436  16.609  1.00  0.00     0.006 C 
BRANCH  20  21
ATOM     21  C   UNL     1      19.759  17.418  18.110  1.00  0.00     0.053 C 
BRANCH  21  22
ATOM     22  C   UNL     1      21.025  17.417  18.906  1.00  0.00     0.041 C 
ATOM     23  O   UNL     1      21.809  16.434  18.852  1.00  0.00    -0.550 OA
ATOM     24  O   UNL     1      21.323  18.490  19.739  1.00  0.00    -0.550 OA
ENDBRANCH  21  22
ENDBRANCH  20  21
ENDBRANCH  19  20
ENDBRANCH  18  19
ENDBRANCH  17  18
ENDBRANCH  16  17
ENDBRANCH  15  16
ENDBRANCH  14  15
ENDBRANCH  13  14
ENDBRANCH   1  13
TORSDOF 20
ENDMDL
MODEL 3
REMARK VINA RESULT:    -3.740      5.616      8.325
REMARK INTER + INTRA:         -11.747
REMARK INTER:                  -8.445
REMARK INTRA:                  -3.302
REMARK UNBOUND:                -3.633
REMARK SMILES CCCCCCCCCCCCCCCCCCCCCC(=O)[O-]
REMARK SMILES IDX 12 1 11 2 10 3 9 4 8 5 7 6 6 7 5 8 4 9 3 10 2 11 1 12 13 13
REMARK SMILES IDX 14 14 15 15 16 16 17 17 18 18 19 19 20 20 21 21 22 22 23 23
REMARK SMILES IDX 24 24
REMARK H PARENT
REMARK Flexibility Score: inf
ROOT
ATOM      1  C   UNL     1      10.230  16.657  11.955  1.00  0.00     0.000 C 
ENDROOT
BRANCH   1   2
ATOM      2  C   UNL     1       8.803  16.093  11.842  1.00  0.00     0.000 C 
BRANCH   2   3
ATOM      3  C   UNL     1       8.198  16.204  10.426  1.00  0.00     0.000 C 
BRANCH   3   4
ATOM      4  C   UNL     1       7.205  17.375  10.307  1.00  0.00    -0.000 C 
BRANCH   4   5
ATOM      5  C   UNL     1       6.996  18.119  11.639  1.00  0.00    -0.000 C 
BRANCH   5   6
ATOM      6  C   UNL     1       7.563  19.551  11.668  1.00  0.00    -0.000 C 
BRANCH   6   7
ATOM      7  C   UNL     1       8.213  19.959  10.333  1.00  0.00    -0.000 C 
BRANCH   7   8
ATOM      8  C   UNL     1       9.648  20.484  10.510  1.00  0.00    -0.000 C 
BRANCH   8   9
ATOM      9  C   UNL     1      10.704  19.496   9.994  1.00  0.00    -0.000 C 
BRANCH   9  10
ATOM     10  C   UNL     1      10.223  18.797   8.714  1.00  0.00    -0.000 C 
BRANCH  10  11
ATOM     11  C   UNL     1      10.951  19.300   7.458  1.00  0.00    -0.003 C 
ATOM     12  C   UNL     1      12.434  19.577   7.703  1.00  0.00     0.004 C 
ENDBRANCH  10  11
ENDBRANCH   9  10
ENDBRANCH   8   9
ENDBRANCH   7   8
ENDBRANCH   6   7
ENDBRANCH   5   6
ENDBRANCH   4   5
ENDBRANCH   3   4
ENDBRANCH   2   3
ENDBRANCH   1   2
BRANCH   1  13
ATOM     13  C   UNL     1      10.609  17.044  13.395  1.00  0.00     0.000 C 
BRANCH  13  14
ATOM     14  C   UNL     1      10.606  18.572  13.622  1.00  0.00     0.000 C 
BRANCH  14  15
ATOM     15  C   UNL     1      12.012  19.198  13.663  1.00  0.00     0.000 C 
BRANCH  15  16
ATOM     16  C   UNL     1      12.332  20.003  14.935  1.00  0.00     0.000 C 
BRANCH  16  17
ATOM     17  C   UNL     1      13.699  19.638  15.541  1.00  0.00     0.000 C 
BRANCH  17  18
ATOM     18  C   UNL     1      14.096  18.171  15.290  1.00  0.00     0.000 C 
BRANCH  18  19
ATOM     19  C   UNL     1      14.757  17.456  16.484  1.00  0.00     0.000 C 
BRANCH  19  20
ATOM     20  C   UNL     1      13.822  16.454  17.182  1.00  0.00     0.006 C 
BRANCH  20  21
ATOM     21  C   UNL     1      12.680  16.024  16.256  1.00  0.00     0.053 C 
BRANCH  21  22
ATOM     22  C   UNL     1      11.359  16.437  16.823  1.00  0.00     0.041 C 
ATOM     23  O   UNL     1      10.392  15.631  16.834  1.00  0.00    -0.550 OA
ATOM     24  O   UNL     1      11.185  17.729  17.307  1.00  0.00    -0.550 OA
ENDBRANCH  21  22
ENDBRANCH  20  21
ENDBRANCH  19  20
ENDBRANCH  18  19
ENDBRANCH  17  18
ENDBRANCH  16  17
ENDBRANCH  15  16
ENDBRANCH  14  15
ENDBRANCH  13  14
ENDBRANCH   1  13
TORSDOF 20
ENDMDL
MODEL 4
REMARK VINA RESULT:    -3.734      4.289      8.141
REMARK INTER + INTRA:         -11.734
REMARK INTER:                  -8.325
REMARK INTRA:                  -3.409
REMARK UNBOUND:                -3.633
REMARK SMILES CCCCCCCCCCCCCCCCCCCCCC(=O)[O-]
REMARK SMILES IDX 12 1 11 2 10 3 9 4 8 5 7 6 6 7 5 8 4 9 3 10 2 11 1 12 13 13
REMARK SMILES IDX 14 14 15 15 16 16 17 17 18 18 19 19 20 20 21 21 22 22 23 23
REMARK SMILES IDX 24 24
REMARK H PARENT
REMARK Flexibility Score: inf
ROOT
ATOM      1  C   UNL     1      16.069  17.880  15.013  1.00  0.00     0.000 C 
ENDROOT
BRANCH   1   2
ATOM      2  C   UNL     1      14.946  18.930  14.956  1.00  0.00     0.000 C 
BRANCH   2   3
ATOM      3  C   UNL     1      15.187  20.151  15.869  1.00  0.00     0.000 C 
BRANCH   3   4
ATOM      4  C   UNL     1      14.240  20.167  17.083  1.00  0.00    -0.000 C 
BRANCH   4   5
ATOM      5  C   UNL     1      14.860  19.515  18.333  1.00  0.00    -0.000 C 
BRANCH   5   6
ATOM      6  C   UNL     1      16.282  20.002  18.671  1.00  0.00    -0.000 C 
BRANCH   6   7
ATOM      7  C   UNL     1      17.308  18.856  18.705  1.00  0.00    -0.000 C 
BRANCH   7   8
ATOM      8  C   UNL     1      18.369  18.978  17.598  1.00  0.00    -0.000 C 
BRANCH   8   9
ATOM      9  C   UNL     1      19.143  17.671  17.376  1.00  0.00    -0.000 C 
BRANCH   9  10
ATOM     10  C   UNL     1      19.965  17.732  16.080  1.00  0.00    -0.000 C 
BRANCH  10  11
ATOM     11  C   UNL     1      19.622  18.960  15.223  1.00  0.00    -0.003 C 
ATOM     12  C   UNL     1      20.850  19.802  14.875  1.00  0.00     0.004 C 
ENDBRANCH  10  11
ENDBRANCH   9  10
ENDBRANCH   8   9
ENDBRANCH   7   8
ENDBRANCH   6   7
ENDBRANCH   5   6
ENDBRANCH   4   5
ENDBRANCH   3   4
ENDBRANCH   2   3
ENDBRANCH   1   2
BRANCH   1  13
ATOM     13  C   UNL     1      15.784  16.753  16.021  1.00  0.00     0.000 C 
BRANCH  13  14
ATOM     14  C   UNL     1      14.350  16.194  15.902  1.00  0.00     0.000 C 
BRANCH  14  15
ATOM     15  C   UNL     1      13.561  16.214  17.224  1.00  0.00     0.000 C 
BRANCH  15  16
ATOM     16  C   UNL     1      12.212  15.473  17.191  1.00  0.00     0.000 C 
BRANCH  16  17
ATOM     17  C   UNL     1      11.023  16.415  16.935  1.00  0.00     0.000 C 
BRANCH  17  18
ATOM     18  C   UNL     1      11.433  17.898  16.873  1.00  0.00     0.000 C 
BRANCH  18  19
ATOM     19  C   UNL     1      11.377  18.537  15.471  1.00  0.00     0.000 C 
BRANCH  19  20
ATOM     20  C   UNL     1      11.060  17.526  14.358  1.00  0.00     0.006 C 
BRANCH  20  21
ATOM     21  C   UNL     1      10.940  18.219  12.996  1.00  0.00     0.053 C 
BRANCH  21  22
ATOM     22  C   UNL     1       9.815  17.633  12.205  1.00  0.00     0.041 C 
ATOM     23  O   UNL     1       8.733  18.265  12.076  1.00  0.00    -0.550 OA
ATOM     24  O   UNL     1       9.947  16.371  11.639  1.00  0.00    -0.550 OA
ENDBRANCH  21  22
ENDBRANCH  20  21
ENDBRANCH  19  20
ENDBRANCH  18  19
ENDBRANCH  17  18
ENDBRANCH  16  17
ENDBRANCH  15  16
ENDBRANCH  14  15
ENDBRANCH  13  14
ENDBRANCH   1  13
TORSDOF 20
ENDMDL
MODEL 5
REMARK VINA RESULT:    -3.725      3.283      6.906
REMARK INTER + INTRA:         -11.714
REMARK INTER:                  -7.843
REMARK INTRA:                  -3.871
REMARK UNBOUND:                -3.633
REMARK SMILES CCCCCCCCCCCCCCCCCCCCCC(=O)[O-]
REMARK SMILES IDX 12 1 11 2 10 3 9 4 8 5 7 6 6 7 5 8 4 9 3 10 2 11 1 12 13 13
REMARK SMILES IDX 14 14 15 15 16 16 17 17 18 18 19 19 20 20 21 21 22 22 23 23
REMARK SMILES IDX 24 24
REMARK H PARENT
REMARK Flexibility Score: inf
ROOT
ATOM      1  C   UNL     1      16.243  16.844  15.727  1.00  0.00     0.000 C 
ENDROOT
BRANCH   1   2
ATOM      2  C   UNL     1      14.790  16.793  16.230  1.00  0.00     0.000 C 
BRANCH   2   3
ATOM      3  C   UNL     1      14.619  17.263  17.691  1.00  0.00     0.000 C 
BRANCH   3   4
ATOM      4  C   UNL     1      13.918  18.631  17.786  1.00  0.00    -0.000 C 
BRANCH   4   5
ATOM      5  C   UNL     1      14.768  19.687  18.516  1.00  0.00    -0.000 C 
BRANCH   5   6
ATOM      6  C   UNL     1      15.913  19.110  19.369  1.00  0.00    -0.000 C 
BRANCH   6   7
ATOM      7  C   UNL     1      17.303  19.543  18.866  1.00  0.00    -0.000 C 
BRANCH   7   8
ATOM      8  C   UNL     1      18.175  18.351  18.437  1.00  0.00    -0.000 C 
BRANCH   8   9
ATOM      9  C   UNL     1      19.630  18.756  18.159  1.00  0.00    -0.000 C 
BRANCH   9  10
ATOM     10  C   UNL     1      20.335  17.706  17.288  1.00  0.00    -0.000 C 
BRANCH  10  11
ATOM     11  C   UNL     1      20.005  17.861  15.795  1.00  0.00    -0.003 C 
ATOM     12  C   UNL     1      20.456  19.205  15.224  1.00  0.00     0.004 C 
ENDBRANCH  10  11
ENDBRANCH   9  10
ENDBRANCH   8   9
ENDBRANCH   7   8
ENDBRANCH   6   7
ENDBRANCH   5   6
ENDBRANCH   4   5
ENDBRANCH   3   4
ENDBRANCH   2   3
ENDBRANCH   1   2
BRANCH   1  13
ATOM     13  C   UNL     1      16.457  17.891  14.620  1.00  0.00     0.000 C 
BRANCH  13  14
ATOM     14  C   UNL     1      16.740  19.302  15.181  1.00  0.00     0.000 C 
BRANCH  14  15
ATOM     15  C   UNL     1      15.594  20.305  14.952  1.00  0.00     0.000 C 
BRANCH  15  16
ATOM     16  C   UNL     1      14.536  19.865  13.925  1.00  0.00     0.000 C 
BRANCH  16  17
ATOM     17  C   UNL     1      13.099  19.980  14.466  1.00  0.00     0.000 C 
BRANCH  17  18
ATOM     18  C   UNL     1      12.033  19.586  13.427  1.00  0.00     0.000 C 
BRANCH  18  19
ATOM     19  C   UNL     1      11.002  18.545  13.906  1.00  0.00     0.000 C 
BRANCH  19  20
ATOM     20  C   UNL     1      11.349  17.935  15.273  1.00  0.00     0.006 C 
BRANCH  20  21
ATOM     21  C   UNL     1      11.134  16.417  15.275  1.00  0.00     0.053 C 
BRANCH  21  22
ATOM     22  C   UNL     1      10.988  15.908  16.673  1.00  0.00     0.041 C 
ATOM     23  O   UNL     1      11.862  15.146  17.166  1.00  0.00    -0.550 OA
ATOM     24  O   UNL     1       9.868  16.247  17.423  1.00  0.00    -0.550 OA
ENDBRANCH  21  22
ENDBRANCH  20  21
ENDBRANCH  19  20
ENDBRANCH  18  19
ENDBRANCH  17  18
ENDBRANCH  16  17
ENDBRANCH  15  16
ENDBRANCH  14  15
ENDBRANCH  13  14
ENDBRANCH   1  13
TORSDOF 20
ENDMDL
MODEL 6
REMARK VINA RESULT:    -3.718      2.824      4.415
REMARK INTER + INTRA:         -11.699
REMARK INTER:                  -8.617
REMARK INTRA:                  -3.082
REMARK UNBOUND:                -3.633
REMARK SMILES CCCCCCCCCCCCCCCCCCCCCC(=O)[O-]
REMARK SMILES IDX 12 1 11 2 10 3 9 4 8 5 7 6 6 7 5 8 4 9 3 10 2 11 1 12 13 13
REMARK SMILES IDX 14 14 15 15 16 16 17 17 18 18 19 19 20 20 21 21 22 22 23 23
REMARK SMILES IDX 24 24
REMARK H PARENT
REMARK Flexibility Score: inf
ROOT
ATOM      1  C   UNL     1      15.579  17.073  15.854  1.00  0.00     0.000 C 
ENDROOT
BRANCH   1   2
ATOM      2  C   UNL     1      14.512  15.989  16.080  1.00  0.00     0.000 C 
BRANCH   2   3
ATOM      3  C   UNL     1      13.639  16.224  17.332  1.00  0.00     0.000 C 
BRANCH   3   4
ATOM      4  C   UNL     1      12.316  15.438  17.277  1.00  0.00    -0.000 C 
BRANCH   4   5
ATOM      5  C   UNL     1      11.150  16.270  16.710  1.00  0.00    -0.000 C 
BRANCH   5   6
ATOM      6  C   UNL     1      11.365  17.794  16.764  1.00  0.00    -0.000 C 
BRANCH   6   7
ATOM      7  C   UNL     1      11.487  18.425  15.365  1.00  0.00    -0.000 C 
BRANCH   7   8
ATOM      8  C   UNL     1      11.393  17.385  14.236  1.00  0.00    -0.000 C 
BRANCH   8   9
ATOM      9  C   UNL     1      10.277  17.706  13.231  1.00  0.00    -0.000 C 
BRANCH   9  10
ATOM     10  C   UNL     1      10.238  16.664  12.103  1.00  0.00    -0.000 C 
BRANCH  10  11
ATOM     11  C   UNL     1       8.816  16.153  11.822  1.00  0.00    -0.003 C 
ATOM     12  C   UNL     1       8.461  16.176  10.335  1.00  0.00     0.004 C 
ENDBRANCH  10  11
ENDBRANCH   9  10
ENDBRANCH   8   9
ENDBRANCH   7   8
ENDBRANCH   6   7
ENDBRANCH   5   6
ENDBRANCH   4   5
ENDBRANCH   3   4
ENDBRANCH   2   3
ENDBRANCH   1   2
BRANCH   1  13
ATOM     13  C   UNL     1      14.999  18.370  15.264  1.00  0.00     0.000 C 
BRANCH  13  14
ATOM     14  C   UNL     1      15.450  19.630  16.035  1.00  0.00     0.000 C 
BRANCH  14  15
ATOM     15  C   UNL     1      14.396  20.170  17.019  1.00  0.00     0.000 C 
BRANCH  15  16
ATOM     16  C   UNL     1      14.296  19.407  18.352  1.00  0.00     0.000 C 
BRANCH  16  17
ATOM     17  C   UNL     1      15.503  19.658  19.272  1.00  0.00     0.000 C 
BRANCH  17  18
ATOM     18  C   UNL     1      16.456  18.451  19.356  1.00  0.00     0.000 C 
BRANCH  18  19
ATOM     19  C   UNL     1      17.958  18.797  19.334  1.00  0.00     0.000 C 
BRANCH  19  20
ATOM     20  C   UNL     1      18.459  19.228  17.946  1.00  0.00     0.006 C 
BRANCH  20  21
ATOM     21  C   UNL     1      18.811  18.013  17.081  1.00  0.00     0.053 C 
BRANCH  21  22
ATOM     22  C   UNL     1      19.322  18.449  15.746  1.00  0.00     0.041 C 
ATOM     23  O   UNL     1      18.540  18.537  14.763  1.00  0.00    -0.550 OA
ATOM     24  O   UNL     1      20.674  18.725  15.576  1.00  0.00    -0.550 OA
ENDBRANCH  21  22
ENDBRANCH  20  21
ENDBRANCH  19  20
ENDBRANCH  18  19
ENDBRANCH  17  18
ENDBRANCH  16  17
ENDBRANCH  15  16
ENDBRANCH  14  15
ENDBRANCH  13  14
ENDBRANCH   1  13
TORSDOF 20
ENDMDL
MODEL 7
REMARK VINA RESULT:    -3.692      2.779      6.879
REMARK INTER + INTRA:         -11.642
REMARK INTER:                  -7.654
REMARK INTRA:                  -3.989
REMARK UNBOUND:                -3.633
REMARK SMILES CCCCCCCCCCCCCCCCCCCCCC(=O)[O-]
REMARK SMILES IDX 12 1 11 2 10 3 9 4 8 5 7 6 6 7 5 8 4 9 3 10 2 11 1 12 13 13
REMARK SMILES IDX 14 14 15 15 16 16 17 17 18 18 19 19 20 20 21 21 22 22 23 23
REMARK SMILES IDX 24 24
REMARK H PARENT
REMARK Flexibility Score: inf
ROOT
ATOM      1  C   UNL     1      16.634  18.231  16.272  1.00  0.00     0.000 C 
ENDROOT
BRANCH   1   2
ATOM      2  C   UNL     1      16.637  17.442  14.951  1.00  0.00     0.000 C 
BRANCH   2   3
ATOM      3  C   UNL     1      16.971  18.300  13.712  1.00  0.00     0.000 C 
BRANCH   3   4
ATOM      4  C   UNL     1      17.233  19.774  14.077  1.00  0.00    -0.000 C 
BRANCH   4   5
ATOM      5  C   UNL     1      18.694  20.196  13.840  1.00  0.00    -0.000 C 
BRANCH   5   6
ATOM      6  C   UNL     1      19.573  20.201  15.105  1.00  0.00    -0.000 C 
BRANCH   6   7
ATOM      7  C   UNL     1      20.335  18.878  15.303  1.00  0.00    -0.000 C 
BRANCH   7   8
ATOM      8  C   UNL     1      20.622  18.575  16.783  1.00  0.00    -0.000 C 
BRANCH   8   9
ATOM      9  C   UNL     1      20.083  17.205  17.219  1.00  0.00    -0.000 C 
BRANCH   9  10
ATOM     10  C   UNL     1      19.737  17.202  18.716  1.00  0.00    -0.000 C 
BRANCH  10  11
ATOM     11  C   UNL     1      18.994  18.475  19.151  1.00  0.00    -0.003 C 
ATOM     12  C   UNL     1      17.962  18.214  20.248  1.00  0.00     0.004 C 
ENDBRANCH  10  11
ENDBRANCH   9  10
ENDBRANCH   8   9
ENDBRANCH   7   8
ENDBRANCH   6   7
ENDBRANCH   5   6
ENDBRANCH   4   5
ENDBRANCH   3   4
ENDBRANCH   2   3
ENDBRANCH   1   2
BRANCH   1  13
ATOM     13  C   UNL     1      15.558  17.744  17.258  1.00  0.00     0.000 C 
BRANCH  13  14
ATOM     14  C   UNL     1      14.995  18.882  18.136  1.00  0.00     0.000 C 
BRANCH  14  15
ATOM     15  C   UNL     1      15.003  20.261  17.450  1.00  0.00     0.000 C 
BRANCH  15  16
ATOM     16  C   UNL     1      13.727  20.605  16.661  1.00  0.00     0.000 C 
BRANCH  16  17
ATOM     17  C   UNL     1      13.988  20.769  15.152  1.00  0.00     0.000 C 
BRANCH  17  18
ATOM     18  C   UNL     1      13.542  19.547  14.328  1.00  0.00     0.000 C 
BRANCH  18  19
ATOM     19  C   UNL     1      12.232  18.882  14.795  1.00  0.00     0.000 C 
BRANCH  19  20
ATOM     20  C   UNL     1      12.424  17.432  15.268  1.00  0.00     0.006 C 
BRANCH  20  21
ATOM     21  C   UNL     1      11.949  17.252  16.714  1.00  0.00     0.053 C 
BRANCH  21  22
ATOM     22  C   UNL     1      11.994  15.810  17.106  1.00  0.00     0.041 C 
ATOM     23  O   UNL     1      11.077  15.025  16.748  1.00  0.00    -0.550 OA
ATOM     24  O   UNL     1      13.033  15.339  17.900  1.00  0.00    -0.550 OA
ENDBRANCH  21  22
ENDBRANCH  20  21
ENDBRANCH  19  20
ENDBRANCH  18  19
ENDBRANCH  17  18
ENDBRANCH  16  17
ENDBRANCH  15  16
ENDBRANCH  14  15
ENDBRANCH  13  14
ENDBRANCH   1  13
TORSDOF 20
ENDMDL
MODEL 8
REMARK VINA RESULT:    -3.676      6.577      9.538
REMARK INTER + INTRA:         -11.607
REMARK INTER:                  -8.794
REMARK INTRA:                  -2.812
REMARK UNBOUND:                -3.633
REMARK SMILES CCCCCCCCCCCCCCCCCCCCCC(=O)[O-]
REMARK SMILES IDX 12 1 11 2 10 3 9 4 8 5 7 6 6 7 5 8 4 9 3 10 2 11 1 12 13 13
REMARK SMILES IDX 14 14 15 15 16 16 17 17 18 18 19 19 20 20 21 21 22 22 23 23
REMARK SMILES IDX 24 24
REMARK H PARENT
REMARK Flexibility Score: inf
ROOT
ATOM      1  C   UNL     1      10.649  17.421  13.300  1.00  0.00     0.000 C 
ENDROOT
BRANCH   1   2
ATOM      2  C   UNL     1       9.912  18.768  13.203  1.00  0.00     0.000 C 
BRANCH   2   3
ATOM      3  C   UNL     1      10.755  19.975  13.667  1.00  0.00     0.000 C 
BRANCH   3   4
ATOM      4  C   UNL     1      12.137  20.017  12.989  1.00  0.00    -0.000 C 
BRANCH   4   5
ATOM      5  C   UNL     1      13.298  19.906  13.995  1.00  0.00    -0.000 C 
BRANCH   5   6
ATOM      6  C   UNL     1      13.177  20.834  15.218  1.00  0.00    -0.000 C 
BRANCH   6   7
ATOM      7  C   UNL     1      13.404  20.093  16.548  1.00  0.00    -0.000 C 
BRANCH   7   8
ATOM      8  C   UNL     1      12.500  18.857  16.700  1.00  0.00    -0.000 C 
BRANCH   8   9
ATOM      9  C   UNL     1      13.294  17.583  17.019  1.00  0.00    -0.000 C 
BRANCH   9  10
ATOM     10  C   UNL     1      12.846  16.419  16.122  1.00  0.00    -0.000 C 
BRANCH  10  11
ATOM     11  C   UNL     1      11.876  15.465  16.836  1.00  0.00    -0.003 C 
ATOM     12  C   UNL     1      10.412  15.874  16.670  1.00  0.00     0.004 C 
ENDBRANCH  10  11
ENDBRANCH   9  10
ENDBRANCH   8   9
ENDBRANCH   7   8
ENDBRANCH   6   7
ENDBRANCH   5   6
ENDBRANCH   4   5
ENDBRANCH   3   4
ENDBRANCH   2   3
ENDBRANCH   1   2
BRANCH   1  13
ATOM     13  C   UNL     1      10.268  16.448  12.171  1.00  0.00     0.000 C 
BRANCH  13  14
ATOM     14  C   UNL     1       8.749  16.418  11.898  1.00  0.00     0.000 C 
BRANCH  14  15
ATOM     15  C   UNL     1       8.381  15.956  10.475  1.00  0.00     0.000 C 
BRANCH  15  16
ATOM     16  C   UNL     1       8.482  17.041   9.389  1.00  0.00     0.000 C 
BRANCH  16  17
ATOM     17  C   UNL     1       7.993  18.417   9.877  1.00  0.00     0.000 C 
BRANCH  17  18
ATOM     18  C   UNL     1       9.079  19.506   9.788  1.00  0.00     0.000 C 
BRANCH  18  19
ATOM     19  C   UNL     1      10.487  19.001   9.417  1.00  0.00     0.000 C 
BRANCH  19  20
ATOM     20  C   UNL     1      11.027  19.616   8.116  1.00  0.00     0.006 C 
BRANCH  20  21
ATOM     21  C   UNL     1      12.514  19.295   7.926  1.00  0.00     0.053 C 
BRANCH  21  22
ATOM     22  C   UNL     1      12.806  18.986   6.493  1.00  0.00     0.041 C 
ATOM     23  O   UNL     1      13.617  18.071   6.192  1.00  0.00    -0.550 OA
ATOM     24  O   UNL     1      12.210  19.736   5.485  1.00  0.00    -0.550 OA
ENDBRANCH  21  22
ENDBRANCH  20  21
ENDBRANCH  19  20
ENDBRANCH  18  19
ENDBRANCH  17  18
ENDBRANCH  16  17
ENDBRANCH  15  16
ENDBRANCH  14  15
ENDBRANCH  13  14
ENDBRANCH   1  13
TORSDOF 20
ENDMDL
MODEL 9
REMARK VINA RESULT:    -3.638      1.350      4.140
REMARK INTER + INTRA:         -11.525
REMARK INTER:                  -8.118
REMARK INTRA:                  -3.407
REMARK UNBOUND:                -3.633
REMARK SMILES CCCCCCCCCCCCCCCCCCCCCC(=O)[O-]
REMARK SMILES IDX 12 1 11 2 10 3 9 4 8 5 7 6 6 7 5 8 4 9 3 10 2 11 1 12 13 13
REMARK SMILES IDX 14 14 15 15 16 16 17 17 18 18 19 19 20 20 21 21 22 22 23 23
REMARK SMILES IDX 24 24
REMARK H PARENT
REMARK Flexibility Score: inf
ROOT
ATOM      1  C   UNL     1      12.660  15.856  17.310  1.00  0.00     0.000 C 
ENDROOT
BRANCH   1   2
ATOM      2  C   UNL     1      11.505  16.803  16.942  1.00  0.00     0.000 C 
BRANCH   2   3
ATOM      3  C   UNL     1      10.950  16.586  15.519  1.00  0.00     0.000 C 
BRANCH   3   4
ATOM      4  C   UNL     1      11.472  17.638  14.522  1.00  0.00    -0.000 C 
BRANCH   4   5
ATOM      5  C   UNL     1      11.784  18.990  15.190  1.00  0.00    -0.000 C 
BRANCH   5   6
ATOM      6  C   UNL     1      13.263  19.413  15.118  1.00  0.00    -0.000 C 
BRANCH   6   7
ATOM      7  C   UNL     1      13.556  20.684  15.937  1.00  0.00    -0.000 C 
BRANCH   7   8
ATOM      8  C   UNL     1      14.214  20.377  17.293  1.00  0.00    -0.000 C 
BRANCH   8   9
ATOM      9  C   UNL     1      15.746  20.452  17.234  1.00  0.00    -0.000 C 
BRANCH   9  10
ATOM     10  C   UNL     1      16.342  20.619  18.640  1.00  0.00    -0.000 C 
BRANCH  10  11
ATOM     11  C   UNL     1      15.696  19.679  19.670  1.00  0.00    -0.003 C 
ATOM     12  C   UNL     1      16.373  18.310  19.730  1.00  0.00     0.004 C 
ENDBRANCH  10  11
ENDBRANCH   9  10
ENDBRANCH   8   9
ENDBRANCH   7   8
ENDBRANCH   6   7
ENDBRANCH   5   6
ENDBRANCH   4   5
ENDBRANCH   3   4
ENDBRANCH   2   3
ENDBRANCH   1   2
BRANCH   1  13
ATOM     13  C   UNL     1      14.020  16.572  17.389  1.00  0.00     0.000 C 
BRANCH  13  14
ATOM     14  C   UNL     1      14.898  16.322  16.144  1.00  0.00     0.000 C 
BRANCH  14  15
ATOM     15  C   UNL     1      16.160  17.203  16.085  1.00  0.00     0.000 C 
BRANCH  15  16
ATOM     16  C   UNL     1      16.618  17.593  14.668  1.00  0.00     0.000 C 
BRANCH  16  17
ATOM     17  C   UNL     1      17.708  18.680  14.674  1.00  0.00     0.000 C 
BRANCH  17  18
ATOM     18  C   UNL     1      18.992  18.240  15.400  1.00  0.00     0.000 C 
BRANCH  18  19
ATOM     19  C   UNL     1      19.320  19.022  16.688  1.00  0.00     0.000 C 
BRANCH  19  20
ATOM     20  C   UNL     1      19.363  18.133  17.941  1.00  0.00     0.006 C 
BRANCH  20  21
ATOM     21  C   UNL     1      20.250  16.903  17.719  1.00  0.00     0.053 C 
BRANCH  21  22
ATOM     22  C   UNL     1      20.823  16.428  19.016  1.00  0.00     0.041 C 
ATOM     23  O   UNL     1      20.353  15.406  19.582  1.00  0.00    -0.550 OA
ATOM     24  O   UNL     1      21.855  17.136  19.621  1.00  0.00    -0.550 OA
ENDBRANCH  21  22
ENDBRANCH  20  21
ENDBRANCH  19  20
ENDBRANCH  18  19
ENDBRANCH  17  18
ENDBRANCH  16  17
ENDBRANCH  15  16
ENDBRANCH  14  15
ENDBRANCH  13  14
ENDBRANCH   1  13
TORSDOF 20
ENDMDL
