MODEL 1
REMARK VINA RESULT:    -5.139      0.000      0.000
REMARK INTER + INTRA:         -14.830
REMARK INTER:                 -11.147
REMARK INTRA:                  -3.682
REMARK UNBOUND:                -3.682
REMARK SMILES CCCCCCCCCCCCCCCCCCCCCC(=O)[O-]
REMARK SMILES IDX 12 1 11 2 10 3 9 4 8 5 7 6 6 7 5 8 4 9 3 10 2 11 1 12 13 13
REMARK SMILES IDX 14 14 15 15 16 16 17 17 18 18 19 19 20 20 21 21 22 22 23 23
REMARK SMILES IDX 24 24
REMARK H PARENT
REMARK Flexibility Score: inf
ROOT
ATOM      1  C   UNL     1     -48.228  25.149 -16.970  1.00  0.00     0.000 C 
ENDROOT
BRANCH   1   2
ATOM      2  C   UNL     1     -48.519  24.564 -15.574  1.00  0.00     0.000 C 
BRANCH   2   3
ATOM      3  C   UNL     1     -48.081  25.451 -14.390  1.00  0.00     0.000 C 
BRANCH   3   4
ATOM      4  C   UNL     1     -46.817  24.971 -13.655  1.00  0.00    -0.000 C 
BRANCH   4   5
ATOM      5  C   UNL     1     -45.699  26.029 -13.642  1.00  0.00    -0.000 C 
BRANCH   5   6
ATOM      6  C   UNL     1     -46.242  27.462 -13.535  1.00  0.00    -0.000 C 
BRANCH   6   7
ATOM      7  C   UNL     1     -45.268  28.506 -14.111  1.00  0.00    -0.000 C 
BRANCH   7   8
ATOM      8  C   UNL     1     -44.511  27.986 -15.343  1.00  0.00    -0.000 C 
BRANCH   8   9
ATOM      9  C   UNL     1     -44.773  28.831 -16.602  1.00  0.00    -0.000 C 
BRANCH   9  10
ATOM     10  C   UNL     1     -44.016  28.312 -17.837  1.00  0.00    -0.000 C 
BRANCH  10  11
ATOM     11  C   UNL     1     -44.212  26.813 -18.130  1.00  0.00    -0.003 C 
ATOM     12  C   UNL     1     -44.727  26.542 -19.543  1.00  0.00     0.004 C 
ENDBRANCH  10  11
ENDBRANCH   9  10
ENDBRANCH   8   9
ENDBRANCH   7   8
ENDBRANCH   6   7
ENDBRANCH   5   6
ENDBRANCH   4   5
ENDBRANCH   3   4
ENDBRANCH   2   3
ENDBRANCH   1   2
BRANCH   1  13
ATOM     13  C   UNL     1     -47.512  26.514 -16.966  1.00  0.00     0.000 C 
BRANCH  13  14
ATOM     14  C   UNL     1     -48.055  27.536 -17.982  1.00  0.00     0.000 C 
BRANCH  14  15
ATOM     15  C   UNL     1     -48.857  28.704 -17.372  1.00  0.00     0.000 C 
BRANCH  15  16
ATOM     16  C   UNL     1     -48.902  28.731 -15.834  1.00  0.00     0.000 C 
BRANCH  16  17
ATOM     17  C   UNL     1     -50.273  28.319 -15.268  1.00  0.00     0.000 C 
BRANCH  17  18
ATOM     18  C   UNL     1     -51.283  27.959 -16.380  1.00  0.00     0.000 C 
BRANCH  18  19
ATOM     19  C   UNL     1     -52.202  26.777 -16.027  1.00  0.00     0.000 C 
BRANCH  19  20
ATOM     20  C   UNL     1     -51.632  25.890 -14.909  1.00  0.00     0.006 C 
BRANCH  20  21
ATOM     21  C   UNL     1     -52.628  24.814 -14.457  1.00  0.00     0.053 C 
BRANCH  21  22
ATOM     22  C   UNL     1     -51.944  23.522 -14.132  1.00  0.00     0.041 C 
ATOM     23  O   UNL     1     -51.430  22.828 -15.048  1.00  0.00    -0.550 OA
ATOM     24  O   UNL     1     -51.841  23.102 -12.811  1.00  0.00    -0.550 OA
ENDBRANCH  21  22
ENDBRANCH  20  21
ENDBRANCH  19  20
ENDBRANCH  18  19
ENDBRANCH  17  18
ENDBRANCH  16  17
ENDBRANCH  15  16
ENDBRANCH  14  15
ENDBRANCH  13  14
ENDBRANCH   1  13
TORSDOF 20
ENDMDL
MODEL 2
REMARK VINA RESULT:    -4.689      1.092      3.680
REMARK INTER + INTRA:         -13.853
REMARK INTER:                 -11.123
REMARK INTRA:                  -2.730
REMARK UNBOUND:                -3.682
REMARK SMILES CCCCCCCCCCCCCCCCCCCCCC(=O)[O-]
REMARK SMILES IDX 12 1 11 2 10 3 9 4 8 5 7 6 6 7 5 8 4 9 3 10 2 11 1 12 13 13
REMARK SMILES IDX 14 14 15 15 16 16 17 17 18 18 19 19 20 20 21 21 22 22 23 23
REMARK SMILES IDX 24 24
REMARK H PARENT
REMARK Flexibility Score: inf
ROOT
ATOM      1  C   UNL     1     -45.703  25.358 -18.666  1.00  0.00     0.000 C 
ENDROOT
BRANCH   1   2
ATOM      2  C   UNL     1     -45.152  26.613 -19.371  1.00  0.00     0.000 C 
BRANCH   2   3
ATOM      3  C   UNL     1     -43.719  27.014 -18.964  1.00  0.00     0.000 C 
BRANCH   3   4
ATOM      4  C   UNL     1     -43.525  28.513 -18.671  1.00  0.00    -0.000 C 
BRANCH   4   5
ATOM      5  C   UNL     1     -43.459  28.821 -17.165  1.00  0.00    -0.000 C 
BRANCH   5   6
ATOM      6  C   UNL     1     -44.828  28.708 -16.477  1.00  0.00    -0.000 C 
BRANCH   6   7
ATOM      7  C   UNL     1     -44.915  27.497 -15.531  1.00  0.00    -0.000 C 
BRANCH   7   8
ATOM      8  C   UNL     1     -46.096  27.599 -14.553  1.00  0.00    -0.000 C 
BRANCH   8   9
ATOM      9  C   UNL     1     -46.020  26.561 -13.420  1.00  0.00    -0.000 C 
BRANCH   9  10
ATOM     10  C   UNL     1     -46.880  25.314 -13.695  1.00  0.00    -0.000 C 
BRANCH  10  11
ATOM     11  C   UNL     1     -48.125  25.569 -14.564  1.00  0.00    -0.003 C 
ATOM     12  C   UNL     1     -48.684  24.296 -15.197  1.00  0.00     0.004 C 
ENDBRANCH  10  11
ENDBRANCH   9  10
ENDBRANCH   8   9
ENDBRANCH   7   8
ENDBRANCH   6   7
ENDBRANCH   5   6
ENDBRANCH   4   5
ENDBRANCH   3   4
ENDBRANCH   2   3
ENDBRANCH   1   2
BRANCH   1  13
ATOM     13  C   UNL     1     -47.068  25.548 -17.976  1.00  0.00     0.000 C 
BRANCH  13  14
ATOM     14  C   UNL     1     -47.596  26.996 -17.967  1.00  0.00     0.000 C 
BRANCH  14  15
ATOM     15  C   UNL     1     -49.108  27.143 -18.232  1.00  0.00     0.000 C 
BRANCH  15  16
ATOM     16  C   UNL     1     -49.936  27.635 -17.032  1.00  0.00     0.000 C 
BRANCH  16  17
ATOM     17  C   UNL     1     -51.443  27.359 -17.189  1.00  0.00     0.000 C 
BRANCH  17  18
ATOM     18  C   UNL     1     -52.192  27.411 -15.840  1.00  0.00     0.000 C 
BRANCH  18  19
ATOM     19  C   UNL     1     -51.636  26.441 -14.783  1.00  0.00     0.000 C 
BRANCH  19  20
ATOM     20  C   UNL     1     -52.130  24.999 -14.977  1.00  0.00     0.006 C 
BRANCH  20  21
ATOM     21  C   UNL     1     -53.227  24.621 -13.972  1.00  0.00     0.053 C 
BRANCH  21  22
ATOM     22  C   UNL     1     -52.802  23.496 -13.079  1.00  0.00     0.041 C 
ATOM     23  O   UNL     1     -51.595  23.142 -13.036  1.00  0.00    -0.550 OA
ATOM     24  O   UNL     1     -53.733  22.864 -12.264  1.00  0.00    -0.550 OA
ENDBRANCH  21  22
ENDBRANCH  20  21
ENDBRANCH  19  20
ENDBRANCH  18  19
ENDBRANCH  17  18
ENDBRANCH  16  17
ENDBRANCH  15  16
ENDBRANCH  14  15
ENDBRANCH  13  14
ENDBRANCH   1  13
TORSDOF 20
ENDMDL
MODEL 3
REMARK VINA RESULT:    -4.671      1.209      4.659
REMARK INTER + INTRA:         -13.815
REMARK INTER:                 -10.265
REMARK INTRA:                  -3.550
REMARK UNBOUND:                -3.682
REMARK SMILES CCCCCCCCCCCCCCCCCCCCCC(=O)[O-]
REMARK SMILES IDX 12 1 11 2 10 3 9 4 8 5 7 6 6 7 5 8 4 9 3 10 2 11 1 12 13 13
REMARK SMILES IDX 14 14 15 15 16 16 17 17 18 18 19 19 20 20 21 21 22 22 23 23
REMARK SMILES IDX 24 24
REMARK H PARENT
REMARK Flexibility Score: inf
ROOT
ATOM      1  C   UNL     1     -44.594  27.552 -15.577  1.00  0.00     0.000 C 
ENDROOT
BRANCH   1   2
ATOM      2  C   UNL     1     -44.403  28.669 -16.622  1.00  0.00     0.000 C 
BRANCH   2   3
ATOM      3  C   UNL     1     -43.770  28.217 -17.953  1.00  0.00     0.000 C 
BRANCH   3   4
ATOM      4  C   UNL     1     -43.986  26.734 -18.302  1.00  0.00    -0.000 C 
BRANCH   4   5
ATOM      5  C   UNL     1     -45.286  26.491 -19.088  1.00  0.00    -0.000 C 
BRANCH   5   6
ATOM      6  C   UNL     1     -46.205  25.462 -18.410  1.00  0.00    -0.000 C 
BRANCH   6   7
ATOM      7  C   UNL     1     -47.367  26.122 -17.647  1.00  0.00    -0.000 C 
BRANCH   7   8
ATOM      8  C   UNL     1     -47.493  27.623 -17.952  1.00  0.00    -0.000 C 
BRANCH   8   9
ATOM      9  C   UNL     1     -48.861  28.199 -17.544  1.00  0.00    -0.000 C 
BRANCH   9  10
ATOM     10  C   UNL     1     -49.989  27.153 -17.600  1.00  0.00    -0.000 C 
BRANCH  10  11
ATOM     11  C   UNL     1     -51.281  27.559 -16.868  1.00  0.00    -0.003 C 
ATOM     12  C   UNL     1     -51.021  28.186 -15.499  1.00  0.00     0.004 C 
ENDBRANCH  10  11
ENDBRANCH   9  10
ENDBRANCH   8   9
ENDBRANCH   7   8
ENDBRANCH   6   7
ENDBRANCH   5   6
ENDBRANCH   4   5
ENDBRANCH   3   4
ENDBRANCH   2   3
ENDBRANCH   1   2
BRANCH   1  13
ATOM     13  C   UNL     1     -45.250  28.004 -14.257  1.00  0.00     0.000 C 
BRANCH  13  14
ATOM     14  C   UNL     1     -46.717  28.458 -14.382  1.00  0.00     0.000 C 
BRANCH  14  15
ATOM     15  C   UNL     1     -47.767  27.392 -14.010  1.00  0.00     0.000 C 
BRANCH  15  16
ATOM     16  C   UNL     1     -47.194  26.009 -13.652  1.00  0.00     0.000 C 
BRANCH  16  17
ATOM     17  C   UNL     1     -47.804  24.871 -14.491  1.00  0.00     0.000 C 
BRANCH  17  18
ATOM     18  C   UNL     1     -49.327  25.038 -14.684  1.00  0.00     0.000 C 
BRANCH  18  19
ATOM     19  C   UNL     1     -49.977  23.907 -15.499  1.00  0.00     0.000 C 
BRANCH  19  20
ATOM     20  C   UNL     1     -51.193  23.285 -14.795  1.00  0.00     0.006 C 
BRANCH  20  21
ATOM     21  C   UNL     1     -52.281  24.323 -14.489  1.00  0.00     0.053 C 
BRANCH  21  22
ATOM     22  C   UNL     1     -53.187  23.872 -13.384  1.00  0.00     0.041 C 
ATOM     23  O   UNL     1     -54.336  24.372 -13.264  1.00  0.00    -0.550 OA
ATOM     24  O   UNL     1     -52.776  22.873 -12.511  1.00  0.00    -0.550 OA
ENDBRANCH  21  22
ENDBRANCH  20  21
ENDBRANCH  19  20
ENDBRANCH  18  19
ENDBRANCH  17  18
ENDBRANCH  16  17
ENDBRANCH  15  16
ENDBRANCH  14  15
ENDBRANCH  13  14
ENDBRANCH   1  13
TORSDOF 20
ENDMDL
MODEL 4
REMARK VINA RESULT:    -4.645      2.743      7.688
REMARK INTER + INTRA:         -13.758
REMARK INTER:                 -10.886
REMARK INTRA:                  -2.872
REMARK UNBOUND:                -3.682
REMARK SMILES CCCCCCCCCCCCCCCCCCCCCC(=O)[O-]
REMARK SMILES IDX 12 1 11 2 10 3 9 4 8 5 7 6 6 7 5 8 4 9 3 10 2 11 1 12 13 13
REMARK SMILES IDX 14 14 15 15 16 16 17 17 18 18 19 19 20 20 21 21 22 22 23 23
REMARK SMILES IDX 24 24
REMARK H PARENT
REMARK Flexibility Score: inf
ROOT
ATOM      1  C   UNL     1     -48.409  25.761 -17.001  1.00  0.00     0.000 C 
ENDROOT
BRANCH   1   2
ATOM      2  C   UNL     1     -48.656  27.240 -16.642  1.00  0.00     0.000 C 
BRANCH   2   3
ATOM      3  C   UNL     1     -49.833  27.904 -17.383  1.00  0.00     0.000 C 
BRANCH   3   4
ATOM      4  C   UNL     1     -51.216  27.305 -17.071  1.00  0.00    -0.000 C 
BRANCH   4   5
ATOM      5  C   UNL     1     -51.788  27.796 -15.729  1.00  0.00    -0.000 C 
BRANCH   5   6
ATOM      6  C   UNL     1     -52.111  26.642 -14.766  1.00  0.00    -0.000 C 
BRANCH   6   7
ATOM      7  C   UNL     1     -51.846  25.261 -15.391  1.00  0.00    -0.000 C 
BRANCH   7   8
ATOM      8  C   UNL     1     -52.072  24.112 -14.395  1.00  0.00    -0.000 C 
BRANCH   8   9
ATOM      9  C   UNL     1     -53.405  24.236 -13.638  1.00  0.00    -0.000 C 
BRANCH   9  10
ATOM     10  C   UNL     1     -53.522  23.240 -12.469  1.00  0.00    -0.000 C 
BRANCH  10  11
ATOM     11  C   UNL     1     -54.742  23.458 -11.556  1.00  0.00    -0.003 C 
ATOM     12  C   UNL     1     -54.373  23.553 -10.077  1.00  0.00     0.004 C 
ENDBRANCH  10  11
ENDBRANCH   9  10
ENDBRANCH   8   9
ENDBRANCH   7   8
ENDBRANCH   6   7
ENDBRANCH   5   6
ENDBRANCH   4   5
ENDBRANCH   3   4
ENDBRANCH   2   3
ENDBRANCH   1   2
BRANCH   1  13
ATOM     13  C   UNL     1     -48.337  24.804 -15.796  1.00  0.00     0.000 C 
BRANCH  13  14
ATOM     14  C   UNL     1     -48.135  25.490 -14.431  1.00  0.00     0.000 C 
BRANCH  14  15
ATOM     15  C   UNL     1     -46.839  25.106 -13.689  1.00  0.00     0.000 C 
BRANCH  15  16
ATOM     16  C   UNL     1     -45.846  26.261 -13.470  1.00  0.00     0.000 C 
BRANCH  16  17
ATOM     17  C   UNL     1     -46.458  27.643 -13.764  1.00  0.00     0.000 C 
BRANCH  17  18
ATOM     18  C   UNL     1     -45.396  28.673 -14.205  1.00  0.00     0.000 C 
BRANCH  18  19
ATOM     19  C   UNL     1     -44.390  28.126 -15.233  1.00  0.00     0.000 C 
BRANCH  19  20
ATOM     20  C   UNL     1     -45.023  27.858 -16.606  1.00  0.00     0.006 C 
BRANCH  20  21
ATOM     21  C   UNL     1     -44.684  26.460 -17.139  1.00  0.00     0.053 C 
BRANCH  21  22
ATOM     22  C   UNL     1     -45.302  26.209 -18.481  1.00  0.00     0.041 C 
ATOM     23  O   UNL     1     -45.733  27.170 -19.170  1.00  0.00    -0.550 OA
ATOM     24  O   UNL     1     -45.365  24.916 -18.988  1.00  0.00    -0.550 OA
ENDBRANCH  21  22
ENDBRANCH  20  21
ENDBRANCH  19  20
ENDBRANCH  18  19
ENDBRANCH  17  18
ENDBRANCH  16  17
ENDBRANCH  15  16
ENDBRANCH  14  15
ENDBRANCH  13  14
ENDBRANCH   1  13
TORSDOF 20
ENDMDL
MODEL 5
REMARK VINA RESULT:    -4.635      1.287      1.832
REMARK INTER + INTRA:         -13.736
REMARK INTER:                 -10.891
REMARK INTRA:                  -2.846
REMARK UNBOUND:                -3.682
REMARK SMILES CCCCCCCCCCCCCCCCCCCCCC(=O)[O-]
REMARK SMILES IDX 12 1 11 2 10 3 9 4 8 5 7 6 6 7 5 8 4 9 3 10 2 11 1 12 13 13
REMARK SMILES IDX 14 14 15 15 16 16 17 17 18 18 19 19 20 20 21 21 22 22 23 23
REMARK SMILES IDX 24 24
REMARK H PARENT
REMARK Flexibility Score: inf
ROOT
ATOM      1  C   UNL     1     -48.108  25.708 -17.274  1.00  0.00     0.000 C 
ENDROOT
BRANCH   1   2
ATOM      2  C   UNL     1     -48.735  24.782 -16.213  1.00  0.00     0.000 C 
BRANCH   2   3
ATOM      3  C   UNL     1     -47.965  24.701 -14.880  1.00  0.00     0.000 C 
BRANCH   3   4
ATOM      4  C   UNL     1     -47.641  26.061 -14.235  1.00  0.00    -0.000 C 
BRANCH   4   5
ATOM      5  C   UNL     1     -46.155  26.203 -13.861  1.00  0.00    -0.000 C 
BRANCH   5   6
ATOM      6  C   UNL     1     -45.696  27.669 -13.806  1.00  0.00    -0.000 C 
BRANCH   6   7
ATOM      7  C   UNL     1     -44.650  28.000 -14.885  1.00  0.00    -0.000 C 
BRANCH   7   8
ATOM      8  C   UNL     1     -45.248  28.009 -16.301  1.00  0.00    -0.000 C 
BRANCH   8   9
ATOM      9  C   UNL     1     -44.729  26.851 -17.172  1.00  0.00    -0.000 C 
BRANCH   9  10
ATOM     10  C   UNL     1     -44.695  27.202 -18.671  1.00  0.00    -0.000 C 
BRANCH  10  11
ATOM     11  C   UNL     1     -43.286  27.242 -19.291  1.00  0.00    -0.003 C 
ATOM     12  C   UNL     1     -43.305  27.290 -20.818  1.00  0.00     0.004 C 
ENDBRANCH  10  11
ENDBRANCH   9  10
ENDBRANCH   8   9
ENDBRANCH   7   8
ENDBRANCH   6   7
ENDBRANCH   5   6
ENDBRANCH   4   5
ENDBRANCH   3   4
ENDBRANCH   2   3
ENDBRANCH   1   2
BRANCH   1  13
ATOM     13  C   UNL     1     -49.016  26.859 -17.750  1.00  0.00     0.000 C 
BRANCH  13  14
ATOM     14  C   UNL     1     -48.832  28.188 -16.991  1.00  0.00     0.000 C 
BRANCH  14  15
ATOM     15  C   UNL     1     -49.852  28.445 -15.864  1.00  0.00     0.000 C 
BRANCH  15  16
ATOM     16  C   UNL     1     -51.300  28.677 -16.333  1.00  0.00     0.000 C 
BRANCH  16  17
ATOM     17  C   UNL     1     -52.321  27.806 -15.580  1.00  0.00     0.000 C 
BRANCH  17  18
ATOM     18  C   UNL     1     -51.647  26.660 -14.794  1.00  0.00     0.000 C 
BRANCH  18  19
ATOM     19  C   UNL     1     -52.031  25.256 -15.292  1.00  0.00     0.000 C 
BRANCH  19  20
ATOM     20  C   UNL     1     -52.188  24.239 -14.150  1.00  0.00     0.006 C 
BRANCH  20  21
ATOM     21  C   UNL     1     -53.600  24.256 -13.548  1.00  0.00     0.053 C 
BRANCH  21  22
ATOM     22  C   UNL     1     -53.659  23.519 -12.245  1.00  0.00     0.041 C 
ATOM     23  O   UNL     1     -52.908  22.529 -12.042  1.00  0.00    -0.550 OA
ATOM     24  O   UNL     1     -54.517  23.948 -11.240  1.00  0.00    -0.550 OA
ENDBRANCH  21  22
ENDBRANCH  20  21
ENDBRANCH  19  20
ENDBRANCH  18  19
ENDBRANCH  17  18
ENDBRANCH  16  17
ENDBRANCH  15  16
ENDBRANCH  14  15
ENDBRANCH  13  14
ENDBRANCH   1  13
TORSDOF 20
ENDMDL
MODEL 6
REMARK VINA RESULT:    -4.613      3.536      7.942
REMARK INTER + INTRA:         -13.688
REMARK INTER:                 -11.149
REMARK INTRA:                  -2.539
REMARK UNBOUND:                -3.682
REMARK SMILES CCCCCCCCCCCCCCCCCCCCCC(=O)[O-]
REMARK SMILES IDX 12 1 11 2 10 3 9 4 8 5 7 6 6 7 5 8 4 9 3 10 2 11 1 12 13 13
REMARK SMILES IDX 14 14 15 15 16 16 17 17 18 18 19 19 20 20 21 21 22 22 23 23
REMARK SMILES IDX 24 24
REMARK H PARENT
REMARK Flexibility Score: inf
ROOT
ATOM      1  C   UNL     1     -48.372  24.736 -15.837  1.00  0.00     0.000 C 
ENDROOT
BRANCH   1   2
ATOM      2  C   UNL     1     -48.081  25.451 -17.171  1.00  0.00     0.000 C 
BRANCH   2   3
ATOM      3  C   UNL     1     -48.494  26.935 -17.220  1.00  0.00     0.000 C 
BRANCH   3   4
ATOM      4  C   UNL     1     -49.927  27.192 -17.720  1.00  0.00    -0.000 C 
BRANCH   4   5
ATOM      5  C   UNL     1     -50.705  28.169 -16.820  1.00  0.00    -0.000 C 
BRANCH   5   6
ATOM      6  C   UNL     1     -51.881  27.497 -16.096  1.00  0.00    -0.000 C 
BRANCH   6   7
ATOM      7  C   UNL     1     -51.418  26.511 -15.008  1.00  0.00    -0.000 C 
BRANCH   7   8
ATOM      8  C   UNL     1     -52.440  25.390 -14.757  1.00  0.00    -0.000 C 
BRANCH   8   9
ATOM      9  C   UNL     1     -51.794  23.993 -14.730  1.00  0.00    -0.000 C 
BRANCH   9  10
ATOM     10  C   UNL     1     -51.802  23.361 -13.326  1.00  0.00    -0.000 C 
BRANCH  10  11
ATOM     11  C   UNL     1     -53.200  23.009 -12.786  1.00  0.00    -0.003 C 
ATOM     12  C   UNL     1     -53.369  23.341 -11.304  1.00  0.00     0.004 C 
ENDBRANCH  10  11
ENDBRANCH   9  10
ENDBRANCH   8   9
ENDBRANCH   7   8
ENDBRANCH   6   7
ENDBRANCH   5   6
ENDBRANCH   4   5
ENDBRANCH   3   4
ENDBRANCH   2   3
ENDBRANCH   1   2
BRANCH   1  13
ATOM     13  C   UNL     1     -48.063  25.565 -14.575  1.00  0.00     0.000 C 
BRANCH  13  14
ATOM     14  C   UNL     1     -46.905  25.030 -13.712  1.00  0.00     0.000 C 
BRANCH  14  15
ATOM     15  C   UNL     1     -45.740  26.016 -13.492  1.00  0.00     0.000 C 
BRANCH  15  16
ATOM     16  C   UNL     1     -46.045  27.479 -13.863  1.00  0.00     0.000 C 
BRANCH  16  17
ATOM     17  C   UNL     1     -44.876  28.169 -14.588  1.00  0.00     0.000 C 
BRANCH  17  18
ATOM     18  C   UNL     1     -45.138  28.330 -16.101  1.00  0.00     0.000 C 
BRANCH  18  19
ATOM     19  C   UNL     1     -44.786  27.082 -16.929  1.00  0.00     0.000 C 
BRANCH  19  20
ATOM     20  C   UNL     1     -44.701  27.369 -18.436  1.00  0.00     0.006 C 
BRANCH  20  21
ATOM     21  C   UNL     1     -43.518  28.281 -18.788  1.00  0.00     0.053 C 
BRANCH  21  22
ATOM     22  C   UNL     1     -42.920  27.933 -20.116  1.00  0.00     0.041 C 
ATOM     23  O   UNL     1     -41.805  28.409 -20.454  1.00  0.00    -0.550 OA
ATOM     24  O   UNL     1     -43.576  27.050 -20.965  1.00  0.00    -0.550 OA
ENDBRANCH  21  22
ENDBRANCH  20  21
ENDBRANCH  19  20
ENDBRANCH  18  19
ENDBRANCH  17  18
ENDBRANCH  16  17
ENDBRANCH  15  16
ENDBRANCH  14  15
ENDBRANCH  13  14
ENDBRANCH   1  13
TORSDOF 20
ENDMDL
MODEL 7
REMARK VINA RESULT:    -4.592      1.838      3.018
REMARK INTER + INTRA:         -13.642
REMARK INTER:                 -10.980
REMARK INTRA:                  -2.662
REMARK UNBOUND:                -3.682
REMARK SMILES CCCCCCCCCCCCCCCCCCCCCC(=O)[O-]
REMARK SMILES IDX 12 1 11 2 10 3 9 4 8 5 7 6 6 7 5 8 4 9 3 10 2 11 1 12 13 13
REMARK SMILES IDX 14 14 15 15 16 16 17 17 18 18 19 19 20 20 21 21 22 22 23 23
REMARK SMILES IDX 24 24
REMARK H PARENT
REMARK Flexibility Score: inf
ROOT
ATOM      1  C   UNL     1     -48.389  27.485 -17.050  1.00  0.00     0.000 C 
ENDROOT
BRANCH   1   2
ATOM      2  C   UNL     1     -48.419  28.310 -15.748  1.00  0.00     0.000 C 
BRANCH   2   3
ATOM      3  C   UNL     1     -48.204  27.497 -14.455  1.00  0.00     0.000 C 
BRANCH   3   4
ATOM      4  C   UNL     1     -47.426  26.182 -14.640  1.00  0.00    -0.000 C 
BRANCH   4   5
ATOM      5  C   UNL     1     -46.008  26.240 -14.044  1.00  0.00    -0.000 C 
BRANCH   5   6
ATOM      6  C   UNL     1     -44.944  26.616 -15.087  1.00  0.00    -0.000 C 
BRANCH   6   7
ATOM      7  C   UNL     1     -44.556  28.104 -15.023  1.00  0.00    -0.000 C 
BRANCH   7   8
ATOM      8  C   UNL     1     -44.293  28.703 -16.415  1.00  0.00    -0.000 C 
BRANCH   8   9
ATOM      9  C   UNL     1     -45.006  27.931 -17.538  1.00  0.00    -0.000 C 
BRANCH   9  10
ATOM     10  C   UNL     1     -44.166  27.840 -18.825  1.00  0.00    -0.000 C 
BRANCH  10  11
ATOM     11  C   UNL     1     -44.172  26.458 -19.503  1.00  0.00    -0.003 C 
ATOM     12  C   UNL     1     -45.307  25.558 -19.015  1.00  0.00     0.004 C 
ENDBRANCH  10  11
ENDBRANCH   9  10
ENDBRANCH   8   9
ENDBRANCH   7   8
ENDBRANCH   6   7
ENDBRANCH   5   6
ENDBRANCH   4   5
ENDBRANCH   3   4
ENDBRANCH   2   3
ENDBRANCH   1   2
BRANCH   1  13
ATOM     13  C   UNL     1     -49.759  27.298 -17.731  1.00  0.00     0.000 C 
BRANCH  13  14
ATOM     14  C   UNL     1     -50.940  27.981 -17.014  1.00  0.00     0.000 C 
BRANCH  14  15
ATOM     15  C   UNL     1     -52.002  27.021 -16.440  1.00  0.00     0.000 C 
BRANCH  15  16
ATOM     16  C   UNL     1     -51.804  26.640 -14.962  1.00  0.00     0.000 C 
BRANCH  16  17
ATOM     17  C   UNL     1     -51.077  25.295 -14.782  1.00  0.00     0.000 C 
BRANCH  17  18
ATOM     18  C   UNL     1     -52.056  24.101 -14.736  1.00  0.00     0.000 C 
BRANCH  18  19
ATOM     19  C   UNL     1     -51.890  23.209 -13.493  1.00  0.00     0.000 C 
BRANCH  19  20
ATOM     20  C   UNL     1     -53.026  23.386 -12.475  1.00  0.00     0.006 C 
BRANCH  20  21
ATOM     21  C   UNL     1     -54.196  24.199 -13.045  1.00  0.00     0.053 C 
BRANCH  21  22
ATOM     22  C   UNL     1     -55.135  24.655 -11.971  1.00  0.00     0.041 C 
ATOM     23  O   UNL     1     -56.258  25.138 -12.274  1.00  0.00    -0.550 OA
ATOM     24  O   UNL     1     -54.787  24.511 -10.634  1.00  0.00    -0.550 OA
ENDBRANCH  21  22
ENDBRANCH  20  21
ENDBRANCH  19  20
ENDBRANCH  18  19
ENDBRANCH  17  18
ENDBRANCH  16  17
ENDBRANCH  15  16
ENDBRANCH  14  15
ENDBRANCH  13  14
ENDBRANCH   1  13
TORSDOF 20
ENDMDL
MODEL 8
REMARK VINA RESULT:    -4.537      3.586      7.443
REMARK INTER + INTRA:         -13.523
REMARK INTER:                 -10.380
REMARK INTRA:                  -3.143
REMARK UNBOUND:                -3.682
REMARK SMILES CCCCCCCCCCCCCCCCCCCCCC(=O)[O-]
REMARK SMILES IDX 12 1 11 2 10 3 9 4 8 5 7 6 6 7 5 8 4 9 3 10 2 11 1 12 13 13
REMARK SMILES IDX 14 14 15 15 16 16 17 17 18 18 19 19 20 20 21 21 22 22 23 23
REMARK SMILES IDX 24 24
REMARK H PARENT
REMARK Flexibility Score: inf
ROOT
ATOM      1  C   UNL     1     -46.383  25.878 -14.042  1.00  0.00     0.000 C 
ENDROOT
BRANCH   1   2
ATOM      2  C   UNL     1     -46.423  27.039 -13.028  1.00  0.00     0.000 C 
BRANCH   2   3
ATOM      3  C   UNL     1     -46.815  28.408 -13.619  1.00  0.00     0.000 C 
BRANCH   3   4
ATOM      4  C   UNL     1     -48.291  28.798 -13.425  1.00  0.00    -0.000 C 
BRANCH   4   5
ATOM      5  C   UNL     1     -49.083  28.804 -14.745  1.00  0.00    -0.000 C 
BRANCH   5   6
ATOM      6  C   UNL     1     -50.511  28.262 -14.580  1.00  0.00    -0.000 C 
BRANCH   6   7
ATOM      7  C   UNL     1     -51.258  28.152 -15.922  1.00  0.00    -0.000 C 
BRANCH   7   8
ATOM      8  C   UNL     1     -51.926  26.780 -16.112  1.00  0.00    -0.000 C 
BRANCH   8   9
ATOM      9  C   UNL     1     -52.187  26.057 -14.779  1.00  0.00    -0.000 C 
BRANCH   9  10
ATOM     10  C   UNL     1     -52.156  24.524 -14.917  1.00  0.00    -0.000 C 
BRANCH  10  11
ATOM     11  C   UNL     1     -52.361  23.754 -13.599  1.00  0.00    -0.003 C 
ATOM     12  C   UNL     1     -53.804  23.803 -13.097  1.00  0.00     0.004 C 
ENDBRANCH  10  11
ENDBRANCH   9  10
ENDBRANCH   8   9
ENDBRANCH   7   8
ENDBRANCH   6   7
ENDBRANCH   5   6
ENDBRANCH   4   5
ENDBRANCH   3   4
ENDBRANCH   2   3
ENDBRANCH   1   2
BRANCH   1  13
ATOM     13  C   UNL     1     -47.633  24.977 -14.044  1.00  0.00     0.000 C 
BRANCH  13  14
ATOM     14  C   UNL     1     -48.588  25.192 -15.234  1.00  0.00     0.000 C 
BRANCH  14  15
ATOM     15  C   UNL     1     -47.914  25.211 -16.621  1.00  0.00     0.000 C 
BRANCH  15  16
ATOM     16  C   UNL     1     -48.390  26.332 -17.563  1.00  0.00     0.000 C 
BRANCH  16  17
ATOM     17  C   UNL     1     -47.229  27.164 -18.139  1.00  0.00     0.000 C 
BRANCH  17  18
ATOM     18  C   UNL     1     -46.463  27.937 -17.045  1.00  0.00     0.000 C 
BRANCH  18  19
ATOM     19  C   UNL     1     -44.984  27.531 -16.916  1.00  0.00     0.000 C 
BRANCH  19  20
ATOM     20  C   UNL     1     -44.122  28.034 -18.084  1.00  0.00     0.006 C 
BRANCH  20  21
ATOM     21  C   UNL     1     -43.712  26.901 -19.034  1.00  0.00     0.053 C 
BRANCH  21  22
ATOM     22  C   UNL     1     -43.001  27.418 -20.246  1.00  0.00     0.041 C 
ATOM     23  O   UNL     1     -43.375  27.070 -21.397  1.00  0.00    -0.550 OA
ATOM     24  O   UNL     1     -41.950  28.317 -20.107  1.00  0.00    -0.550 OA
ENDBRANCH  21  22
ENDBRANCH  20  21
ENDBRANCH  19  20
ENDBRANCH  18  19
ENDBRANCH  17  18
ENDBRANCH  16  17
ENDBRANCH  15  16
ENDBRANCH  14  15
ENDBRANCH  13  14
ENDBRANCH   1  13
TORSDOF 20
ENDMDL
MODEL 9
REMARK VINA RESULT:    -4.446      3.610      7.400
REMARK INTER + INTRA:         -13.326
REMARK INTER:                 -10.307
REMARK INTRA:                  -3.018
REMARK UNBOUND:                -3.682
REMARK SMILES CCCCCCCCCCCCCCCCCCCCCC(=O)[O-]
REMARK SMILES IDX 12 1 11 2 10 3 9 4 8 5 7 6 6 7 5 8 4 9 3 10 2 11 1 12 13 13
REMARK SMILES IDX 14 14 15 15 16 16 17 17 18 18 19 19 20 20 21 21 22 22 23 23
REMARK SMILES IDX 24 24
REMARK H PARENT
REMARK Flexibility Score: inf
ROOT
ATOM      1  C   UNL     1     -48.415  24.628 -15.825  1.00  0.00     0.000 C 
ENDROOT
BRANCH   1   2
ATOM      2  C   UNL     1     -48.208  24.886 -17.331  1.00  0.00     0.000 C 
BRANCH   2   3
ATOM      3  C   UNL     1     -47.607  26.262 -17.682  1.00  0.00     0.000 C 
BRANCH   3   4
ATOM      4  C   UNL     1     -48.637  27.347 -18.039  1.00  0.00    -0.000 C 
BRANCH   4   5
ATOM      5  C   UNL     1     -48.436  28.645 -17.236  1.00  0.00    -0.000 C 
BRANCH   5   6
ATOM      6  C   UNL     1     -49.727  29.124 -16.553  1.00  0.00    -0.000 C 
BRANCH   6   7
ATOM      7  C   UNL     1     -49.868  28.586 -15.118  1.00  0.00    -0.000 C 
BRANCH   7   8
ATOM      8  C   UNL     1     -51.331  28.308 -14.736  1.00  0.00    -0.000 C 
BRANCH   8   9
ATOM      9  C   UNL     1     -52.158  27.759 -15.912  1.00  0.00    -0.000 C 
BRANCH   9  10
ATOM     10  C   UNL     1     -52.130  26.222 -15.993  1.00  0.00    -0.000 C 
BRANCH  10  11
ATOM     11  C   UNL     1     -51.662  25.517 -14.707  1.00  0.00    -0.003 C 
ATOM     12  C   UNL     1     -51.873  24.004 -14.743  1.00  0.00     0.004 C 
ENDBRANCH  10  11
ENDBRANCH   9  10
ENDBRANCH   8   9
ENDBRANCH   7   8
ENDBRANCH   6   7
ENDBRANCH   5   6
ENDBRANCH   4   5
ENDBRANCH   3   4
ENDBRANCH   2   3
ENDBRANCH   1   2
BRANCH   1  13
ATOM     13  C   UNL     1     -47.952  25.772 -14.902  1.00  0.00     0.000 C 
BRANCH  13  14
ATOM     14  C   UNL     1     -46.867  25.383 -13.879  1.00  0.00     0.000 C 
BRANCH  14  15
ATOM     15  C   UNL     1     -45.874  26.507 -13.518  1.00  0.00     0.000 C 
BRANCH  15  16
ATOM     16  C   UNL     1     -46.048  27.812 -14.314  1.00  0.00     0.000 C 
BRANCH  16  17
ATOM     17  C   UNL     1     -44.718  28.368 -14.853  1.00  0.00     0.000 C 
BRANCH  17  18
ATOM     18  C   UNL     1     -44.726  28.521 -16.390  1.00  0.00     0.000 C 
BRANCH  18  19
ATOM     19  C   UNL     1     -44.569  27.192 -17.148  1.00  0.00     0.000 C 
BRANCH  19  20
ATOM     20  C   UNL     1     -44.312  27.387 -18.650  1.00  0.00     0.006 C 
BRANCH  20  21
ATOM     21  C   UNL     1     -43.053  28.222 -18.920  1.00  0.00     0.053 C 
BRANCH  21  22
ATOM     22  C   UNL     1     -42.541  28.025 -20.313  1.00  0.00     0.041 C 
ATOM     23  O   UNL     1     -43.159  27.278 -21.116  1.00  0.00    -0.550 OA
ATOM     24  O   UNL     1     -41.401  28.697 -20.738  1.00  0.00    -0.550 OA
ENDBRANCH  21  22
ENDBRANCH  20  21
ENDBRANCH  19  20
ENDBRANCH  18  19
ENDBRANCH  17  18
ENDBRANCH  16  17
ENDBRANCH  15  16
ENDBRANCH  14  15
ENDBRANCH  13  14
ENDBRANCH   1  13
TORSDOF 20
ENDMDL
