MODEL 1
REMARK VINA RESULT:    -4.262      0.000      0.000
REMARK INTER + INTRA:          -6.178
REMARK INTER:                  -5.757
REMARK INTRA:                  -0.421
REMARK UNBOUND:                -0.421
REMARK SMILES CC(=O)CCC=C(C)CCC=C(C)C
REMARK SMILES IDX 7 1 6 2 8 3 9 4 10 5 11 6 13 7 12 8 14 9 5 10 4 11 2 12 3 13
REMARK SMILES IDX 1 14
REMARK H PARENT
REMARK Flexibility Score: inf
ROOT
ATOM      1  C   UNL     1      13.267 -16.547 -12.303  1.00  0.00    -0.077 C 
ATOM      2  C   UNL     1      14.400 -16.584 -13.039  1.00  0.00    -0.028 C 
ATOM      3  C   UNL     1      13.376 -16.191 -10.843  1.00  0.00     0.039 C 
ENDROOT
BRANCH   1   4
ATOM      4  C   UNL     1      11.892 -16.816 -12.891  1.00  0.00     0.034 C 
BRANCH   4   5
ATOM      5  C   UNL     1      10.766 -16.313 -11.976  1.00  0.00     0.032 C 
BRANCH   5   6
ATOM      6  C   UNL     1       9.568 -17.232 -12.025  1.00  0.00    -0.028 C 
ATOM      7  C   UNL     1       8.475 -16.212 -10.014  1.00  0.00     0.039 C 
ATOM      8  C   UNL     1       8.547 -17.218 -11.138  1.00  0.00    -0.080 C 
ATOM      9  C   UNL     1       7.455 -18.245 -11.285  1.00  0.00     0.039 C 
ENDBRANCH   5   6
ENDBRANCH   4   5
ENDBRANCH   1   4
BRANCH   2  10
ATOM     10  C   UNL     1      14.474 -16.974 -14.495  1.00  0.00     0.035 C 
BRANCH  10  11
ATOM     11  C   UNL     1      15.830 -16.586 -15.092  1.00  0.00     0.079 C 
BRANCH  11  12
ATOM     12  C   UNL     1      16.869 -17.630 -14.775  1.00  0.00     0.130 C 
ATOM     13  O   UNL     1      17.642 -17.446 -13.848  1.00  0.00    -0.300 OA
ATOM     14  C   UNL     1      16.984 -18.888 -15.584  1.00  0.00     0.087 C 
ENDBRANCH  11  12
ENDBRANCH  10  11
ENDBRANCH   2  10
TORSDOF 6
ENDMDL
MODEL 2
REMARK VINA RESULT:    -4.258      2.937      7.161
REMARK INTER + INTRA:          -6.173
REMARK INTER:                  -5.525
REMARK INTRA:                  -0.648
REMARK UNBOUND:                -0.421
REMARK SMILES CC(=O)CCC=C(C)CCC=C(C)C
REMARK SMILES IDX 7 1 6 2 8 3 9 4 10 5 11 6 13 7 12 8 14 9 5 10 4 11 2 12 3 13
REMARK SMILES IDX 1 14
REMARK H PARENT
REMARK Flexibility Score: inf
ROOT
ATOM      1  C   UNL     1      12.851 -16.343 -12.746  1.00  0.00    -0.077 C 
ATOM      2  C   UNL     1      11.673 -16.528 -12.109  1.00  0.00    -0.028 C 
ATOM      3  C   UNL     1      14.059 -15.979 -11.922  1.00  0.00     0.039 C 
ENDROOT
BRANCH   1   4
ATOM      4  C   UNL     1      13.014 -16.519 -14.246  1.00  0.00     0.034 C 
BRANCH   4   5
ATOM      5  C   UNL     1      14.417 -16.119 -14.725  1.00  0.00     0.032 C 
BRANCH   5   6
ATOM      6  C   UNL     1      15.160 -17.302 -15.300  1.00  0.00    -0.028 C 
ATOM      7  C   UNL     1      17.119 -17.056 -13.757  1.00  0.00     0.039 C 
ATOM      8  C   UNL     1      16.381 -17.718 -14.897  1.00  0.00    -0.080 C 
ATOM      9  C   UNL     1      17.018 -18.878 -15.617  1.00  0.00     0.039 C 
ENDBRANCH   5   6
ENDBRANCH   4   5
ENDBRANCH   1   4
BRANCH   2  10
ATOM     10  C   UNL     1      10.363 -16.841 -12.787  1.00  0.00     0.035 C 
BRANCH  10  11
ATOM     11  C   UNL     1       9.708 -18.075 -12.159  1.00  0.00     0.079 C 
BRANCH  11  12
ATOM     12  C   UNL     1       8.445 -17.695 -11.432  1.00  0.00     0.130 C 
ATOM     13  O   UNL     1       7.421 -18.330 -11.635  1.00  0.00    -0.300 OA
ATOM     14  C   UNL     1       8.412 -16.545 -10.471  1.00  0.00     0.087 C 
ENDBRANCH  11  12
ENDBRANCH  10  11
ENDBRANCH   2  10
TORSDOF 6
ENDMDL
MODEL 3
REMARK VINA RESULT:    -3.825      2.863      7.136
REMARK INTER + INTRA:          -5.588
REMARK INTER:                  -5.286
REMARK INTRA:                  -0.302
REMARK UNBOUND:                -0.421
REMARK SMILES CC(=O)CCC=C(C)CCC=C(C)C
REMARK SMILES IDX 7 1 6 2 8 3 9 4 10 5 11 6 13 7 12 8 14 9 5 10 4 11 2 12 3 13
REMARK SMILES IDX 1 14
REMARK H PARENT
REMARK Flexibility Score: inf
ROOT
ATOM      1  C   UNL     1      12.505 -16.444 -12.326  1.00  0.00    -0.077 C 
ATOM      2  C   UNL     1      11.341 -17.085 -12.081  1.00  0.00    -0.028 C 
ATOM      3  C   UNL     1      13.485 -16.286 -11.192  1.00  0.00     0.039 C 
ENDROOT
BRANCH   1   4
ATOM      4  C   UNL     1      12.881 -15.909 -13.697  1.00  0.00     0.034 C 
BRANCH   4   5
ATOM      5  C   UNL     1      13.897 -16.813 -14.411  1.00  0.00     0.032 C 
BRANCH   5   6
ATOM      6  C   UNL     1      15.268 -16.698 -13.787  1.00  0.00    -0.028 C 
ATOM      7  C   UNL     1      16.385 -18.093 -15.543  1.00  0.00     0.039 C 
ATOM      8  C   UNL     1      16.386 -17.287 -14.266  1.00  0.00    -0.080 C 
ATOM      9  C   UNL     1      17.668 -17.130 -13.490  1.00  0.00     0.039 C 
ENDBRANCH   5   6
ENDBRANCH   4   5
ENDBRANCH   1   4
BRANCH   2  10
ATOM     10  C   UNL     1      10.233 -17.279 -13.087  1.00  0.00     0.035 C 
BRANCH  10  11
ATOM     11  C   UNL     1       8.980 -16.504 -12.668  1.00  0.00     0.079 C 
BRANCH  11  12
ATOM     12  C   UNL     1       8.367 -17.109 -11.433  1.00  0.00     0.130 C 
ATOM     13  O   UNL     1       7.858 -18.218 -11.496  1.00  0.00    -0.300 OA
ATOM     14  C   UNL     1       8.357 -16.374 -10.126  1.00  0.00     0.087 C 
ENDBRANCH  11  12
ENDBRANCH  10  11
ENDBRANCH   2  10
TORSDOF 6
ENDMDL
MODEL 4
REMARK VINA RESULT:    -3.528     15.184     17.487
REMARK INTER + INTRA:          -5.186
REMARK INTER:                  -4.412
REMARK INTRA:                  -0.774
REMARK UNBOUND:                -0.421
REMARK SMILES CC(=O)CCC=C(C)CCC=C(C)C
REMARK SMILES IDX 7 1 6 2 8 3 9 4 10 5 11 6 13 7 12 8 14 9 5 10 4 11 2 12 3 13
REMARK SMILES IDX 1 14
REMARK H PARENT
REMARK Flexibility Score: inf
ROOT
ATOM      1  C   UNL     1      23.472 -15.954   1.337  1.00  0.00    -0.077 C 
ATOM      2  C   UNL     1      22.449 -15.915   0.454  1.00  0.00    -0.028 C 
ATOM      3  C   UNL     1      23.145 -15.931   2.808  1.00  0.00     0.039 C 
ENDROOT
BRANCH   1   4
ATOM      4  C   UNL     1      24.927 -16.052   0.912  1.00  0.00     0.034 C 
BRANCH   4   5
ATOM      5  C   UNL     1      25.749 -16.928   1.868  1.00  0.00     0.032 C 
BRANCH   5   6
ATOM      6  C   UNL     1      26.096 -18.256   1.236  1.00  0.00    -0.028 C 
ATOM      7  C   UNL     1      24.146 -19.457   2.253  1.00  0.00     0.039 C 
ATOM      8  C   UNL     1      25.405 -19.403   1.420  1.00  0.00    -0.080 C 
ATOM      9  C   UNL     1      25.918 -20.662   0.770  1.00  0.00     0.039 C 
ENDBRANCH   5   6
ENDBRANCH   4   5
ENDBRANCH   1   4
BRANCH   2  10
ATOM     10  C   UNL     1      22.604 -15.875  -1.046  1.00  0.00     0.035 C 
BRANCH  10  11
ATOM     11  C   UNL     1      21.257 -16.116  -1.736  1.00  0.00     0.079 C 
BRANCH  11  12
ATOM     12  C   UNL     1      21.431 -16.187  -3.231  1.00  0.00     0.130 C 
ATOM     13  O   UNL     1      22.503 -15.877  -3.727  1.00  0.00    -0.300 OA
ATOM     14  C   UNL     1      20.309 -16.621  -4.127  1.00  0.00     0.087 C 
ENDBRANCH  11  12
ENDBRANCH  10  11
ENDBRANCH   2  10
TORSDOF 6
ENDMDL
MODEL 5
REMARK VINA RESULT:    -3.354      3.936      7.802
REMARK INTER + INTRA:          -4.951
REMARK INTER:                  -4.582
REMARK INTRA:                  -0.369
REMARK UNBOUND:                -0.421
REMARK SMILES CC(=O)CCC=C(C)CCC=C(C)C
REMARK SMILES IDX 7 1 6 2 8 3 9 4 10 5 11 6 13 7 12 8 14 9 5 10 4 11 2 12 3 13
REMARK SMILES IDX 1 14
REMARK H PARENT
REMARK Flexibility Score: inf
ROOT
ATOM      1  C   UNL     1       9.288 -17.247 -11.513  1.00  0.00    -0.077 C 
ATOM      2  C   UNL     1       8.194 -17.365 -10.727  1.00  0.00    -0.028 C 
ATOM      3  C   UNL     1       9.891 -18.503 -12.089  1.00  0.00     0.039 C 
ENDROOT
BRANCH   1   4
ATOM      4  C   UNL     1       9.911 -15.908 -11.866  1.00  0.00     0.034 C 
BRANCH   4   5
ATOM      5  C   UNL     1      11.441 -15.992 -11.965  1.00  0.00     0.032 C 
BRANCH   5   6
ATOM      6  C   UNL     1      11.894 -16.093 -13.403  1.00  0.00    -0.028 C 
ATOM      7  C   UNL     1      14.189 -16.911 -12.813  1.00  0.00     0.039 C 
ATOM      8  C   UNL     1      13.129 -16.476 -13.798  1.00  0.00    -0.080 C 
ATOM      9  C   UNL     1      13.446 -16.462 -15.271  1.00  0.00     0.039 C 
ENDBRANCH   5   6
ENDBRANCH   4   5
ENDBRANCH   1   4
BRANCH   2  10
ATOM     10  C   UNL     1       7.503 -16.219 -10.031  1.00  0.00     0.035 C 
BRANCH  10  11
ATOM     11  C   UNL     1       8.213 -15.875  -8.718  1.00  0.00     0.079 C 
BRANCH  11  12
ATOM     12  C   UNL     1       7.541 -16.557  -7.555  1.00  0.00     0.130 C 
ATOM     13  O   UNL     1       6.895 -15.892  -6.760  1.00  0.00    -0.300 OA
ATOM     14  C   UNL     1       7.658 -18.037  -7.344  1.00  0.00     0.087 C 
ENDBRANCH  11  12
ENDBRANCH  10  11
ENDBRANCH   2  10
TORSDOF 6
ENDMDL
MODEL 6
REMARK VINA RESULT:    -3.258     16.921     18.909
REMARK INTER + INTRA:          -4.822
REMARK INTER:                  -4.129
REMARK INTRA:                  -0.692
REMARK UNBOUND:                -0.421
REMARK SMILES CC(=O)CCC=C(C)CCC=C(C)C
REMARK SMILES IDX 7 1 6 2 8 3 9 4 10 5 11 6 13 7 12 8 14 9 5 10 4 11 2 12 3 13
REMARK SMILES IDX 1 14
REMARK H PARENT
REMARK Flexibility Score: inf
ROOT
ATOM      1  C   UNL     1      25.513 -19.817   1.508  1.00  0.00    -0.077 C 
ATOM      2  C   UNL     1      26.185 -18.775   0.968  1.00  0.00    -0.028 C 
ATOM      3  C   UNL     1      26.224 -21.141   1.626  1.00  0.00     0.039 C 
ENDROOT
BRANCH   1   4
ATOM      4  C   UNL     1      24.091 -19.701   2.028  1.00  0.00     0.034 C 
BRANCH   4   5
ATOM      5  C   UNL     1      24.039 -19.091   3.436  1.00  0.00     0.032 C 
BRANCH   5   6
ATOM      6  C   UNL     1      22.940 -18.060   3.548  1.00  0.00    -0.028 C 
ATOM      7  C   UNL     1      24.504 -16.189   4.125  1.00  0.00     0.039 C 
ATOM      8  C   UNL     1      23.129 -16.764   3.882  1.00  0.00    -0.080 C 
ATOM      9  C   UNL     1      21.920 -15.875   4.016  1.00  0.00     0.039 C 
ENDBRANCH   5   6
ENDBRANCH   4   5
ENDBRANCH   1   4
BRANCH   2  10
ATOM     10  C   UNL     1      25.605 -17.404   0.728  1.00  0.00     0.035 C 
BRANCH  10  11
ATOM     11  C   UNL     1      24.591 -17.438  -0.419  1.00  0.00     0.079 C 
BRANCH  11  12
ATOM     12  C   UNL     1      23.522 -16.397  -0.216  1.00  0.00     0.130 C 
ATOM     13  O   UNL     1      23.384 -15.884   0.884  1.00  0.00    -0.300 OA
ATOM     14  C   UNL     1      22.611 -15.984  -1.333  1.00  0.00     0.087 C 
ENDBRANCH  11  12
ENDBRANCH  10  11
ENDBRANCH   2  10
TORSDOF 6
ENDMDL
MODEL 7
REMARK VINA RESULT:    -3.090      1.828      2.631
REMARK INTER + INTRA:          -4.596
REMARK INTER:                  -4.255
REMARK INTRA:                  -0.340
REMARK UNBOUND:                -0.421
REMARK SMILES CC(=O)CCC=C(C)CCC=C(C)C
REMARK SMILES IDX 7 1 6 2 8 3 9 4 10 5 11 6 13 7 12 8 14 9 5 10 4 11 2 12 3 13
REMARK SMILES IDX 1 14
REMARK H PARENT
REMARK Flexibility Score: inf
ROOT
ATOM      1  C   UNL     1      14.415 -16.059 -12.359  1.00  0.00    -0.077 C 
ATOM      2  C   UNL     1      15.765 -16.026 -12.434  1.00  0.00    -0.028 C 
ATOM      3  C   UNL     1      13.781 -16.255 -11.006  1.00  0.00     0.039 C 
ENDROOT
BRANCH   1   4
ATOM      4  C   UNL     1      13.516 -15.875 -13.569  1.00  0.00     0.034 C 
BRANCH   4   5
ATOM      5  C   UNL     1      12.044 -16.168 -13.245  1.00  0.00     0.032 C 
BRANCH   5   6
ATOM      6  C   UNL     1      11.182 -16.086 -14.482  1.00  0.00    -0.028 C 
ATOM      7  C   UNL     1       9.057 -16.600 -13.258  1.00  0.00     0.039 C 
ATOM      8  C   UNL     1       9.848 -16.304 -14.510  1.00  0.00    -0.080 C 
ATOM      9  C   UNL     1       9.140 -16.249 -15.839  1.00  0.00     0.039 C 
ENDBRANCH   5   6
ENDBRANCH   4   5
ENDBRANCH   1   4
BRANCH   2  10
ATOM     10  C   UNL     1      16.556 -15.893 -13.711  1.00  0.00     0.035 C 
BRANCH  10  11
ATOM     11  C   UNL     1      17.112 -17.252 -14.148  1.00  0.00     0.079 C 
BRANCH  11  12
ATOM     12  C   UNL     1      16.481 -17.694 -15.442  1.00  0.00     0.130 C 
ATOM     13  O   UNL     1      17.037 -18.542 -16.123  1.00  0.00    -0.300 OA
ATOM     14  C   UNL     1      15.187 -17.105 -15.921  1.00  0.00     0.087 C 
ENDBRANCH  11  12
ENDBRANCH  10  11
ENDBRANCH   2  10
TORSDOF 6
ENDMDL
MODEL 8
REMARK VINA RESULT:    -3.055     16.620     19.024
REMARK INTER + INTRA:          -4.548
REMARK INTER:                  -3.298
REMARK INTRA:                  -1.249
REMARK UNBOUND:                -0.421
REMARK SMILES CC(=O)CCC=C(C)CCC=C(C)C
REMARK SMILES IDX 7 1 6 2 8 3 9 4 10 5 11 6 13 7 12 8 14 9 5 10 4 11 2 12 3 13
REMARK SMILES IDX 1 14
REMARK H PARENT
REMARK Flexibility Score: inf
ROOT
ATOM      1  C   UNL     1      23.002 -16.036  -0.033  1.00  0.00    -0.077 C 
ATOM      2  C   UNL     1      22.006 -15.875   0.867  1.00  0.00    -0.028 C 
ATOM      3  C   UNL     1      22.646 -16.046  -1.498  1.00  0.00     0.039 C 
ENDROOT
BRANCH   1   4
ATOM      4  C   UNL     1      24.461 -16.174   0.366  1.00  0.00     0.034 C 
BRANCH   4   5
ATOM      5  C   UNL     1      25.141 -17.361  -0.332  1.00  0.00     0.032 C 
BRANCH   5   6
ATOM      6  C   UNL     1      24.834 -18.661   0.374  1.00  0.00    -0.028 C 
ATOM      7  C   UNL     1      27.125 -18.875   1.366  1.00  0.00     0.039 C 
ATOM      8  C   UNL     1      25.718 -19.365   1.114  1.00  0.00    -0.080 C 
ATOM      9  C   UNL     1      25.276 -20.681   1.700  1.00  0.00     0.039 C 
ENDBRANCH   5   6
ENDBRANCH   4   5
ENDBRANCH   1   4
BRANCH   2  10
ATOM     10  C   UNL     1      22.183 -15.897   2.364  1.00  0.00     0.035 C 
BRANCH  10  11
ATOM     11  C   UNL     1      22.248 -17.338   2.881  1.00  0.00     0.079 C 
BRANCH  11  12
ATOM     12  C   UNL     1      23.489 -17.551   3.708  1.00  0.00     0.130 C 
ATOM     13  O   UNL     1      23.790 -18.682   4.059  1.00  0.00    -0.300 OA
ATOM     14  C   UNL     1      24.359 -16.402   4.121  1.00  0.00     0.087 C 
ENDBRANCH  11  12
ENDBRANCH  10  11
ENDBRANCH   2  10
TORSDOF 6
ENDMDL
