MODEL 1
REMARK VINA RESULT:    -1.991      0.000      0.000
REMARK INTER + INTRA:          -5.960
REMARK INTER:                  -3.620
REMARK INTRA:                  -2.340
REMARK UNBOUND:                -2.340
REMARK SMILES CCCCCCCCCCCCCC[C@H](C)C(=O)[O-]
REMARK SMILES IDX 9 1 10 2 11 3 12 4 13 5 14 6 15 7 16 8 17 9 18 10 19 11 8 12
REMARK SMILES IDX 7 13 6 14 5 15 4 16 3 17 2 18 1 19
REMARK H PARENT
REMARK Flexibility Score: inf
ROOT
ATOM      1  C   UNL     1     116.481  11.984  24.176  1.00  0.00     0.000 C 
ENDROOT
BRANCH   1   2
ATOM      2  C   UNL     1     115.662  12.800  25.188  1.00  0.00     0.000 C 
BRANCH   2   3
ATOM      3  C   UNL     1     114.780  13.875  24.526  1.00  0.00     0.000 C 
BRANCH   3   4
ATOM      4  C   UNL     1     115.376  15.294  24.497  1.00  0.00     0.000 C 
BRANCH   4   5
ATOM      5  C   UNL     1     116.697  15.408  25.274  1.00  0.00     0.001 C 
BRANCH   5   6
ATOM      6  C   UNL     1     116.694  16.524  26.342  1.00  0.00     0.009 C 
BRANCH   6   7
ATOM      7  C   UNL     1     117.111  16.132  27.785  1.00  0.00     0.032 C 
ATOM      8  C   UNL     1     118.634  16.104  27.986  1.00  0.00     0.014 C 
BRANCH   7   9
ATOM      9  C   UNL     1     116.444  14.869  28.267  1.00  0.00     0.044 C 
ATOM     10  O   UNL     1     115.191  14.800  28.377  1.00  0.00    -0.550 OA
ATOM     11  O   UNL     1     117.223  13.783  28.644  1.00  0.00    -0.550 OA
ENDBRANCH   7   9
ENDBRANCH   6   7
ENDBRANCH   5   6
ENDBRANCH   4   5
ENDBRANCH   3   4
ENDBRANCH   2   3
ENDBRANCH   1   2
BRANCH   1  12
ATOM     12  C   UNL     1     115.795  11.957  22.805  1.00  0.00     0.000 C 
BRANCH  12  13
ATOM     13  C   UNL     1     116.728  12.499  21.712  1.00  0.00    -0.000 C 
BRANCH  13  14
ATOM     14  C   UNL     1     116.149  13.727  20.991  1.00  0.00    -0.000 C 
BRANCH  14  15
ATOM     15  C   UNL     1     117.005  14.989  21.194  1.00  0.00    -0.000 C 
BRANCH  15  16
ATOM     16  C   UNL     1     118.210  14.752  22.122  1.00  0.00    -0.000 C 
BRANCH  16  17
ATOM     17  C   UNL     1     119.387  15.726  21.927  1.00  0.00    -0.000 C 
BRANCH  17  18
ATOM     18  C   UNL     1     119.340  16.923  22.887  1.00  0.00    -0.003 C 
ATOM     19  C   UNL     1     120.022  16.593  24.211  1.00  0.00     0.004 C 
ENDBRANCH  17  18
ENDBRANCH  16  17
ENDBRANCH  15  16
ENDBRANCH  14  15
ENDBRANCH  13  14
ENDBRANCH  12  13
ENDBRANCH   1  12
TORSDOF 14
ENDMDL
MODEL 2
REMARK VINA RESULT:    -1.973      3.043      6.451
REMARK INTER + INTRA:          -5.927
REMARK INTER:                  -3.624
REMARK INTRA:                  -2.303
REMARK UNBOUND:                -2.340
REMARK SMILES CCCCCCCCCCCCCC[C@H](C)C(=O)[O-]
REMARK SMILES IDX 9 1 10 2 11 3 12 4 13 5 14 6 15 7 16 8 17 9 18 10 19 11 8 12
REMARK SMILES IDX 7 13 6 14 5 15 4 16 3 17 2 18 1 19
REMARK H PARENT
REMARK Flexibility Score: inf
ROOT
ATOM      1  C   UNL     1     116.347  16.264  25.316  1.00  0.00     0.000 C 
ENDROOT
BRANCH   1   2
ATOM      2  C   UNL     1     115.529  14.964  25.353  1.00  0.00     0.000 C 
BRANCH   2   3
ATOM      3  C   UNL     1     116.406  13.698  25.396  1.00  0.00     0.000 C 
BRANCH   3   4
ATOM      4  C   UNL     1     116.060  12.619  24.354  1.00  0.00     0.000 C 
BRANCH   4   5
ATOM      5  C   UNL     1     115.924  13.178  22.929  1.00  0.00     0.001 C 
BRANCH   5   6
ATOM      6  C   UNL     1     117.278  13.476  22.249  1.00  0.00     0.009 C 
BRANCH   6   7
ATOM      7  C   UNL     1     117.403  14.808  21.461  1.00  0.00     0.032 C 
ATOM      8  C   UNL     1     116.214  15.068  20.523  1.00  0.00     0.014 C 
BRANCH   7   9
ATOM      9  C   UNL     1     118.729  14.955  20.762  1.00  0.00     0.044 C 
ATOM     10  O   UNL     1     118.902  14.505  19.597  1.00  0.00    -0.550 OA
ATOM     11  O   UNL     1     119.794  15.550  21.427  1.00  0.00    -0.550 OA
ENDBRANCH   7   9
ENDBRANCH   6   7
ENDBRANCH   5   6
ENDBRANCH   4   5
ENDBRANCH   3   4
ENDBRANCH   2   3
ENDBRANCH   1   2
BRANCH   1  12
ATOM     12  C   UNL     1     117.803  15.988  24.922  1.00  0.00     0.000 C 
BRANCH  12  13
ATOM     13  C   UNL     1     118.768  16.461  26.020  1.00  0.00    -0.000 C 
BRANCH  13  14
ATOM     14  C   UNL     1     118.044  16.853  27.319  1.00  0.00    -0.000 C 
BRANCH  14  15
ATOM     15  C   UNL     1     118.444  15.963  28.508  1.00  0.00    -0.000 C 
BRANCH  15  16
ATOM     16  C   UNL     1     117.497  14.765  28.704  1.00  0.00    -0.000 C 
BRANCH  16  17
ATOM     17  C   UNL     1     116.033  15.133  29.010  1.00  0.00    -0.000 C 
BRANCH  17  18
ATOM     18  C   UNL     1     115.106  13.910  29.064  1.00  0.00    -0.003 C 
ATOM     19  C   UNL     1     115.898  12.613  28.934  1.00  0.00     0.004 C 
ENDBRANCH  17  18
ENDBRANCH  16  17
ENDBRANCH  15  16
ENDBRANCH  14  15
ENDBRANCH  13  14
ENDBRANCH  12  13
ENDBRANCH   1  12
TORSDOF 14
ENDMDL
MODEL 3
REMARK VINA RESULT:    -1.949      2.299      3.378
REMARK INTER + INTRA:          -5.885
REMARK INTER:                  -2.755
REMARK INTRA:                  -3.130
REMARK UNBOUND:                -2.340
REMARK SMILES CCCCCCCCCCCCCC[C@H](C)C(=O)[O-]
REMARK SMILES IDX 9 1 10 2 11 3 12 4 13 5 14 6 15 7 16 8 17 9 18 10 19 11 8 12
REMARK SMILES IDX 7 13 6 14 5 15 4 16 3 17 2 18 1 19
REMARK H PARENT
REMARK Flexibility Score: inf
ROOT
ATOM      1  C   UNL     1     116.266  12.108  24.275  1.00  0.00     0.000 C 
ENDROOT
BRANCH   1   2
ATOM      2  C   UNL     1     115.494  12.710  25.459  1.00  0.00     0.000 C 
BRANCH   2   3
ATOM      3  C   UNL     1     116.200  13.926  26.086  1.00  0.00     0.000 C 
BRANCH   3   4
ATOM      4  C   UNL     1     116.857  14.897  25.088  1.00  0.00     0.000 C 
BRANCH   4   5
ATOM      5  C   UNL     1     116.127  16.245  24.988  1.00  0.00     0.001 C 
BRANCH   5   6
ATOM      6  C   UNL     1     115.441  16.479  23.624  1.00  0.00     0.009 C 
BRANCH   6   7
ATOM      7  C   UNL     1     114.356  15.458  23.187  1.00  0.00     0.032 C 
ATOM      8  C   UNL     1     114.042  15.518  21.684  1.00  0.00     0.014 C 
BRANCH   7   9
ATOM      9  C   UNL     1     113.113  15.522  24.036  1.00  0.00     0.044 C 
ATOM     10  O   UNL     1     112.608  14.476  24.527  1.00  0.00    -0.550 OA
ATOM     11  O   UNL     1     112.484  16.743  24.241  1.00  0.00    -0.550 OA
ENDBRANCH   7   9
ENDBRANCH   6   7
ENDBRANCH   5   6
ENDBRANCH   4   5
ENDBRANCH   3   4
ENDBRANCH   2   3
ENDBRANCH   1   2
BRANCH   1  12
ATOM     12  C   UNL     1     115.355  11.935  23.053  1.00  0.00     0.000 C 
BRANCH  12  13
ATOM     13  C   UNL     1     116.073  12.369  21.767  1.00  0.00    -0.000 C 
BRANCH  13  14
ATOM     14  C   UNL     1     117.435  13.028  22.041  1.00  0.00    -0.000 C 
BRANCH  14  15
ATOM     15  C   UNL     1     117.585  14.387  21.335  1.00  0.00    -0.000 C 
BRANCH  15  16
ATOM     16  C   UNL     1     118.748  15.227  21.893  1.00  0.00    -0.000 C 
BRANCH  16  17
ATOM     17  C   UNL     1     118.537  16.751  21.842  1.00  0.00    -0.000 C 
BRANCH  17  18
ATOM     18  C   UNL     1     119.184  17.486  23.025  1.00  0.00    -0.003 C 
ATOM     19  C   UNL     1     120.003  16.530  23.885  1.00  0.00     0.004 C 
ENDBRANCH  17  18
ENDBRANCH  16  17
ENDBRANCH  15  16
ENDBRANCH  14  15
ENDBRANCH  13  14
ENDBRANCH  12  13
ENDBRANCH   1  12
TORSDOF 14
ENDMDL
MODEL 4
REMARK VINA RESULT:    -1.937      3.279      6.616
REMARK INTER + INTRA:          -5.863
REMARK INTER:                  -3.266
REMARK INTRA:                  -2.597
REMARK UNBOUND:                -2.340
REMARK SMILES CCCCCCCCCCCCCC[C@H](C)C(=O)[O-]
REMARK SMILES IDX 9 1 10 2 11 3 12 4 13 5 14 6 15 7 16 8 17 9 18 10 19 11 8 12
REMARK SMILES IDX 7 13 6 14 5 15 4 16 3 17 2 18 1 19
REMARK H PARENT
REMARK Flexibility Score: inf
ROOT
ATOM      1  C   UNL     1     115.073  15.805  25.849  1.00  0.00     0.000 C 
ENDROOT
BRANCH   1   2
ATOM      2  C   UNL     1     113.878  15.017  25.292  1.00  0.00     0.000 C 
BRANCH   2   3
ATOM      3  C   UNL     1     114.274  13.644  24.717  1.00  0.00     0.000 C 
BRANCH   3   4
ATOM      4  C   UNL     1     115.579  13.046  25.274  1.00  0.00     0.000 C 
BRANCH   4   5
ATOM      5  C   UNL     1     116.462  12.409  24.189  1.00  0.00     0.001 C 
BRANCH   5   6
ATOM      6  C   UNL     1     116.293  13.054  22.796  1.00  0.00     0.009 C 
BRANCH   6   7
ATOM      7  C   UNL     1     117.384  14.060  22.339  1.00  0.00     0.032 C 
ATOM      8  C   UNL     1     117.088  15.506  22.766  1.00  0.00     0.014 C 
BRANCH   7   9
ATOM      9  C   UNL     1     117.708  13.949  20.872  1.00  0.00     0.044 C 
ATOM     10  O   UNL     1     117.559  12.860  20.256  1.00  0.00    -0.550 OA
ATOM     11  O   UNL     1     118.227  15.048  20.199  1.00  0.00    -0.550 OA
ENDBRANCH   7   9
ENDBRANCH   6   7
ENDBRANCH   5   6
ENDBRANCH   4   5
ENDBRANCH   3   4
ENDBRANCH   2   3
ENDBRANCH   1   2
BRANCH   1  12
ATOM     12  C   UNL     1     114.700  16.524  27.152  1.00  0.00     0.000 C 
BRANCH  12  13
ATOM     13  C   UNL     1     115.736  16.244  28.250  1.00  0.00    -0.000 C 
BRANCH  13  14
ATOM     14  C   UNL     1     116.942  15.439  27.738  1.00  0.00    -0.000 C 
BRANCH  14  15
ATOM     15  C   UNL     1     117.139  14.121  28.506  1.00  0.00    -0.000 C 
BRANCH  15  16
ATOM     16  C   UNL     1     115.835  13.587  29.124  1.00  0.00    -0.000 C 
BRANCH  16  17
ATOM     17  C   UNL     1     115.501  12.123  28.782  1.00  0.00    -0.000 C 
BRANCH  17  18
ATOM     18  C   UNL     1     114.013  11.904  28.472  1.00  0.00    -0.003 C 
ATOM     19  C   UNL     1     113.261  13.230  28.421  1.00  0.00     0.004 C 
ENDBRANCH  17  18
ENDBRANCH  16  17
ENDBRANCH  15  16
ENDBRANCH  14  15
ENDBRANCH  13  14
ENDBRANCH  12  13
ENDBRANCH   1  12
TORSDOF 14
ENDMDL
MODEL 5
REMARK VINA RESULT:    -1.896      2.626      3.562
REMARK INTER + INTRA:          -5.787
REMARK INTER:                  -3.535
REMARK INTRA:                  -2.252
REMARK UNBOUND:                -2.340
REMARK SMILES CCCCCCCCCCCCCC[C@H](C)C(=O)[O-]
REMARK SMILES IDX 9 1 10 2 11 3 12 4 13 5 14 6 15 7 16 8 17 9 18 10 19 11 8 12
REMARK SMILES IDX 7 13 6 14 5 15 4 16 3 17 2 18 1 19
REMARK H PARENT
REMARK Flexibility Score: inf
ROOT
ATOM      1  C   UNL     1     116.369  13.719  25.120  1.00  0.00     0.000 C 
ENDROOT
BRANCH   1   2
ATOM      2  C   UNL     1     115.862  13.841  26.564  1.00  0.00     0.000 C 
BRANCH   2   3
ATOM      3  C   UNL     1     116.302  15.147  27.253  1.00  0.00     0.000 C 
BRANCH   3   4
ATOM      4  C   UNL     1     117.641  15.076  28.011  1.00  0.00     0.000 C 
BRANCH   4   5
ATOM      5  C   UNL     1     118.605  16.213  27.639  1.00  0.00     0.001 C 
BRANCH   5   6
ATOM      6  C   UNL     1     118.744  16.435  26.117  1.00  0.00     0.009 C 
BRANCH   6   7
ATOM      7  C   UNL     1     118.388  17.842  25.566  1.00  0.00     0.032 C 
ATOM      8  C   UNL     1     116.987  17.907  24.939  1.00  0.00     0.014 C 
BRANCH   7   9
ATOM      9  C   UNL     1     119.451  18.403  24.657  1.00  0.00     0.044 C 
ATOM     10  O   UNL     1     119.150  18.909  23.542  1.00  0.00    -0.550 OA
ATOM     11  O   UNL     1     120.787  18.317  25.028  1.00  0.00    -0.550 OA
ENDBRANCH   7   9
ENDBRANCH   6   7
ENDBRANCH   5   6
ENDBRANCH   4   5
ENDBRANCH   3   4
ENDBRANCH   2   3
ENDBRANCH   1   2
BRANCH   1  12
ATOM     12  C   UNL     1     116.134  12.307  24.570  1.00  0.00     0.000 C 
BRANCH  12  13
ATOM     13  C   UNL     1     116.945  12.075  23.286  1.00  0.00    -0.000 C 
BRANCH  13  14
ATOM     14  C   UNL     1     116.140  12.377  22.012  1.00  0.00    -0.000 C 
BRANCH  14  15
ATOM     15  C   UNL     1     116.801  13.458  21.138  1.00  0.00    -0.000 C 
BRANCH  15  16
ATOM     16  C   UNL     1     116.224  14.863  21.386  1.00  0.00    -0.000 C 
BRANCH  16  17
ATOM     17  C   UNL     1     117.263  15.942  21.745  1.00  0.00    -0.000 C 
BRANCH  17  18
ATOM     18  C   UNL     1     118.459  15.385  22.530  1.00  0.00    -0.003 C 
ATOM     19  C   UNL     1     119.780  15.839  21.917  1.00  0.00     0.004 C 
ENDBRANCH  17  18
ENDBRANCH  16  17
ENDBRANCH  15  16
ENDBRANCH  14  15
ENDBRANCH  13  14
ENDBRANCH  12  13
ENDBRANCH   1  12
TORSDOF 14
ENDMDL
MODEL 6
REMARK VINA RESULT:    -1.896      2.925      5.264
REMARK INTER + INTRA:          -5.787
REMARK INTER:                  -3.457
REMARK INTRA:                  -2.330
REMARK UNBOUND:                -2.340
REMARK SMILES CCCCCCCCCCCCCC[C@H](C)C(=O)[O-]
REMARK SMILES IDX 9 1 10 2 11 3 12 4 13 5 14 6 15 7 16 8 17 9 18 10 19 11 8 12
REMARK SMILES IDX 7 13 6 14 5 15 4 16 3 17 2 18 1 19
REMARK H PARENT
REMARK Flexibility Score: inf
ROOT
ATOM      1  C   UNL     1     116.233  13.895  25.838  1.00  0.00     0.000 C 
ENDROOT
BRANCH   1   2
ATOM      2  C   UNL     1     115.656  13.093  24.661  1.00  0.00     0.000 C 
BRANCH   2   3
ATOM      3  C   UNL     1     116.634  12.037  24.112  1.00  0.00     0.000 C 
BRANCH   3   4
ATOM      4  C   UNL     1     116.973  12.166  22.615  1.00  0.00     0.000 C 
BRANCH   4   5
ATOM      5  C   UNL     1     116.679  13.563  22.048  1.00  0.00     0.001 C 
BRANCH   5   6
ATOM      6  C   UNL     1     117.941  14.430  21.849  1.00  0.00     0.009 C 
BRANCH   6   7
ATOM      7  C   UNL     1     118.175  15.592  22.852  1.00  0.00     0.032 C 
ATOM      8  C   UNL     1     116.945  16.497  23.025  1.00  0.00     0.014 C 
BRANCH   7   9
ATOM      9  C   UNL     1     119.428  16.376  22.561  1.00  0.00     0.044 C 
ATOM     10  O   UNL     1     120.512  16.107  23.147  1.00  0.00    -0.550 OA
ATOM     11  O   UNL     1     119.380  17.443  21.673  1.00  0.00    -0.550 OA
ENDBRANCH   7   9
ENDBRANCH   6   7
ENDBRANCH   5   6
ENDBRANCH   4   5
ENDBRANCH   3   4
ENDBRANCH   2   3
ENDBRANCH   1   2
BRANCH   1  12
ATOM     12  C   UNL     1     115.417  15.169  26.088  1.00  0.00     0.000 C 
BRANCH  12  13
ATOM     13  C   UNL     1     116.230  16.191  26.896  1.00  0.00    -0.000 C 
BRANCH  13  14
ATOM     14  C   UNL     1     117.184  15.528  27.904  1.00  0.00    -0.000 C 
BRANCH  14  15
ATOM     15  C   UNL     1     118.625  16.055  27.786  1.00  0.00    -0.000 C 
BRANCH  15  16
ATOM     16  C   UNL     1     118.997  16.465  26.350  1.00  0.00    -0.000 C 
BRANCH  16  17
ATOM     17  C   UNL     1     119.508  17.909  26.193  1.00  0.00    -0.000 C 
BRANCH  17  18
ATOM     18  C   UNL     1     118.517  18.818  25.453  1.00  0.00    -0.003 C 
ATOM     19  C   UNL     1     118.436  20.193  26.110  1.00  0.00     0.004 C 
ENDBRANCH  17  18
ENDBRANCH  16  17
ENDBRANCH  15  16
ENDBRANCH  14  15
ENDBRANCH  13  14
ENDBRANCH  12  13
ENDBRANCH   1  12
TORSDOF 14
ENDMDL
MODEL 7
REMARK VINA RESULT:    -1.845      2.720      4.913
REMARK INTER + INTRA:          -5.695
REMARK INTER:                  -2.993
REMARK INTRA:                  -2.702
REMARK UNBOUND:                -2.340
REMARK SMILES CCCCCCCCCCCCCC[C@H](C)C(=O)[O-]
REMARK SMILES IDX 9 1 10 2 11 3 12 4 13 5 14 6 15 7 16 8 17 9 18 10 19 11 8 12
REMARK SMILES IDX 7 13 6 14 5 15 4 16 3 17 2 18 1 19
REMARK H PARENT
REMARK Flexibility Score: inf
ROOT
ATOM      1  C   UNL     1     115.040  16.204  27.555  1.00  0.00     0.000 C 
ENDROOT
BRANCH   1   2
ATOM      2  C   UNL     1     115.781  15.138  28.376  1.00  0.00     0.000 C 
BRANCH   2   3
ATOM      3  C   UNL     1     117.202  14.852  27.854  1.00  0.00     0.000 C 
BRANCH   3   4
ATOM      4  C   UNL     1     118.259  15.919  28.196  1.00  0.00     0.000 C 
BRANCH   4   5
ATOM      5  C   UNL     1     118.893  16.560  26.951  1.00  0.00     0.001 C 
BRANCH   5   6
ATOM      6  C   UNL     1     118.174  16.197  25.633  1.00  0.00     0.009 C 
BRANCH   6   7
ATOM      7  C   UNL     1     117.969  17.334  24.596  1.00  0.00     0.032 C 
ATOM      8  C   UNL     1     116.502  17.773  24.465  1.00  0.00     0.014 C 
BRANCH   7   9
ATOM      9  C   UNL     1     118.601  17.033  23.262  1.00  0.00     0.044 C 
ATOM     10  O   UNL     1     118.095  17.468  22.192  1.00  0.00    -0.550 OA
ATOM     11  O   UNL     1     119.727  16.223  23.203  1.00  0.00    -0.550 OA
ENDBRANCH   7   9
ENDBRANCH   6   7
ENDBRANCH   5   6
ENDBRANCH   4   5
ENDBRANCH   3   4
ENDBRANCH   2   3
ENDBRANCH   1   2
BRANCH   1  12
ATOM     12  C   UNL     1     113.881  15.584  26.765  1.00  0.00     0.000 C 
BRANCH  12  13
ATOM     13  C   UNL     1     113.771  14.077  27.043  1.00  0.00    -0.000 C 
BRANCH  13  14
ATOM     14  C   UNL     1     113.955  13.225  25.776  1.00  0.00    -0.000 C 
BRANCH  14  15
ATOM     15  C   UNL     1     115.360  12.607  25.680  1.00  0.00    -0.000 C 
BRANCH  15  16
ATOM     16  C   UNL     1     116.208  13.219  24.550  1.00  0.00    -0.000 C 
BRANCH  16  17
ATOM     17  C   UNL     1     115.508  14.319  23.731  1.00  0.00    -0.000 C 
BRANCH  17  18
ATOM     18  C   UNL     1     116.101  14.488  22.325  1.00  0.00    -0.003 C 
ATOM     19  C   UNL     1     117.383  13.676  22.167  1.00  0.00     0.004 C 
ENDBRANCH  17  18
ENDBRANCH  16  17
ENDBRANCH  15  16
ENDBRANCH  14  15
ENDBRANCH  13  14
ENDBRANCH  12  13
ENDBRANCH   1  12
TORSDOF 14
ENDMDL
MODEL 8
REMARK VINA RESULT:    -1.844      3.373      5.737
REMARK INTER + INTRA:          -5.693
REMARK INTER:                  -3.037
REMARK INTRA:                  -2.655
REMARK UNBOUND:                -2.340
REMARK SMILES CCCCCCCCCCCCCC[C@H](C)C(=O)[O-]
REMARK SMILES IDX 9 1 10 2 11 3 12 4 13 5 14 6 15 7 16 8 17 9 18 10 19 11 8 12
REMARK SMILES IDX 7 13 6 14 5 15 4 16 3 17 2 18 1 19
REMARK H PARENT
REMARK Flexibility Score: inf
ROOT
ATOM      1  C   UNL     1     114.225  13.320  25.206  1.00  0.00     0.000 C 
ENDROOT
BRANCH   1   2
ATOM      2  C   UNL     1     114.777  12.246  24.258  1.00  0.00     0.000 C 
BRANCH   2   3
ATOM      3  C   UNL     1     116.314  12.152  24.279  1.00  0.00     0.000 C 
BRANCH   3   4
ATOM      4  C   UNL     1     117.012  12.433  22.936  1.00  0.00     0.000 C 
BRANCH   4   5
ATOM      5  C   UNL     1     116.187  13.336  22.005  1.00  0.00     0.001 C 
BRANCH   5   6
ATOM      6  C   UNL     1     116.895  14.658  21.636  1.00  0.00     0.009 C 
BRANCH   6   7
ATOM      7  C   UNL     1     118.420  14.595  21.352  1.00  0.00     0.032 C 
ATOM      8  C   UNL     1     119.221  15.658  22.121  1.00  0.00     0.014 C 
BRANCH   7   9
ATOM      9  C   UNL     1     118.745  14.585  19.881  1.00  0.00     0.044 C 
ATOM     10  O   UNL     1     117.864  14.856  19.021  1.00  0.00    -0.550 OA
ATOM     11  O   UNL     1     120.018  14.222  19.461  1.00  0.00    -0.550 OA
ENDBRANCH   7   9
ENDBRANCH   6   7
ENDBRANCH   5   6
ENDBRANCH   4   5
ENDBRANCH   3   4
ENDBRANCH   2   3
ENDBRANCH   1   2
BRANCH   1  12
ATOM     12  C   UNL     1     114.443  12.926  26.672  1.00  0.00     0.000 C 
BRANCH  12  13
ATOM     13  C   UNL     1     115.016  14.101  27.478  1.00  0.00    -0.000 C 
BRANCH  13  14
ATOM     14  C   UNL     1     116.552  14.152  27.443  1.00  0.00    -0.000 C 
BRANCH  14  15
ATOM     15  C   UNL     1     117.085  15.491  26.905  1.00  0.00    -0.000 C 
BRANCH  15  16
ATOM     16  C   UNL     1     117.275  15.489  25.377  1.00  0.00    -0.000 C 
BRANCH  16  17
ATOM     17  C   UNL     1     116.666  16.697  24.641  1.00  0.00    -0.000 C 
BRANCH  17  18
ATOM     18  C   UNL     1     115.156  16.844  24.876  1.00  0.00    -0.003 C 
ATOM     19  C   UNL     1     114.376  16.638  23.581  1.00  0.00     0.004 C 
ENDBRANCH  17  18
ENDBRANCH  16  17
ENDBRANCH  15  16
ENDBRANCH  14  15
ENDBRANCH  13  14
ENDBRANCH  12  13
ENDBRANCH   1  12
TORSDOF 14
ENDMDL
MODEL 9
REMARK VINA RESULT:    -1.790      1.875      4.089
REMARK INTER + INTRA:          -5.595
REMARK INTER:                  -2.612
REMARK INTRA:                  -2.984
REMARK UNBOUND:                -2.340
REMARK SMILES CCCCCCCCCCCCCC[C@H](C)C(=O)[O-]
REMARK SMILES IDX 9 1 10 2 11 3 12 4 13 5 14 6 15 7 16 8 17 9 18 10 19 11 8 12
REMARK SMILES IDX 7 13 6 14 5 15 4 16 3 17 2 18 1 19
REMARK H PARENT
REMARK Flexibility Score: inf
ROOT
ATOM      1  C   UNL     1     114.241  16.564  23.846  1.00  0.00     0.000 C 
ENDROOT
BRANCH   1   2
ATOM      2  C   UNL     1     113.107  15.545  24.038  1.00  0.00     0.000 C 
BRANCH   2   3
ATOM      3  C   UNL     1     113.307  14.256  23.218  1.00  0.00     0.000 C 
BRANCH   3   4
ATOM      4  C   UNL     1     113.512  12.973  24.044  1.00  0.00     0.000 C 
BRANCH   4   5
ATOM      5  C   UNL     1     114.896  12.338  23.837  1.00  0.00     0.001 C 
BRANCH   5   6
ATOM      6  C   UNL     1     115.884  12.615  24.991  1.00  0.00     0.009 C 
BRANCH   6   7
ATOM      7  C   UNL     1     115.368  13.464  26.184  1.00  0.00     0.032 C 
ATOM      8  C   UNL     1     116.281  14.655  26.517  1.00  0.00     0.014 C 
BRANCH   7   9
ATOM      9  C   UNL     1     115.040  12.634  27.398  1.00  0.00     0.044 C 
ATOM     10  O   UNL     1     115.829  12.580  28.379  1.00  0.00    -0.550 OA
ATOM     11  O   UNL     1     113.876  11.875  27.417  1.00  0.00    -0.550 OA
ENDBRANCH   7   9
ENDBRANCH   6   7
ENDBRANCH   5   6
ENDBRANCH   4   5
ENDBRANCH   3   4
ENDBRANCH   2   3
ENDBRANCH   1   2
BRANCH   1  12
ATOM     12  C   UNL     1     115.226  16.096  22.768  1.00  0.00     0.000 C 
BRANCH  12  13
ATOM     13  C   UNL     1     116.676  16.204  23.264  1.00  0.00    -0.000 C 
BRANCH  13  14
ATOM     14  C   UNL     1     117.567  15.063  22.748  1.00  0.00    -0.000 C 
BRANCH  14  15
ATOM     15  C   UNL     1     117.055  14.467  21.424  1.00  0.00    -0.000 C 
BRANCH  15  16
ATOM     16  C   UNL     1     117.321  12.956  21.305  1.00  0.00    -0.000 C 
BRANCH  16  17
ATOM     17  C   UNL     1     116.488  12.228  20.234  1.00  0.00    -0.000 C 
BRANCH  17  18
ATOM     18  C   UNL     1     115.392  13.113  19.623  1.00  0.00    -0.003 C 
ATOM     19  C   UNL     1     114.005  12.654  20.065  1.00  0.00     0.004 C 
ENDBRANCH  17  18
ENDBRANCH  16  17
ENDBRANCH  15  16
ENDBRANCH  14  15
ENDBRANCH  13  14
ENDBRANCH  12  13
ENDBRANCH   1  12
TORSDOF 14
ENDMDL
