MODEL 1
REMARK VINA RESULT:    -4.457      0.000      0.000
REMARK INTER + INTRA:          -5.350
REMARK INTER:                  -5.239
REMARK INTRA:                  -0.111
REMARK UNBOUND:                -0.111
REMARK SMILES O=C([O-])CCC(=O)[O-]
REMARK SMILES IDX 4 1 2 2 1 3 3 4 5 5 6 6 7 7 8 8
REMARK H PARENT
REMARK Flexibility Score: inf
ROOT
ATOM      1  C   UNL     1       5.884 -13.916  11.132  1.00  0.00     0.059 C 
ENDROOT
BRANCH   1   2
ATOM      2  C   UNL     1       6.085 -13.176   9.845  1.00  0.00     0.042 C 
ATOM      3  O   UNL     1       6.190 -13.809   8.760  1.00  0.00    -0.550 OA
ATOM      4  O   UNL     1       6.113 -11.787   9.837  1.00  0.00    -0.550 OA
ENDBRANCH   1   2
BRANCH   1   5
ATOM      5  C   UNL     1       5.657 -15.412  10.894  1.00  0.00     0.059 C 
BRANCH   5   6
ATOM      6  C   UNL     1       4.220 -15.790  11.085  1.00  0.00     0.042 C 
ATOM      7  O   UNL     1       3.897 -16.627  11.969  1.00  0.00    -0.550 OA
ATOM      8  O   UNL     1       3.234 -15.187  10.315  1.00  0.00    -0.550 OA
ENDBRANCH   5   6
ENDBRANCH   1   5
TORSDOF 3
ENDMDL
MODEL 2
REMARK VINA RESULT:    -4.331      2.059      2.242
REMARK INTER + INTRA:          -5.202
REMARK INTER:                  -5.121
REMARK INTRA:                  -0.081
REMARK UNBOUND:                -0.111
REMARK SMILES O=C([O-])CCC(=O)[O-]
REMARK SMILES IDX 4 1 2 2 1 3 3 4 5 5 6 6 7 7 8 8
REMARK H PARENT
REMARK Flexibility Score: inf
ROOT
ATOM      1  C   UNL     1       5.536 -13.438  11.654  1.00  0.00     0.059 C 
ENDROOT
BRANCH   1   2
ATOM      2  C   UNL     1       5.823 -13.139  10.215  1.00  0.00     0.042 C 
ATOM      3  O   UNL     1       5.736 -14.049   9.349  1.00  0.00    -0.550 OA
ATOM      4  O   UNL     1       6.145 -11.845   9.823  1.00  0.00    -0.550 OA
ENDBRANCH   1   2
BRANCH   1   5
ATOM      5  C   UNL     1       4.336 -12.638  12.170  1.00  0.00     0.059 C 
BRANCH   5   6
ATOM      6  C   UNL     1       3.209 -13.535  12.583  1.00  0.00     0.042 C 
ATOM      7  O   UNL     1       3.186 -14.736  12.206  1.00  0.00    -0.550 OA
ATOM      8  O   UNL     1       2.208 -13.056  13.418  1.00  0.00    -0.550 OA
ENDBRANCH   5   6
ENDBRANCH   1   5
TORSDOF 3
ENDMDL
MODEL 3
REMARK VINA RESULT:    -4.324      1.002      3.540
REMARK INTER + INTRA:          -5.193
REMARK INTER:                  -5.042
REMARK INTRA:                  -0.151
REMARK UNBOUND:                -0.111
REMARK SMILES O=C([O-])CCC(=O)[O-]
REMARK SMILES IDX 4 1 2 2 1 3 3 4 5 5 6 6 7 7 8 8
REMARK H PARENT
REMARK Flexibility Score: inf
ROOT
ATOM      1  C   UNL     1       5.038 -15.428  10.863  1.00  0.00     0.059 C 
ENDROOT
BRANCH   1   2
ATOM      2  C   UNL     1       3.632 -14.922  10.959  1.00  0.00     0.042 C 
ATOM      3  O   UNL     1       2.746 -15.362  10.179  1.00  0.00    -0.550 OA
ATOM      4  O   UNL     1       3.290 -13.994  11.935  1.00  0.00    -0.550 OA
ENDBRANCH   1   2
BRANCH   1   5
ATOM      5  C   UNL     1       6.058 -14.292  10.998  1.00  0.00     0.059 C 
BRANCH   5   6
ATOM      6  C   UNL     1       6.089 -13.430   9.773  1.00  0.00     0.042 C 
ATOM      7  O   UNL     1       6.134 -13.955   8.630  1.00  0.00    -0.550 OA
ATOM      8  O   UNL     1       6.026 -12.047   9.894  1.00  0.00    -0.550 OA
ENDBRANCH   5   6
ENDBRANCH   1   5
TORSDOF 3
ENDMDL
MODEL 4
REMARK VINA RESULT:    -4.323      0.845      1.207
REMARK INTER + INTRA:          -5.192
REMARK INTER:                  -5.075
REMARK INTRA:                  -0.117
REMARK UNBOUND:                -0.111
REMARK SMILES O=C([O-])CCC(=O)[O-]
REMARK SMILES IDX 4 1 2 2 1 3 3 4 5 5 6 6 7 7 8 8
REMARK H PARENT
REMARK Flexibility Score: inf
ROOT
ATOM      1  C   UNL     1       5.975 -14.155  11.066  1.00  0.00     0.059 C 
ENDROOT
BRANCH   1   2
ATOM      2  C   UNL     1       6.074 -13.351   9.806  1.00  0.00     0.042 C 
ATOM      3  O   UNL     1       6.123 -13.929   8.688  1.00  0.00    -0.550 OA
ATOM      4  O   UNL     1       6.071 -11.963   9.864  1.00  0.00    -0.550 OA
ENDBRANCH   1   2
BRANCH   1   5
ATOM      5  C   UNL     1       5.116 -15.410  10.869  1.00  0.00     0.059 C 
BRANCH   5   6
ATOM      6  C   UNL     1       3.663 -15.127  11.102  1.00  0.00     0.042 C 
ATOM      7  O   UNL     1       2.826 -15.314  10.181  1.00  0.00    -0.550 OA
ATOM      8  O   UNL     1       3.230 -14.698  12.350  1.00  0.00    -0.550 OA
ENDBRANCH   5   6
ENDBRANCH   1   5
TORSDOF 3
ENDMDL
MODEL 5
REMARK VINA RESULT:    -4.322      2.018      3.907
REMARK INTER + INTRA:          -5.191
REMARK INTER:                  -5.110
REMARK INTRA:                  -0.082
REMARK UNBOUND:                -0.111
REMARK SMILES O=C([O-])CCC(=O)[O-]
REMARK SMILES IDX 4 1 2 2 1 3 3 4 5 5 6 6 7 7 8 8
REMARK H PARENT
REMARK Flexibility Score: inf
ROOT
ATOM      1  C   UNL     1       4.320 -12.720  12.164  1.00  0.00     0.059 C 
ENDROOT
BRANCH   1   2
ATOM      2  C   UNL     1       3.135 -13.569  12.508  1.00  0.00     0.042 C 
ATOM      3  O   UNL     1       3.002 -14.710  11.991  1.00  0.00    -0.550 OA
ATOM      4  O   UNL     1       2.198 -13.118  13.430  1.00  0.00    -0.550 OA
ENDBRANCH   1   2
BRANCH   1   5
ATOM      5  C   UNL     1       5.481 -13.561  11.625  1.00  0.00     0.059 C 
BRANCH   5   6
ATOM      6  C   UNL     1       5.794 -13.222  10.200  1.00  0.00     0.042 C 
ATOM      7  O   UNL     1       5.742 -14.113   9.311  1.00  0.00    -0.550 OA
ATOM      8  O   UNL     1       6.103 -11.915   9.847  1.00  0.00    -0.550 OA
ENDBRANCH   5   6
ENDBRANCH   1   5
TORSDOF 3
ENDMDL
MODEL 6
REMARK VINA RESULT:    -4.244      1.403      3.730
REMARK INTER + INTRA:          -5.099
REMARK INTER:                  -4.998
REMARK INTRA:                  -0.101
REMARK UNBOUND:                -0.111
REMARK SMILES O=C([O-])CCC(=O)[O-]
REMARK SMILES IDX 4 1 2 2 1 3 3 4 5 5 6 6 7 7 8 8
REMARK H PARENT
REMARK Flexibility Score: inf
ROOT
ATOM      1  C   UNL     1       5.812 -14.334  11.717  1.00  0.00     0.059 C 
ENDROOT
BRANCH   1   2
ATOM      2  C   UNL     1       5.354 -15.221  10.600  1.00  0.00     0.042 C 
ATOM      3  O   UNL     1       4.203 -15.732  10.628  1.00  0.00    -0.550 OA
ATOM      4  O   UNL     1       6.181 -15.450   9.508  1.00  0.00    -0.550 OA
ENDBRANCH   1   2
BRANCH   1   5
ATOM      5  C   UNL     1       5.000 -13.036  11.778  1.00  0.00     0.059 C 
BRANCH   5   6
ATOM      6  C   UNL     1       5.743 -11.890  11.163  1.00  0.00     0.042 C 
ATOM      7  O   UNL     1       6.127 -10.928  11.879  1.00  0.00    -0.550 OA
ATOM      8  O   UNL     1       6.049 -11.905   9.808  1.00  0.00    -0.550 OA
ENDBRANCH   5   6
ENDBRANCH   1   5
TORSDOF 3
ENDMDL
MODEL 7
REMARK VINA RESULT:    -4.119      2.126      2.962
REMARK INTER + INTRA:          -4.952
REMARK INTER:                  -4.895
REMARK INTRA:                  -0.057
REMARK UNBOUND:                -0.111
REMARK SMILES O=C([O-])CCC(=O)[O-]
REMARK SMILES IDX 4 1 2 2 1 3 3 4 5 5 6 6 7 7 8 8
REMARK H PARENT
REMARK Flexibility Score: inf
ROOT
ATOM      1  C   UNL     1       4.828 -14.219  12.785  1.00  0.00     0.059 C 
ENDROOT
BRANCH   1   2
ATOM      2  C   UNL     1       3.953 -13.032  12.526  1.00  0.00     0.042 C 
ATOM      3  O   UNL     1       4.326 -12.131  11.728  1.00  0.00    -0.550 OA
ATOM      4  O   UNL     1       2.707 -12.938  13.134  1.00  0.00    -0.550 OA
ENDBRANCH   1   2
BRANCH   1   5
ATOM      5  C   UNL     1       5.888 -14.389  11.692  1.00  0.00     0.059 C 
BRANCH   5   6
ATOM      6  C   UNL     1       5.406 -15.283  10.590  1.00  0.00     0.042 C 
ATOM      7  O   UNL     1       4.283 -15.844  10.675  1.00  0.00    -0.550 OA
ATOM      8  O   UNL     1       6.181 -15.462   9.451  1.00  0.00    -0.550 OA
ENDBRANCH   5   6
ENDBRANCH   1   5
TORSDOF 3
ENDMDL
MODEL 8
REMARK VINA RESULT:    -3.994      1.892      2.250
REMARK INTER + INTRA:          -4.806
REMARK INTER:                  -4.688
REMARK INTRA:                  -0.118
REMARK UNBOUND:                -0.111
REMARK SMILES O=C([O-])CCC(=O)[O-]
REMARK SMILES IDX 4 1 2 2 1 3 3 4 5 5 6 6 7 7 8 8
REMARK H PARENT
REMARK Flexibility Score: inf
ROOT
ATOM      1  C   UNL     1       5.451 -13.309  11.405  1.00  0.00     0.059 C 
ENDROOT
BRANCH   1   2
ATOM      2  C   UNL     1       5.824 -13.964  10.111  1.00  0.00     0.042 C 
ATOM      3  O   UNL     1       6.266 -13.272   9.155  1.00  0.00    -0.550 OA
ATOM      4  O   UNL     1       5.721 -15.342   9.973  1.00  0.00    -0.550 OA
ENDBRANCH   1   2
BRANCH   1   5
ATOM      5  C   UNL     1       4.672 -14.262  12.318  1.00  0.00     0.059 C 
BRANCH   5   6
ATOM      6  C   UNL     1       3.199 -13.989  12.274  1.00  0.00     0.042 C 
ATOM      7  O   UNL     1       2.648 -13.343  13.203  1.00  0.00    -0.550 OA
ATOM      8  O   UNL     1       2.446 -14.412  11.187  1.00  0.00    -0.550 OA
ENDBRANCH   5   6
ENDBRANCH   1   5
TORSDOF 3
ENDMDL
MODEL 9
REMARK VINA RESULT:    -3.988      1.812      4.397
REMARK INTER + INTRA:          -4.799
REMARK INTER:                  -4.772
REMARK INTRA:                  -0.026
REMARK UNBOUND:                -0.111
REMARK SMILES O=C([O-])CCC(=O)[O-]
REMARK SMILES IDX 4 1 2 2 1 3 3 4 5 5 6 6 7 7 8 8
REMARK H PARENT
REMARK Flexibility Score: inf
ROOT
ATOM      1  C   UNL     1       3.218 -15.474  10.880  1.00  0.00     0.059 C 
ENDROOT
BRANCH   1   2
ATOM      2  C   UNL     1       2.239 -16.043  11.861  1.00  0.00     0.042 C 
ATOM      3  O   UNL     1       1.485 -15.278  12.519  1.00  0.00    -0.550 OA
ATOM      4  O   UNL     1       2.130 -17.419  12.018  1.00  0.00    -0.550 OA
ENDBRANCH   1   2
BRANCH   1   5
ATOM      5  C   UNL     1       4.659 -15.857  11.233  1.00  0.00     0.059 C 
BRANCH   5   6
ATOM      6  C   UNL     1       5.652 -15.035  10.470  1.00  0.00     0.042 C 
ATOM      7  O   UNL     1       6.165 -15.483   9.411  1.00  0.00    -0.550 OA
ATOM      8  O   UNL     1       5.979 -13.757  10.906  1.00  0.00    -0.550 OA
ENDBRANCH   5   6
ENDBRANCH   1   5
TORSDOF 3
ENDMDL
