MODEL 1
REMARK VINA RESULT:    -6.614      0.000      0.000
REMARK INTER + INTRA:          -7.892
REMARK INTER:                  -7.580
REMARK INTRA:                  -0.312
REMARK UNBOUND:                -0.312
REMARK SMILES O=C1C[C@H](c2ccc(O)cc2)Oc2cc(O)cc(O)c21
REMARK SMILES IDX 3 1 4 2 12 3 13 4 14 5 15 6 17 7 18 8 20 9 2 10 1 11 5 12
REMARK SMILES IDX 6 13 11 14 7 15 10 16 8 17 9 18 19 20 16 22
REMARK H PARENT 9 19 19 21 16 23
REMARK Flexibility Score: inf
ROOT
ATOM      1  C   UNL     1      10.119  -8.477  -9.256  1.00  0.00     0.131 C 
ATOM      2  C   UNL     1      10.340  -7.004  -9.638  1.00  0.00     0.211 C 
ATOM      3  O   UNL     1      10.362  -6.179  -8.470  1.00  0.00    -0.484 OA
ATOM      4  C   UNL     1       9.449  -6.351  -7.423  1.00  0.00     0.138 A 
ATOM      5  C   UNL     1       9.302  -5.341  -6.468  1.00  0.00     0.093 A 
ATOM      6  C   UNL     1       8.376  -5.484  -5.428  1.00  0.00     0.123 A 
ATOM      7  C   UNL     1       7.603  -6.646  -5.341  1.00  0.00     0.093 A 
ATOM      8  C   UNL     1       7.754  -7.675  -6.282  1.00  0.00     0.133 A 
ATOM      9  C   UNL     1       8.690  -7.533  -7.329  1.00  0.00     0.102 A 
ATOM     10  C   UNL     1       8.942  -8.598  -8.331  1.00  0.00     0.174 C 
ATOM     11  O   UNL     1       8.217  -9.628  -8.383  1.00  0.00    -0.294 OA
ENDROOT
BRANCH   2  12
ATOM     12  C   UNL     1      11.626  -6.841 -10.412  1.00  0.00    -0.007 A 
ATOM     13  C   UNL     1      12.360  -5.647 -10.317  1.00  0.00     0.011 A 
ATOM     14  C   UNL     1      12.074  -7.855 -11.278  1.00  0.00     0.011 A 
ATOM     15  C   UNL     1      13.535  -5.480 -11.056  1.00  0.00     0.046 A 
ATOM     16  C   UNL     1      13.249  -7.684 -12.015  1.00  0.00     0.046 A 
ATOM     17  C   UNL     1      13.984  -6.497 -11.904  1.00  0.00     0.115 A 
BRANCH  17  18
ATOM     18  O   UNL     1      15.157  -6.317 -12.635  1.00  0.00    -0.508 OA
ATOM     19  H   UNL     1      15.813  -7.075 -12.778  1.00  0.00     0.293 HD
ENDBRANCH  17  18
ENDBRANCH   2  12
BRANCH   8  20
ATOM     20  O   UNL     1       6.985  -8.833  -6.167  1.00  0.00    -0.507 OA
ATOM     21  H   UNL     1       6.167  -8.988  -6.745  1.00  0.00     0.293 HD
ENDBRANCH   8  20
BRANCH   6  22
ATOM     22  O   UNL     1       8.216  -4.479  -4.476  1.00  0.00    -0.508 OA
ATOM     23  H   UNL     1       7.333  -3.997  -4.360  1.00  0.00     0.293 HD
ENDBRANCH   6  22
TORSDOF 4
ENDMDL
MODEL 2
REMARK VINA RESULT:    -6.143      2.217      6.731
REMARK INTER + INTRA:          -7.353
REMARK INTER:                  -7.056
REMARK INTRA:                  -0.297
REMARK UNBOUND:                -0.312
REMARK SMILES O=C1C[C@H](c2ccc(O)cc2)Oc2cc(O)cc(O)c21
REMARK SMILES IDX 3 1 4 2 12 3 13 4 14 5 15 6 17 7 18 8 20 9 2 10 1 11 5 12
REMARK SMILES IDX 6 13 11 14 7 15 10 16 8 17 9 18 19 20 16 22
REMARK H PARENT 9 19 19 21 16 23
REMARK Flexibility Score: inf
ROOT
ATOM      1  C   UNL     1       7.890  -7.464  -9.961  1.00  0.00     0.131 C 
ATOM      2  C   UNL     1       8.855  -7.957  -8.871  1.00  0.00     0.211 C 
ATOM      3  O   UNL     1      10.211  -7.837  -9.309  1.00  0.00    -0.484 OA
ATOM      4  C   UNL     1      10.608  -8.191 -10.604  1.00  0.00     0.138 A 
ATOM      5  C   UNL     1      11.967  -8.360 -10.883  1.00  0.00     0.093 A 
ATOM      6  C   UNL     1      12.380  -8.739 -12.166  1.00  0.00     0.123 A 
ATOM      7  C   UNL     1      11.429  -8.940 -13.171  1.00  0.00     0.093 A 
ATOM      8  C   UNL     1      10.063  -8.755 -12.909  1.00  0.00     0.133 A 
ATOM      9  C   UNL     1       9.646  -8.370 -11.616  1.00  0.00     0.102 A 
ATOM     10  C   UNL     1       8.227  -8.107 -11.277  1.00  0.00     0.174 C 
ATOM     11  O   UNL     1       7.302  -8.364 -12.094  1.00  0.00    -0.294 OA
ENDROOT
BRANCH   2  12
ATOM     12  C   UNL     1       8.654  -7.183  -7.591  1.00  0.00    -0.007 A 
ATOM     13  C   UNL     1       7.826  -7.696  -6.578  1.00  0.00     0.011 A 
ATOM     14  C   UNL     1       9.244  -5.918  -7.419  1.00  0.00     0.011 A 
ATOM     15  C   UNL     1       7.613  -6.969  -5.403  1.00  0.00     0.046 A 
ATOM     16  C   UNL     1       9.028  -5.193  -6.242  1.00  0.00     0.046 A 
ATOM     17  C   UNL     1       8.213  -5.718  -5.231  1.00  0.00     0.115 A 
BRANCH  17  18
ATOM     18  O   UNL     1       7.992  -5.004  -4.055  1.00  0.00    -0.508 OA
ATOM     19  H   UNL     1       8.029  -5.453  -3.148  1.00  0.00     0.293 HD
ENDBRANCH  17  18
ENDBRANCH   2  12
BRANCH   8  20
ATOM     20  O   UNL     1       9.133  -8.944 -13.930  1.00  0.00    -0.507 OA
ATOM     21  H   UNL     1       8.428  -9.671 -13.881  1.00  0.00     0.293 HD
ENDBRANCH   8  20
BRANCH   6  22
ATOM     22  O   UNL     1      13.732  -8.919 -12.452  1.00  0.00    -0.508 OA
ATOM     23  H   UNL     1      14.066  -9.748 -12.928  1.00  0.00     0.293 HD
ENDBRANCH   6  22
TORSDOF 4
ENDMDL
MODEL 3
REMARK VINA RESULT:    -6.065      2.001      2.098
REMARK INTER + INTRA:          -7.264
REMARK INTER:                  -6.967
REMARK INTRA:                  -0.297
REMARK UNBOUND:                -0.312
REMARK SMILES O=C1C[C@H](c2ccc(O)cc2)Oc2cc(O)cc(O)c21
REMARK SMILES IDX 3 1 4 2 12 3 13 4 14 5 15 6 17 7 18 8 20 9 2 10 1 11 5 12
REMARK SMILES IDX 6 13 11 14 7 15 10 16 8 17 9 18 19 20 16 22
REMARK H PARENT 9 19 19 21 16 23
REMARK Flexibility Score: inf
ROOT
ATOM      1  C   UNL     1      11.053  -7.618  -8.807  1.00  0.00     0.131 C 
ATOM      2  C   UNL     1      10.866  -7.050 -10.223  1.00  0.00     0.211 C 
ATOM      3  O   UNL     1      10.103  -5.841 -10.183  1.00  0.00    -0.484 OA
ATOM      4  C   UNL     1       8.967  -5.706  -9.376  1.00  0.00     0.138 A 
ATOM      5  C   UNL     1       8.084  -4.647  -9.603  1.00  0.00     0.093 A 
ATOM      6  C   UNL     1       6.931  -4.511  -8.822  1.00  0.00     0.123 A 
ATOM      7  C   UNL     1       6.667  -5.435  -7.806  1.00  0.00     0.093 A 
ATOM      8  C   UNL     1       7.555  -6.491  -7.554  1.00  0.00     0.133 A 
ATOM      9  C   UNL     1       8.720  -6.627  -8.339  1.00  0.00     0.102 A 
ATOM     10  C   UNL     1       9.729  -7.687  -8.101  1.00  0.00     0.174 C 
ATOM     11  O   UNL     1       9.517  -8.616  -7.275  1.00  0.00    -0.294 OA
ENDROOT
BRANCH   2  12
ATOM     12  C   UNL     1      12.203  -6.797 -10.878  1.00  0.00    -0.007 A 
ATOM     13  C   UNL     1      12.878  -5.585 -10.659  1.00  0.00     0.011 A 
ATOM     14  C   UNL     1      12.759  -7.743 -11.757  1.00  0.00     0.011 A 
ATOM     15  C   UNL     1      14.102  -5.335 -11.287  1.00  0.00     0.046 A 
ATOM     16  C   UNL     1      13.983  -7.489 -12.384  1.00  0.00     0.046 A 
ATOM     17  C   UNL     1      14.658  -6.285 -12.149  1.00  0.00     0.115 A 
BRANCH  17  18
ATOM     18  O   UNL     1      15.878  -6.022 -12.769  1.00  0.00    -0.508 OA
ATOM     19  H   UNL     1      16.697  -5.758 -12.235  1.00  0.00     0.293 HD
ENDBRANCH  17  18
ENDBRANCH   2  12
BRANCH   8  20
ATOM     20  O   UNL     1       7.282  -7.390  -6.524  1.00  0.00    -0.507 OA
ATOM     21  H   UNL     1       6.390  -7.392  -6.041  1.00  0.00     0.293 HD
ENDBRANCH   8  20
BRANCH   6  22
ATOM     22  O   UNL     1       6.040  -3.464  -9.048  1.00  0.00    -0.508 OA
ATOM     23  H   UNL     1       5.551  -3.012  -8.285  1.00  0.00     0.293 HD
ENDBRANCH   6  22
TORSDOF 4
ENDMDL
MODEL 4
REMARK VINA RESULT:    -6.026      2.397      3.191
REMARK INTER + INTRA:          -7.219
REMARK INTER:                  -6.933
REMARK INTRA:                  -0.286
REMARK UNBOUND:                -0.312
REMARK SMILES O=C1C[C@H](c2ccc(O)cc2)Oc2cc(O)cc(O)c21
REMARK SMILES IDX 3 1 4 2 12 3 13 4 14 5 15 6 17 7 18 8 20 9 2 10 1 11 5 12
REMARK SMILES IDX 6 13 11 14 7 15 10 16 8 17 9 18 19 20 16 22
REMARK H PARENT 9 19 19 21 16 23
REMARK Flexibility Score: inf
ROOT
ATOM      1  C   UNL     1       9.020  -5.931 -11.379  1.00  0.00     0.131 C 
ATOM      2  C   UNL     1      10.263  -6.449 -10.639  1.00  0.00     0.211 C 
ATOM      3  O   UNL     1       9.886  -7.147  -9.449  1.00  0.00    -0.484 OA
ATOM      4  C   UNL     1       8.888  -6.668  -8.592  1.00  0.00     0.138 A 
ATOM      5  C   UNL     1       8.776  -7.198  -7.304  1.00  0.00     0.093 A 
ATOM      6  C   UNL     1       7.800  -6.713  -6.425  1.00  0.00     0.123 A 
ATOM      7  C   UNL     1       6.931  -5.701  -6.841  1.00  0.00     0.093 A 
ATOM      8  C   UNL     1       7.020  -5.173  -8.138  1.00  0.00     0.133 A 
ATOM      9  C   UNL     1       8.001  -5.664  -9.027  1.00  0.00     0.102 A 
ATOM     10  C   UNL     1       8.124  -5.191 -10.427  1.00  0.00     0.174 C 
ATOM     11  O   UNL     1       7.449  -4.213 -10.847  1.00  0.00    -0.294 OA
ENDROOT
BRANCH   2  12
ATOM     12  C   UNL     1      11.079  -7.352 -11.532  1.00  0.00    -0.007 A 
ATOM     13  C   UNL     1      10.439  -8.246 -12.406  1.00  0.00     0.011 A 
ATOM     14  C   UNL     1      12.484  -7.350 -11.460  1.00  0.00     0.011 A 
ATOM     15  C   UNL     1      11.191  -9.106 -13.213  1.00  0.00     0.046 A 
ATOM     16  C   UNL     1      13.232  -8.211 -12.268  1.00  0.00     0.046 A 
ATOM     17  C   UNL     1      12.587  -9.090 -13.148  1.00  0.00     0.115 A 
BRANCH  17  18
ATOM     18  O   UNL     1      13.324  -9.952 -13.958  1.00  0.00    -0.508 OA
ATOM     19  H   UNL     1      13.387  -9.814 -14.959  1.00  0.00     0.293 HD
ENDBRANCH  17  18
ENDBRANCH   2  12
BRANCH   8  20
ATOM     20  O   UNL     1       6.131  -4.176  -8.539  1.00  0.00    -0.507 OA
ATOM     21  H   UNL     1       5.526  -4.295  -9.344  1.00  0.00     0.293 HD
ENDBRANCH   8  20
BRANCH   6  22
ATOM     22  O   UNL     1       7.687  -7.230  -5.135  1.00  0.00    -0.508 OA
ATOM     23  H   UNL     1       8.384  -7.859  -4.754  1.00  0.00     0.293 HD
ENDBRANCH   6  22
TORSDOF 4
ENDMDL
MODEL 5
REMARK VINA RESULT:    -5.909      2.456      4.204
REMARK INTER + INTRA:          -7.085
REMARK INTER:                  -6.793
REMARK INTRA:                  -0.292
REMARK UNBOUND:                -0.312
REMARK SMILES O=C1C[C@H](c2ccc(O)cc2)Oc2cc(O)cc(O)c21
REMARK SMILES IDX 3 1 4 2 12 3 13 4 14 5 15 6 17 7 18 8 20 9 2 10 1 11 5 12
REMARK SMILES IDX 6 13 11 14 7 15 10 16 8 17 9 18 19 20 16 22
REMARK H PARENT 9 19 19 21 16 23
REMARK Flexibility Score: inf
ROOT
ATOM      1  C   UNL     1      11.676  -6.364  -9.297  1.00  0.00     0.131 C 
ATOM      2  C   UNL     1      12.222  -7.034 -10.569  1.00  0.00     0.211 C 
ATOM      3  O   UNL     1      11.217  -7.075 -11.586  1.00  0.00    -0.484 OA
ATOM      4  C   UNL     1       9.889  -7.414 -11.305  1.00  0.00     0.138 A 
ATOM      5  C   UNL     1       9.029  -7.749 -12.354  1.00  0.00     0.093 A 
ATOM      6  C   UNL     1       7.704  -8.115 -12.090  1.00  0.00     0.123 A 
ATOM      7  C   UNL     1       7.239  -8.139 -10.771  1.00  0.00     0.093 A 
ATOM      8  C   UNL     1       8.087  -7.787  -9.710  1.00  0.00     0.133 A 
ATOM      9  C   UNL     1       9.422  -7.413  -9.976  1.00  0.00     0.102 A 
ATOM     10  C   UNL     1      10.361  -6.981  -8.913  1.00  0.00     0.174 C 
ATOM     11  O   UNL     1      10.054  -7.071  -7.694  1.00  0.00    -0.294 OA
ENDROOT
BRANCH   2  12
ATOM     12  C   UNL     1      13.443  -6.305 -11.075  1.00  0.00    -0.007 A 
ATOM     13  C   UNL     1      14.160  -6.806 -12.174  1.00  0.00     0.011 A 
ATOM     14  C   UNL     1      13.909  -5.151 -10.420  1.00  0.00     0.011 A 
ATOM     15  C   UNL     1      15.308  -6.150 -12.627  1.00  0.00     0.046 A 
ATOM     16  C   UNL     1      15.059  -4.497 -10.876  1.00  0.00     0.046 A 
ATOM     17  C   UNL     1      15.760  -4.994 -11.982  1.00  0.00     0.115 A 
BRANCH  17  18
ATOM     18  O   UNL     1      16.906  -4.351 -12.443  1.00  0.00    -0.508 OA
ATOM     19  H   UNL     1      16.871  -3.694 -13.213  1.00  0.00     0.293 HD
ENDBRANCH  17  18
ENDBRANCH   2  12
BRANCH   8  20
ATOM     20  O   UNL     1       7.598  -7.799  -8.404  1.00  0.00    -0.507 OA
ATOM     21  H   UNL     1       7.720  -7.008  -7.783  1.00  0.00     0.293 HD
ENDBRANCH   8  20
BRANCH   6  22
ATOM     22  O   UNL     1       6.842  -8.459 -13.129  1.00  0.00    -0.508 OA
ATOM     23  H   UNL     1       6.921  -8.034 -14.045  1.00  0.00     0.293 HD
ENDBRANCH   6  22
TORSDOF 4
ENDMDL
MODEL 6
REMARK VINA RESULT:    -5.897     14.766     17.296
REMARK INTER + INTRA:          -7.071
REMARK INTER:                  -6.756
REMARK INTRA:                  -0.315
REMARK UNBOUND:                -0.312
REMARK SMILES O=C1C[C@H](c2ccc(O)cc2)Oc2cc(O)cc(O)c21
REMARK SMILES IDX 3 1 4 2 12 3 13 4 14 5 15 6 17 7 18 8 20 9 2 10 1 11 5 12
REMARK SMILES IDX 6 13 11 14 7 15 10 16 8 17 9 18 19 20 16 22
REMARK H PARENT 9 19 19 21 16 23
REMARK Flexibility Score: inf
ROOT
ATOM      1  C   UNL     1      20.258   0.834 -16.195  1.00  0.00     0.131 C 
ATOM      2  C   UNL     1      21.768   1.051 -16.382  1.00  0.00     0.211 C 
ATOM      3  O   UNL     1      22.041   1.605 -17.672  1.00  0.00    -0.484 OA
ATOM      4  C   UNL     1      21.397   1.147 -18.828  1.00  0.00     0.138 A 
ATOM      5  C   UNL     1      21.915   1.484 -20.082  1.00  0.00     0.093 A 
ATOM      6  C   UNL     1      21.299   1.014 -21.248  1.00  0.00     0.123 A 
ATOM      7  C   UNL     1      20.158   0.211 -21.156  1.00  0.00     0.093 A 
ATOM      8  C   UNL     1      19.617  -0.119 -19.904  1.00  0.00     0.133 A 
ATOM      9  C   UNL     1      20.235   0.357 -18.728  1.00  0.00     0.102 A 
ATOM     10  C   UNL     1      19.694   0.092 -17.373  1.00  0.00     0.174 C 
ATOM     11  O   UNL     1      18.733  -0.704 -17.199  1.00  0.00    -0.294 OA
ENDROOT
BRANCH   2  12
ATOM     12  C   UNL     1      22.316   1.955 -15.304  1.00  0.00    -0.007 A 
ATOM     13  C   UNL     1      23.192   3.001 -15.637  1.00  0.00     0.011 A 
ATOM     14  C   UNL     1      22.002   1.727 -13.952  1.00  0.00     0.011 A 
ATOM     15  C   UNL     1      23.725   3.821 -14.639  1.00  0.00     0.046 A 
ATOM     16  C   UNL     1      22.537   2.550 -12.956  1.00  0.00     0.046 A 
ATOM     17  C   UNL     1      23.399   3.600 -13.297  1.00  0.00     0.115 A 
BRANCH  17  18
ATOM     18  O   UNL     1      23.938   4.425 -12.312  1.00  0.00    -0.508 OA
ATOM     19  H   UNL     1      23.383   4.743 -11.527  1.00  0.00     0.293 HD
ENDBRANCH  17  18
ENDBRANCH   2  12
BRANCH   8  20
ATOM     20  O   UNL     1      18.468  -0.906 -19.836  1.00  0.00    -0.507 OA
ATOM     21  H   UNL     1      17.715  -0.807 -20.507  1.00  0.00     0.293 HD
ENDBRANCH   8  20
BRANCH   6  22
ATOM     22  O   UNL     1      21.813   1.337 -22.502  1.00  0.00    -0.508 OA
ATOM     23  H   UNL     1      22.616   0.853 -22.885  1.00  0.00     0.293 HD
ENDBRANCH   6  22
TORSDOF 4
ENDMDL
MODEL 7
REMARK VINA RESULT:    -5.876     13.165     15.388
REMARK INTER + INTRA:          -7.046
REMARK INTER:                  -6.753
REMARK INTRA:                  -0.293
REMARK UNBOUND:                -0.312
REMARK SMILES O=C1C[C@H](c2ccc(O)cc2)Oc2cc(O)cc(O)c21
REMARK SMILES IDX 3 1 4 2 12 3 13 4 14 5 15 6 17 7 18 8 20 9 2 10 1 11 5 12
REMARK SMILES IDX 6 13 11 14 7 15 10 16 8 17 9 18 19 20 16 22
REMARK H PARENT 9 19 19 21 16 23
REMARK Flexibility Score: inf
ROOT
ATOM      1  C   UNL     1       5.042   7.078 -10.017  1.00  0.00     0.131 C 
ATOM      2  C   UNL     1       4.299   5.732 -10.003  1.00  0.00     0.211 C 
ATOM      3  O   UNL     1       4.447   5.063 -11.259  1.00  0.00    -0.484 OA
ATOM      4  C   UNL     1       4.345   5.742 -12.479  1.00  0.00     0.138 A 
ATOM      5  C   UNL     1       4.179   5.012 -13.659  1.00  0.00     0.093 A 
ATOM      6  C   UNL     1       4.050   5.675 -14.885  1.00  0.00     0.123 A 
ATOM      7  C   UNL     1       4.096   7.072 -14.928  1.00  0.00     0.093 A 
ATOM      8  C   UNL     1       4.282   7.816 -13.753  1.00  0.00     0.133 A 
ATOM      9  C   UNL     1       4.415   7.148 -12.516  1.00  0.00     0.102 A 
ATOM     10  C   UNL     1       4.664   7.863 -11.241  1.00  0.00     0.174 C 
ATOM     11  O   UNL     1       4.617   9.121 -11.179  1.00  0.00    -0.294 OA
ENDROOT
BRANCH   2  12
ATOM     12  C   UNL     1       4.805   4.854  -8.885  1.00  0.00    -0.007 A 
ATOM     13  C   UNL     1       6.036   4.188  -9.012  1.00  0.00     0.011 A 
ATOM     14  C   UNL     1       4.030   4.647  -7.730  1.00  0.00     0.011 A 
ATOM     15  C   UNL     1       6.494   3.349  -7.992  1.00  0.00     0.046 A 
ATOM     16  C   UNL     1       4.491   3.808  -6.712  1.00  0.00     0.046 A 
ATOM     17  C   UNL     1       5.726   3.158  -6.839  1.00  0.00     0.115 A 
BRANCH  17  18
ATOM     18  O   UNL     1       6.194   2.320  -5.830  1.00  0.00    -0.508 OA
ATOM     19  H   UNL     1       6.618   2.690  -4.988  1.00  0.00     0.293 HD
ENDBRANCH  17  18
ENDBRANCH   2  12
BRANCH   8  20
ATOM     20  O   UNL     1       4.343   9.207 -13.821  1.00  0.00    -0.507 OA
ATOM     21  H   UNL     1       5.061   9.733 -13.335  1.00  0.00     0.293 HD
ENDBRANCH   8  20
BRANCH   6  22
ATOM     22  O   UNL     1       3.875   4.956 -16.066  1.00  0.00    -0.508 OA
ATOM     23  H   UNL     1       3.349   4.091 -16.085  1.00  0.00     0.293 HD
ENDBRANCH   6  22
TORSDOF 4
ENDMDL
MODEL 8
REMARK VINA RESULT:    -5.854      2.660      4.396
REMARK INTER + INTRA:          -7.022
REMARK INTER:                  -6.704
REMARK INTRA:                  -0.318
REMARK UNBOUND:                -0.312
REMARK SMILES O=C1C[C@H](c2ccc(O)cc2)Oc2cc(O)cc(O)c21
REMARK SMILES IDX 3 1 4 2 12 3 13 4 14 5 15 6 17 7 18 8 20 9 2 10 1 11 5 12
REMARK SMILES IDX 6 13 11 14 7 15 10 16 8 17 9 18 19 20 16 22
REMARK H PARENT 9 19 19 21 16 23
REMARK Flexibility Score: inf
ROOT
ATOM      1  C   UNL     1      12.172  -7.299 -11.399  1.00  0.00     0.131 C 
ATOM      2  C   UNL     1      11.885  -8.795 -11.605  1.00  0.00     0.211 C 
ATOM      3  O   UNL     1      10.569  -9.122 -11.149  1.00  0.00    -0.484 OA
ATOM      4  C   UNL     1      10.050  -8.616  -9.952  1.00  0.00     0.138 A 
ATOM      5  C   UNL     1       8.910  -9.202  -9.395  1.00  0.00     0.093 A 
ATOM      6  C   UNL     1       8.392  -8.725  -8.185  1.00  0.00     0.123 A 
ATOM      7  C   UNL     1       9.015  -7.654  -7.537  1.00  0.00     0.093 A 
ATOM      8  C   UNL     1      10.149  -7.044  -8.095  1.00  0.00     0.133 A 
ATOM      9  C   UNL     1      10.670  -7.522  -9.317  1.00  0.00     0.102 A 
ATOM     10  C   UNL     1      11.833  -6.898  -9.992  1.00  0.00     0.174 C 
ATOM     11  O   UNL     1      12.510  -5.998  -9.426  1.00  0.00    -0.294 OA
ENDROOT
BRANCH   2  12
ATOM     12  C   UNL     1      12.039  -9.174 -13.058  1.00  0.00    -0.007 A 
ATOM     13  C   UNL     1      13.222  -8.861 -13.748  1.00  0.00     0.011 A 
ATOM     14  C   UNL     1      10.983  -9.792 -13.752  1.00  0.00     0.011 A 
ATOM     15  C   UNL     1      13.356  -9.183 -15.102  1.00  0.00     0.046 A 
ATOM     16  C   UNL     1      11.121 -10.112 -15.106  1.00  0.00     0.046 A 
ATOM     17  C   UNL     1      12.310  -9.810 -15.784  1.00  0.00     0.115 A 
BRANCH  17  18
ATOM     18  O   UNL     1      12.457 -10.125 -17.133  1.00  0.00    -0.508 OA
ATOM     19  H   UNL     1      11.657 -10.198 -17.750  1.00  0.00     0.293 HD
ENDBRANCH  17  18
ENDBRANCH   2  12
BRANCH   8  20
ATOM     20  O   UNL     1      10.743  -5.966  -7.441  1.00  0.00    -0.507 OA
ATOM     21  H   UNL     1      10.191  -5.268  -6.955  1.00  0.00     0.293 HD
ENDBRANCH   8  20
BRANCH   6  22
ATOM     22  O   UNL     1       7.261  -9.308  -7.618  1.00  0.00    -0.508 OA
ATOM     23  H   UNL     1       6.723  -8.834  -6.903  1.00  0.00     0.293 HD
ENDBRANCH   6  22
TORSDOF 4
ENDMDL
MODEL 9
REMARK VINA RESULT:    -5.734      2.140      3.518
REMARK INTER + INTRA:          -6.884
REMARK INTER:                  -6.566
REMARK INTRA:                  -0.318
REMARK UNBOUND:                -0.312
REMARK SMILES O=C1C[C@H](c2ccc(O)cc2)Oc2cc(O)cc(O)c21
REMARK SMILES IDX 3 1 4 2 12 3 13 4 14 5 15 6 17 7 18 8 20 9 2 10 1 11 5 12
REMARK SMILES IDX 6 13 11 14 7 15 10 16 8 17 9 18 19 20 16 22
REMARK H PARENT 9 19 19 21 16 23
REMARK Flexibility Score: inf
ROOT
ATOM      1  C   UNL     1      12.811  -7.539 -11.498  1.00  0.00     0.131 C 
ATOM      2  C   UNL     1      12.886  -6.047 -11.137  1.00  0.00     0.211 C 
ATOM      3  O   UNL     1      12.428  -5.829  -9.800  1.00  0.00    -0.484 OA
ATOM      4  C   UNL     1      11.290  -6.466  -9.292  1.00  0.00     0.138 A 
ATOM      5  C   UNL     1      10.705  -5.991  -8.115  1.00  0.00     0.093 A 
ATOM      6  C   UNL     1       9.552  -6.601  -7.606  1.00  0.00     0.123 A 
ATOM      7  C   UNL     1       8.991  -7.693  -8.274  1.00  0.00     0.093 A 
ATOM      8  C   UNL     1       9.580  -8.193  -9.445  1.00  0.00     0.133 A 
ATOM      9  C   UNL     1      10.745  -7.581  -9.958  1.00  0.00     0.102 A 
ATOM     10  C   UNL     1      11.451  -8.082 -11.161  1.00  0.00     0.174 C 
ATOM     11  O   UNL     1      10.956  -8.995 -11.876  1.00  0.00    -0.294 OA
ENDROOT
BRANCH   2  12
ATOM     12  C   UNL     1      14.296  -5.531 -11.292  1.00  0.00    -0.007 A 
ATOM     13  C   UNL     1      15.122  -6.028 -12.314  1.00  0.00     0.011 A 
ATOM     14  C   UNL     1      14.818  -4.592 -10.385  1.00  0.00     0.011 A 
ATOM     15  C   UNL     1      16.439  -5.575 -12.442  1.00  0.00     0.046 A 
ATOM     16  C   UNL     1      16.136  -4.141 -10.515  1.00  0.00     0.046 A 
ATOM     17  C   UNL     1      16.949  -4.630 -11.546  1.00  0.00     0.115 A 
BRANCH  17  18
ATOM     18  O   UNL     1      18.262  -4.188 -11.685  1.00  0.00    -0.508 OA
ATOM     19  H   UNL     1      18.485  -3.202 -11.748  1.00  0.00     0.293 HD
ENDBRANCH  17  18
ENDBRANCH   2  12
BRANCH   8  20
ATOM     20  O   UNL     1       9.014  -9.295 -10.085  1.00  0.00    -0.507 OA
ATOM     21  H   UNL     1       9.154  -9.465 -11.075  1.00  0.00     0.293 HD
ENDBRANCH   8  20
BRANCH   6  22
ATOM     22  O   UNL     1       8.956  -6.128  -6.439  1.00  0.00    -0.508 OA
ATOM     23  H   UNL     1       9.164  -6.536  -5.535  1.00  0.00     0.293 HD
ENDBRANCH   6  22
TORSDOF 4
ENDMDL
