MODEL 1
REMARK VINA RESULT:    -4.113      0.000      0.000
REMARK INTER + INTRA:          -4.504
REMARK INTER:                  -4.354
REMARK INTRA:                  -0.151
REMARK UNBOUND:                -0.151
REMARK SMILES CC1=CC=C(C(C)C)CC1
REMARK SMILES IDX 1 1 2 2 3 3 4 4 5 5 9 6 10 7 6 8 7 9 8 10
REMARK H PARENT
REMARK Flexibility Score: inf
ROOT
ATOM      1  C   UNL     1     131.825 134.777 136.425  1.00  0.00     0.039 C 
ATOM      2  C   UNL     1     133.143 134.141 136.091  1.00  0.00    -0.073 C 
ATOM      3  C   UNL     1     133.187 133.098 135.249  1.00  0.00    -0.001 C 
ATOM      4  C   UNL     1     134.469 132.454 134.911  1.00  0.00    -0.001 C 
ATOM      5  C   UNL     1     135.592 132.739 135.599  1.00  0.00    -0.067 C 
ATOM      6  C   UNL     1     135.503 133.651 136.806  1.00  0.00     0.035 C 
ATOM      7  C   UNL     1     134.430 134.734 136.615  1.00  0.00     0.035 C 
ENDROOT
BRANCH   5   8
ATOM      8  C   UNL     1     136.920 132.095 135.246  1.00  0.00     0.009 C 
ATOM      9  C   UNL     1     137.686 132.921 134.204  1.00  0.00     0.012 C 
ATOM     10  C   UNL     1     137.771 131.859 136.499  1.00  0.00     0.012 C 
ENDBRANCH   5   8
TORSDOF 1
ENDMDL
MODEL 2
REMARK VINA RESULT:    -4.110      3.810      5.619
REMARK INTER + INTRA:          -4.501
REMARK INTER:                  -4.351
REMARK INTRA:                  -0.150
REMARK UNBOUND:                -0.151
REMARK SMILES CC1=CC=C(C(C)C)CC1
REMARK SMILES IDX 1 1 2 2 3 3 4 4 5 5 9 6 10 7 6 8 7 9 8 10
REMARK H PARENT
REMARK Flexibility Score: inf
ROOT
ATOM      1  C   UNL     1     137.874 131.863 136.500  1.00  0.00     0.039 C 
ATOM      2  C   UNL     1     138.503 133.183 136.164  1.00  0.00    -0.073 C 
ATOM      3  C   UNL     1     139.576 133.226 135.361  1.00  0.00    -0.001 C 
ATOM      4  C   UNL     1     140.214 134.512 135.021  1.00  0.00    -0.001 C 
ATOM      5  C   UNL     1     139.887 135.643 135.676  1.00  0.00    -0.067 C 
ATOM      6  C   UNL     1     138.932 135.564 136.849  1.00  0.00     0.035 C 
ATOM      7  C   UNL     1     137.873 134.471 136.640  1.00  0.00     0.035 C 
ENDROOT
BRANCH   5   8
ATOM      8  C   UNL     1     140.524 136.973 135.320  1.00  0.00     0.009 C 
ATOM      9  C   UNL     1     139.677 137.749 134.304  1.00  0.00     0.012 C 
ATOM     10  C   UNL     1     140.789 137.813 136.575  1.00  0.00     0.012 C 
ENDBRANCH   5   8
TORSDOF 1
ENDMDL
MODEL 3
REMARK VINA RESULT:    -4.096      0.989      4.510
REMARK INTER + INTRA:          -4.486
REMARK INTER:                  -4.324
REMARK INTRA:                  -0.162
REMARK UNBOUND:                -0.151
REMARK SMILES CC1=CC=C(C(C)C)CC1
REMARK SMILES IDX 1 1 2 2 3 3 4 4 5 5 9 6 10 7 6 8 7 9 8 10
REMARK H PARENT
REMARK Flexibility Score: inf
ROOT
ATOM      1  C   UNL     1     138.036 131.991 136.370  1.00  0.00     0.039 C 
ATOM      2  C   UNL     1     136.669 132.514 136.036  1.00  0.00    -0.073 C 
ATOM      3  C   UNL     1     136.023 133.300 136.910  1.00  0.00    -0.001 C 
ATOM      4  C   UNL     1     134.677 133.820 136.606  1.00  0.00    -0.001 C 
ATOM      5  C   UNL     1     133.970 133.347 135.561  1.00  0.00    -0.067 C 
ATOM      6  C   UNL     1     134.527 132.189 134.760  1.00  0.00     0.035 C 
ATOM      7  C   UNL     1     136.060 132.245 134.680  1.00  0.00     0.035 C 
ENDROOT
BRANCH   5   8
ATOM      8  C   UNL     1     132.593 133.890 135.230  1.00  0.00     0.009 C 
ATOM      9  C   UNL     1     132.001 134.679 136.404  1.00  0.00     0.012 C 
ATOM     10  C   UNL     1     132.625 134.740 133.954  1.00  0.00     0.012 C 
ENDBRANCH   5   8
TORSDOF 1
ENDMDL
MODEL 4
REMARK VINA RESULT:    -4.094      3.841      5.674
REMARK INTER + INTRA:          -4.484
REMARK INTER:                  -4.322
REMARK INTRA:                  -0.162
REMARK UNBOUND:                -0.151
REMARK SMILES CC1=CC=C(C(C)C)CC1
REMARK SMILES IDX 1 1 2 2 3 3 4 4 5 5 9 6 10 7 6 8 7 9 8 10
REMARK H PARENT
REMARK Flexibility Score: inf
ROOT
ATOM      1  C   UNL     1     140.664 138.014 136.375  1.00  0.00     0.039 C 
ATOM      2  C   UNL     1     140.138 136.649 136.036  1.00  0.00    -0.073 C 
ATOM      3  C   UNL     1     139.334 136.010 136.899  1.00  0.00    -0.001 C 
ATOM      4  C   UNL     1     138.811 134.666 136.590  1.00  0.00    -0.001 C 
ATOM      5  C   UNL     1     139.296 133.954 135.555  1.00  0.00    -0.067 C 
ATOM      6  C   UNL     1     140.471 134.502 134.771  1.00  0.00     0.035 C 
ATOM      7  C   UNL     1     140.425 136.035 134.686  1.00  0.00     0.035 C 
ENDROOT
BRANCH   5   8
ATOM      8  C   UNL     1     138.751 132.579 135.218  1.00  0.00     0.009 C 
ATOM      9  C   UNL     1     137.941 131.994 136.382  1.00  0.00     0.012 C 
ATOM     10  C   UNL     1     137.920 132.613 133.930  1.00  0.00     0.012 C 
ENDBRANCH   5   8
TORSDOF 1
ENDMDL
MODEL 5
REMARK VINA RESULT:    -4.086      4.114      6.049
REMARK INTER + INTRA:          -4.476
REMARK INTER:                  -4.315
REMARK INTRA:                  -0.161
REMARK UNBOUND:                -0.151
REMARK SMILES CC1=CC=C(C(C)C)CC1
REMARK SMILES IDX 1 1 2 2 3 3 4 4 5 5 9 6 10 7 6 8 7 9 8 10
REMARK H PARENT
REMARK Flexibility Score: inf
ROOT
ATOM      1  C   UNL     1     131.986 134.670 136.385  1.00  0.00     0.039 C 
ATOM      2  C   UNL     1     132.539 136.020 136.032  1.00  0.00    -0.073 C 
ATOM      3  C   UNL     1     133.336 136.663 136.899  1.00  0.00    -0.001 C 
ATOM      4  C   UNL     1     133.887 137.992 136.575  1.00  0.00    -0.001 C 
ATOM      5  C   UNL     1     133.433 138.692 135.518  1.00  0.00    -0.067 C 
ATOM      6  C   UNL     1     132.265 138.148 134.722  1.00  0.00     0.035 C 
ATOM      7  C   UNL     1     132.288 136.613 134.665  1.00  0.00     0.035 C 
ENDROOT
BRANCH   5   8
ATOM      8  C   UNL     1     134.007 140.052 135.166  1.00  0.00     0.009 C 
ATOM      9  C   UNL     1     134.763 140.667 136.351  1.00  0.00     0.012 C 
ATOM     10  C   UNL     1     134.900 139.971 133.922  1.00  0.00     0.012 C 
ENDBRANCH   5   8
TORSDOF 1
ENDMDL
MODEL 6
REMARK VINA RESULT:    -4.082      5.980      7.889
REMARK INTER + INTRA:          -4.471
REMARK INTER:                  -4.322
REMARK INTRA:                  -0.150
REMARK UNBOUND:                -0.151
REMARK SMILES CC1=CC=C(C(C)C)CC1
REMARK SMILES IDX 1 1 2 2 3 3 4 4 5 5 9 6 10 7 6 8 7 9 8 10
REMARK H PARENT
REMARK Flexibility Score: inf
ROOT
ATOM      1  C   UNL     1     140.785 137.877 136.511  1.00  0.00     0.039 C 
ATOM      2  C   UNL     1     139.466 138.493 136.145  1.00  0.00    -0.073 C 
ATOM      3  C   UNL     1     139.424 139.520 135.282  1.00  0.00    -0.001 C 
ATOM      4  C   UNL     1     138.141 140.144 134.913  1.00  0.00    -0.001 C 
ATOM      5  C   UNL     1     137.011 139.861 135.589  1.00  0.00    -0.067 C 
ATOM      6  C   UNL     1     137.091 138.974 136.815  1.00  0.00     0.035 C 
ATOM      7  C   UNL     1     138.177 137.898 136.661  1.00  0.00     0.035 C 
ENDROOT
BRANCH   5   8
ATOM      8  C   UNL     1     135.682 140.484 135.204  1.00  0.00     0.009 C 
ATOM      9  C   UNL     1     134.889 139.575 134.256  1.00  0.00     0.012 C 
ATOM     10  C   UNL     1     134.858 140.842 136.445  1.00  0.00     0.012 C 
ENDBRANCH   5   8
TORSDOF 1
ENDMDL
MODEL 7
REMARK VINA RESULT:    -4.053      6.358      6.942
REMARK INTER + INTRA:          -4.440
REMARK INTER:                  -4.280
REMARK INTRA:                  -0.161
REMARK UNBOUND:                -0.151
REMARK SMILES CC1=CC=C(C(C)C)CC1
REMARK SMILES IDX 1 1 2 2 3 3 4 4 5 5 9 6 10 7 6 8 7 9 8 10
REMARK H PARENT
REMARK Flexibility Score: inf
ROOT
ATOM      1  C   UNL     1     134.591 140.658 136.335  1.00  0.00     0.039 C 
ATOM      2  C   UNL     1     135.958 140.126 136.020  1.00  0.00    -0.073 C 
ATOM      3  C   UNL     1     136.548 139.260 136.858  1.00  0.00    -0.001 C 
ATOM      4  C   UNL     1     137.893 138.729 136.572  1.00  0.00    -0.001 C 
ATOM      5  C   UNL     1     138.656 139.260 135.596  1.00  0.00    -0.067 C 
ATOM      6  C   UNL     1     138.161 140.489 134.863  1.00  0.00     0.035 C 
ATOM      7  C   UNL     1     136.632 140.479 134.714  1.00  0.00     0.035 C 
ENDROOT
BRANCH   5   8
ATOM      8  C   UNL     1     140.033 138.707 135.282  1.00  0.00     0.009 C 
ATOM      9  C   UNL     1     140.588 137.881 136.450  1.00  0.00     0.012 C 
ATOM     10  C   UNL     1     140.019 137.890 133.985  1.00  0.00     0.012 C 
ENDBRANCH   5   8
TORSDOF 1
ENDMDL
MODEL 8
REMARK VINA RESULT:    -4.025      6.333      7.936
REMARK INTER + INTRA:          -4.410
REMARK INTER:                  -4.272
REMARK INTRA:                  -0.138
REMARK UNBOUND:                -0.151
REMARK SMILES CC1=CC=C(C(C)C)CC1
REMARK SMILES IDX 1 1 2 2 3 3 4 4 5 5 9 6 10 7 6 8 7 9 8 10
REMARK H PARENT
REMARK Flexibility Score: inf
ROOT
ATOM      1  C   UNL     1     140.872 137.847 136.392  1.00  0.00     0.039 C 
ATOM      2  C   UNL     1     139.573 138.577 136.214  1.00  0.00    -0.073 C 
ATOM      3  C   UNL     1     138.507 138.234 136.954  1.00  0.00    -0.001 C 
ATOM      4  C   UNL     1     137.219 138.934 136.791  1.00  0.00    -0.001 C 
ATOM      5  C   UNL     1     137.009 139.770 135.756  1.00  0.00    -0.067 C 
ATOM      6  C   UNL     1     138.076 139.901 134.689  1.00  0.00     0.035 C 
ATOM      7  C   UNL     1     139.486 139.763 135.282  1.00  0.00     0.035 C 
ENDROOT
BRANCH   5   8
ATOM      8  C   UNL     1     135.694 140.508 135.593  1.00  0.00     0.009 C 
ATOM      9  C   UNL     1     134.888 139.966 134.405  1.00  0.00     0.012 C 
ATOM     10  C   UNL     1     134.870 140.466 136.885  1.00  0.00     0.012 C 
ENDBRANCH   5   8
TORSDOF 1
ENDMDL
MODEL 9
REMARK VINA RESULT:    -3.999      4.728      6.397
REMARK INTER + INTRA:          -4.383
REMARK INTER:                  -4.235
REMARK INTRA:                  -0.148
REMARK UNBOUND:                -0.151
REMARK SMILES CC1=CC=C(C(C)C)CC1
REMARK SMILES IDX 1 1 2 2 3 3 4 4 5 5 9 6 10 7 6 8 7 9 8 10
REMARK H PARENT
REMARK Flexibility Score: inf
ROOT
ATOM      1  C   UNL     1     134.762 140.880 136.140  1.00  0.00     0.039 C 
ATOM      2  C   UNL     1     134.050 139.822 135.348  1.00  0.00    -0.073 C 
ATOM      3  C   UNL     1     133.012 139.167 135.889  1.00  0.00    -0.001 C 
ATOM      4  C   UNL     1     132.302 138.120 135.131  1.00  0.00    -0.001 C 
ATOM      5  C   UNL     1     132.805 137.635 133.980  1.00  0.00    -0.067 C 
ATOM      6  C   UNL     1     134.173 138.098 133.522  1.00  0.00     0.035 C 
ATOM      7  C   UNL     1     134.431 139.562 133.909  1.00  0.00     0.035 C 
ENDROOT
BRANCH   5   8
ATOM      8  C   UNL     1     132.072 136.571 133.183  1.00  0.00     0.009 C 
ATOM      9  C   UNL     1     131.463 137.150 131.900  1.00  0.00     0.012 C 
ATOM     10  C   UNL     1     132.989 135.382 132.873  1.00  0.00     0.012 C 
ENDBRANCH   5   8
TORSDOF 1
ENDMDL
