MODEL 1
REMARK VINA RESULT:    -5.654      0.000      0.000
REMARK INTER + INTRA:          -6.250
REMARK INTER:                  -6.480
REMARK INTRA:                   0.230
REMARK UNBOUND:                 0.230
REMARK SMILES C=C(C)[C@H]1CC[C@@]2(C(=O)[O-])CC[C@@]3(C)[C@H](CC[C@@H]4[C@@]5(C)CC[C@H](O)C(C)(C)[C@@H]5CC[C@]43C)[C@H]12
REMARK SMILES IDX 7 1 6 2 33 3 11 4 5 5 15 6 4 7 12 8 16 9 13 10 17 11 31 12
REMARK SMILES IDX 14 13 18 14 30 15 32 16 19 17 29 18 21 19 20 20 28 21 22 22
REMARK SMILES IDX 25 23 23 24 26 25 27 26 8 27 9 28 10 29 2 30 3 31 1 32 24 33
REMARK H PARENT 24 34
REMARK Flexibility Score: inf
ROOT
ATOM      1  C   UNL     1       0.769  -3.522  24.983  1.00  0.00     0.014 C 
ATOM      2  C   UNL     1       1.803  -4.296  25.819  1.00  0.00     0.014 C 
ATOM      3  C   UNL     1      -0.069  -2.875  26.099  1.00  0.00     0.012 C 
ATOM      4  C   UNL     1      -0.181  -4.410  24.147  1.00  0.00     0.014 C 
ATOM      5  C   UNL     1       2.093  -3.396  27.044  1.00  0.00     0.009 C 
ATOM      6  C   UNL     1      -1.260  -1.986  25.630  1.00  0.00     0.000 C 
ATOM      7  C   UNL     1       0.942  -2.361  27.127  1.00  0.00     0.018 C 
ATOM      8  C   UNL     1      -1.406  -3.605  23.616  1.00  0.00     0.008 C 
ATOM      9  C   UNL     1      -0.787  -0.649  25.013  1.00  0.00     0.005 C 
ATOM     10  C   UNL     1      -2.251  -2.825  24.705  1.00  0.00    -0.024 C 
ATOM     11  C   UNL     1      -1.941   0.208  24.528  1.00  0.00     0.005 C 
ATOM     12  C   UNL     1      -3.394  -1.859  24.054  1.00  0.00    -0.024 C 
ATOM     13  C   UNL     1      -2.952  -3.921  25.585  1.00  0.00     0.012 C 
ATOM     14  C   UNL     1      -2.734  -0.553  23.439  1.00  0.00     0.002 C 
ATOM     15  C   UNL     1      -4.177  -2.598  22.917  1.00  0.00     0.008 C 
ATOM     16  C   UNL     1      -4.440  -1.490  25.162  1.00  0.00     0.012 C 
ATOM     17  C   UNL     1      -3.645   0.378  22.508  1.00  0.00    -0.026 C 
ATOM     18  C   UNL     1      -5.130  -1.695  22.124  1.00  0.00     0.005 C 
ATOM     19  C   UNL     1      -2.724   1.371  21.722  1.00  0.00     0.010 C 
ATOM     20  C   UNL     1      -4.660   1.222  23.351  1.00  0.00     0.012 C 
ATOM     21  C   UNL     1      -4.338  -0.553  21.442  1.00  0.00     0.003 C 
ATOM     22  C   UNL     1      -3.430   2.123  20.582  1.00  0.00     0.033 C 
ATOM     23  C   UNL     1      -5.087   0.172  20.250  1.00  0.00    -0.006 C 
ATOM     24  C   UNL     1      -4.095   1.176  19.579  1.00  0.00     0.120 C 
ATOM     25  C   UNL     1      -5.481  -0.870  19.164  1.00  0.00     0.014 C 
ATOM     26  C   UNL     1      -6.392   0.884  20.689  1.00  0.00     0.014 C 
ENDROOT
BRANCH   1  27
ATOM     27  C   UNL     1       1.546  -2.566  24.071  1.00  0.00     0.048 C 
ATOM     28  O   UNL     1       2.772  -2.343  24.260  1.00  0.00    -0.550 OA
ATOM     29  O   UNL     1       0.938  -1.982  22.963  1.00  0.00    -0.550 OA
ENDBRANCH   1  27
BRANCH   7  30
ATOM     30  C   UNL     1       0.347  -2.215  28.524  1.00  0.00    -0.077 C 
ATOM     31  C   UNL     1      -0.200  -0.900  29.021  1.00  0.00     0.039 C 
ATOM     32  C   UNL     1       0.358  -3.261  29.366  1.00  0.00     0.008 C 
ENDBRANCH   7  30
BRANCH  24  33
ATOM     33  O   UNL     1      -4.753   1.952  18.605  1.00  0.00    -0.393 OA
ATOM     34  H   UNL     1      -4.941   1.363  17.828  1.00  0.00     0.210 HD
ENDBRANCH  24  33
TORSDOF 3
ENDMDL
MODEL 2
REMARK VINA RESULT:    -3.516      1.008      1.281
REMARK INTER + INTRA:          -3.800
REMARK INTER:                  -4.173
REMARK INTRA:                   0.373
REMARK UNBOUND:                 0.230
REMARK SMILES C=C(C)[C@H]1CC[C@@]2(C(=O)[O-])CC[C@@]3(C)[C@H](CC[C@@H]4[C@@]5(C)CC[C@H](O)C(C)(C)[C@@H]5CC[C@]43C)[C@H]12
REMARK SMILES IDX 7 1 6 2 33 3 11 4 5 5 15 6 4 7 12 8 16 9 13 10 17 11 31 12
REMARK SMILES IDX 14 13 18 14 30 15 32 16 19 17 29 18 21 19 20 20 28 21 22 22
REMARK SMILES IDX 25 23 23 24 26 25 27 26 8 27 9 28 10 29 2 30 3 31 1 32 24 33
REMARK H PARENT 24 34
REMARK Flexibility Score: inf
ROOT
ATOM      1  C   UNL     1      -0.216  -2.971  25.612  1.00  0.00     0.014 C 
ATOM      2  C   UNL     1       0.633  -3.678  26.685  1.00  0.00     0.014 C 
ATOM      3  C   UNL     1      -1.041  -2.016  26.491  1.00  0.00     0.012 C 
ATOM      4  C   UNL     1      -1.212  -3.890  24.868  1.00  0.00     0.014 C 
ATOM      5  C   UNL     1       0.948  -2.590  27.739  1.00  0.00     0.009 C 
ATOM      6  C   UNL     1      -2.057  -1.104  25.741  1.00  0.00     0.000 C 
ATOM      7  C   UNL     1      -0.052  -1.429  27.502  1.00  0.00     0.018 C 
ATOM      8  C   UNL     1      -2.269  -3.069  24.068  1.00  0.00     0.008 C 
ATOM      9  C   UNL     1      -1.357   0.013  24.932  1.00  0.00     0.005 C 
ATOM     10  C   UNL     1      -3.080  -1.988  24.895  1.00  0.00    -0.024 C 
ATOM     11  C   UNL     1      -2.341   0.886  24.175  1.00  0.00     0.005 C 
ATOM     12  C   UNL     1      -4.025  -1.045  23.956  1.00  0.00    -0.024 C 
ATOM     13  C   UNL     1      -3.992  -2.790  25.890  1.00  0.00     0.012 C 
ATOM     14  C   UNL     1      -3.144   0.020  23.175  1.00  0.00     0.002 C 
ATOM     15  C   UNL     1      -4.811  -1.899  22.906  1.00  0.00     0.008 C 
ATOM     16  C   UNL     1      -5.092  -0.335  24.858  1.00  0.00     0.012 C 
ATOM     17  C   UNL     1      -3.843   0.846  21.994  1.00  0.00    -0.026 C 
ATOM     18  C   UNL     1      -5.565  -1.069  21.860  1.00  0.00     0.005 C 
ATOM     19  C   UNL     1      -2.734   1.541  21.133  1.00  0.00     0.010 C 
ATOM     20  C   UNL     1      -4.794   1.959  22.550  1.00  0.00     0.012 C 
ATOM     21  C   UNL     1      -4.572  -0.192  21.059  1.00  0.00     0.003 C 
ATOM     22  C   UNL     1      -3.239   2.125  19.803  1.00  0.00     0.033 C 
ATOM     23  C   UNL     1      -5.118   0.360  19.679  1.00  0.00    -0.006 C 
ATOM     24  C   UNL     1      -3.948   1.081  18.936  1.00  0.00     0.120 C 
ATOM     25  C   UNL     1      -5.567  -0.826  18.778  1.00  0.00     0.014 C 
ATOM     26  C   UNL     1      -6.343   1.298  19.836  1.00  0.00     0.014 C 
ENDROOT
BRANCH   1  27
ATOM     27  C   UNL     1       0.755  -2.321  24.621  1.00  0.00     0.048 C 
ATOM     28  O   UNL     1       0.400  -2.068  23.438  1.00  0.00    -0.550 OA
ATOM     29  O   UNL     1       2.025  -1.919  25.024  1.00  0.00    -0.550 OA
ENDBRANCH   1  27
BRANCH   7  30
ATOM     30  C   UNL     1      -0.728  -0.932  28.776  1.00  0.00    -0.077 C 
ATOM     31  C   UNL     1      -1.556   0.329  28.796  1.00  0.00     0.039 C 
ATOM     32  C   UNL     1      -0.543  -1.593  29.930  1.00  0.00     0.008 C 
ENDBRANCH   7  30
BRANCH  24  33
ATOM     33  O   UNL     1      -4.414   1.716  17.768  1.00  0.00    -0.393 OA
ATOM     34  H   UNL     1      -5.379   1.504  17.675  1.00  0.00     0.210 HD
ENDBRANCH  24  33
TORSDOF 3
ENDMDL
MODEL 3
REMARK VINA RESULT:    -2.686      2.865      4.840
REMARK INTER + INTRA:          -2.849
REMARK INTER:                  -3.046
REMARK INTRA:                   0.198
REMARK UNBOUND:                 0.230
REMARK SMILES C=C(C)[C@H]1CC[C@@]2(C(=O)[O-])CC[C@@]3(C)[C@H](CC[C@@H]4[C@@]5(C)CC[C@H](O)C(C)(C)[C@@H]5CC[C@]43C)[C@H]12
REMARK SMILES IDX 7 1 6 2 33 3 11 4 5 5 15 6 4 7 12 8 16 9 13 10 17 11 31 12
REMARK SMILES IDX 14 13 18 14 30 15 32 16 19 17 29 18 21 19 20 20 28 21 22 22
REMARK SMILES IDX 25 23 23 24 26 25 27 26 8 27 9 28 10 29 2 30 3 31 1 32 24 33
REMARK H PARENT 24 34
REMARK Flexibility Score: inf
ROOT
ATOM      1  C   UNL     1      -3.949   0.650  28.183  1.00  0.00     0.014 C 
ATOM      2  C   UNL     1      -3.806   0.742  29.713  1.00  0.00     0.014 C 
ATOM      3  C   UNL     1      -2.589   0.034  27.810  1.00  0.00     0.012 C 
ATOM      4  C   UNL     1      -4.053   2.012  27.460  1.00  0.00     0.014 C 
ATOM      5  C   UNL     1      -3.008  -0.518  30.125  1.00  0.00     0.009 C 
ATOM      6  C   UNL     1      -2.346  -0.214  26.291  1.00  0.00     0.000 C 
ATOM      7  C   UNL     1      -2.342  -1.072  28.839  1.00  0.00     0.018 C 
ATOM      8  C   UNL     1      -3.838   1.869  25.923  1.00  0.00     0.008 C 
ATOM      9  C   UNL     1      -3.191  -1.390  25.746  1.00  0.00     0.005 C 
ATOM     10  C   UNL     1      -2.503   1.144  25.472  1.00  0.00    -0.024 C 
ATOM     11  C   UNL     1      -2.980  -1.618  24.261  1.00  0.00     0.005 C 
ATOM     12  C   UNL     1      -2.441   0.864  23.865  1.00  0.00    -0.024 C 
ATOM     13  C   UNL     1      -1.326   2.107  25.866  1.00  0.00     0.012 C 
ATOM     14  C   UNL     1      -3.388  -0.349  23.476  1.00  0.00     0.002 C 
ATOM     15  C   UNL     1      -2.896   2.124  23.054  1.00  0.00     0.008 C 
ATOM     16  C   UNL     1      -0.957   0.570  23.457  1.00  0.00     0.012 C 
ATOM     17  C   UNL     1      -3.686  -0.596  21.922  1.00  0.00    -0.026 C 
ATOM     18  C   UNL     1      -3.056   1.877  21.549  1.00  0.00     0.005 C 
ATOM     19  C   UNL     1      -4.905  -1.570  21.785  1.00  0.00     0.010 C 
ATOM     20  C   UNL     1      -2.461  -1.247  21.195  1.00  0.00     0.012 C 
ATOM     21  C   UNL     1      -4.123   0.784  21.299  1.00  0.00     0.003 C 
ATOM     22  C   UNL     1      -5.481  -1.666  20.363  1.00  0.00     0.033 C 
ATOM     23  C   UNL     1      -4.718   0.741  19.832  1.00  0.00    -0.006 C 
ATOM     24  C   UNL     1      -5.882  -0.300  19.799  1.00  0.00     0.120 C 
ATOM     25  C   UNL     1      -5.334   2.123  19.473  1.00  0.00     0.014 C 
ATOM     26  C   UNL     1      -3.654   0.425  18.749  1.00  0.00     0.014 C 
ENDROOT
BRANCH   1  27
ATOM     27  C   UNL     1      -5.188  -0.205  27.893  1.00  0.00     0.048 C 
ATOM     28  O   UNL     1      -6.238   0.313  27.429  1.00  0.00    -0.550 OA
ATOM     29  O   UNL     1      -5.157  -1.587  28.059  1.00  0.00    -0.550 OA
ENDBRANCH   1  27
BRANCH   7  30
ATOM     30  C   UNL     1      -0.863  -1.405  29.010  1.00  0.00    -0.077 C 
ATOM     31  C   UNL     1      -0.146  -2.341  28.068  1.00  0.00     0.039 C 
ATOM     32  C   UNL     1      -0.183  -0.907  30.055  1.00  0.00     0.008 C 
ENDBRANCH   7  30
BRANCH  24  33
ATOM     33  O   UNL     1      -6.352  -0.483  18.484  1.00  0.00    -0.393 OA
ATOM     34  H   UNL     1      -6.094  -1.398  18.197  1.00  0.00     0.210 HD
ENDBRANCH  24  33
TORSDOF 3
ENDMDL
