MODEL 1
REMARK VINA RESULT:     1.178      0.000      0.000
REMARK INTER + INTRA:           1.677
REMARK INTER:                   1.798
REMARK INTRA:                  -0.121
REMARK UNBOUND:                -0.121
REMARK SMILES OC[C@@H]1O[C@@H](O[C@]2(CO)O[C@H](CO)[C@H](O)[C@@H]2O)[C@H](O)[C@@H](O)[C@@H]1O
REMARK SMILES IDX 6 1 5 2 3 3 22 4 4 5 20 6 18 7 2 8 1 9 23 11 21 13 19 15
REMARK SMILES IDX 7 17 16 18 10 19 14 20 11 21 8 22 9 23 17 25 15 27 12 29
REMARK SMILES IDX 13 30
REMARK H PARENT 1 10 23 12 21 14 19 16 9 24 17 26 15 28 13 31
REMARK Flexibility Score: inf
ROOT
ATOM      1  O   UNL     1     -21.925   5.906 -15.173  1.00  0.00    -0.313 OA
ENDROOT
BRANCH   1   2
ATOM      2  C   UNL     1     -21.693   5.708 -16.556  1.00  0.00     0.285 C 
ATOM      3  C   UNL     1     -22.252   4.344 -18.416  1.00  0.00     0.178 C 
ATOM      4  C   UNL     1     -21.009   5.009 -19.152  1.00  0.00     0.177 C 
ATOM      5  O   UNL     1     -22.389   4.567 -17.006  1.00  0.00    -0.341 OA
ATOM      6  C   UNL     1     -19.839   5.470 -18.228  1.00  0.00     0.179 C 
ATOM      7  C   UNL     1     -20.200   5.422 -16.738  1.00  0.00     0.202 C 
BRANCH   3   8
ATOM      8  C   UNL     1     -23.576   4.652 -19.125  1.00  0.00     0.191 C 
BRANCH   8   9
ATOM      9  O   UNL     1     -24.618   3.875 -18.567  1.00  0.00    -0.394 OA
ATOM     10  H   UNL     1     -24.967   3.270 -19.278  1.00  0.00     0.210 HD
ENDBRANCH   8   9
ENDBRANCH   3   8
BRANCH   4  11
ATOM     11  O   UNL     1     -21.401   6.075 -19.993  1.00  0.00    -0.387 OA
ATOM     12  H   UNL     1     -22.365   5.956 -20.204  1.00  0.00     0.211 HD
ENDBRANCH   4  11
BRANCH   6  13
ATOM     13  O   UNL     1     -18.697   4.679 -18.470  1.00  0.00    -0.387 OA
ATOM     14  H   UNL     1     -18.623   4.035 -17.710  1.00  0.00     0.211 HD
ENDBRANCH   6  13
BRANCH   7  15
ATOM     15  O   UNL     1     -19.388   6.302 -15.979  1.00  0.00    -0.385 OA
ATOM     16  H   UNL     1     -19.835   6.453 -15.100  1.00  0.00     0.211 HD
ENDBRANCH   7  15
ENDBRANCH   1   2
BRANCH   1  17
ATOM     17  C   UNL     1     -23.110   6.665 -14.860  1.00  0.00     0.224 C 
ATOM     18  C   UNL     1     -24.383   6.024 -15.473  1.00  0.00     0.208 C 
ATOM     19  O   UNL     1     -23.323   6.810 -13.463  1.00  0.00    -0.337 OA
ATOM     20  C   UNL     1     -25.465   6.566 -14.563  1.00  0.00     0.180 C 
ATOM     21  C   UNL     1     -24.724   6.853 -13.235  1.00  0.00     0.179 C 
BRANCH  17  22
ATOM     22  C   UNL     1     -22.912   8.083 -15.437  1.00  0.00     0.225 C 
BRANCH  22  23
ATOM     23  O   UNL     1     -21.600   8.550 -15.175  1.00  0.00    -0.391 OA
ATOM     24  H   UNL     1     -21.001   7.758 -15.287  1.00  0.00     0.210 HD
ENDBRANCH  22  23
ENDBRANCH  17  22
BRANCH  18  25
ATOM     25  O   UNL     1     -24.331   4.618 -15.504  1.00  0.00    -0.385 OA
ATOM     26  H   UNL     1     -24.888   4.233 -14.791  1.00  0.00     0.211 HD
ENDBRANCH  18  25
BRANCH  20  27
ATOM     27  O   UNL     1     -26.551   5.689 -14.437  1.00  0.00    -0.387 OA
ATOM     28  H   UNL     1     -27.169   6.042 -13.746  1.00  0.00     0.211 HD
ENDBRANCH  20  27
BRANCH  21  29
ATOM     29  C   UNL     1     -25.077   5.883 -12.091  1.00  0.00     0.191 C 
BRANCH  29  30
ATOM     30  O   UNL     1     -24.810   6.503 -10.865  1.00  0.00    -0.394 OA
ATOM     31  H   UNL     1     -23.968   6.121 -10.516  1.00  0.00     0.210 HD
ENDBRANCH  29  30
ENDBRANCH  21  29
ENDBRANCH   1  17
TORSDOF 13
ENDMDL
MODEL 2
REMARK VINA RESULT:     1.648      1.578      2.926
REMARK INTER + INTRA:           2.394
REMARK INTER:                   1.685
REMARK INTRA:                   0.709
REMARK UNBOUND:                -0.121
REMARK SMILES OC[C@@H]1O[C@@H](O[C@]2(CO)O[C@H](CO)[C@H](O)[C@@H]2O)[C@H](O)[C@@H](O)[C@@H]1O
REMARK SMILES IDX 6 1 5 2 3 3 22 4 4 5 20 6 18 7 2 8 1 9 23 11 21 13 19 15
REMARK SMILES IDX 7 17 16 18 10 19 14 20 11 21 8 22 9 23 17 25 15 27 12 29
REMARK SMILES IDX 13 30
REMARK H PARENT 1 10 23 12 21 14 19 16 9 24 17 26 15 28 13 31
REMARK Flexibility Score: inf
ROOT
ATOM      1  O   UNL     1     -23.201   6.913 -14.733  1.00  0.00    -0.313 OA
ENDROOT
BRANCH   1   2
ATOM      2  C   UNL     1     -22.502   6.458 -15.879  1.00  0.00     0.285 C 
ATOM      3  C   UNL     1     -22.218   4.612 -17.342  1.00  0.00     0.178 C 
ATOM      4  C   UNL     1     -20.912   5.353 -17.864  1.00  0.00     0.177 C 
ATOM      5  O   UNL     1     -22.841   5.118 -16.153  1.00  0.00    -0.341 OA
ATOM      6  C   UNL     1     -20.189   6.267 -16.826  1.00  0.00     0.179 C 
ATOM      7  C   UNL     1     -21.008   6.484 -15.548  1.00  0.00     0.202 C 
BRANCH   3   8
ATOM      8  C   UNL     1     -23.266   4.440 -18.448  1.00  0.00     0.191 C 
BRANCH   8   9
ATOM      9  O   UNL     1     -24.355   3.674 -17.971  1.00  0.00    -0.394 OA
ATOM     10  H   UNL     1     -24.290   2.763 -18.369  1.00  0.00     0.210 HD
ENDBRANCH   8   9
ENDBRANCH   3   8
BRANCH   4  11
ATOM     11  O   UNL     1     -21.154   6.078 -19.052  1.00  0.00    -0.387 OA
ATOM     12  H   UNL     1     -22.127   6.280 -19.091  1.00  0.00     0.211 HD
ENDBRANCH   4  11
BRANCH   6  13
ATOM     13  O   UNL     1     -18.929   5.721 -16.502  1.00  0.00    -0.387 OA
ATOM     14  H   UNL     1     -18.498   5.454 -17.362  1.00  0.00     0.211 HD
ENDBRANCH   6  13
BRANCH   7  15
ATOM     15  O   UNL     1     -20.624   7.676 -14.883  1.00  0.00    -0.385 OA
ATOM     16  H   UNL     1     -21.156   8.428 -15.266  1.00  0.00     0.211 HD
ENDBRANCH   7  15
ENDBRANCH   1   2
BRANCH   1  17
ATOM     17  C   UNL     1     -24.513   6.341 -14.557  1.00  0.00     0.224 C 
ATOM     18  C   UNL     1     -25.622   7.426 -14.578  1.00  0.00     0.208 C 
ATOM     19  O   UNL     1     -24.831   5.370 -15.544  1.00  0.00    -0.337 OA
ATOM     20  C   UNL     1     -26.832   6.615 -14.991  1.00  0.00     0.180 C 
ATOM     21  C   UNL     1     -26.231   5.424 -15.775  1.00  0.00     0.179 C 
BRANCH  17  22
ATOM     22  C   UNL     1     -24.518   5.618 -13.193  1.00  0.00     0.225 C 
BRANCH  22  23
ATOM     23  O   UNL     1     -24.370   6.549 -12.134  1.00  0.00    -0.391 OA
ATOM     24  H   UNL     1     -25.271   6.962 -12.006  1.00  0.00     0.210 HD
ENDBRANCH  22  23
ENDBRANCH  17  22
BRANCH  18  25
ATOM     25  O   UNL     1     -25.335   8.489 -15.454  1.00  0.00    -0.385 OA
ATOM     26  H   UNL     1     -26.165   8.910 -15.774  1.00  0.00     0.211 HD
ENDBRANCH  18  25
BRANCH  20  27
ATOM     27  O   UNL     1     -27.764   7.370 -15.717  1.00  0.00    -0.387 OA
ATOM     28  H   UNL     1     -28.617   6.867 -15.762  1.00  0.00     0.211 HD
ENDBRANCH  20  27
BRANCH  21  29
ATOM     29  C   UNL     1     -26.488   5.473 -17.294  1.00  0.00     0.191 C 
BRANCH  29  30
ATOM     30  O   UNL     1     -27.139   4.298 -17.687  1.00  0.00    -0.394 OA
ATOM     31  H   UNL     1     -26.460   3.582 -17.727  1.00  0.00     0.210 HD
ENDBRANCH  29  30
ENDBRANCH  21  29
ENDBRANCH   1  17
TORSDOF 13
ENDMDL
MODEL 3
REMARK VINA RESULT:     1.673      1.919      3.145
REMARK INTER + INTRA:           2.433
REMARK INTER:                   2.690
REMARK INTRA:                  -0.257
REMARK UNBOUND:                -0.121
REMARK SMILES OC[C@@H]1O[C@@H](O[C@]2(CO)O[C@H](CO)[C@H](O)[C@@H]2O)[C@H](O)[C@@H](O)[C@@H]1O
REMARK SMILES IDX 6 1 5 2 3 3 22 4 4 5 20 6 18 7 2 8 1 9 23 11 21 13 19 15
REMARK SMILES IDX 7 17 16 18 10 19 14 20 11 21 8 22 9 23 17 25 15 27 12 29
REMARK SMILES IDX 13 30
REMARK H PARENT 1 10 23 12 21 14 19 16 9 24 17 26 15 28 13 31
REMARK Flexibility Score: inf
ROOT
ATOM      1  O   UNL     1     -23.337   6.145 -14.978  1.00  0.00    -0.313 OA
ENDROOT
BRANCH   1   2
ATOM      2  C   UNL     1     -23.531   5.610 -16.276  1.00  0.00     0.285 C 
ATOM      3  C   UNL     1     -24.726   3.977 -17.515  1.00  0.00     0.178 C 
ATOM      4  C   UNL     1     -23.688   4.251 -18.688  1.00  0.00     0.177 C 
ATOM      5  O   UNL     1     -24.431   4.526 -16.223  1.00  0.00    -0.341 OA
ATOM      6  C   UNL     1     -22.264   4.708 -18.243  1.00  0.00     0.179 C 
ATOM      7  C   UNL     1     -22.187   5.052 -16.750  1.00  0.00     0.202 C 
BRANCH   3   8
ATOM      8  C   UNL     1     -26.161   4.332 -17.920  1.00  0.00     0.191 C 
BRANCH   8   9
ATOM      9  O   UNL     1     -26.446   3.813 -19.204  1.00  0.00    -0.394 OA
ATOM     10  H   UNL     1     -26.927   4.516 -19.722  1.00  0.00     0.210 HD
ENDBRANCH   8   9
ENDBRANCH   3   8
BRANCH   4  11
ATOM     11  O   UNL     1     -24.201   5.153 -19.648  1.00  0.00    -0.387 OA
ATOM     12  H   UNL     1     -23.516   5.261 -20.360  1.00  0.00     0.211 HD
ENDBRANCH   4  11
BRANCH   6  13
ATOM     13  O   UNL     1     -21.320   3.708 -18.555  1.00  0.00    -0.387 OA
ATOM     14  H   UNL     1     -20.831   4.015 -19.370  1.00  0.00     0.211 HD
ENDBRANCH   6  13
BRANCH   7  15
ATOM     15  O   UNL     1     -21.111   5.933 -16.476  1.00  0.00    -0.385 OA
ATOM     16  H   UNL     1     -21.424   6.865 -16.649  1.00  0.00     0.211 HD
ENDBRANCH   7  15
ENDBRANCH   1   2
BRANCH   1  17
ATOM     17  C   UNL     1     -24.543   6.565 -14.309  1.00  0.00     0.224 C 
ATOM     18  C   UNL     1     -24.608   8.107 -14.153  1.00  0.00     0.208 C 
ATOM     19  O   UNL     1     -25.723   6.142 -14.978  1.00  0.00    -0.337 OA
ATOM     20  C   UNL     1     -26.099   8.337 -14.030  1.00  0.00     0.180 C 
ATOM     21  C   UNL     1     -26.724   7.126 -14.763  1.00  0.00     0.179 C 
BRANCH  17  22
ATOM     22  C   UNL     1     -24.550   5.900 -12.916  1.00  0.00     0.225 C 
BRANCH  22  23
ATOM     23  O   UNL     1     -24.071   6.799 -11.931  1.00  0.00    -0.391 OA
ATOM     24  H   UNL     1     -24.171   6.326 -11.057  1.00  0.00     0.210 HD
ENDBRANCH  22  23
ENDBRANCH  17  22
BRANCH  18  25
ATOM     25  O   UNL     1     -24.023   8.794 -15.232  1.00  0.00    -0.385 OA
ATOM     26  H   UNL     1     -24.638   8.824 -16.000  1.00  0.00     0.211 HD
ENDBRANCH  18  25
BRANCH  20  27
ATOM     27  O   UNL     1     -26.495   9.583 -14.536  1.00  0.00    -0.387 OA
ATOM     28  H   UNL     1     -27.002  10.067 -13.835  1.00  0.00     0.211 HD
ENDBRANCH  20  27
BRANCH  21  29
ATOM     29  C   UNL     1     -27.384   7.475 -16.111  1.00  0.00     0.191 C 
BRANCH  29  30
ATOM     30  O   UNL     1     -28.592   8.141 -15.871  1.00  0.00    -0.394 OA
ATOM     31  H   UNL     1     -28.575   8.458 -14.936  1.00  0.00     0.210 HD
ENDBRANCH  29  30
ENDBRANCH  21  29
ENDBRANCH   1  17
TORSDOF 13
ENDMDL
MODEL 4
REMARK VINA RESULT:     1.714      1.902      5.997
REMARK INTER + INTRA:           2.495
REMARK INTER:                   3.032
REMARK INTRA:                  -0.537
REMARK UNBOUND:                -0.121
REMARK SMILES OC[C@@H]1O[C@@H](O[C@]2(CO)O[C@H](CO)[C@H](O)[C@@H]2O)[C@H](O)[C@@H](O)[C@@H]1O
REMARK SMILES IDX 6 1 5 2 3 3 22 4 4 5 20 6 18 7 2 8 1 9 23 11 21 13 19 15
REMARK SMILES IDX 7 17 16 18 10 19 14 20 11 21 8 22 9 23 17 25 15 27 12 29
REMARK SMILES IDX 13 30
REMARK H PARENT 1 10 23 12 21 14 19 16 9 24 17 26 15 28 13 31
REMARK Flexibility Score: inf
ROOT
ATOM      1  O   UNL     1     -24.611   4.246 -16.470  1.00  0.00    -0.313 OA
ENDROOT
BRANCH   1   2
ATOM      2  C   UNL     1     -25.314   5.377 -15.986  1.00  0.00     0.285 C 
ATOM      3  C   UNL     1     -25.739   6.686 -14.053  1.00  0.00     0.178 C 
ATOM      4  C   UNL     1     -26.943   7.326 -14.871  1.00  0.00     0.177 C 
ATOM      5  O   UNL     1     -25.108   5.519 -14.599  1.00  0.00    -0.341 OA
ATOM      6  C   UNL     1     -27.602   6.403 -15.943  1.00  0.00     0.179 C 
ATOM      7  C   UNL     1     -26.808   5.115 -16.192  1.00  0.00     0.202 C 
BRANCH   3   8
ATOM      8  C   UNL     1     -24.679   7.727 -13.677  1.00  0.00     0.191 C 
BRANCH   8   9
ATOM      9  O   UNL     1     -23.991   8.160 -14.835  1.00  0.00    -0.394 OA
ATOM     10  H   UNL     1     -24.501   7.848 -15.632  1.00  0.00     0.210 HD
ENDBRANCH   8   9
ENDBRANCH   3   8
BRANCH   4  11
ATOM     11  O   UNL     1     -26.586   8.560 -15.458  1.00  0.00    -0.387 OA
ATOM     12  H   UNL     1     -27.424   9.060 -15.647  1.00  0.00     0.211 HD
ENDBRANCH   4  11
BRANCH   6  13
ATOM     13  O   UNL     1     -28.922   6.087 -15.559  1.00  0.00    -0.387 OA
ATOM     14  H   UNL     1     -29.203   6.776 -14.893  1.00  0.00     0.211 HD
ENDBRANCH   6  13
BRANCH   7  15
ATOM     15  O   UNL     1     -27.088   4.572 -17.471  1.00  0.00    -0.385 OA
ATOM     16  H   UNL     1     -26.289   4.718 -18.049  1.00  0.00     0.211 HD
ENDBRANCH   7  15
ENDBRANCH   1   2
BRANCH   1  17
ATOM     17  C   UNL     1     -23.178   4.318 -16.328  1.00  0.00     0.224 C 
ATOM     18  C   UNL     1     -22.463   4.327 -17.705  1.00  0.00     0.208 C 
ATOM     19  O   UNL     1     -22.749   5.462 -15.605  1.00  0.00    -0.337 OA
ATOM     20  C   UNL     1     -21.151   4.999 -17.361  1.00  0.00     0.180 C 
ATOM     21  C   UNL     1     -21.487   5.859 -16.120  1.00  0.00     0.179 C 
BRANCH  17  22
ATOM     22  C   UNL     1     -22.735   3.080 -15.521  1.00  0.00     0.225 C 
BRANCH  22  23
ATOM     23  O   UNL     1     -23.759   2.100 -15.506  1.00  0.00    -0.391 OA
ATOM     24  H   UNL     1     -23.769   1.729 -14.579  1.00  0.00     0.210 HD
ENDBRANCH  22  23
ENDBRANCH  17  22
BRANCH  18  25
ATOM     25  O   UNL     1     -23.194   5.004 -18.700  1.00  0.00    -0.385 OA
ATOM     26  H   UNL     1     -22.843   4.791 -19.594  1.00  0.00     0.211 HD
ENDBRANCH  18  25
BRANCH  20  27
ATOM     27  O   UNL     1     -20.619   5.724 -18.437  1.00  0.00    -0.387 OA
ATOM     28  H   UNL     1     -21.194   6.514 -18.606  1.00  0.00     0.211 HD
ENDBRANCH  20  27
BRANCH  21  29
ATOM     29  C   UNL     1     -21.507   7.376 -16.389  1.00  0.00     0.191 C 
BRANCH  29  30
ATOM     30  O   UNL     1     -21.306   8.058 -15.183  1.00  0.00    -0.394 OA
ATOM     31  H   UNL     1     -21.876   7.629 -14.501  1.00  0.00     0.210 HD
ENDBRANCH  29  30
ENDBRANCH  21  29
ENDBRANCH   1  17
TORSDOF 13
ENDMDL
MODEL 5
REMARK VINA RESULT:     1.741      2.959      4.223
REMARK INTER + INTRA:           2.536
REMARK INTER:                   3.444
REMARK INTRA:                  -0.908
REMARK UNBOUND:                -0.121
REMARK SMILES OC[C@@H]1O[C@@H](O[C@]2(CO)O[C@H](CO)[C@H](O)[C@@H]2O)[C@H](O)[C@@H](O)[C@@H]1O
REMARK SMILES IDX 6 1 5 2 3 3 22 4 4 5 20 6 18 7 2 8 1 9 23 11 21 13 19 15
REMARK SMILES IDX 7 17 16 18 10 19 14 20 11 21 8 22 9 23 17 25 15 27 12 29
REMARK SMILES IDX 13 30
REMARK H PARENT 1 10 23 12 21 14 19 16 9 24 17 26 15 28 13 31
REMARK Flexibility Score: inf
ROOT
ATOM      1  O   UNL     1     -25.759   7.015 -14.344  1.00  0.00    -0.313 OA
ENDROOT
BRANCH   1   2
ATOM      2  C   UNL     1     -25.191   6.135 -15.299  1.00  0.00     0.285 C 
ATOM      3  C   UNL     1     -25.685   4.384 -16.821  1.00  0.00     0.178 C 
ATOM      4  C   UNL     1     -24.117   4.129 -16.884  1.00  0.00     0.177 C 
ATOM      5  O   UNL     1     -26.177   5.261 -15.799  1.00  0.00    -0.341 OA
ATOM      6  C   UNL     1     -23.317   4.496 -15.595  1.00  0.00     0.179 C 
ATOM      7  C   UNL     1     -24.155   5.273 -14.573  1.00  0.00     0.202 C 
BRANCH   3   8
ATOM      8  C   UNL     1     -26.258   4.794 -18.183  1.00  0.00     0.191 C 
BRANCH   8   9
ATOM      9  O   UNL     1     -25.759   3.943 -19.196  1.00  0.00    -0.394 OA
ATOM     10  H   UNL     1     -26.187   4.204 -20.058  1.00  0.00     0.210 HD
ENDBRANCH   8   9
ENDBRANCH   3   8
BRANCH   4  11
ATOM     11  O   UNL     1     -23.525   4.750 -18.006  1.00  0.00    -0.387 OA
ATOM     12  H   UNL     1     -22.666   5.155 -17.712  1.00  0.00     0.211 HD
ENDBRANCH   4  11
BRANCH   6  13
ATOM     13  O   UNL     1     -22.800   3.326 -15.002  1.00  0.00    -0.387 OA
ATOM     14  H   UNL     1     -22.030   3.606 -14.431  1.00  0.00     0.211 HD
ENDBRANCH   6  13
BRANCH   7  15
ATOM     15  O   UNL     1     -23.336   6.035 -13.702  1.00  0.00    -0.385 OA
ATOM     16  H   UNL     1     -23.441   5.667 -12.780  1.00  0.00     0.211 HD
ENDBRANCH   7  15
ENDBRANCH   1   2
BRANCH   1  17
ATOM     17  C   UNL     1     -26.222   8.271 -14.878  1.00  0.00     0.224 C 
ATOM     18  C   UNL     1     -27.390   8.076 -15.881  1.00  0.00     0.208 C 
ATOM     19  O   UNL     1     -26.656   9.175 -13.872  1.00  0.00    -0.337 OA
ATOM     20  C   UNL     1     -28.074   9.424 -15.818  1.00  0.00     0.180 C 
ATOM     21  C   UNL     1     -27.707   9.962 -14.414  1.00  0.00     0.179 C 
BRANCH  17  22
ATOM     22  C   UNL     1     -25.026   8.933 -15.595  1.00  0.00     0.225 C 
BRANCH  22  23
ATOM     23  O   UNL     1     -23.926   9.067 -14.712  1.00  0.00    -0.391 OA
ATOM     24  H   UNL     1     -23.206   9.516 -15.240  1.00  0.00     0.210 HD
ENDBRANCH  22  23
ENDBRANCH  17  22
BRANCH  18  25
ATOM     25  O   UNL     1     -28.234   7.003 -15.539  1.00  0.00    -0.385 OA
ATOM     26  H   UNL     1     -29.024   7.325 -15.049  1.00  0.00     0.211 HD
ENDBRANCH  18  25
BRANCH  20  27
ATOM     27  O   UNL     1     -29.452   9.340 -16.059  1.00  0.00    -0.387 OA
ATOM     28  H   UNL     1     -29.596   9.005 -16.982  1.00  0.00     0.211 HD
ENDBRANCH  20  27
BRANCH  21  29
ATOM     29  C   UNL     1     -28.883   9.985 -13.418  1.00  0.00     0.191 C 
BRANCH  29  30
ATOM     30  O   UNL     1     -29.704  11.081 -13.705  1.00  0.00    -0.394 OA
ATOM     31  H   UNL     1     -30.454  10.754 -14.258  1.00  0.00     0.210 HD
ENDBRANCH  29  30
ENDBRANCH  21  29
ENDBRANCH   1  17
TORSDOF 13
ENDMDL
MODEL 6
REMARK VINA RESULT:     2.042      1.432      6.437
REMARK INTER + INTRA:           2.995
REMARK INTER:                   3.466
REMARK INTRA:                  -0.470
REMARK UNBOUND:                -0.121
REMARK SMILES OC[C@@H]1O[C@@H](O[C@]2(CO)O[C@H](CO)[C@H](O)[C@@H]2O)[C@H](O)[C@@H](O)[C@@H]1O
REMARK SMILES IDX 6 1 5 2 3 3 22 4 4 5 20 6 18 7 2 8 1 9 23 11 21 13 19 15
REMARK SMILES IDX 7 17 16 18 10 19 14 20 11 21 8 22 9 23 17 25 15 27 12 29
REMARK SMILES IDX 13 30
REMARK H PARENT 1 10 23 12 21 14 19 16 9 24 17 26 15 28 13 31
REMARK Flexibility Score: inf
ROOT
ATOM      1  O   UNL     1     -22.662   4.401 -16.621  1.00  0.00    -0.313 OA
ENDROOT
BRANCH   1   2
ATOM      2  C   UNL     1     -23.240   5.517 -15.966  1.00  0.00     0.285 C 
ATOM      3  C   UNL     1     -22.755   7.418 -14.631  1.00  0.00     0.178 C 
ATOM      4  C   UNL     1     -24.317   7.492 -14.343  1.00  0.00     0.177 C 
ATOM      5  O   UNL     1     -22.250   6.235 -15.265  1.00  0.00    -0.341 OA
ATOM      6  C   UNL     1     -25.079   6.131 -14.376  1.00  0.00     0.179 C 
ATOM      7  C   UNL     1     -24.225   4.981 -14.924  1.00  0.00     0.202 C 
BRANCH   3   8
ATOM      8  C   UNL     1     -22.243   8.663 -15.364  1.00  0.00     0.191 C 
BRANCH   8   9
ATOM      9  O   UNL     1     -22.711   9.833 -14.720  1.00  0.00    -0.394 OA
ATOM     10  H   UNL     1     -23.623   9.646 -14.364  1.00  0.00     0.210 HD
ENDBRANCH   8   9
ENDBRANCH   3   8
BRANCH   4  11
ATOM     11  O   UNL     1     -24.966   8.423 -15.186  1.00  0.00    -0.387 OA
ATOM     12  H   UNL     1     -25.714   7.951 -15.639  1.00  0.00     0.211 HD
ENDBRANCH   4  11
BRANCH   6  13
ATOM     13  O   UNL     1     -25.543   5.810 -13.082  1.00  0.00    -0.387 OA
ATOM     14  H   UNL     1     -26.183   6.529 -12.817  1.00  0.00     0.211 HD
ENDBRANCH   6  13
BRANCH   7  15
ATOM     15  O   UNL     1     -25.033   3.934 -15.436  1.00  0.00    -0.385 OA
ATOM     16  H   UNL     1     -25.943   4.024 -15.036  1.00  0.00     0.211 HD
ENDBRANCH   7  15
ENDBRANCH   1   2
BRANCH   1  17
ATOM     17  C   UNL     1     -22.238   4.648 -17.976  1.00  0.00     0.224 C 
ATOM     18  C   UNL     1     -21.281   5.866 -18.068  1.00  0.00     0.208 C 
ATOM     19  O   UNL     1     -21.585   3.532 -18.564  1.00  0.00    -0.337 OA
ATOM     20  C   UNL     1     -20.527   5.564 -19.346  1.00  0.00     0.180 C 
ATOM     21  C   UNL     1     -20.609   4.024 -19.471  1.00  0.00     0.179 C 
BRANCH  17  22
ATOM     22  C   UNL     1     -23.507   4.921 -18.811  1.00  0.00     0.225 C 
BRANCH  22  23
ATOM     23  O   UNL     1     -24.493   3.934 -18.560  1.00  0.00    -0.391 OA
ATOM     24  H   UNL     1     -25.318   4.432 -18.297  1.00  0.00     0.210 HD
ENDBRANCH  22  23
ENDBRANCH  17  22
BRANCH  18  25
ATOM     25  O   UNL     1     -20.445   5.994 -16.943  1.00  0.00    -0.385 OA
ATOM     26  H   UNL     1     -19.922   6.826 -16.991  1.00  0.00     0.211 HD
ENDBRANCH  18  25
BRANCH  20  27
ATOM     27  O   UNL     1     -19.220   6.072 -19.333  1.00  0.00    -0.387 OA
ATOM     28  H   UNL     1     -19.170   6.839 -19.959  1.00  0.00     0.211 HD
ENDBRANCH  20  27
BRANCH  21  29
ATOM     29  C   UNL     1     -19.274   3.297 -19.216  1.00  0.00     0.191 C 
BRANCH  29  30
ATOM     30  O   UNL     1     -18.354   3.669 -20.203  1.00  0.00    -0.394 OA
ATOM     31  H   UNL     1     -17.970   4.539 -19.939  1.00  0.00     0.210 HD
ENDBRANCH  29  30
ENDBRANCH  21  29
ENDBRANCH   1  17
TORSDOF 13
ENDMDL
MODEL 7
REMARK VINA RESULT:     2.251      3.911      7.525
REMARK INTER + INTRA:           3.314
REMARK INTER:                   1.602
REMARK INTRA:                   1.712
REMARK UNBOUND:                -0.121
REMARK SMILES OC[C@@H]1O[C@@H](O[C@]2(CO)O[C@H](CO)[C@H](O)[C@@H]2O)[C@H](O)[C@@H](O)[C@@H]1O
REMARK SMILES IDX 6 1 5 2 3 3 22 4 4 5 20 6 18 7 2 8 1 9 23 11 21 13 19 15
REMARK SMILES IDX 7 17 16 18 10 19 14 20 11 21 8 22 9 23 17 25 15 27 12 29
REMARK SMILES IDX 13 30
REMARK H PARENT 1 10 23 12 21 14 19 16 9 24 17 26 15 28 13 31
REMARK Flexibility Score: inf
ROOT
ATOM      1  O   UNL     1     -26.773   9.160 -14.496  1.00  0.00    -0.313 OA
ENDROOT
BRANCH   1   2
ATOM      2  C   UNL     1     -28.189   9.108 -14.481  1.00  0.00     0.285 C 
ATOM      3  C   UNL     1     -30.081   8.127 -15.524  1.00  0.00     0.178 C 
ATOM      4  C   UNL     1     -30.943   9.237 -14.780  1.00  0.00     0.177 C 
ATOM      5  O   UNL     1     -28.655   8.279 -15.521  1.00  0.00    -0.341 OA
ATOM      6  C   UNL     1     -30.213  10.587 -14.497  1.00  0.00     0.179 C 
ATOM      7  C   UNL     1     -28.705  10.520 -14.768  1.00  0.00     0.202 C 
BRANCH   3   8
ATOM      8  C   UNL     1     -30.457   6.709 -15.079  1.00  0.00     0.191 C 
BRANCH   8   9
ATOM      9  O   UNL     1     -29.706   5.757 -15.806  1.00  0.00    -0.394 OA
ATOM     10  H   UNL     1     -28.939   5.469 -15.239  1.00  0.00     0.210 HD
ENDBRANCH   8   9
ENDBRANCH   3   8
BRANCH   4  11
ATOM     11  O   UNL     1     -31.520   8.747 -13.587  1.00  0.00    -0.387 OA
ATOM     12  H   UNL     1     -32.251   9.368 -13.326  1.00  0.00     0.211 HD
ENDBRANCH   4  11
BRANCH   6  13
ATOM     13  O   UNL     1     -30.794  11.617 -15.266  1.00  0.00    -0.387 OA
ATOM     14  H   UNL     1     -30.897  11.264 -16.194  1.00  0.00     0.211 HD
ENDBRANCH   6  13
BRANCH   7  15
ATOM     15  O   UNL     1     -28.002  11.510 -14.037  1.00  0.00    -0.385 OA
ATOM     16  H   UNL     1     -28.133  12.385 -14.498  1.00  0.00     0.211 HD
ENDBRANCH   7  15
ENDBRANCH   1   2
BRANCH   1  17
ATOM     17  C   UNL     1     -26.123   7.899 -14.751  1.00  0.00     0.224 C 
ATOM     18  C   UNL     1     -24.652   8.090 -15.207  1.00  0.00     0.208 C 
ATOM     19  O   UNL     1     -26.123   7.037 -13.623  1.00  0.00    -0.337 OA
ATOM     20  C   UNL     1     -24.040   6.760 -14.823  1.00  0.00     0.180 C 
ATOM     21  C   UNL     1     -24.937   6.258 -13.666  1.00  0.00     0.179 C 
BRANCH  17  22
ATOM     22  C   UNL     1     -26.923   7.188 -15.864  1.00  0.00     0.225 C 
BRANCH  22  23
ATOM     23  O   UNL     1     -27.014   5.798 -15.603  1.00  0.00    -0.391 OA
ATOM     24  H   UNL     1     -26.365   5.361 -16.224  1.00  0.00     0.210 HD
ENDBRANCH  22  23
ENDBRANCH  17  22
BRANCH  18  25
ATOM     25  O   UNL     1     -24.026   9.192 -14.595  1.00  0.00    -0.385 OA
ATOM     26  H   UNL     1     -23.074   9.232 -14.842  1.00  0.00     0.211 HD
ENDBRANCH  18  25
BRANCH  20  27
ATOM     27  O   UNL     1     -22.682   6.868 -14.493  1.00  0.00    -0.387 OA
ATOM     28  H   UNL     1     -22.460   6.176 -13.818  1.00  0.00     0.211 HD
ENDBRANCH  20  27
BRANCH  21  29
ATOM     29  C   UNL     1     -24.261   6.293 -12.282  1.00  0.00     0.191 C 
BRANCH  29  30
ATOM     30  O   UNL     1     -25.185   5.892 -11.310  1.00  0.00    -0.394 OA
ATOM     31  H   UNL     1     -26.083   6.144 -11.633  1.00  0.00     0.210 HD
ENDBRANCH  29  30
ENDBRANCH  21  29
ENDBRANCH   1  17
TORSDOF 13
ENDMDL
MODEL 8
REMARK VINA RESULT:     2.746      1.673      6.521
REMARK INTER + INTRA:           4.070
REMARK INTER:                   4.319
REMARK INTRA:                  -0.249
REMARK UNBOUND:                -0.121
REMARK SMILES OC[C@@H]1O[C@@H](O[C@]2(CO)O[C@H](CO)[C@H](O)[C@@H]2O)[C@H](O)[C@@H](O)[C@@H]1O
REMARK SMILES IDX 6 1 5 2 3 3 22 4 4 5 20 6 18 7 2 8 1 9 23 11 21 13 19 15
REMARK SMILES IDX 7 17 16 18 10 19 14 20 11 21 8 22 9 23 17 25 15 27 12 29
REMARK SMILES IDX 13 30
REMARK H PARENT 1 10 23 12 21 14 19 16 9 24 17 26 15 28 13 31
REMARK Flexibility Score: inf
ROOT
ATOM      1  O   UNL     1     -23.812   4.061 -17.311  1.00  0.00    -0.313 OA
ENDROOT
BRANCH   1   2
ATOM      2  C   UNL     1     -24.489   4.947 -16.438  1.00  0.00     0.285 C 
ATOM      3  C   UNL     1     -24.816   5.512 -14.156  1.00  0.00     0.178 C 
ATOM      4  C   UNL     1     -26.060   6.371 -14.649  1.00  0.00     0.177 C 
ATOM      5  O   UNL     1     -24.214   4.612 -15.097  1.00  0.00    -0.341 OA
ATOM      6  C   UNL     1     -26.772   5.858 -15.939  1.00  0.00     0.179 C 
ATOM      7  C   UNL     1     -25.992   4.745 -16.649  1.00  0.00     0.202 C 
BRANCH   3   8
ATOM      8  C   UNL     1     -23.738   6.381 -13.499  1.00  0.00     0.191 C 
BRANCH   8   9
ATOM      9  O   UNL     1     -24.108   6.691 -12.170  1.00  0.00    -0.394 OA
ATOM     10  H   UNL     1     -24.569   5.897 -11.783  1.00  0.00     0.210 HD
ENDBRANCH   8   9
ENDBRANCH   3   8
BRANCH   4  11
ATOM     11  O   UNL     1     -25.733   7.738 -14.796  1.00  0.00    -0.387 OA
ATOM     12  H   UNL     1     -25.494   8.091 -13.899  1.00  0.00     0.211 HD
ENDBRANCH   4  11
BRANCH   6  13
ATOM     13  O   UNL     1     -28.071   5.407 -15.623  1.00  0.00    -0.387 OA
ATOM     14  H   UNL     1     -28.539   6.165 -15.171  1.00  0.00     0.211 HD
ENDBRANCH   6  13
BRANCH   7  15
ATOM     15  O   UNL     1     -26.336   4.665 -18.022  1.00  0.00    -0.385 OA
ATOM     16  H   UNL     1     -25.500   4.500 -18.541  1.00  0.00     0.211 HD
ENDBRANCH   7  15
ENDBRANCH   1   2
BRANCH   1  17
ATOM     17  C   UNL     1     -22.939   4.699 -18.264  1.00  0.00     0.224 C 
ATOM     18  C   UNL     1     -21.974   5.703 -17.580  1.00  0.00     0.208 C 
ATOM     19  O   UNL     1     -22.156   3.774 -19.005  1.00  0.00    -0.337 OA
ATOM     20  C   UNL     1     -20.836   5.756 -18.576  1.00  0.00     0.180 C 
ATOM     21  C   UNL     1     -20.913   4.393 -19.303  1.00  0.00     0.179 C 
BRANCH  17  22
ATOM     22  C   UNL     1     -23.834   5.445 -19.277  1.00  0.00     0.225 C 
BRANCH  22  23
ATOM     23  O   UNL     1     -24.731   4.547 -19.908  1.00  0.00    -0.391 OA
ATOM     24  H   UNL     1     -24.210   3.710 -20.069  1.00  0.00     0.210 HD
ENDBRANCH  22  23
ENDBRANCH  17  22
BRANCH  18  25
ATOM     25  O   UNL     1     -21.575   5.293 -16.295  1.00  0.00    -0.385 OA
ATOM     26  H   UNL     1     -22.350   5.233 -15.692  1.00  0.00     0.211 HD
ENDBRANCH  18  25
BRANCH  20  27
ATOM     27  O   UNL     1     -19.599   6.014 -17.967  1.00  0.00    -0.387 OA
ATOM     28  H   UNL     1     -18.875   5.790 -18.606  1.00  0.00     0.211 HD
ENDBRANCH  20  27
BRANCH  21  29
ATOM     29  C   UNL     1     -19.769   3.422 -18.950  1.00  0.00     0.191 C 
BRANCH  29  30
ATOM     30  O   UNL     1     -18.595   3.849 -19.580  1.00  0.00    -0.394 OA
ATOM     31  H   UNL     1     -18.047   4.314 -18.903  1.00  0.00     0.210 HD
ENDBRANCH  29  30
ENDBRANCH  21  29
ENDBRANCH   1  17
TORSDOF 13
ENDMDL
MODEL 9
REMARK VINA RESULT:     2.833      1.175      2.332
REMARK INTER + INTRA:           4.202
REMARK INTER:                   4.000
REMARK INTRA:                   0.202
REMARK UNBOUND:                -0.121
REMARK SMILES OC[C@@H]1O[C@@H](O[C@]2(CO)O[C@H](CO)[C@H](O)[C@@H]2O)[C@H](O)[C@@H](O)[C@@H]1O
REMARK SMILES IDX 6 1 5 2 3 3 22 4 4 5 20 6 18 7 2 8 1 9 23 11 21 13 19 15
REMARK SMILES IDX 7 17 16 18 10 19 14 20 11 21 8 22 9 23 17 25 15 27 12 29
REMARK SMILES IDX 13 30
REMARK H PARENT 1 10 23 12 21 14 19 16 9 24 17 26 15 28 13 31
REMARK Flexibility Score: inf
ROOT
ATOM      1  O   UNL     1     -22.357   5.905 -15.150  1.00  0.00    -0.313 OA
ENDROOT
BRANCH   1   2
ATOM      2  C   UNL     1     -22.045   5.746 -16.523  1.00  0.00     0.285 C 
ATOM      3  C   UNL     1     -22.447   4.400 -18.435  1.00  0.00     0.178 C 
ATOM      4  C   UNL     1     -21.197   5.131 -19.091  1.00  0.00     0.177 C 
ATOM      5  O   UNL     1     -22.666   4.587 -17.030  1.00  0.00    -0.341 OA
ATOM      6  C   UNL     1     -20.098   5.620 -18.098  1.00  0.00     0.179 C 
ATOM      7  C   UNL     1     -20.534   5.527 -16.630  1.00  0.00     0.202 C 
BRANCH   3   8
ATOM      8  C   UNL     1     -23.744   4.667 -19.207  1.00  0.00     0.191 C 
BRANCH   8   9
ATOM      9  O   UNL     1     -24.763   3.793 -18.763  1.00  0.00    -0.394 OA
ATOM     10  H   UNL     1     -24.362   3.158 -18.109  1.00  0.00     0.210 HD
ENDBRANCH   8   9
ENDBRANCH   3   8
BRANCH   4  11
ATOM     11  O   UNL     1     -21.590   6.197 -19.931  1.00  0.00    -0.387 OA
ATOM     12  H   UNL     1     -22.207   6.779 -19.415  1.00  0.00     0.211 HD
ENDBRANCH   4  11
BRANCH   6  13
ATOM     13  O   UNL     1     -18.911   4.883 -18.294  1.00  0.00    -0.387 OA
ATOM     14  H   UNL     1     -19.184   3.963 -18.570  1.00  0.00     0.211 HD
ENDBRANCH   6  13
BRANCH   7  15
ATOM     15  O   UNL     1     -19.800   6.423 -15.813  1.00  0.00    -0.385 OA
ATOM     16  H   UNL     1     -20.094   7.351 -16.032  1.00  0.00     0.211 HD
ENDBRANCH   7  15
ENDBRANCH   1   2
BRANCH   1  17
ATOM     17  C   UNL     1     -23.750   5.732 -14.821  1.00  0.00     0.224 C 
ATOM     18  C   UNL     1     -24.018   5.964 -13.311  1.00  0.00     0.208 C 
ATOM     19  O   UNL     1     -24.604   6.597 -15.556  1.00  0.00    -0.337 OA
ATOM     20  C   UNL     1     -25.486   6.336 -13.317  1.00  0.00     0.180 C 
ATOM     21  C   UNL     1     -25.716   6.916 -14.733  1.00  0.00     0.179 C 
BRANCH  17  22
ATOM     22  C   UNL     1     -24.134   4.286 -15.202  1.00  0.00     0.225 C 
BRANCH  22  23
ATOM     23  O   UNL     1     -25.267   4.278 -16.052  1.00  0.00    -0.391 OA
ATOM     24  H   UNL     1     -26.015   3.902 -15.507  1.00  0.00     0.210 HD
ENDBRANCH  22  23
ENDBRANCH  17  22
BRANCH  18  25
ATOM     25  O   UNL     1     -23.192   6.956 -12.752  1.00  0.00    -0.385 OA
ATOM     26  H   UNL     1     -23.394   7.079 -11.796  1.00  0.00     0.211 HD
ENDBRANCH  18  25
BRANCH  20  27
ATOM     27  O   UNL     1     -25.824   7.211 -12.275  1.00  0.00    -0.387 OA
ATOM     28  H   UNL     1     -25.294   8.044 -12.372  1.00  0.00     0.211 HD
ENDBRANCH  20  27
BRANCH  21  29
ATOM     29  C   UNL     1     -25.942   8.441 -14.762  1.00  0.00     0.191 C 
BRANCH  29  30
ATOM     30  O   UNL     1     -24.701   9.088 -14.792  1.00  0.00    -0.394 OA
ATOM     31  H   UNL     1     -24.570   9.435 -15.707  1.00  0.00     0.210 HD
ENDBRANCH  29  30
ENDBRANCH  21  29
ENDBRANCH   1  17
TORSDOF 13
ENDMDL
