MODEL 1
REMARK VINA RESULT:    -5.516      0.000      0.000
REMARK INTER + INTRA:          -5.838
REMARK INTER:                  -5.838
REMARK INTRA:                   0.000
REMARK UNBOUND:                 0.000
REMARK SMILES O=c1ccc2cc(O)c(O)cc2o1
REMARK SMILES IDX 4 1 3 2 2 3 1 4 13 5 12 6 11 7 9 8 7 9 6 10 5 11 8 12 10 14
REMARK H PARENT 8 13 10 15
REMARK Flexibility Score: inf
ROOT
ATOM      1  C   UNL     1       5.938   5.175   9.487  1.00  0.00     0.019 A 
ATOM      2  C   UNL     1       6.285   6.450   9.932  1.00  0.00     0.094 A 
ATOM      3  C   UNL     1       7.320   6.585  10.865  1.00  0.00     0.336 A 
ATOM      4  O   UNL     1       7.648   7.727  11.280  1.00  0.00    -0.246 OA
ATOM      5  O   UNL     1       7.962   5.511  11.318  1.00  0.00    -0.423 OA
ATOM      6  C   UNL     1       7.664   4.277  10.918  1.00  0.00     0.142 A 
ATOM      7  C   UNL     1       8.374   3.186  11.429  1.00  0.00     0.098 A 
ATOM      8  C   UNL     1       8.062   1.883  11.011  1.00  0.00     0.161 A 
ATOM      9  C   UNL     1       7.036   1.672  10.079  1.00  0.00     0.158 A 
ATOM     10  C   UNL     1       6.321   2.762   9.563  1.00  0.00     0.062 A 
ATOM     11  C   UNL     1       6.631   4.065   9.980  1.00  0.00     0.022 A 
ENDROOT
BRANCH   9  12
ATOM     12  O   UNL     1       6.734   0.375   9.670  1.00  0.00    -0.504 OA
ATOM     13  H   UNL     1       7.460  -0.283   9.410  1.00  0.00     0.293 HD
ENDBRANCH   9  12
BRANCH   8  14
ATOM     14  O   UNL     1       8.769   0.794  11.519  1.00  0.00    -0.504 OA
ATOM     15  H   UNL     1       8.298   0.026  11.982  1.00  0.00     0.293 HD
ENDBRANCH   8  14
TORSDOF 2
ENDMDL
MODEL 2
REMARK VINA RESULT:    -4.948      1.110      4.506
REMARK INTER + INTRA:          -5.237
REMARK INTER:                  -5.237
REMARK INTRA:                   0.000
REMARK UNBOUND:                 0.000
REMARK SMILES O=c1ccc2cc(O)c(O)cc2o1
REMARK SMILES IDX 4 1 3 2 2 3 1 4 13 5 12 6 11 7 9 8 7 9 6 10 5 11 8 12 10 14
REMARK H PARENT 8 13 10 15
REMARK Flexibility Score: inf
ROOT
ATOM      1  C   UNL     1       6.647   2.319   9.626  1.00  0.00     0.019 A 
ATOM      2  C   UNL     1       7.373   1.232  10.109  1.00  0.00     0.094 A 
ATOM      3  C   UNL     1       8.385   1.455  11.049  1.00  0.00     0.336 A 
ATOM      4  O   UNL     1       9.053   0.487  11.498  1.00  0.00    -0.246 OA
ATOM      5  O   UNL     1       8.647   2.689  11.475  1.00  0.00    -0.423 OA
ATOM      6  C   UNL     1       7.978   3.754  11.041  1.00  0.00     0.142 A 
ATOM      7  C   UNL     1       8.298   5.026  11.524  1.00  0.00     0.098 A 
ATOM      8  C   UNL     1       7.595   6.152  11.069  1.00  0.00     0.161 A 
ATOM      9  C   UNL     1       6.568   6.003  10.126  1.00  0.00     0.158 A 
ATOM     10  C   UNL     1       6.243   4.730   9.637  1.00  0.00     0.062 A 
ATOM     11  C   UNL     1       6.944   3.604  10.091  1.00  0.00     0.022 A 
ENDROOT
BRANCH   9  12
ATOM     12  O   UNL     1       5.875   7.127   9.679  1.00  0.00    -0.504 OA
ATOM     13  H   UNL     1       5.035   7.451  10.143  1.00  0.00     0.293 HD
ENDBRANCH   9  12
BRANCH   8  14
ATOM     14  O   UNL     1       7.912   7.421  11.550  1.00  0.00    -0.504 OA
ATOM     15  H   UNL     1       7.251   7.963  12.093  1.00  0.00     0.293 HD
ENDBRANCH   8  14
TORSDOF 2
ENDMDL
MODEL 3
REMARK VINA RESULT:    -4.861      8.442     10.506
REMARK INTER + INTRA:          -5.146
REMARK INTER:                  -5.146
REMARK INTRA:                   0.000
REMARK UNBOUND:                 0.000
REMARK SMILES O=c1ccc2cc(O)c(O)cc2o1
REMARK SMILES IDX 4 1 3 2 2 3 1 4 13 5 12 6 11 7 9 8 7 9 6 10 5 11 8 12 10 14
REMARK H PARENT 8 13 10 15
REMARK Flexibility Score: inf
ROOT
ATOM      1  C   UNL     1      12.055   0.438  19.942  1.00  0.00     0.019 A 
ATOM      2  C   UNL     1      13.365  -0.001  20.125  1.00  0.00     0.094 A 
ATOM      3  C   UNL     1      13.891  -0.955  19.246  1.00  0.00     0.336 A 
ATOM      4  O   UNL     1      15.071  -1.364  19.394  1.00  0.00    -0.246 OA
ATOM      5  O   UNL     1      13.149  -1.433  18.250  1.00  0.00    -0.423 OA
ATOM      6  C   UNL     1      11.894  -1.040  18.039  1.00  0.00     0.142 A 
ATOM      7  C   UNL     1      11.163  -1.578  16.975  1.00  0.00     0.098 A 
ATOM      8  C   UNL     1       9.840  -1.168  16.750  1.00  0.00     0.161 A 
ATOM      9  C   UNL     1       9.248  -0.215  17.592  1.00  0.00     0.158 A 
ATOM     10  C   UNL     1       9.977   0.327  18.659  1.00  0.00     0.062 A 
ATOM     11  C   UNL     1      11.298  -0.082  18.887  1.00  0.00     0.022 A 
ENDROOT
BRANCH   9  12
ATOM     12  O   UNL     1       7.933   0.187  17.360  1.00  0.00    -0.504 OA
ATOM     13  H   UNL     1       7.691   0.778  16.573  1.00  0.00     0.293 HD
ENDBRANCH   9  12
BRANCH   8  14
ATOM     14  O   UNL     1       9.109  -1.702  15.690  1.00  0.00    -0.504 OA
ATOM     15  H   UNL     1       9.159  -2.687  15.455  1.00  0.00     0.293 HD
ENDBRANCH   8  14
TORSDOF 2
ENDMDL
MODEL 4
REMARK VINA RESULT:    -4.852      8.559     10.626
REMARK INTER + INTRA:          -5.135
REMARK INTER:                  -5.135
REMARK INTRA:                   0.000
REMARK UNBOUND:                 0.000
REMARK SMILES O=c1ccc2cc(O)c(O)cc2o1
REMARK SMILES IDX 4 1 3 2 2 3 1 4 13 5 12 6 11 7 9 8 7 9 6 10 5 11 8 12 10 14
REMARK H PARENT 8 13 10 15
REMARK Flexibility Score: inf
ROOT
ATOM      1  C   UNL     1      12.093  -3.054  18.656  1.00  0.00     0.019 A 
ATOM      2  C   UNL     1      13.328  -2.535  19.040  1.00  0.00     0.094 A 
ATOM      3  C   UNL     1      13.507  -1.147  19.056  1.00  0.00     0.336 A 
ATOM      4  O   UNL     1      14.615  -0.659  19.399  1.00  0.00    -0.246 OA
ATOM      5  O   UNL     1      12.510  -0.337  18.709  1.00  0.00    -0.423 OA
ATOM      6  C   UNL     1      11.315  -0.790  18.336  1.00  0.00     0.142 A 
ATOM      7  C   UNL     1      10.305   0.110  17.983  1.00  0.00     0.098 A 
ATOM      8  C   UNL     1       9.044  -0.363  17.590  1.00  0.00     0.161 A 
ATOM      9  C   UNL     1       8.793  -1.742  17.550  1.00  0.00     0.158 A 
ATOM     10  C   UNL     1       9.802  -2.649  17.904  1.00  0.00     0.062 A 
ATOM     11  C   UNL     1      11.063  -2.178  18.297  1.00  0.00     0.022 A 
ENDROOT
BRANCH   9  12
ATOM     12  O   UNL     1       7.538  -2.203  17.158  1.00  0.00    -0.504 OA
ATOM     13  H   UNL     1       7.396  -3.158  16.848  1.00  0.00     0.293 HD
ENDBRANCH   9  12
BRANCH   8  14
ATOM     14  O   UNL     1       8.036   0.532  17.237  1.00  0.00    -0.504 OA
ATOM     15  H   UNL     1       7.888   0.812  16.274  1.00  0.00     0.293 HD
ENDBRANCH   8  14
TORSDOF 2
ENDMDL
MODEL 5
REMARK VINA RESULT:    -4.785      8.481     10.012
REMARK INTER + INTRA:          -5.065
REMARK INTER:                  -5.065
REMARK INTRA:                   0.000
REMARK UNBOUND:                 0.000
REMARK SMILES O=c1ccc2cc(O)c(O)cc2o1
REMARK SMILES IDX 4 1 3 2 2 3 1 4 13 5 12 6 11 7 9 8 7 9 6 10 5 11 8 12 10 14
REMARK H PARENT 8 13 10 15
REMARK Flexibility Score: inf
ROOT
ATOM      1  C   UNL     1      10.690   1.961  19.501  1.00  0.00     0.019 A 
ATOM      2  C   UNL     1       9.370   2.194  19.120  1.00  0.00     0.094 A 
ATOM      3  C   UNL     1       8.752   1.305  18.233  1.00  0.00     0.336 A 
ATOM      4  O   UNL     1       7.560   1.498  17.877  1.00  0.00    -0.246 OA
ATOM      5  O   UNL     1       9.417   0.253  17.761  1.00  0.00    -0.423 OA
ATOM      6  C   UNL     1      10.678  -0.006  18.099  1.00  0.00     0.142 A 
ATOM      7  C   UNL     1      11.327  -1.127  17.572  1.00  0.00     0.098 A 
ATOM      8  C   UNL     1      12.656  -1.405  17.925  1.00  0.00     0.161 A 
ATOM      9  C   UNL     1      13.339  -0.557  18.809  1.00  0.00     0.158 A 
ATOM     10  C   UNL     1      12.693   0.568  19.341  1.00  0.00     0.062 A 
ATOM     11  C   UNL     1      11.365   0.847  18.989  1.00  0.00     0.022 A 
ENDROOT
BRANCH   9  12
ATOM     12  O   UNL     1      14.659  -0.840  19.154  1.00  0.00    -0.504 OA
ATOM     13  H   UNL     1      15.431  -0.582  18.551  1.00  0.00     0.293 HD
ENDBRANCH   9  12
BRANCH   8  14
ATOM     14  O   UNL     1      13.304  -2.522  17.400  1.00  0.00    -0.504 OA
ATOM     15  H   UNL     1      14.191  -2.442  16.916  1.00  0.00     0.293 HD
ENDBRANCH   8  14
TORSDOF 2
ENDMDL
MODEL 6
REMARK VINA RESULT:    -4.704      8.459     10.523
REMARK INTER + INTRA:          -4.979
REMARK INTER:                  -4.979
REMARK INTRA:                   0.000
REMARK UNBOUND:                 0.000
REMARK SMILES O=c1ccc2cc(O)c(O)cc2o1
REMARK SMILES IDX 4 1 3 2 2 3 1 4 13 5 12 6 11 7 9 8 7 9 6 10 5 11 8 12 10 14
REMARK H PARENT 8 13 10 15
REMARK Flexibility Score: inf
ROOT
ATOM      1  C   UNL     1      11.940  -2.058  17.910  1.00  0.00     0.019 A 
ATOM      2  C   UNL     1      13.249  -2.132  18.385  1.00  0.00     0.094 A 
ATOM      3  C   UNL     1      13.802  -1.019  19.028  1.00  0.00     0.336 A 
ATOM      4  O   UNL     1      14.981  -1.066  19.464  1.00  0.00    -0.246 OA
ATOM      5  O   UNL     1      13.087   0.092  19.184  1.00  0.00    -0.423 OA
ATOM      6  C   UNL     1      11.835   0.205  18.746  1.00  0.00     0.142 A 
ATOM      7  C   UNL     1      11.132   1.399  18.939  1.00  0.00     0.098 A 
ATOM      8  C   UNL     1       9.812   1.523  18.479  1.00  0.00     0.161 A 
ATOM      9  C   UNL     1       9.193   0.448  17.824  1.00  0.00     0.158 A 
ATOM     10  C   UNL     1       9.893  -0.752  17.629  1.00  0.00     0.062 A 
ATOM     11  C   UNL     1      11.212  -0.877  18.088  1.00  0.00     0.022 A 
ENDROOT
BRANCH   9  12
ATOM     12  O   UNL     1       7.882   0.580  17.371  1.00  0.00    -0.504 OA
ATOM     13  H   UNL     1       7.653   1.159  16.571  1.00  0.00     0.293 HD
ENDBRANCH   9  12
BRANCH   8  14
ATOM     14  O   UNL     1       9.110   2.711  18.669  1.00  0.00    -0.504 OA
ATOM     15  H   UNL     1       8.583   3.143  17.919  1.00  0.00     0.293 HD
ENDBRANCH   8  14
TORSDOF 2
ENDMDL
MODEL 7
REMARK VINA RESULT:    -4.694      8.551     10.333
REMARK INTER + INTRA:          -4.968
REMARK INTER:                  -4.968
REMARK INTRA:                   0.000
REMARK UNBOUND:                 0.000
REMARK SMILES O=c1ccc2cc(O)c(O)cc2o1
REMARK SMILES IDX 4 1 3 2 2 3 1 4 13 5 12 6 11 7 9 8 7 9 6 10 5 11 8 12 10 14
REMARK H PARENT 8 13 10 15
REMARK Flexibility Score: inf
ROOT
ATOM      1  C   UNL     1       8.728  -2.015  18.538  1.00  0.00     0.019 A 
ATOM      2  C   UNL     1       7.905  -0.939  18.205  1.00  0.00     0.094 A 
ATOM      3  C   UNL     1       8.489   0.300  17.922  1.00  0.00     0.336 A 
ATOM      4  O   UNL     1       7.764   1.284  17.620  1.00  0.00    -0.246 OA
ATOM      5  O   UNL     1       9.811   0.447  17.968  1.00  0.00    -0.423 OA
ATOM      6  C   UNL     1      10.633  -0.552  18.280  1.00  0.00     0.142 A 
ATOM      7  C   UNL     1      12.014  -0.338  18.313  1.00  0.00     0.098 A 
ATOM      8  C   UNL     1      12.884  -1.389  18.642  1.00  0.00     0.161 A 
ATOM      9  C   UNL     1      12.368  -2.660  18.938  1.00  0.00     0.158 A 
ATOM     10  C   UNL     1      10.984  -2.880  18.907  1.00  0.00     0.062 A 
ATOM     11  C   UNL     1      10.113  -1.831  18.579  1.00  0.00     0.022 A 
ENDROOT
BRANCH   9  12
ATOM     12  O   UNL     1      13.239  -3.697  19.264  1.00  0.00    -0.504 OA
ATOM     13  H   UNL     1      13.697  -3.742  20.167  1.00  0.00     0.293 HD
ENDBRANCH   9  12
BRANCH   8  14
ATOM     14  O   UNL     1      14.261  -1.178  18.675  1.00  0.00    -0.504 OA
ATOM     15  H   UNL     1      14.877  -1.582  17.980  1.00  0.00     0.293 HD
ENDBRANCH   8  14
TORSDOF 2
ENDMDL
MODEL 8
REMARK VINA RESULT:    -4.617      9.012      9.929
REMARK INTER + INTRA:          -4.887
REMARK INTER:                  -4.887
REMARK INTRA:                   0.000
REMARK UNBOUND:                 0.000
REMARK SMILES O=c1ccc2cc(O)c(O)cc2o1
REMARK SMILES IDX 4 1 3 2 2 3 1 4 13 5 12 6 11 7 9 8 7 9 6 10 5 11 8 12 10 14
REMARK H PARENT 8 13 10 15
REMARK Flexibility Score: inf
ROOT
ATOM      1  C   UNL     1       9.277   0.140  17.876  1.00  0.00     0.019 A 
ATOM      2  C   UNL     1       8.691   1.263  18.457  1.00  0.00     0.094 A 
ATOM      3  C   UNL     1       9.458   2.067  19.307  1.00  0.00     0.336 A 
ATOM      4  O   UNL     1       8.947   3.085  19.842  1.00  0.00    -0.246 OA
ATOM      5  O   UNL     1      10.730   1.761  19.556  1.00  0.00    -0.423 OA
ATOM      6  C   UNL     1      11.328   0.699  19.022  1.00  0.00     0.142 A 
ATOM      7  C   UNL     1      12.667   0.427  19.320  1.00  0.00     0.098 A 
ATOM      8  C   UNL     1      13.302  -0.691  18.760  1.00  0.00     0.161 A 
ATOM      9  C   UNL     1      12.594  -1.542  17.898  1.00  0.00     0.158 A 
ATOM     10  C   UNL     1      11.251  -1.274  17.596  1.00  0.00     0.062 A 
ATOM     11  C   UNL     1      10.615  -0.157  18.155  1.00  0.00     0.022 A 
ENDROOT
BRANCH   9  12
ATOM     12  O   UNL     1      13.233  -2.651  17.346  1.00  0.00    -0.504 OA
ATOM     13  H   UNL     1      14.104  -3.003  17.725  1.00  0.00     0.293 HD
ENDBRANCH   9  12
BRANCH   8  14
ATOM     14  O   UNL     1      14.637  -0.964  19.055  1.00  0.00    -0.504 OA
ATOM     15  H   UNL     1      14.956  -1.079  20.010  1.00  0.00     0.293 HD
ENDBRANCH   8  14
TORSDOF 2
ENDMDL
MODEL 9
REMARK VINA RESULT:    -4.508      1.048      2.229
REMARK INTER + INTRA:          -4.771
REMARK INTER:                  -4.771
REMARK INTRA:                   0.000
REMARK UNBOUND:                 0.000
REMARK SMILES O=c1ccc2cc(O)c(O)cc2o1
REMARK SMILES IDX 4 1 3 2 2 3 1 4 13 5 12 6 11 7 9 8 7 9 6 10 5 11 8 12 10 14
REMARK H PARENT 8 13 10 15
REMARK Flexibility Score: inf
ROOT
ATOM      1  C   UNL     1       8.208   5.334  11.575  1.00  0.00     0.019 A 
ATOM      2  C   UNL     1       7.528   6.464  11.123  1.00  0.00     0.094 A 
ATOM      3  C   UNL     1       6.502   6.308  10.184  1.00  0.00     0.336 A 
ATOM      4  O   UNL     1       5.875   7.315   9.764  1.00  0.00    -0.246 OA
ATOM      5  O   UNL     1       6.182   5.098   9.731  1.00  0.00    -0.423 OA
ATOM      6  C   UNL     1       6.805   3.994  10.136  1.00  0.00     0.142 A 
ATOM      7  C   UNL     1       6.425   2.749   9.625  1.00  0.00     0.098 A 
ATOM      8  C   UNL     1       7.080   1.583  10.049  1.00  0.00     0.161 A 
ATOM      9  C   UNL     1       8.119   1.663  10.988  1.00  0.00     0.158 A 
ATOM     10  C   UNL     1       8.504   2.909  11.504  1.00  0.00     0.062 A 
ATOM     11  C   UNL     1       7.851   4.075  11.081  1.00  0.00     0.022 A 
ENDROOT
BRANCH   9  12
ATOM     12  O   UNL     1       8.763   0.499  11.403  1.00  0.00    -0.504 OA
ATOM     13  H   UNL     1       8.345  -0.126  12.082  1.00  0.00     0.293 HD
ENDBRANCH   9  12
BRANCH   8  14
ATOM     14  O   UNL     1       6.703   0.341   9.541  1.00  0.00    -0.504 OA
ATOM     15  H   UNL     1       6.735  -0.497  10.109  1.00  0.00     0.293 HD
ENDBRANCH   8  14
TORSDOF 2
ENDMDL
