MODEL 1
REMARK VINA RESULT:    -7.079      0.000      0.000
REMARK INTER + INTRA:          -8.834
REMARK INTER:                  -8.527
REMARK INTRA:                  -0.307
REMARK UNBOUND:                -0.307
REMARK SMILES O=c1c(O)c(-c2ccc(O)c(O)c2)oc2cc(O)cc(O)c12
REMARK SMILES IDX 5 1 3 2 2 3 1 4 22 5 20 6 19 7 17 8 16 9 15 10 14 11 6 12
REMARK SMILES IDX 7 13 8 14 9 15 13 16 11 17 10 18 12 20 4 22 21 24 18 26
REMARK H PARENT 10 19 12 21 4 23 21 25 18 27
REMARK Flexibility Score: inf
ROOT
ATOM      1  C   UNL     1     -36.513 -13.027 -10.476  1.00  0.00     0.180 A 
ATOM      2  C   UNL     1     -37.494 -12.888 -11.472  1.00  0.00     0.208 A 
ATOM      3  C   UNL     1     -37.426 -13.703 -12.613  1.00  0.00     0.238 A 
ATOM      4  O   UNL     1     -38.276 -13.536 -13.527  1.00  0.00    -0.285 OA
ATOM      5  C   UNL     1     -36.388 -14.658 -12.736  1.00  0.00     0.111 A 
ATOM      6  C   UNL     1     -36.244 -15.563 -13.831  1.00  0.00     0.134 A 
ATOM      7  C   UNL     1     -35.106 -16.375 -13.911  1.00  0.00     0.093 A 
ATOM      8  C   UNL     1     -34.139 -16.360 -12.903  1.00  0.00     0.123 A 
ATOM      9  C   UNL     1     -34.300 -15.523 -11.802  1.00  0.00     0.094 A 
ATOM     10  C   UNL     1     -35.406 -14.675 -11.712  1.00  0.00     0.146 A 
ATOM     11  O   UNL     1     -35.515 -13.886 -10.650  1.00  0.00    -0.452 OA
ENDROOT
BRANCH   1  12
ATOM     12  C   UNL     1     -36.533 -12.221  -9.233  1.00  0.00     0.025 A 
ATOM     13  C   UNL     1     -35.778 -11.044  -9.114  1.00  0.00     0.016 A 
ATOM     14  C   UNL     1     -35.830 -10.288  -7.941  1.00  0.00     0.051 A 
ATOM     15  C   UNL     1     -36.644 -10.682  -6.873  1.00  0.00     0.157 A 
ATOM     16  C   UNL     1     -37.366 -12.607  -8.172  1.00  0.00     0.062 A 
ATOM     17  C   UNL     1     -37.426 -11.855  -6.991  1.00  0.00     0.158 A 
BRANCH  15  18
ATOM     18  O   UNL     1     -36.648  -9.885  -5.727  1.00  0.00    -0.504 OA
ATOM     19  H   UNL     1     -37.484  -9.615  -5.229  1.00  0.00     0.293 HD
ENDBRANCH  15  18
BRANCH  17  20
ATOM     20  O   UNL     1     -38.267 -12.307  -5.973  1.00  0.00    -0.504 OA
ATOM     21  H   UNL     1     -38.007 -12.336  -4.997  1.00  0.00     0.293 HD
ENDBRANCH  17  20
ENDBRANCH   1  12
BRANCH   2  22
ATOM     22  O   UNL     1     -38.498 -11.924 -11.341  1.00  0.00    -0.502 OA
ATOM     23  H   UNL     1     -39.462 -12.104 -11.595  1.00  0.00     0.293 HD
ENDBRANCH   2  22
BRANCH   6  24
ATOM     24  O   UNL     1     -37.198 -15.723 -14.841  1.00  0.00    -0.507 OA
ATOM     25  H   UNL     1     -38.161 -15.432 -14.774  1.00  0.00     0.293 HD
ENDBRANCH   6  24
BRANCH   8  26
ATOM     26  O   UNL     1     -33.017 -17.182 -12.983  1.00  0.00    -0.508 OA
ATOM     27  H   UNL     1     -32.839 -17.904 -12.295  1.00  0.00     0.293 HD
ENDBRANCH   8  26
TORSDOF 6
ENDMDL
MODEL 2
REMARK VINA RESULT:    -6.959      0.707      1.462
REMARK INTER + INTRA:          -8.689
REMARK INTER:                  -8.365
REMARK INTRA:                  -0.324
REMARK UNBOUND:                -0.307
REMARK SMILES O=c1c(O)c(-c2ccc(O)c(O)c2)oc2cc(O)cc(O)c12
REMARK SMILES IDX 5 1 3 2 2 3 1 4 22 5 20 6 19 7 17 8 16 9 15 10 14 11 6 12
REMARK SMILES IDX 7 13 8 14 9 15 13 16 11 17 10 18 12 20 4 22 21 24 18 26
REMARK H PARENT 10 19 12 21 4 23 21 25 18 27
REMARK Flexibility Score: inf
ROOT
ATOM      1  C   UNL     1     -36.662 -13.248 -10.656  1.00  0.00     0.180 A 
ATOM      2  C   UNL     1     -37.539 -12.984 -11.721  1.00  0.00     0.208 A 
ATOM      3  C   UNL     1     -37.340 -13.642 -12.946  1.00  0.00     0.238 A 
ATOM      4  O   UNL     1     -38.095 -13.361 -13.913  1.00  0.00    -0.285 OA
ATOM      5  C   UNL     1     -36.278 -14.569 -13.083  1.00  0.00     0.111 A 
ATOM      6  C   UNL     1     -36.008 -15.322 -14.266  1.00  0.00     0.134 A 
ATOM      7  C   UNL     1     -34.854 -16.112 -14.333  1.00  0.00     0.093 A 
ATOM      8  C   UNL     1     -33.994 -16.225 -13.238  1.00  0.00     0.123 A 
ATOM      9  C   UNL     1     -34.281 -15.540 -12.059  1.00  0.00     0.094 A 
ATOM     10  C   UNL     1     -35.406 -14.716 -11.974  1.00  0.00     0.146 A 
ATOM     11  O   UNL     1     -35.636 -14.073 -10.836  1.00  0.00    -0.452 OA
ENDROOT
BRANCH   1  12
ATOM     12  C   UNL     1     -36.821 -12.613  -9.328  1.00  0.00     0.025 A 
ATOM     13  C   UNL     1     -37.707 -13.133  -8.370  1.00  0.00     0.016 A 
ATOM     14  C   UNL     1     -37.823 -12.530  -7.116  1.00  0.00     0.051 A 
ATOM     15  C   UNL     1     -37.053 -11.409  -6.787  1.00  0.00     0.157 A 
ATOM     16  C   UNL     1     -36.031 -11.502  -8.993  1.00  0.00     0.062 A 
ATOM     17  C   UNL     1     -36.141 -10.890  -7.737  1.00  0.00     0.158 A 
BRANCH  15  18
ATOM     18  O   UNL     1     -37.220 -10.851  -5.519  1.00  0.00    -0.504 OA
ATOM     19  H   UNL     1     -37.393 -11.391  -4.682  1.00  0.00     0.293 HD
ENDBRANCH  15  18
BRANCH  17  20
ATOM     20  O   UNL     1     -35.333  -9.781  -7.480  1.00  0.00    -0.504 OA
ATOM     21  H   UNL     1     -35.502  -8.860  -7.857  1.00  0.00     0.293 HD
ENDBRANCH  17  20
ENDBRANCH   1  12
BRANCH   2  22
ATOM     22  O   UNL     1     -38.567 -12.050 -11.570  1.00  0.00    -0.502 OA
ATOM     23  H   UNL     1     -39.538 -12.275 -11.755  1.00  0.00     0.293 HD
ENDBRANCH   2  22
BRANCH   6  24
ATOM     24  O   UNL     1     -36.851 -15.352 -15.381  1.00  0.00    -0.507 OA
ATOM     25  H   UNL     1     -37.293 -14.543 -15.790  1.00  0.00     0.293 HD
ENDBRANCH   6  24
BRANCH   8  26
ATOM     26  O   UNL     1     -32.856 -17.025 -13.307  1.00  0.00    -0.508 OA
ATOM     27  H   UNL     1     -32.784 -17.891 -12.787  1.00  0.00     0.293 HD
ENDBRANCH   8  26
TORSDOF 6
ENDMDL
MODEL 3
REMARK VINA RESULT:    -6.764      1.436      2.780
REMARK INTER + INTRA:          -8.454
REMARK INTER:                  -8.273
REMARK INTRA:                  -0.182
REMARK UNBOUND:                -0.307
REMARK SMILES O=c1c(O)c(-c2ccc(O)c(O)c2)oc2cc(O)cc(O)c12
REMARK SMILES IDX 5 1 3 2 2 3 1 4 22 5 20 6 19 7 17 8 16 9 15 10 14 11 6 12
REMARK SMILES IDX 7 13 8 14 9 15 13 16 11 17 10 18 12 20 4 22 21 24 18 26
REMARK H PARENT 10 19 12 21 4 23 21 25 18 27
REMARK Flexibility Score: inf
ROOT
ATOM      1  C   UNL     1     -36.443 -13.471 -10.313  1.00  0.00     0.180 A 
ATOM      2  C   UNL     1     -36.018 -14.798 -10.133  1.00  0.00     0.208 A 
ATOM      3  C   UNL     1     -36.032 -15.672 -11.232  1.00  0.00     0.238 A 
ATOM      4  O   UNL     1     -35.703 -16.874 -11.053  1.00  0.00    -0.285 OA
ATOM      5  C   UNL     1     -36.453 -15.203 -12.500  1.00  0.00     0.111 A 
ATOM      6  C   UNL     1     -36.469 -15.991 -13.691  1.00  0.00     0.134 A 
ATOM      7  C   UNL     1     -37.028 -15.462 -14.861  1.00  0.00     0.093 A 
ATOM      8  C   UNL     1     -37.512 -14.152 -14.899  1.00  0.00     0.123 A 
ATOM      9  C   UNL     1     -37.446 -13.357 -13.759  1.00  0.00     0.094 A 
ATOM     10  C   UNL     1     -36.928 -13.868 -12.566  1.00  0.00     0.146 A 
ATOM     11  O   UNL     1     -36.894 -13.079 -11.500  1.00  0.00    -0.452 OA
ENDROOT
BRANCH   1  12
ATOM     12  C   UNL     1     -36.433 -12.484  -9.209  1.00  0.00     0.025 A 
ATOM     13  C   UNL     1     -35.585 -11.366  -9.235  1.00  0.00     0.016 A 
ATOM     14  C   UNL     1     -35.611 -10.437  -8.193  1.00  0.00     0.051 A 
ATOM     15  C   UNL     1     -36.489 -10.595  -7.115  1.00  0.00     0.157 A 
ATOM     16  C   UNL     1     -37.331 -12.634  -8.139  1.00  0.00     0.062 A 
ATOM     17  C   UNL     1     -37.364 -11.707  -7.090  1.00  0.00     0.158 A 
BRANCH  15  18
ATOM     18  O   UNL     1     -36.462  -9.633  -6.104  1.00  0.00    -0.504 OA
ATOM     19  H   UNL     1     -36.210  -8.666  -6.251  1.00  0.00     0.293 HD
ENDBRANCH  15  18
BRANCH  17  20
ATOM     20  O   UNL     1     -38.272 -11.928  -6.053  1.00  0.00    -0.504 OA
ATOM     21  H   UNL     1     -38.920 -11.233  -5.712  1.00  0.00     0.293 HD
ENDBRANCH  17  20
ENDBRANCH   1  12
BRANCH   2  22
ATOM     22  O   UNL     1     -35.628 -15.246  -8.868  1.00  0.00    -0.502 OA
ATOM     23  H   UNL     1     -34.704 -15.071  -8.490  1.00  0.00     0.293 HD
ENDBRANCH   2  22
BRANCH   6  24
ATOM     24  O   UNL     1     -35.926 -17.276 -13.784  1.00  0.00    -0.507 OA
ATOM     25  H   UNL     1     -36.189 -17.962 -14.474  1.00  0.00     0.293 HD
ENDBRANCH   6  24
BRANCH   8  26
ATOM     26  O   UNL     1     -38.052 -13.629 -16.072  1.00  0.00    -0.508 OA
ATOM     27  H   UNL     1     -38.346 -14.228 -16.834  1.00  0.00     0.293 HD
ENDBRANCH   8  26
TORSDOF 6
ENDMDL
MODEL 4
REMARK VINA RESULT:    -6.757      1.651      3.400
REMARK INTER + INTRA:          -8.446
REMARK INTER:                  -8.127
REMARK INTRA:                  -0.320
REMARK UNBOUND:                -0.307
REMARK SMILES O=c1c(O)c(-c2ccc(O)c(O)c2)oc2cc(O)cc(O)c12
REMARK SMILES IDX 5 1 3 2 2 3 1 4 22 5 20 6 19 7 17 8 16 9 15 10 14 11 6 12
REMARK SMILES IDX 7 13 8 14 9 15 13 16 11 17 10 18 12 20 4 22 21 24 18 26
REMARK H PARENT 10 19 12 21 4 23 21 25 18 27
REMARK Flexibility Score: inf
ROOT
ATOM      1  C   UNL     1     -36.090 -14.658 -10.634  1.00  0.00     0.180 A 
ATOM      2  C   UNL     1     -34.780 -15.162 -10.708  1.00  0.00     0.208 A 
ATOM      3  C   UNL     1     -34.365 -15.812 -11.881  1.00  0.00     0.238 A 
ATOM      4  O   UNL     1     -33.209 -16.309 -11.920  1.00  0.00    -0.285 OA
ATOM      5  C   UNL     1     -35.258 -15.933 -12.973  1.00  0.00     0.111 A 
ATOM      6  C   UNL     1     -34.931 -16.537 -14.224  1.00  0.00     0.134 A 
ATOM      7  C   UNL     1     -35.933 -16.719 -15.186  1.00  0.00     0.093 A 
ATOM      8  C   UNL     1     -37.234 -16.262 -14.965  1.00  0.00     0.123 A 
ATOM      9  C   UNL     1     -37.548 -15.619 -13.771  1.00  0.00     0.094 A 
ATOM     10  C   UNL     1     -36.580 -15.455 -12.778  1.00  0.00     0.146 A 
ATOM     11  O   UNL     1     -36.925 -14.845 -11.650  1.00  0.00    -0.452 OA
ENDROOT
BRANCH   1  12
ATOM     12  C   UNL     1     -36.592 -13.940  -9.441  1.00  0.00     0.025 A 
ATOM     13  C   UNL     1     -37.141 -14.631  -8.349  1.00  0.00     0.016 A 
ATOM     14  C   UNL     1     -37.586 -13.933  -7.225  1.00  0.00     0.051 A 
ATOM     15  C   UNL     1     -37.481 -12.540  -7.160  1.00  0.00     0.157 A 
ATOM     16  C   UNL     1     -36.465 -12.543  -9.369  1.00  0.00     0.062 A 
ATOM     17  C   UNL     1     -36.909 -11.835  -8.245  1.00  0.00     0.158 A 
BRANCH  15  18
ATOM     18  O   UNL     1     -37.949 -11.902  -6.009  1.00  0.00    -0.504 OA
ATOM     19  H   UNL     1     -37.573 -12.057  -5.085  1.00  0.00     0.293 HD
ENDBRANCH  15  18
BRANCH  17  20
ATOM     20  O   UNL     1     -36.763 -10.447  -8.251  1.00  0.00    -0.504 OA
ATOM     21  H   UNL     1     -36.590  -9.900  -9.082  1.00  0.00     0.293 HD
ENDBRANCH  17  20
ENDBRANCH   1  12
BRANCH   2  22
ATOM     22  O   UNL     1     -33.921 -15.051  -9.610  1.00  0.00    -0.502 OA
ATOM     23  H   UNL     1     -34.111 -14.429  -8.832  1.00  0.00     0.293 HD
ENDBRANCH   2  22
BRANCH   6  24
ATOM     24  O   UNL     1     -33.642 -16.945 -14.581  1.00  0.00    -0.507 OA
ATOM     25  H   UNL     1     -32.829 -16.348 -14.577  1.00  0.00     0.293 HD
ENDBRANCH   6  24
BRANCH   8  26
ATOM     26  O   UNL     1     -38.221 -16.433 -15.934  1.00  0.00    -0.508 OA
ATOM     27  H   UNL     1     -38.148 -17.153 -16.643  1.00  0.00     0.293 HD
ENDBRANCH   8  26
TORSDOF 6
ENDMDL
MODEL 5
REMARK VINA RESULT:    -6.598      3.477      6.845
REMARK INTER + INTRA:          -8.255
REMARK INTER:                  -8.553
REMARK INTRA:                   0.298
REMARK UNBOUND:                -0.307
REMARK SMILES O=c1c(O)c(-c2ccc(O)c(O)c2)oc2cc(O)cc(O)c12
REMARK SMILES IDX 5 1 3 2 2 3 1 4 22 5 20 6 19 7 17 8 16 9 15 10 14 11 6 12
REMARK SMILES IDX 7 13 8 14 9 15 13 16 11 17 10 18 12 20 4 22 21 24 18 26
REMARK H PARENT 10 19 12 21 4 23 21 25 18 27
REMARK Flexibility Score: inf
ROOT
ATOM      1  C   UNL     1     -36.252 -12.380  -8.235  1.00  0.00     0.180 A 
ATOM      2  C   UNL     1     -35.450 -12.055  -9.342  1.00  0.00     0.208 A 
ATOM      3  C   UNL     1     -34.879 -10.774  -9.417  1.00  0.00     0.238 A 
ATOM      4  O   UNL     1     -34.206 -10.471 -10.437  1.00  0.00    -0.285 OA
ATOM      5  C   UNL     1     -35.102  -9.842  -8.375  1.00  0.00     0.111 A 
ATOM      6  C   UNL     1     -34.541  -8.530  -8.328  1.00  0.00     0.134 A 
ATOM      7  C   UNL     1     -34.934  -7.646  -7.316  1.00  0.00     0.093 A 
ATOM      8  C   UNL     1     -35.820  -8.049  -6.313  1.00  0.00     0.123 A 
ATOM      9  C   UNL     1     -36.327  -9.345  -6.318  1.00  0.00     0.094 A 
ATOM     10  C   UNL     1     -35.982 -10.239  -7.335  1.00  0.00     0.146 A 
ATOM     11  O   UNL     1     -36.496 -11.462  -7.307  1.00  0.00    -0.452 OA
ENDROOT
BRANCH   1  12
ATOM     12  C   UNL     1     -36.868 -13.717  -8.074  1.00  0.00     0.025 A 
ATOM     13  C   UNL     1     -36.311 -14.856  -8.677  1.00  0.00     0.016 A 
ATOM     14  C   UNL     1     -36.896 -16.110  -8.491  1.00  0.00     0.051 A 
ATOM     15  C   UNL     1     -38.035 -16.256  -7.693  1.00  0.00     0.157 A 
ATOM     16  C   UNL     1     -37.998 -13.864  -7.254  1.00  0.00     0.062 A 
ATOM     17  C   UNL     1     -38.592 -15.118  -7.062  1.00  0.00     0.158 A 
BRANCH  15  18
ATOM     18  O   UNL     1     -38.574 -17.536  -7.551  1.00  0.00    -0.504 OA
ATOM     19  H   UNL     1     -39.544 -17.721  -7.338  1.00  0.00     0.293 HD
ENDBRANCH  15  18
BRANCH  17  20
ATOM     20  O   UNL     1     -39.722 -15.186  -6.245  1.00  0.00    -0.504 OA
ATOM     21  H   UNL     1     -39.872 -15.899  -5.547  1.00  0.00     0.293 HD
ENDBRANCH  17  20
ENDBRANCH   1  12
BRANCH   2  22
ATOM     22  O   UNL     1     -35.260 -12.983 -10.370  1.00  0.00    -0.502 OA
ATOM     23  H   UNL     1     -35.074 -13.963 -10.190  1.00  0.00     0.293 HD
ENDBRANCH   2  22
BRANCH   6  24
ATOM     24  O   UNL     1     -33.578  -8.061  -9.227  1.00  0.00    -0.507 OA
ATOM     25  H   UNL     1     -33.295  -7.096  -9.315  1.00  0.00     0.293 HD
ENDBRANCH   6  24
BRANCH   8  26
ATOM     26  O   UNL     1     -36.195  -7.168  -5.301  1.00  0.00    -0.508 OA
ATOM     27  H   UNL     1     -37.124  -6.767  -5.264  1.00  0.00     0.293 HD
ENDBRANCH   8  26
TORSDOF 6
ENDMDL
MODEL 6
REMARK VINA RESULT:    -6.469      3.849      6.231
REMARK INTER + INTRA:          -8.099
REMARK INTER:                  -8.556
REMARK INTRA:                   0.457
REMARK UNBOUND:                -0.307
REMARK SMILES O=c1c(O)c(-c2ccc(O)c(O)c2)oc2cc(O)cc(O)c12
REMARK SMILES IDX 5 1 3 2 2 3 1 4 22 5 20 6 19 7 17 8 16 9 15 10 14 11 6 12
REMARK SMILES IDX 7 13 8 14 9 15 13 16 11 17 10 18 12 20 4 22 21 24 18 26
REMARK H PARENT 10 19 12 21 4 23 21 25 18 27
REMARK Flexibility Score: inf
ROOT
ATOM      1  C   UNL     1     -36.589 -12.615  -7.926  1.00  0.00     0.180 A 
ATOM      2  C   UNL     1     -36.945 -11.610  -7.011  1.00  0.00     0.208 A 
ATOM      3  C   UNL     1     -36.367 -10.336  -7.140  1.00  0.00     0.238 A 
ATOM      4  O   UNL     1     -36.647  -9.456  -6.285  1.00  0.00    -0.285 OA
ATOM      5  C   UNL     1     -35.456 -10.080  -8.193  1.00  0.00     0.111 A 
ATOM      6  C   UNL     1     -34.841  -8.816  -8.442  1.00  0.00     0.134 A 
ATOM      7  C   UNL     1     -33.856  -8.710  -9.432  1.00  0.00     0.093 A 
ATOM      8  C   UNL     1     -33.510  -9.808 -10.223  1.00  0.00     0.123 A 
ATOM      9  C   UNL     1     -34.147 -11.030 -10.027  1.00  0.00     0.094 A 
ATOM     10  C   UNL     1     -35.107 -11.176  -9.023  1.00  0.00     0.146 A 
ATOM     11  O   UNL     1     -35.682 -12.362  -8.863  1.00  0.00    -0.452 OA
ENDROOT
BRANCH   1  12
ATOM     12  C   UNL     1     -37.174 -13.974  -7.870  1.00  0.00     0.025 A 
ATOM     13  C   UNL     1     -36.548 -15.066  -8.493  1.00  0.00     0.016 A 
ATOM     14  C   UNL     1     -37.107 -16.342  -8.406  1.00  0.00     0.051 A 
ATOM     15  C   UNL     1     -38.288 -16.559  -7.688  1.00  0.00     0.157 A 
ATOM     16  C   UNL     1     -38.348 -14.193  -7.130  1.00  0.00     0.062 A 
ATOM     17  C   UNL     1     -38.915 -15.470  -7.038  1.00  0.00     0.158 A 
BRANCH  15  18
ATOM     18  O   UNL     1     -38.796 -17.859  -7.644  1.00  0.00    -0.504 OA
ATOM     19  H   UNL     1     -39.544 -18.193  -8.234  1.00  0.00     0.293 HD
ENDBRANCH  15  18
BRANCH  17  20
ATOM     20  O   UNL     1     -40.090 -15.609  -6.297  1.00  0.00    -0.504 OA
ATOM     21  H   UNL     1     -41.017 -15.503  -6.683  1.00  0.00     0.293 HD
ENDBRANCH  17  20
ENDBRANCH   1  12
BRANCH   2  22
ATOM     22  O   UNL     1     -37.830 -11.891  -5.966  1.00  0.00    -0.502 OA
ATOM     23  H   UNL     1     -38.812 -11.645  -6.005  1.00  0.00     0.293 HD
ENDBRANCH   2  22
BRANCH   6  24
ATOM     24  O   UNL     1     -35.181  -7.637  -7.771  1.00  0.00    -0.507 OA
ATOM     25  H   UNL     1     -35.953  -7.037  -8.019  1.00  0.00     0.293 HD
ENDBRANCH   6  24
BRANCH   8  26
ATOM     26  O   UNL     1     -32.539  -9.690 -11.216  1.00  0.00    -0.508 OA
ATOM     27  H   UNL     1     -32.255  -8.786 -11.574  1.00  0.00     0.293 HD
ENDBRANCH   8  26
TORSDOF 6
ENDMDL
MODEL 7
REMARK VINA RESULT:    -6.444     10.634     12.304
REMARK INTER + INTRA:          -8.069
REMARK INTER:                  -7.876
REMARK INTRA:                  -0.193
REMARK UNBOUND:                -0.307
REMARK SMILES O=c1c(O)c(-c2ccc(O)c(O)c2)oc2cc(O)cc(O)c12
REMARK SMILES IDX 5 1 3 2 2 3 1 4 22 5 20 6 19 7 17 8 16 9 15 10 14 11 6 12
REMARK SMILES IDX 7 13 8 14 9 15 13 16 11 17 10 18 12 20 4 22 21 24 18 26
REMARK H PARENT 10 19 12 21 4 23 21 25 18 27
REMARK Flexibility Score: inf
ROOT
ATOM      1  C   UNL     1     -27.952 -13.435  -1.533  1.00  0.00     0.180 A 
ATOM      2  C   UNL     1     -27.348 -12.919  -2.692  1.00  0.00     0.208 A 
ATOM      3  C   UNL     1     -27.555 -13.573  -3.917  1.00  0.00     0.238 A 
ATOM      4  O   UNL     1     -26.967 -13.138  -4.942  1.00  0.00    -0.285 OA
ATOM      5  C   UNL     1     -28.378 -14.724  -3.971  1.00  0.00     0.111 A 
ATOM      6  C   UNL     1     -28.689 -15.442  -5.165  1.00  0.00     0.134 A 
ATOM      7  C   UNL     1     -29.406 -16.642  -5.081  1.00  0.00     0.093 A 
ATOM      8  C   UNL     1     -29.879 -17.115  -3.855  1.00  0.00     0.123 A 
ATOM      9  C   UNL     1     -29.631 -16.390  -2.692  1.00  0.00     0.094 A 
ATOM     10  C   UNL     1     -28.887 -15.208  -2.738  1.00  0.00     0.146 A 
ATOM     11  O   UNL     1     -28.665 -14.554  -1.605  1.00  0.00    -0.452 OA
ENDROOT
BRANCH   1  12
ATOM     12  C   UNL     1     -27.801 -12.787  -0.210  1.00  0.00     0.025 A 
ATOM     13  C   UNL     1     -27.055 -13.388   0.816  1.00  0.00     0.016 A 
ATOM     14  C   UNL     1     -26.907 -12.747   2.048  1.00  0.00     0.051 A 
ATOM     15  C   UNL     1     -27.485 -11.493   2.276  1.00  0.00     0.157 A 
ATOM     16  C   UNL     1     -28.364 -11.520   0.008  1.00  0.00     0.062 A 
ATOM     17  C   UNL     1     -28.221 -10.869   1.241  1.00  0.00     0.158 A 
BRANCH  15  18
ATOM     18  O   UNL     1     -27.303 -10.908   3.530  1.00  0.00    -0.504 OA
ATOM     19  H   UNL     1     -27.767 -10.063   3.833  1.00  0.00     0.293 HD
ENDBRANCH  15  18
BRANCH  17  20
ATOM     20  O   UNL     1     -28.819  -9.617   1.390  1.00  0.00    -0.504 OA
ATOM     21  H   UNL     1     -28.455  -8.765   0.988  1.00  0.00     0.293 HD
ENDBRANCH  17  20
ENDBRANCH   1  12
BRANCH   2  22
ATOM     22  O   UNL     1     -26.522 -11.794  -2.612  1.00  0.00    -0.502 OA
ATOM     23  H   UNL     1     -26.777 -10.968  -2.083  1.00  0.00     0.293 HD
ENDBRANCH   2  22
BRANCH   6  24
ATOM     24  O   UNL     1     -28.344 -15.009  -6.448  1.00  0.00    -0.507 OA
ATOM     25  H   UNL     1     -28.958 -14.503  -7.069  1.00  0.00     0.293 HD
ENDBRANCH   6  24
BRANCH   8  26
ATOM     26  O   UNL     1     -30.605 -18.301  -3.783  1.00  0.00    -0.508 OA
ATOM     27  H   UNL     1     -31.608 -18.301  -3.636  1.00  0.00     0.293 HD
ENDBRANCH   8  26
TORSDOF 6
ENDMDL
MODEL 8
REMARK VINA RESULT:    -6.355      2.138      7.117
REMARK INTER + INTRA:          -7.962
REMARK INTER:                  -7.652
REMARK INTRA:                  -0.309
REMARK UNBOUND:                -0.307
REMARK SMILES O=c1c(O)c(-c2ccc(O)c(O)c2)oc2cc(O)cc(O)c12
REMARK SMILES IDX 5 1 3 2 2 3 1 4 22 5 20 6 19 7 17 8 16 9 15 10 14 11 6 12
REMARK SMILES IDX 7 13 8 14 9 15 13 16 11 17 10 18 12 20 4 22 21 24 18 26
REMARK H PARENT 10 19 12 21 4 23 21 25 18 27
REMARK Flexibility Score: inf
ROOT
ATOM      1  C   UNL     1     -35.881 -11.988  -9.547  1.00  0.00     0.180 A 
ATOM      2  C   UNL     1     -36.667 -11.878  -8.388  1.00  0.00     0.208 A 
ATOM      3  C   UNL     1     -36.501 -10.758  -7.556  1.00  0.00     0.238 A 
ATOM      4  O   UNL     1     -37.168 -10.692  -6.491  1.00  0.00    -0.285 OA
ATOM      5  C   UNL     1     -35.564  -9.755  -7.904  1.00  0.00     0.111 A 
ATOM      6  C   UNL     1     -35.342  -8.560  -7.156  1.00  0.00     0.134 A 
ATOM      7  C   UNL     1     -34.298  -7.700  -7.522  1.00  0.00     0.093 A 
ATOM      8  C   UNL     1     -33.512  -7.961  -8.646  1.00  0.00     0.123 A 
ATOM      9  C   UNL     1     -33.760  -9.094  -9.417  1.00  0.00     0.094 A 
ATOM     10  C   UNL     1     -34.770  -9.990  -9.056  1.00  0.00     0.146 A 
ATOM     11  O   UNL     1     -34.965 -11.063  -9.812  1.00  0.00    -0.452 OA
ENDROOT
BRANCH   1  12
ATOM     12  C   UNL     1     -36.016 -13.125 -10.486  1.00  0.00     0.025 A 
ATOM     13  C   UNL     1     -35.362 -14.345 -10.254  1.00  0.00     0.016 A 
ATOM     14  C   UNL     1     -35.524 -15.412 -11.141  1.00  0.00     0.051 A 
ATOM     15  C   UNL     1     -36.348 -15.289 -12.264  1.00  0.00     0.157 A 
ATOM     16  C   UNL     1     -36.862 -13.006 -11.600  1.00  0.00     0.062 A 
ATOM     17  C   UNL     1     -37.030 -14.070 -12.495  1.00  0.00     0.158 A 
BRANCH  15  18
ATOM     18  O   UNL     1     -36.463 -16.391 -13.114  1.00  0.00    -0.504 OA
ATOM     19  H   UNL     1     -35.932 -16.506 -13.965  1.00  0.00     0.293 HD
ENDBRANCH  15  18
BRANCH  17  20
ATOM     20  O   UNL     1     -37.875 -13.875 -13.589  1.00  0.00    -0.504 OA
ATOM     21  H   UNL     1     -37.696 -14.239 -14.513  1.00  0.00     0.293 HD
ENDBRANCH  17  20
ENDBRANCH   1  12
BRANCH   2  22
ATOM     22  O   UNL     1     -37.570 -12.890  -8.051  1.00  0.00    -0.502 OA
ATOM     23  H   UNL     1     -37.315 -13.670  -7.456  1.00  0.00     0.293 HD
ENDBRANCH   2  22
BRANCH   6  24
ATOM     24  O   UNL     1     -36.129  -8.160  -6.072  1.00  0.00    -0.507 OA
ATOM     25  H   UNL     1     -36.172  -7.220  -5.709  1.00  0.00     0.293 HD
ENDBRANCH   6  24
BRANCH   8  26
ATOM     26  O   UNL     1     -32.486  -7.092  -9.012  1.00  0.00    -0.508 OA
ATOM     27  H   UNL     1     -32.185  -7.004  -9.975  1.00  0.00     0.293 HD
ENDBRANCH   8  26
TORSDOF 6
ENDMDL
MODEL 9
REMARK VINA RESULT:    -6.290      2.879      4.456
REMARK INTER + INTRA:          -7.884
REMARK INTER:                  -7.599
REMARK INTRA:                  -0.285
REMARK UNBOUND:                -0.307
REMARK SMILES O=c1c(O)c(-c2ccc(O)c(O)c2)oc2cc(O)cc(O)c12
REMARK SMILES IDX 5 1 3 2 2 3 1 4 22 5 20 6 19 7 17 8 16 9 15 10 14 11 6 12
REMARK SMILES IDX 7 13 8 14 9 15 13 16 11 17 10 18 12 20 4 22 21 24 18 26
REMARK H PARENT 10 19 12 21 4 23 21 25 18 27
REMARK Flexibility Score: inf
ROOT
ATOM      1  C   UNL     1     -36.312 -16.202  -9.755  1.00  0.00     0.180 A 
ATOM      2  C   UNL     1     -35.100 -16.909  -9.687  1.00  0.00     0.208 A 
ATOM      3  C   UNL     1     -34.367 -17.117 -10.866  1.00  0.00     0.238 A 
ATOM      4  O   UNL     1     -33.309 -17.798 -10.808  1.00  0.00    -0.285 OA
ATOM      5  C   UNL     1     -34.846 -16.601 -12.094  1.00  0.00     0.111 A 
ATOM      6  C   UNL     1     -34.165 -16.719 -13.343  1.00  0.00     0.134 A 
ATOM      7  C   UNL     1     -34.794 -16.285 -14.517  1.00  0.00     0.093 A 
ATOM      8  C   UNL     1     -36.053 -15.680 -14.477  1.00  0.00     0.123 A 
ATOM      9  C   UNL     1     -36.699 -15.506 -13.256  1.00  0.00     0.094 A 
ATOM     10  C   UNL     1     -36.112 -15.963 -12.072  1.00  0.00     0.146 A 
ATOM     11  O   UNL     1     -36.768 -15.787 -10.931  1.00  0.00    -0.452 OA
ENDROOT
BRANCH   1  12
ATOM     12  C   UNL     1     -37.129 -15.920  -8.551  1.00  0.00     0.025 A 
ATOM     13  C   UNL     1     -37.130 -14.652  -7.949  1.00  0.00     0.016 A 
ATOM     14  C   UNL     1     -37.926 -14.405  -6.829  1.00  0.00     0.051 A 
ATOM     15  C   UNL     1     -38.744 -15.407  -6.297  1.00  0.00     0.157 A 
ATOM     16  C   UNL     1     -37.965 -16.922  -8.033  1.00  0.00     0.062 A 
ATOM     17  C   UNL     1     -38.767 -16.682  -6.910  1.00  0.00     0.158 A 
BRANCH  15  18
ATOM     18  O   UNL     1     -39.512 -15.096  -5.174  1.00  0.00    -0.504 OA
ATOM     19  H   UNL     1     -39.997 -14.219  -5.046  1.00  0.00     0.293 HD
ENDBRANCH  15  18
BRANCH  17  20
ATOM     20  O   UNL     1     -39.563 -17.729  -6.442  1.00  0.00    -0.504 OA
ATOM     21  H   UNL     1     -39.264 -18.693  -6.407  1.00  0.00     0.293 HD
ENDBRANCH  17  20
ENDBRANCH   1  12
BRANCH   2  22
ATOM     22  O   UNL     1     -34.656 -17.428  -8.468  1.00  0.00    -0.502 OA
ATOM     23  H   UNL     1     -35.109 -18.214  -8.014  1.00  0.00     0.293 HD
ENDBRANCH   2  22
BRANCH   6  24
ATOM     24  O   UNL     1     -32.868 -17.224 -13.481  1.00  0.00    -0.507 OA
ATOM     25  H   UNL     1     -32.047 -16.822 -13.055  1.00  0.00     0.293 HD
ENDBRANCH   6  24
BRANCH   8  26
ATOM     26  O   UNL     1     -36.665 -15.236 -15.647  1.00  0.00    -0.508 OA
ATOM     27  H   UNL     1     -36.177 -15.242 -16.535  1.00  0.00     0.293 HD
ENDBRANCH   8  26
TORSDOF 6
ENDMDL
