MODEL 1
REMARK VINA RESULT:    -5.166      0.000      0.000
REMARK INTER + INTRA:          -5.869
REMARK INTER:                  -5.620
REMARK INTRA:                  -0.249
REMARK UNBOUND:                -0.249
REMARK SMILES O=C([O-])c1ccccc1O
REMARK SMILES IDX 4 1 9 2 5 3 8 4 6 5 7 6 2 7 1 8 3 9 10 10
REMARK H PARENT 10 11
REMARK Flexibility Score: inf
ROOT
ATOM      1  C   UNL     1      -1.984   9.272  22.593  1.00  0.00     0.039 A 
ATOM      2  C   UNL     1      -2.174   8.657  21.327  1.00  0.00     0.124 A 
ATOM      3  C   UNL     1      -2.976  10.142  23.082  1.00  0.00     0.014 A 
ATOM      4  C   UNL     1      -3.365   8.876  20.623  1.00  0.00     0.047 A 
ATOM      5  C   UNL     1      -4.148  10.365  22.357  1.00  0.00     0.001 A 
ATOM      6  C   UNL     1      -4.348   9.725  21.134  1.00  0.00     0.004 A 
ENDROOT
BRANCH   1   7
ATOM      7  C   UNL     1      -0.798   9.014  23.440  1.00  0.00     0.075 C 
ATOM      8  O   UNL     1       0.354   8.942  22.936  1.00  0.00    -0.545 OA
ATOM      9  O   UNL     1      -0.955   8.780  24.801  1.00  0.00    -0.545 OA
ENDBRANCH   1   7
BRANCH   2  10
ATOM     10  O   UNL     1      -1.202   7.856  20.724  1.00  0.00    -0.507 OA
ATOM     11  H   UNL     1      -0.492   7.356  21.239  1.00  0.00     0.293 HD
ENDBRANCH   2  10
TORSDOF 2
ENDMDL
MODEL 2
REMARK VINA RESULT:    -4.722      2.008      2.675
REMARK INTER + INTRA:          -5.386
REMARK INTER:                  -5.145
REMARK INTRA:                  -0.241
REMARK UNBOUND:                -0.249
REMARK SMILES O=C([O-])c1ccccc1O
REMARK SMILES IDX 4 1 9 2 5 3 8 4 6 5 7 6 2 7 1 8 3 9 10 10
REMARK H PARENT 10 11
REMARK Flexibility Score: inf
ROOT
ATOM      1  C   UNL     1      -2.127   9.910  23.395  1.00  0.00     0.039 A 
ATOM      2  C   UNL     1      -2.785  11.036  22.834  1.00  0.00     0.124 A 
ATOM      3  C   UNL     1      -2.021   8.733  22.631  1.00  0.00     0.014 A 
ATOM      4  C   UNL     1      -3.257  10.976  21.516  1.00  0.00     0.047 A 
ATOM      5  C   UNL     1      -2.516   8.685  21.326  1.00  0.00     0.001 A 
ATOM      6  C   UNL     1      -3.124   9.807  20.765  1.00  0.00     0.004 A 
ENDROOT
BRANCH   1   7
ATOM      7  C   UNL     1      -1.516   9.928  24.743  1.00  0.00     0.075 C 
ATOM      8  O   UNL     1      -1.126  11.007  25.262  1.00  0.00    -0.545 OA
ATOM      9  O   UNL     1      -1.302   8.736  25.424  1.00  0.00    -0.545 OA
ENDBRANCH   1   7
BRANCH   2  10
ATOM     10  O   UNL     1      -3.019  12.210  23.553  1.00  0.00    -0.507 OA
ATOM     11  H   UNL     1      -2.431  12.526  24.311  1.00  0.00     0.293 HD
ENDBRANCH   2  10
TORSDOF 2
ENDMDL
MODEL 3
REMARK VINA RESULT:    -4.670      1.894      3.513
REMARK INTER + INTRA:          -5.329
REMARK INTER:                  -5.108
REMARK INTRA:                  -0.220
REMARK UNBOUND:                -0.249
REMARK SMILES O=C([O-])c1ccccc1O
REMARK SMILES IDX 4 1 9 2 5 3 8 4 6 5 7 6 2 7 1 8 3 9 10 10
REMARK H PARENT 10 11
REMARK Flexibility Score: inf
ROOT
ATOM      1  C   UNL     1      -2.895   9.289  22.335  1.00  0.00     0.039 A 
ATOM      2  C   UNL     1      -1.663   8.670  21.997  1.00  0.00     0.124 A 
ATOM      3  C   UNL     1      -3.025   9.902  23.595  1.00  0.00     0.014 A 
ATOM      4  C   UNL     1      -0.587   8.735  22.892  1.00  0.00     0.047 A 
ATOM      5  C   UNL     1      -1.948   9.939  24.483  1.00  0.00     0.001 A 
ATOM      6  C   UNL     1      -0.727   9.366  24.129  1.00  0.00     0.004 A 
ENDROOT
BRANCH   1   7
ATOM      7  C   UNL     1      -4.045   9.348  21.405  1.00  0.00     0.075 C 
ATOM      8  O   UNL     1      -5.000  10.142  21.608  1.00  0.00    -0.545 OA
ATOM      9  O   UNL     1      -4.113   8.472  20.328  1.00  0.00    -0.545 OA
ENDBRANCH   1   7
BRANCH   2  10
ATOM     10  O   UNL     1      -1.476   7.959  20.810  1.00  0.00    -0.507 OA
ATOM     11  H   UNL     1      -0.823   7.194  20.714  1.00  0.00     0.293 HD
ENDBRANCH   2  10
TORSDOF 2
ENDMDL
MODEL 4
REMARK VINA RESULT:    -4.454      1.622      2.449
REMARK INTER + INTRA:          -5.094
REMARK INTER:                  -4.844
REMARK INTRA:                  -0.250
REMARK UNBOUND:                -0.249
REMARK SMILES O=C([O-])c1ccccc1O
REMARK SMILES IDX 4 1 9 2 5 3 8 4 6 5 7 6 2 7 1 8 3 9 10 10
REMARK H PARENT 10 11
REMARK Flexibility Score: inf
ROOT
ATOM      1  C   UNL     1      -2.425  10.233  23.121  1.00  0.00     0.039 A 
ATOM      2  C   UNL     1      -1.534   9.162  22.851  1.00  0.00     0.124 A 
ATOM      3  C   UNL     1      -3.375  10.591  22.146  1.00  0.00     0.014 A 
ATOM      4  C   UNL     1      -1.657   8.445  21.653  1.00  0.00     0.047 A 
ATOM      5  C   UNL     1      -3.469   9.879  20.948  1.00  0.00     0.001 A 
ATOM      6  C   UNL     1      -2.618   8.801  20.706  1.00  0.00     0.004 A 
ENDROOT
BRANCH   1   7
ATOM      7  C   UNL     1      -2.424  10.975  24.402  1.00  0.00     0.075 C 
ATOM      8  O   UNL     1      -2.461  12.233  24.421  1.00  0.00    -0.545 OA
ATOM      9  O   UNL     1      -2.312  10.285  25.604  1.00  0.00    -0.545 OA
ENDBRANCH   1   7
BRANCH   2  10
ATOM     10  O   UNL     1      -0.503   8.801  23.719  1.00  0.00    -0.507 OA
ATOM     11  H   UNL     1       0.083   9.470  24.200  1.00  0.00     0.293 HD
ENDBRANCH   2  10
TORSDOF 2
ENDMDL
MODEL 5
REMARK VINA RESULT:    -4.437      8.156      9.156
REMARK INTER + INTRA:          -5.075
REMARK INTER:                  -4.861
REMARK INTRA:                  -0.214
REMARK UNBOUND:                -0.249
REMARK SMILES O=C([O-])c1ccccc1O
REMARK SMILES IDX 4 1 9 2 5 3 8 4 6 5 7 6 2 7 1 8 3 9 10 10
REMARK H PARENT 10 11
REMARK Flexibility Score: inf
ROOT
ATOM      1  C   UNL     1       3.354  15.778  23.924  1.00  0.00     0.039 A 
ATOM      2  C   UNL     1       1.994  16.177  24.008  1.00  0.00     0.124 A 
ATOM      3  C   UNL     1       4.330  16.749  23.629  1.00  0.00     0.014 A 
ATOM      4  C   UNL     1       1.659  17.529  23.861  1.00  0.00     0.047 A 
ATOM      5  C   UNL     1       3.975  18.090  23.465  1.00  0.00     0.001 A 
ATOM      6  C   UNL     1       2.643  18.481  23.590  1.00  0.00     0.004 A 
ENDROOT
BRANCH   1   7
ATOM      7  C   UNL     1       3.800  14.388  24.164  1.00  0.00     0.075 C 
ATOM      8  O   UNL     1       2.986  13.505  24.546  1.00  0.00    -0.545 OA
ATOM      9  O   UNL     1       5.143  14.056  24.034  1.00  0.00    -0.545 OA
ENDBRANCH   1   7
BRANCH   2  10
ATOM     10  O   UNL     1       0.952  15.268  24.201  1.00  0.00    -0.507 OA
ATOM     11  H   UNL     1       0.101  15.270  23.657  1.00  0.00     0.293 HD
ENDBRANCH   2  10
TORSDOF 2
ENDMDL
MODEL 6
REMARK VINA RESULT:    -4.383      6.662      7.916
REMARK INTER + INTRA:          -5.017
REMARK INTER:                  -4.779
REMARK INTRA:                  -0.238
REMARK UNBOUND:                -0.249
REMARK SMILES O=C([O-])c1ccccc1O
REMARK SMILES IDX 4 1 9 2 5 3 8 4 6 5 7 6 2 7 1 8 3 9 10 10
REMARK H PARENT 10 11
REMARK Flexibility Score: inf
ROOT
ATOM      1  C   UNL     1       1.982  14.414  25.129  1.00  0.00     0.039 A 
ATOM      2  C   UNL     1       3.327  14.116  24.787  1.00  0.00     0.124 A 
ATOM      3  C   UNL     1       1.439  15.652  24.738  1.00  0.00     0.014 A 
ATOM      4  C   UNL     1       4.064  15.027  24.019  1.00  0.00     0.047 A 
ATOM      5  C   UNL     1       2.195  16.557  23.989  1.00  0.00     0.001 A 
ATOM      6  C   UNL     1       3.502  16.242  23.622  1.00  0.00     0.004 A 
ENDROOT
BRANCH   1   7
ATOM      7  C   UNL     1       1.109  13.463  25.853  1.00  0.00     0.075 C 
ATOM      8  O   UNL     1       0.155  13.875  26.565  1.00  0.00    -0.545 OA
ATOM      9  O   UNL     1       1.378  12.100  25.808  1.00  0.00    -0.545 OA
ENDBRANCH   1   7
BRANCH   2  10
ATOM     10  O   UNL     1       3.975  12.956  25.214  1.00  0.00    -0.507 OA
ATOM     11  H   UNL     1       4.149  12.738  26.186  1.00  0.00     0.293 HD
ENDBRANCH   2  10
TORSDOF 2
ENDMDL
MODEL 7
REMARK VINA RESULT:    -4.308      1.328      2.465
REMARK INTER + INTRA:          -4.935
REMARK INTER:                  -4.702
REMARK INTRA:                  -0.233
REMARK UNBOUND:                -0.249
REMARK SMILES O=C([O-])c1ccccc1O
REMARK SMILES IDX 4 1 9 2 5 3 8 4 6 5 7 6 2 7 1 8 3 9 10 10
REMARK H PARENT 10 11
REMARK Flexibility Score: inf
ROOT
ATOM      1  C   UNL     1      -2.497   8.930  22.737  1.00  0.00     0.039 A 
ATOM      2  C   UNL     1      -3.765   8.799  23.363  1.00  0.00     0.124 A 
ATOM      3  C   UNL     1      -2.427   8.899  21.331  1.00  0.00     0.014 A 
ATOM      4  C   UNL     1      -4.920   8.707  22.576  1.00  0.00     0.047 A 
ATOM      5  C   UNL     1      -3.588   8.785  20.563  1.00  0.00     0.001 A 
ATOM      6  C   UNL     1      -4.833   8.699  21.183  1.00  0.00     0.004 A 
ENDROOT
BRANCH   1   7
ATOM      7  C   UNL     1      -1.243   9.130  23.496  1.00  0.00     0.075 C 
ATOM      8  O   UNL     1      -1.266   9.562  24.679  1.00  0.00    -0.545 OA
ATOM      9  O   UNL     1      -0.016   8.907  22.883  1.00  0.00    -0.545 OA
ENDBRANCH   1   7
BRANCH   2  10
ATOM     10  O   UNL     1      -3.917   8.725  24.749  1.00  0.00    -0.507 OA
ATOM     11  H   UNL     1      -4.456   8.008  25.214  1.00  0.00     0.293 HD
ENDBRANCH   2  10
TORSDOF 2
ENDMDL
MODEL 8
REMARK VINA RESULT:    -4.297      2.537      4.238
REMARK INTER + INTRA:          -4.923
REMARK INTER:                  -4.687
REMARK INTRA:                  -0.236
REMARK UNBOUND:                -0.249
REMARK SMILES O=C([O-])c1ccccc1O
REMARK SMILES IDX 4 1 9 2 5 3 8 4 6 5 7 6 2 7 1 8 3 9 10 10
REMARK H PARENT 10 11
REMARK Flexibility Score: inf
ROOT
ATOM      1  C   UNL     1      -2.475  10.278  22.910  1.00  0.00     0.039 A 
ATOM      2  C   UNL     1      -2.326  11.094  24.062  1.00  0.00     0.124 A 
ATOM      3  C   UNL     1      -1.983   8.960  22.941  1.00  0.00     0.014 A 
ATOM      4  C   UNL     1      -1.753  10.556  25.222  1.00  0.00     0.047 A 
ATOM      5  C   UNL     1      -1.395   8.447  24.099  1.00  0.00     0.001 A 
ATOM      6  C   UNL     1      -1.289   9.239  25.242  1.00  0.00     0.004 A 
ENDROOT
BRANCH   1   7
ATOM      7  C   UNL     1      -3.157  10.743  21.681  1.00  0.00     0.075 C 
ATOM      8  O   UNL     1      -3.177  11.964  21.375  1.00  0.00    -0.545 OA
ATOM      9  O   UNL     1      -3.846   9.836  20.884  1.00  0.00    -0.545 OA
ENDBRANCH   1   7
BRANCH   2  10
ATOM     10  O   UNL     1      -2.699  12.439  24.088  1.00  0.00    -0.507 OA
ATOM     11  H   UNL     1      -3.248  12.852  24.829  1.00  0.00     0.293 HD
ENDBRANCH   2  10
TORSDOF 2
ENDMDL
MODEL 9
REMARK VINA RESULT:    -4.277      8.523      9.481
REMARK INTER + INTRA:          -4.901
REMARK INTER:                  -4.660
REMARK INTRA:                  -0.241
REMARK UNBOUND:                -0.249
REMARK SMILES O=C([O-])c1ccccc1O
REMARK SMILES IDX 4 1 9 2 5 3 8 4 6 5 7 6 2 7 1 8 3 9 10 10
REMARK H PARENT 10 11
REMARK Flexibility Score: inf
ROOT
ATOM      1  C   UNL     1       2.686  16.300  24.032  1.00  0.00     0.039 A 
ATOM      2  C   UNL     1       4.005  16.755  23.770  1.00  0.00     0.124 A 
ATOM      3  C   UNL     1       1.625  17.224  23.980  1.00  0.00     0.014 A 
ATOM      4  C   UNL     1       4.217  18.091  23.406  1.00  0.00     0.047 A 
ATOM      5  C   UNL     1       1.858  18.557  23.636  1.00  0.00     0.001 A 
ATOM      6  C   UNL     1       3.150  18.989  23.339  1.00  0.00     0.004 A 
ENDROOT
BRANCH   1   7
ATOM      7  C   UNL     1       2.369  14.885  24.327  1.00  0.00     0.075 C 
ATOM      8  O   UNL     1       1.378  14.580  25.041  1.00  0.00    -0.545 OA
ATOM      9  O   UNL     1       3.208  13.875  23.870  1.00  0.00    -0.545 OA
ENDBRANCH   1   7
BRANCH   2  10
ATOM     10  O   UNL     1       5.126  15.930  23.891  1.00  0.00    -0.507 OA
ATOM     11  H   UNL     1       5.618  15.782  24.761  1.00  0.00     0.293 HD
ENDBRANCH   2  10
TORSDOF 2
ENDMDL
