MODEL 1
REMARK VINA RESULT:    -4.913      0.000      0.000
REMARK INTER + INTRA:          -6.255
REMARK INTER:                  -5.918
REMARK INTRA:                  -0.337
REMARK UNBOUND:                -0.337
REMARK SMILES CCCCc1oc(O)c2ccccc12
REMARK SMILES IDX 4 1 5 2 7 3 6 4 9 5 14 6 10 7 13 8 11 9 12 10 8 11 3 13 2 14
REMARK SMILES IDX 1 15
REMARK H PARENT 8 12
REMARK Flexibility Score: inf
ROOT
ATOM      1  C   UNL     1      77.967  24.895  11.156  1.00  0.00     0.076 C 
ENDROOT
BRANCH   1   2
ATOM      2  C   UNL     1      77.080  25.150   9.977  1.00  0.00     0.116 A 
ATOM      3  C   UNL     1      76.153  24.885   8.062  1.00  0.00     0.290 A 
ATOM      4  O   UNL     1      77.004  24.357   8.922  1.00  0.00    -0.430 OA
ATOM      5  C   UNL     1      75.656  26.065   8.563  1.00  0.00     0.066 A 
ATOM      6  C   UNL     1      76.247  26.239   9.785  1.00  0.00     0.027 A 
ATOM      7  C   UNL     1      74.749  26.986   8.042  1.00  0.00     0.016 A 
ATOM      8  C   UNL     1      75.975  27.354  10.578  1.00  0.00     0.012 A 
ATOM      9  C   UNL     1      74.452  28.121   8.820  1.00  0.00     0.001 A 
ATOM     10  C   UNL     1      75.063  28.304  10.081  1.00  0.00     0.001 A 
BRANCH   3  11
ATOM     11  O   UNL     1      75.824  24.319   6.835  1.00  0.00    -0.480 OA
ATOM     12  H   UNL     1      75.927  23.323   6.686  1.00  0.00     0.297 HD
ENDBRANCH   3  11
ENDBRANCH   1   2
BRANCH   1  13
ATOM     13  C   UNL     1      79.411  25.292  10.837  1.00  0.00     0.008 C 
BRANCH  13  14
ATOM     14  C   UNL     1      80.273  24.055  10.565  1.00  0.00    -0.003 C 
ATOM     15  C   UNL     1      80.598  23.924   9.081  1.00  0.00     0.004 C 
ENDBRANCH  13  14
ENDBRANCH   1  13
TORSDOF 4
ENDMDL
MODEL 2
REMARK VINA RESULT:    -4.912      1.672      1.974
REMARK INTER + INTRA:          -6.254
REMARK INTER:                  -6.057
REMARK INTRA:                  -0.197
REMARK UNBOUND:                -0.337
REMARK SMILES CCCCc1oc(O)c2ccccc12
REMARK SMILES IDX 4 1 5 2 7 3 6 4 9 5 14 6 10 7 13 8 11 9 12 10 8 11 3 13 2 14
REMARK SMILES IDX 1 15
REMARK H PARENT 8 12
REMARK Flexibility Score: inf
ROOT
ATOM      1  C   UNL     1      77.872  24.639   8.871  1.00  0.00     0.076 C 
ENDROOT
BRANCH   1   2
ATOM      2  C   UNL     1      76.457  25.112   8.993  1.00  0.00     0.116 A 
ATOM      3  C   UNL     1      74.353  25.080   9.404  1.00  0.00     0.290 A 
ATOM      4  O   UNL     1      75.465  24.371   9.456  1.00  0.00    -0.430 OA
ATOM      5  C   UNL     1      74.619  26.326   8.887  1.00  0.00     0.066 A 
ATOM      6  C   UNL     1      75.961  26.350   8.620  1.00  0.00     0.027 A 
ATOM      7  C   UNL     1      73.793  27.419   8.628  1.00  0.00     0.016 A 
ATOM      8  C   UNL     1      76.578  27.473   8.070  1.00  0.00     0.012 A 
ATOM      9  C   UNL     1      74.388  28.568   8.074  1.00  0.00     0.001 A 
ATOM     10  C   UNL     1      75.773  28.595   7.796  1.00  0.00     0.001 A 
BRANCH   3  11
ATOM     11  O   UNL     1      73.107  24.617   9.813  1.00  0.00    -0.480 OA
ATOM     12  H   UNL     1      72.906  24.488  10.797  1.00  0.00     0.297 HD
ENDBRANCH   3  11
ENDBRANCH   1   2
BRANCH   1  13
ATOM     13  C   UNL     1      78.264  23.800  10.091  1.00  0.00     0.008 C 
BRANCH  13  14
ATOM     14  C   UNL     1      79.518  22.967   9.806  1.00  0.00    -0.003 C 
ATOM     15  C   UNL     1      80.608  23.815   9.158  1.00  0.00     0.004 C 
ENDBRANCH  13  14
ENDBRANCH   1  13
TORSDOF 4
ENDMDL
MODEL 3
REMARK VINA RESULT:    -4.856      1.596      4.593
REMARK INTER + INTRA:          -6.187
REMARK INTER:                  -5.739
REMARK INTRA:                  -0.448
REMARK UNBOUND:                -0.337
REMARK SMILES CCCCc1oc(O)c2ccccc12
REMARK SMILES IDX 4 1 5 2 7 3 6 4 9 5 14 6 10 7 13 8 11 9 12 10 8 11 3 13 2 14
REMARK SMILES IDX 1 15
REMARK H PARENT 8 12
REMARK Flexibility Score: inf
ROOT
ATOM      1  C   UNL     1      74.445  28.154   9.191  1.00  0.00     0.076 C 
ENDROOT
BRANCH   1   2
ATOM      2  C   UNL     1      75.216  26.928   8.811  1.00  0.00     0.116 A 
ATOM      3  C   UNL     1      75.834  25.206   7.694  1.00  0.00     0.290 A 
ATOM      4  O   UNL     1      75.006  26.234   7.706  1.00  0.00    -0.430 OA
ATOM      5  C   UNL     1      76.610  25.219   8.829  1.00  0.00     0.066 A 
ATOM      6  C   UNL     1      76.217  26.316   9.547  1.00  0.00     0.027 A 
ATOM      7  C   UNL     1      77.611  24.360   9.279  1.00  0.00     0.016 A 
ATOM      8  C   UNL     1      76.796  26.634  10.775  1.00  0.00     0.012 A 
ATOM      9  C   UNL     1      78.216  24.656  10.515  1.00  0.00     0.001 A 
ATOM     10  C   UNL     1      77.810  25.787  11.259  1.00  0.00     0.001 A 
BRANCH   3  11
ATOM     11  O   UNL     1      75.894  24.258   6.678  1.00  0.00    -0.480 OA
ATOM     12  H   UNL     1      76.689  23.636   6.604  1.00  0.00     0.297 HD
ENDBRANCH   3  11
ENDBRANCH   1   2
BRANCH   1  13
ATOM     13  C   UNL     1      73.027  27.781   9.632  1.00  0.00     0.008 C 
BRANCH  13  14
ATOM     14  C   UNL     1      73.046  27.030  10.968  1.00  0.00    -0.003 C 
ATOM     15  C   UNL     1      72.189  25.771  10.905  1.00  0.00     0.004 C 
ENDBRANCH  13  14
ENDBRANCH   1  13
TORSDOF 4
ENDMDL
MODEL 4
REMARK VINA RESULT:    -4.851      2.106      4.836
REMARK INTER + INTRA:          -6.181
REMARK INTER:                  -5.923
REMARK INTRA:                  -0.258
REMARK UNBOUND:                -0.337
REMARK SMILES CCCCc1oc(O)c2ccccc12
REMARK SMILES IDX 4 1 5 2 7 3 6 4 9 5 14 6 10 7 13 8 11 9 12 10 8 11 3 13 2 14
REMARK SMILES IDX 1 15
REMARK H PARENT 8 12
REMARK Flexibility Score: inf
ROOT
ATOM      1  C   UNL     1      74.076  26.877  10.582  1.00  0.00     0.076 C 
ENDROOT
BRANCH   1   2
ATOM      2  C   UNL     1      75.053  26.176   9.689  1.00  0.00     0.116 A 
ATOM      3  C   UNL     1      75.820  25.085   8.011  1.00  0.00     0.290 A 
ATOM      4  O   UNL     1      74.738  25.642   8.521  1.00  0.00    -0.430 OA
ATOM      5  C   UNL     1      76.880  25.252   8.870  1.00  0.00     0.066 A 
ATOM      6  C   UNL     1      76.394  25.946   9.945  1.00  0.00     0.027 A 
ATOM      7  C   UNL     1      78.211  24.845   8.793  1.00  0.00     0.016 A 
ATOM      8  C   UNL     1      77.206  26.285  11.027  1.00  0.00     0.012 A 
ATOM      9  C   UNL     1      79.057  25.175   9.869  1.00  0.00     0.001 A 
ATOM     10  C   UNL     1      78.557  25.890  10.980  1.00  0.00     0.001 A 
BRANCH   3  11
ATOM     11  O   UNL     1      75.861  24.427   6.786  1.00  0.00    -0.480 OA
ATOM     12  H   UNL     1      76.654  24.543   6.169  1.00  0.00     0.297 HD
ENDBRANCH   3  11
ENDBRANCH   1   2
BRANCH   1  13
ATOM     13  C   UNL     1      72.899  25.956  10.917  1.00  0.00     0.008 C 
BRANCH  13  14
ATOM     14  C   UNL     1      71.566  26.607  10.533  1.00  0.00    -0.003 C 
ATOM     15  C   UNL     1      70.875  25.830   9.417  1.00  0.00     0.004 C 
ENDBRANCH  13  14
ENDBRANCH   1  13
TORSDOF 4
ENDMDL
MODEL 5
REMARK VINA RESULT:    -4.671      1.495      4.589
REMARK INTER + INTRA:          -5.964
REMARK INTER:                  -5.439
REMARK INTRA:                  -0.525
REMARK UNBOUND:                -0.337
REMARK SMILES CCCCc1oc(O)c2ccccc12
REMARK SMILES IDX 4 1 5 2 7 3 6 4 9 5 14 6 10 7 13 8 11 9 12 10 8 11 3 13 2 14
REMARK SMILES IDX 1 15
REMARK H PARENT 8 12
REMARK Flexibility Score: inf
ROOT
ATOM      1  C   UNL     1      75.703  26.170   7.687  1.00  0.00     0.076 C 
ENDROOT
BRANCH   1   2
ATOM      2  C   UNL     1      76.534  25.467   8.716  1.00  0.00     0.116 A 
ATOM      3  C   UNL     1      77.169  23.961  10.102  1.00  0.00     0.290 A 
ATOM      4  O   UNL     1      76.253  24.271   9.204  1.00  0.00    -0.430 OA
ATOM      5  C   UNL     1      78.078  24.986  10.214  1.00  0.00     0.066 A 
ATOM      6  C   UNL     1      77.675  25.951   9.332  1.00  0.00     0.027 A 
ATOM      7  C   UNL     1      79.207  25.142  11.017  1.00  0.00     0.016 A 
ATOM      8  C   UNL     1      78.373  27.151   9.189  1.00  0.00     0.012 A 
ATOM      9  C   UNL     1      79.933  26.341  10.894  1.00  0.00     0.001 A 
ATOM     10  C   UNL     1      79.518  27.341   9.986  1.00  0.00     0.001 A 
BRANCH   3  11
ATOM     11  O   UNL     1      77.190  22.771  10.822  1.00  0.00    -0.480 OA
ATOM     12  H   UNL     1      77.241  22.785  11.832  1.00  0.00     0.297 HD
ENDBRANCH   3  11
ENDBRANCH   1   2
BRANCH   1  13
ATOM     13  C   UNL     1      74.545  26.920   8.354  1.00  0.00     0.008 C 
BRANCH  13  14
ATOM     14  C   UNL     1      74.860  28.414   8.483  1.00  0.00    -0.003 C 
ATOM     15  C   UNL     1      75.708  28.902   7.313  1.00  0.00     0.004 C 
ENDBRANCH  13  14
ENDBRANCH   1  13
TORSDOF 4
ENDMDL
MODEL 6
REMARK VINA RESULT:    -4.580      2.996      5.222
REMARK INTER + INTRA:          -5.854
REMARK INTER:                  -5.454
REMARK INTRA:                  -0.400
REMARK UNBOUND:                -0.337
REMARK SMILES CCCCc1oc(O)c2ccccc12
REMARK SMILES IDX 4 1 5 2 7 3 6 4 9 5 14 6 10 7 13 8 11 9 12 10 8 11 3 13 2 14
REMARK SMILES IDX 1 15
REMARK H PARENT 8 12
REMARK Flexibility Score: inf
ROOT
ATOM      1  C   UNL     1      72.365  26.769  10.588  1.00  0.00     0.076 C 
ENDROOT
BRANCH   1   2
ATOM      2  C   UNL     1      73.504  26.338   9.717  1.00  0.00     0.116 A 
ATOM      3  C   UNL     1      74.929  25.057   8.755  1.00  0.00     0.290 A 
ATOM      4  O   UNL     1      73.886  25.082   9.564  1.00  0.00    -0.430 OA
ATOM      5  C   UNL     1      75.248  26.337   8.367  1.00  0.00     0.066 A 
ATOM      6  C   UNL     1      74.341  27.158   8.981  1.00  0.00     0.027 A 
ATOM      7  C   UNL     1      76.254  26.832   7.539  1.00  0.00     0.016 A 
ATOM      8  C   UNL     1      74.377  28.543   8.813  1.00  0.00     0.012 A 
ATOM      9  C   UNL     1      76.314  28.225   7.349  1.00  0.00     0.001 A 
ATOM     10  C   UNL     1      75.381  29.076   7.983  1.00  0.00     0.001 A 
BRANCH   3  11
ATOM     11  O   UNL     1      75.595  23.899   8.369  1.00  0.00    -0.480 OA
ATOM     12  H   UNL     1      76.119  23.360   9.046  1.00  0.00     0.297 HD
ENDBRANCH   3  11
ENDBRANCH   1   2
BRANCH   1  13
ATOM     13  C   UNL     1      71.026  26.432   9.924  1.00  0.00     0.008 C 
BRANCH  13  14
ATOM     14  C   UNL     1      70.882  27.155   8.581  1.00  0.00    -0.003 C 
ATOM     15  C   UNL     1      70.878  28.668   8.766  1.00  0.00     0.004 C 
ENDBRANCH  13  14
ENDBRANCH   1  13
TORSDOF 4
ENDMDL
MODEL 7
REMARK VINA RESULT:    -4.535      2.253      2.892
REMARK INTER + INTRA:          -5.800
REMARK INTER:                  -5.559
REMARK INTRA:                  -0.240
REMARK UNBOUND:                -0.337
REMARK SMILES CCCCc1oc(O)c2ccccc12
REMARK SMILES IDX 4 1 5 2 7 3 6 4 9 5 14 6 10 7 13 8 11 9 12 10 8 11 3 13 2 14
REMARK SMILES IDX 1 15
REMARK H PARENT 8 12
REMARK Flexibility Score: inf
ROOT
ATOM      1  C   UNL     1      76.410  24.600   8.922  1.00  0.00     0.076 C 
ENDROOT
BRANCH   1   2
ATOM      2  C   UNL     1      75.607  25.831   8.634  1.00  0.00     0.116 A 
ATOM      3  C   UNL     1      75.121  27.797   7.930  1.00  0.00     0.290 A 
ATOM      4  O   UNL     1      76.075  26.887   7.989  1.00  0.00    -0.430 OA
ATOM      5  C   UNL     1      73.991  27.330   8.560  1.00  0.00     0.066 A 
ATOM      6  C   UNL     1      74.299  26.075   9.013  1.00  0.00     0.027 A 
ATOM      7  C   UNL     1      72.740  27.907   8.771  1.00  0.00     0.016 A 
ATOM      8  C   UNL     1      73.374  25.304   9.716  1.00  0.00     0.012 A 
ATOM      9  C   UNL     1      71.784  27.151   9.475  1.00  0.00     0.001 A 
ATOM     10  C   UNL     1      72.100  25.857   9.946  1.00  0.00     0.001 A 
BRANCH   3  11
ATOM     11  O   UNL     1      75.259  29.040   7.322  1.00  0.00    -0.480 OA
ATOM     12  H   UNL     1      75.406  29.107   6.323  1.00  0.00     0.297 HD
ENDBRANCH   3  11
ENDBRANCH   1   2
BRANCH   1  13
ATOM     13  C   UNL     1      77.275  24.804  10.170  1.00  0.00     0.008 C 
BRANCH  13  14
ATOM     14  C   UNL     1      77.811  23.467  10.691  1.00  0.00    -0.003 C 
ATOM     15  C   UNL     1      79.113  23.086   9.995  1.00  0.00     0.004 C 
ENDBRANCH  13  14
ENDBRANCH   1  13
TORSDOF 4
ENDMDL
MODEL 8
REMARK VINA RESULT:    -4.495      2.078      5.118
REMARK INTER + INTRA:          -5.751
REMARK INTER:                  -5.205
REMARK INTRA:                  -0.546
REMARK UNBOUND:                -0.337
REMARK SMILES CCCCc1oc(O)c2ccccc12
REMARK SMILES IDX 4 1 5 2 7 3 6 4 9 5 14 6 10 7 13 8 11 9 12 10 8 11 3 13 2 14
REMARK SMILES IDX 1 15
REMARK H PARENT 8 12
REMARK Flexibility Score: inf
ROOT
ATOM      1  C   UNL     1      76.433  26.812  10.595  1.00  0.00     0.076 C 
ENDROOT
BRANCH   1   2
ATOM      2  C   UNL     1      77.878  26.437  10.477  1.00  0.00     0.116 A 
ATOM      3  C   UNL     1      80.002  26.650  10.275  1.00  0.00     0.290 A 
ATOM      4  O   UNL     1      78.866  27.311  10.394  1.00  0.00    -0.430 OA
ATOM      5  C   UNL     1      79.755  25.297  10.274  1.00  0.00     0.066 A 
ATOM      6  C   UNL     1      78.400  25.157  10.401  1.00  0.00     0.027 A 
ATOM      7  C   UNL     1      80.607  24.199  10.166  1.00  0.00     0.016 A 
ATOM      8  C   UNL     1      77.793  23.901  10.426  1.00  0.00     0.012 A 
ATOM      9  C   UNL     1      80.023  22.918  10.191  1.00  0.00     0.001 A 
ATOM     10  C   UNL     1      78.624  22.770  10.319  1.00  0.00     0.001 A 
BRANCH   3  11
ATOM     11  O   UNL     1      81.251  27.250  10.163  1.00  0.00    -0.480 OA
ATOM     12  H   UNL     1      81.841  27.361  10.979  1.00  0.00     0.297 HD
ENDBRANCH   3  11
ENDBRANCH   1   2
BRANCH   1  13
ATOM     13  C   UNL     1      75.822  27.038   9.209  1.00  0.00     0.008 C 
BRANCH  13  14
ATOM     14  C   UNL     1      74.998  25.824   8.767  1.00  0.00    -0.003 C 
ATOM     15  C   UNL     1      75.714  25.041   7.671  1.00  0.00     0.004 C 
ENDBRANCH  13  14
ENDBRANCH   1  13
TORSDOF 4
ENDMDL
MODEL 9
REMARK VINA RESULT:    -4.481      2.180      2.800
REMARK INTER + INTRA:          -5.735
REMARK INTER:                  -5.223
REMARK INTRA:                  -0.512
REMARK UNBOUND:                -0.337
REMARK SMILES CCCCc1oc(O)c2ccccc12
REMARK SMILES IDX 4 1 5 2 7 3 6 4 9 5 14 6 10 7 13 8 11 9 12 10 8 11 3 13 2 14
REMARK SMILES IDX 1 15
REMARK H PARENT 8 12
REMARK Flexibility Score: inf
ROOT
ATOM      1  C   UNL     1      78.408  27.307  11.786  1.00  0.00     0.076 C 
ENDROOT
BRANCH   1   2
ATOM      2  C   UNL     1      77.783  26.152  11.066  1.00  0.00     0.116 A 
ATOM      3  C   UNL     1      77.247  24.132  10.586  1.00  0.00     0.290 A 
ATOM      4  O   UNL     1      77.892  24.892  11.451  1.00  0.00    -0.430 OA
ATOM      5  C   UNL     1      76.700  24.915   9.596  1.00  0.00     0.066 A 
ATOM      6  C   UNL     1      77.042  26.205   9.898  1.00  0.00     0.027 A 
ATOM      7  C   UNL     1      75.947  24.593   8.468  1.00  0.00     0.016 A 
ATOM      8  C   UNL     1      76.656  27.274   9.088  1.00  0.00     0.012 A 
ATOM      9  C   UNL     1      75.540  25.651   7.633  1.00  0.00     0.001 A 
ATOM     10  C   UNL     1      75.894  26.984   7.941  1.00  0.00     0.001 A 
BRANCH   3  11
ATOM     11  O   UNL     1      77.150  22.748  10.676  1.00  0.00    -0.480 OA
ATOM     12  H   UNL     1      76.315  22.271  10.359  1.00  0.00     0.297 HD
ENDBRANCH   3  11
ENDBRANCH   1   2
BRANCH   1  13
ATOM     13  C   UNL     1      79.919  27.096  11.926  1.00  0.00     0.008 C 
BRANCH  13  14
ATOM     14  C   UNL     1      80.614  27.176  10.562  1.00  0.00    -0.003 C 
ATOM     15  C   UNL     1      80.317  28.501   9.869  1.00  0.00     0.004 C 
ENDBRANCH  13  14
ENDBRANCH   1  13
TORSDOF 4
ENDMDL
