MODEL 1
REMARK VINA RESULT:    -5.549      0.000      0.000
REMARK INTER + INTRA:          -8.500
REMARK INTER:                  -7.495
REMARK INTRA:                  -1.004
REMARK UNBOUND:                -1.004
REMARK SMILES C=C[C@](C)(CCC=C(C)C)OC(C)=O
REMARK SMILES IDX 3 1 4 2 5 3 6 4 7 5 9 6 8 7 10 8 2 9 1 10 11 11 12 12 14 13
REMARK SMILES IDX 13 14
REMARK H PARENT
REMARK Flexibility Score: inf
ROOT
ATOM      1  C   UNL     1       3.328  29.550  69.498  1.00  0.00     0.127 C 
ATOM      2  C   UNL     1       4.613  30.182  70.074  1.00  0.00     0.061 C 
ENDROOT
BRANCH   1   3
ATOM      3  C   UNL     1       3.463  29.458  67.956  1.00  0.00     0.057 C 
BRANCH   3   4
ATOM      4  C   UNL     1       4.255  30.629  67.349  1.00  0.00     0.032 C 
BRANCH   4   5
ATOM      5  C   UNL     1       3.328  31.596  66.655  1.00  0.00    -0.028 C 
ATOM      6  C   UNL     1       2.076  33.684  66.319  1.00  0.00     0.039 C 
ATOM      7  C   UNL     1       3.058  32.844  67.097  1.00  0.00    -0.080 C 
ATOM      8  C   UNL     1       3.720  33.419  68.326  1.00  0.00     0.039 C 
ENDBRANCH   4   5
ENDBRANCH   3   4
ENDBRANCH   1   3
BRANCH   1   9
ATOM      9  C   UNL     1       2.105  30.375  69.878  1.00  0.00     0.013 C 
ATOM     10  C   UNL     1       0.918  30.240  69.275  1.00  0.00     0.008 C 
ENDBRANCH   1   9
BRANCH   1  11
ATOM     11  O   UNL     1       3.195  28.211  70.001  1.00  0.00    -0.455 OA
BRANCH  11  12
ATOM     12  C   UNL     1       3.817  27.701  71.150  1.00  0.00     0.303 C 
ATOM     13  O   UNL     1       4.929  27.111  71.085  1.00  0.00    -0.253 OA
ATOM     14  C   UNL     1       3.177  27.913  72.480  1.00  0.00     0.139 C 
ENDBRANCH  11  12
ENDBRANCH   1  11
TORSDOF 6
ENDMDL
MODEL 2
REMARK VINA RESULT:    -5.356      1.312      1.507
REMARK INTER + INTRA:          -8.238
REMARK INTER:                  -7.309
REMARK INTRA:                  -0.930
REMARK UNBOUND:                -1.004
REMARK SMILES C=C[C@](C)(CCC=C(C)C)OC(C)=O
REMARK SMILES IDX 3 1 4 2 5 3 6 4 7 5 9 6 8 7 10 8 2 9 1 10 11 11 12 12 14 13
REMARK SMILES IDX 13 14
REMARK H PARENT
REMARK Flexibility Score: inf
ROOT
ATOM      1  C   UNL     1       3.292  29.856  69.843  1.00  0.00     0.127 C 
ATOM      2  C   UNL     1       3.244  31.232  70.543  1.00  0.00     0.061 C 
ENDROOT
BRANCH   1   3
ATOM      3  C   UNL     1       4.178  29.971  68.575  1.00  0.00     0.057 C 
BRANCH   3   4
ATOM      4  C   UNL     1       4.289  31.411  68.045  1.00  0.00     0.032 C 
BRANCH   4   5
ATOM      5  C   UNL     1       3.404  31.604  66.839  1.00  0.00    -0.028 C 
ATOM      6  C   UNL     1       1.594  32.583  65.495  1.00  0.00     0.039 C 
ATOM      7  C   UNL     1       2.428  32.535  66.750  1.00  0.00    -0.080 C 
ATOM      8  C   UNL     1       2.165  33.528  67.858  1.00  0.00     0.039 C 
ENDBRANCH   4   5
ENDBRANCH   3   4
ENDBRANCH   1   3
BRANCH   1   9
ATOM      9  C   UNL     1       1.890  29.390  69.474  1.00  0.00     0.013 C 
ATOM     10  C   UNL     1       0.863  30.231  69.299  1.00  0.00     0.008 C 
ENDBRANCH   1   9
BRANCH   1  11
ATOM     11  O   UNL     1       3.914  28.903  70.720  1.00  0.00    -0.455 OA
BRANCH  11  12
ATOM     12  C   UNL     1       5.220  28.408  70.600  1.00  0.00     0.303 C 
ATOM     13  O   UNL     1       5.450  27.298  70.047  1.00  0.00    -0.253 OA
ATOM     14  C   UNL     1       6.361  29.236  71.083  1.00  0.00     0.139 C 
ENDBRANCH  11  12
ENDBRANCH   1  11
TORSDOF 6
ENDMDL
MODEL 3
REMARK VINA RESULT:    -5.317      1.619      2.497
REMARK INTER + INTRA:          -8.187
REMARK INTER:                  -7.118
REMARK INTRA:                  -1.069
REMARK UNBOUND:                -1.004
REMARK SMILES C=C[C@](C)(CCC=C(C)C)OC(C)=O
REMARK SMILES IDX 3 1 4 2 5 3 6 4 7 5 9 6 8 7 10 8 2 9 1 10 11 11 12 12 14 13
REMARK SMILES IDX 13 14
REMARK H PARENT
REMARK Flexibility Score: inf
ROOT
ATOM      1  C   UNL     1       2.904  30.088  69.607  1.00  0.00     0.127 C 
ATOM      2  C   UNL     1       3.574  29.665  68.281  1.00  0.00     0.061 C 
ENDROOT
BRANCH   1   3
ATOM      3  C   UNL     1       1.371  29.907  69.472  1.00  0.00     0.057 C 
BRANCH   3   4
ATOM      4  C   UNL     1       0.867  30.076  68.028  1.00  0.00     0.032 C 
BRANCH   4   5
ATOM      5  C   UNL     1       0.278  31.450  67.826  1.00  0.00    -0.028 C 
ATOM      6  C   UNL     1       0.069  33.703  66.867  1.00  0.00     0.039 C 
ATOM      7  C   UNL     1       0.733  32.351  66.927  1.00  0.00    -0.080 C 
ATOM      8  C   UNL     1       1.865  32.034  65.979  1.00  0.00     0.039 C 
ENDBRANCH   4   5
ENDBRANCH   3   4
ENDBRANCH   1   3
BRANCH   1   9
ATOM      9  C   UNL     1       3.244  31.533  69.945  1.00  0.00     0.013 C 
ATOM     10  C   UNL     1       3.876  32.353  69.095  1.00  0.00     0.008 C 
ENDBRANCH   1   9
BRANCH   1  11
ATOM     11  O   UNL     1       3.352  29.217  70.659  1.00  0.00    -0.455 OA
BRANCH  11  12
ATOM     12  C   UNL     1       4.449  29.447  71.502  1.00  0.00     0.303 C 
ATOM     13  O   UNL     1       5.630  29.403  71.064  1.00  0.00    -0.253 OA
ATOM     14  C   UNL     1       4.209  29.806  72.928  1.00  0.00     0.139 C 
ENDBRANCH  11  12
ENDBRANCH   1  11
TORSDOF 6
ENDMDL
MODEL 4
REMARK VINA RESULT:    -5.235      1.494      1.972
REMARK INTER + INTRA:          -8.075
REMARK INTER:                  -7.046
REMARK INTRA:                  -1.029
REMARK UNBOUND:                -1.004
REMARK SMILES C=C[C@](C)(CCC=C(C)C)OC(C)=O
REMARK SMILES IDX 3 1 4 2 5 3 6 4 7 5 9 6 8 7 10 8 2 9 1 10 11 11 12 12 14 13
REMARK SMILES IDX 13 14
REMARK H PARENT
REMARK Flexibility Score: inf
ROOT
ATOM      1  C   UNL     1       3.483  30.038  69.259  1.00  0.00     0.127 C 
ATOM      2  C   UNL     1       3.276  31.185  70.272  1.00  0.00     0.061 C 
ENDROOT
BRANCH   1   3
ATOM      3  C   UNL     1       4.199  30.601  68.005  1.00  0.00     0.057 C 
BRANCH   3   4
ATOM      4  C   UNL     1       3.936  32.100  67.781  1.00  0.00     0.032 C 
BRANCH   4   5
ATOM      5  C   UNL     1       3.101  32.316  66.544  1.00  0.00    -0.028 C 
ATOM      6  C   UNL     1       1.072  32.783  65.237  1.00  0.00     0.039 C 
ATOM      7  C   UNL     1       1.789  32.639  66.556  1.00  0.00    -0.080 C 
ATOM      8  C   UNL     1       1.034  32.874  67.843  1.00  0.00     0.039 C 
ENDBRANCH   4   5
ENDBRANCH   3   4
ENDBRANCH   1   3
BRANCH   1   9
ATOM      9  C   UNL     1       2.149  29.411  68.875  1.00  0.00     0.013 C 
ATOM     10  C   UNL     1       1.865  29.004  67.632  1.00  0.00     0.008 C 
ENDBRANCH   1   9
BRANCH   1  11
ATOM     11  O   UNL     1       4.345  29.046  69.840  1.00  0.00    -0.455 OA
BRANCH  11  12
ATOM     12  C   UNL     1       5.084  29.193  71.023  1.00  0.00     0.303 C 
ATOM     13  O   UNL     1       4.599  28.870  72.141  1.00  0.00    -0.253 OA
ATOM     14  C   UNL     1       6.488  29.685  70.948  1.00  0.00     0.139 C 
ENDBRANCH  11  12
ENDBRANCH   1  11
TORSDOF 6
ENDMDL
MODEL 5
REMARK VINA RESULT:    -5.219      2.217      5.710
REMARK INTER + INTRA:          -8.054
REMARK INTER:                  -7.197
REMARK INTRA:                  -0.857
REMARK UNBOUND:                -1.004
REMARK SMILES C=C[C@](C)(CCC=C(C)C)OC(C)=O
REMARK SMILES IDX 3 1 4 2 5 3 6 4 7 5 9 6 8 7 10 8 2 9 1 10 11 11 12 12 14 13
REMARK SMILES IDX 13 14
REMARK H PARENT
REMARK Flexibility Score: inf
ROOT
ATOM      1  C   UNL     1       4.219  30.353  69.419  1.00  0.00     0.127 C 
ATOM      2  C   UNL     1       3.914  28.985  68.771  1.00  0.00     0.061 C 
ENDROOT
BRANCH   1   3
ATOM      3  C   UNL     1       5.396  30.184  70.413  1.00  0.00     0.057 C 
BRANCH   3   4
ATOM      4  C   UNL     1       4.936  30.019  71.872  1.00  0.00     0.032 C 
BRANCH   4   5
ATOM      5  C   UNL     1       5.434  28.714  72.442  1.00  0.00    -0.028 C 
ATOM      6  C   UNL     1       5.275  26.453  73.392  1.00  0.00     0.039 C 
ATOM      7  C   UNL     1       4.637  27.681  72.794  1.00  0.00    -0.080 C 
ATOM      8  C   UNL     1       3.141  27.719  72.590  1.00  0.00     0.039 C 
ENDBRANCH   4   5
ENDBRANCH   3   4
ENDBRANCH   1   3
BRANCH   1   9
ATOM      9  C   UNL     1       2.989  30.895  70.136  1.00  0.00     0.013 C 
ATOM     10  C   UNL     1       1.758  30.406  69.945  1.00  0.00     0.008 C 
ENDBRANCH   1   9
BRANCH   1  11
ATOM     11  O   UNL     1       4.641  31.274  68.400  1.00  0.00    -0.455 OA
BRANCH  11  12
ATOM     12  C   UNL     1       3.860  32.300  67.848  1.00  0.00     0.303 C 
ATOM     13  O   UNL     1       3.887  33.468  68.321  1.00  0.00    -0.253 OA
ATOM     14  C   UNL     1       3.030  32.016  66.644  1.00  0.00     0.139 C 
ENDBRANCH  11  12
ENDBRANCH   1  11
TORSDOF 6
ENDMDL
MODEL 6
REMARK VINA RESULT:    -5.160      2.465      5.298
REMARK INTER + INTRA:          -7.975
REMARK INTER:                  -6.887
REMARK INTRA:                  -1.088
REMARK UNBOUND:                -1.004
REMARK SMILES C=C[C@](C)(CCC=C(C)C)OC(C)=O
REMARK SMILES IDX 3 1 4 2 5 3 6 4 7 5 9 6 8 7 10 8 2 9 1 10 11 11 12 12 14 13
REMARK SMILES IDX 13 14
REMARK H PARENT
REMARK Flexibility Score: inf
ROOT
ATOM      1  C   UNL     1       2.843  30.888  68.070  1.00  0.00     0.127 C 
ATOM      2  C   UNL     1       4.125  30.238  67.507  1.00  0.00     0.061 C 
ENDROOT
BRANCH   1   3
ATOM      3  C   UNL     1       3.167  31.524  69.446  1.00  0.00     0.057 C 
BRANCH   3   4
ATOM      4  C   UNL     1       4.335  30.834  70.170  1.00  0.00     0.032 C 
BRANCH   4   5
ATOM      5  C   UNL     1       3.839  30.065  71.369  1.00  0.00    -0.028 C 
ATOM      6  C   UNL     1       3.251  28.086  72.703  1.00  0.00     0.039 C 
ATOM      7  C   UNL     1       3.815  28.717  71.455  1.00  0.00    -0.080 C 
ATOM      8  C   UNL     1       4.349  27.834  70.351  1.00  0.00     0.039 C 
ENDBRANCH   4   5
ENDBRANCH   3   4
ENDBRANCH   1   3
BRANCH   1   9
ATOM      9  C   UNL     1       1.731  29.856  68.208  1.00  0.00     0.013 C 
ATOM     10  C   UNL     1       0.839  29.872  69.207  1.00  0.00     0.008 C 
ENDBRANCH   1   9
BRANCH   1  11
ATOM     11  O   UNL     1       2.426  31.946  67.191  1.00  0.00    -0.455 OA
BRANCH  11  12
ATOM     12  C   UNL     1       2.053  33.239  67.584  1.00  0.00     0.303 C 
ATOM     13  O   UNL     1       2.877  34.192  67.560  1.00  0.00    -0.253 OA
ATOM     14  C   UNL     1       0.640  33.501  67.981  1.00  0.00     0.139 C 
ENDBRANCH  11  12
ENDBRANCH   1  11
TORSDOF 6
ENDMDL
MODEL 7
REMARK VINA RESULT:    -5.158      1.631      2.795
REMARK INTER + INTRA:          -7.972
REMARK INTER:                  -7.010
REMARK INTRA:                  -0.961
REMARK UNBOUND:                -1.004
REMARK SMILES C=C[C@](C)(CCC=C(C)C)OC(C)=O
REMARK SMILES IDX 3 1 4 2 5 3 6 4 7 5 9 6 8 7 10 8 2 9 1 10 11 11 12 12 14 13
REMARK SMILES IDX 13 14
REMARK H PARENT
REMARK Flexibility Score: inf
ROOT
ATOM      1  C   UNL     1       3.486  29.531  69.199  1.00  0.00     0.127 C 
ATOM      2  C   UNL     1       4.255  28.329  69.787  1.00  0.00     0.061 C 
ENDROOT
BRANCH   1   3
ATOM      3  C   UNL     1       3.917  29.729  67.723  1.00  0.00     0.057 C 
BRANCH   3   4
ATOM      4  C   UNL     1       4.367  31.166  67.413  1.00  0.00     0.032 C 
BRANCH   4   5
ATOM      5  C   UNL     1       3.374  31.852  66.508  1.00  0.00    -0.028 C 
ATOM      6  C   UNL     1       1.770  33.576  65.805  1.00  0.00     0.039 C 
ATOM      7  C   UNL     1       2.775  33.031  66.788  1.00  0.00    -0.080 C 
ATOM      8  C   UNL     1       3.096  33.816  68.037  1.00  0.00     0.039 C 
ENDBRANCH   4   5
ENDBRANCH   3   4
ENDBRANCH   1   3
BRANCH   1   9
ATOM      9  C   UNL     1       3.759  30.793  70.008  1.00  0.00     0.013 C 
ATOM     10  C   UNL     1       3.495  30.893  71.316  1.00  0.00     0.008 C 
ENDBRANCH   1   9
BRANCH   1  11
ATOM     11  O   UNL     1       2.079  29.238  69.204  1.00  0.00    -0.455 OA
BRANCH  11  12
ATOM     12  C   UNL     1       1.112  29.843  68.387  1.00  0.00     0.303 C 
ATOM     13  O   UNL     1       0.840  29.382  67.246  1.00  0.00    -0.253 OA
ATOM     14  C   UNL     1       0.354  31.018  68.903  1.00  0.00     0.139 C 
ENDBRANCH  11  12
ENDBRANCH   1  11
TORSDOF 6
ENDMDL
MODEL 8
REMARK VINA RESULT:    -5.151      2.046      5.253
REMARK INTER + INTRA:          -7.962
REMARK INTER:                  -7.340
REMARK INTRA:                  -0.622
REMARK UNBOUND:                -1.004
REMARK SMILES C=C[C@](C)(CCC=C(C)C)OC(C)=O
REMARK SMILES IDX 3 1 4 2 5 3 6 4 7 5 9 6 8 7 10 8 2 9 1 10 11 11 12 12 14 13
REMARK SMILES IDX 13 14
REMARK H PARENT
REMARK Flexibility Score: inf
ROOT
ATOM      1  C   UNL     1       3.353  30.339  69.030  1.00  0.00     0.127 C 
ATOM      2  C   UNL     1       3.500  31.571  69.949  1.00  0.00     0.061 C 
ENDROOT
BRANCH   1   3
ATOM      3  C   UNL     1       4.292  29.217  69.542  1.00  0.00     0.057 C 
BRANCH   3   4
ATOM      4  C   UNL     1       5.468  29.750  70.379  1.00  0.00     0.032 C 
BRANCH   4   5
ATOM      5  C   UNL     1       5.996  28.677  71.299  1.00  0.00    -0.028 C 
ATOM      6  C   UNL     1       6.288  27.444  73.405  1.00  0.00     0.039 C 
ATOM      7  C   UNL     1       5.644  28.542  72.596  1.00  0.00    -0.080 C 
ATOM      8  C   UNL     1       4.620  29.443  73.246  1.00  0.00     0.039 C 
ENDBRANCH   4   5
ENDBRANCH   3   4
ENDBRANCH   1   3
BRANCH   1   9
ATOM      9  C   UNL     1       3.689  30.699  67.589  1.00  0.00     0.013 C 
ATOM     10  C   UNL     1       4.112  31.915  67.220  1.00  0.00     0.008 C 
ENDBRANCH   1   9
BRANCH   1  11
ATOM     11  O   UNL     1       2.006  29.847  69.113  1.00  0.00    -0.455 OA
BRANCH  11  12
ATOM     12  C   UNL     1       0.978  30.110  68.195  1.00  0.00     0.303 C 
ATOM     13  O   UNL     1       0.776  29.355  67.206  1.00  0.00    -0.253 OA
ATOM     14  C   UNL     1       0.075  31.272  68.427  1.00  0.00     0.139 C 
ENDBRANCH  11  12
ENDBRANCH   1  11
TORSDOF 6
ENDMDL
MODEL 9
REMARK VINA RESULT:    -5.123      3.439      6.271
REMARK INTER + INTRA:          -7.924
REMARK INTER:                  -6.848
REMARK INTRA:                  -1.076
REMARK UNBOUND:                -1.004
REMARK SMILES C=C[C@](C)(CCC=C(C)C)OC(C)=O
REMARK SMILES IDX 3 1 4 2 5 3 6 4 7 5 9 6 8 7 10 8 2 9 1 10 11 11 12 12 14 13
REMARK SMILES IDX 13 14
REMARK H PARENT
REMARK Flexibility Score: inf
ROOT
ATOM      1  C   UNL     1       0.803  32.389  67.007  1.00  0.00     0.127 C 
ATOM      2  C   UNL     1       1.286  33.482  67.986  1.00  0.00     0.061 C 
ENDROOT
BRANCH   1   3
ATOM      3  C   UNL     1       0.042  31.302  67.807  1.00  0.00     0.057 C 
BRANCH   3   4
ATOM      4  C   UNL     1       0.506  31.192  69.270  1.00  0.00     0.032 C 
BRANCH   4   5
ATOM      5  C   UNL     1       1.352  29.959  69.469  1.00  0.00    -0.028 C 
ATOM      6  C   UNL     1       3.377  28.663  69.979  1.00  0.00     0.039 C 
ATOM      7  C   UNL     1       2.645  29.976  69.863  1.00  0.00    -0.080 C 
ATOM      8  C   UNL     1       3.361  31.262  70.202  1.00  0.00     0.039 C 
ENDBRANCH   4   5
ENDBRANCH   3   4
ENDBRANCH   1   3
BRANCH   1   9
ATOM      9  C   UNL     1       1.981  31.776  66.261  1.00  0.00     0.013 C 
ATOM     10  C   UNL     1       3.257  32.017  66.586  1.00  0.00     0.008 C 
ENDBRANCH   1   9
BRANCH   1  11
ATOM     11  O   UNL     1      -0.123  32.969  66.074  1.00  0.00    -0.455 OA
BRANCH  11  12
ATOM     12  C   UNL     1       0.188  33.422  64.784  1.00  0.00     0.303 C 
ATOM     13  O   UNL     1      -0.114  32.746  63.763  1.00  0.00    -0.253 OA
ATOM     14  C   UNL     1       0.836  34.753  64.616  1.00  0.00     0.139 C 
ENDBRANCH  11  12
ENDBRANCH   1  11
TORSDOF 6
ENDMDL
