MODEL 1
REMARK VINA RESULT:    -3.649      0.000      0.000
REMARK INTER + INTRA:          -4.857
REMARK INTER:                  -4.502
REMARK INTRA:                  -0.356
REMARK UNBOUND:                -0.356
REMARK SMILES C=CC[C@H](C)C(=O)CC
REMARK SMILES IDX 4 1 5 2 6 3 7 4 8 5 9 6 3 7 2 8 1 9
REMARK H PARENT
REMARK Flexibility Score: inf
ROOT
ATOM      1  C   UNL     1      13.570  62.767  21.670  1.00  0.00     0.057 C 
ATOM      2  C   UNL     1      12.771  63.094  22.939  1.00  0.00     0.016 C 
ENDROOT
BRANCH   1   3
ATOM      3  C   UNL     1      12.719  61.951  20.720  1.00  0.00     0.135 C 
ATOM      4  O   UNL     1      12.188  60.923  21.114  1.00  0.00    -0.299 OA
BRANCH   3   5
ATOM      5  C   UNL     1      12.509  62.385  19.293  1.00  0.00     0.072 C 
ATOM      6  C   UNL     1      11.962  63.807  19.236  1.00  0.00     0.012 C 
ENDBRANCH   3   5
ENDBRANCH   1   3
BRANCH   1   7
ATOM      7  C   UNL     1      14.872  62.004  21.996  1.00  0.00     0.038 C 
BRANCH   7   8
ATOM      8  C   UNL     1      15.978  62.315  21.021  1.00  0.00    -0.034 C 
ATOM      9  C   UNL     1      16.374  61.431  20.101  1.00  0.00     0.004 C 
ENDBRANCH   7   8
ENDBRANCH   1   7
TORSDOF 4
ENDMDL
MODEL 2
REMARK VINA RESULT:    -3.644      1.449      3.750
REMARK INTER + INTRA:          -4.851
REMARK INTER:                  -4.589
REMARK INTRA:                  -0.262
REMARK UNBOUND:                -0.356
REMARK SMILES C=CC[C@H](C)C(=O)CC
REMARK SMILES IDX 4 1 5 2 6 3 7 4 8 5 9 6 3 7 2 8 1 9
REMARK H PARENT
REMARK Flexibility Score: inf
ROOT
ATOM      1  C   UNL     1      13.409  61.752  21.161  1.00  0.00     0.057 C 
ATOM      2  C   UNL     1      13.125  62.671  22.357  1.00  0.00     0.016 C 
ENDROOT
BRANCH   1   3
ATOM      3  C   UNL     1      14.876  61.819  20.795  1.00  0.00     0.135 C 
ATOM      4  O   UNL     1      15.336  61.025  19.987  1.00  0.00    -0.299 OA
BRANCH   3   5
ATOM      5  C   UNL     1      15.786  62.853  21.407  1.00  0.00     0.072 C 
ATOM      6  C   UNL     1      16.801  62.198  22.336  1.00  0.00     0.012 C 
ENDBRANCH   3   5
ENDBRANCH   1   3
BRANCH   1   7
ATOM      7  C   UNL     1      12.545  62.124  19.937  1.00  0.00     0.038 C 
BRANCH   7   8
ATOM      8  C   UNL     1      12.375  63.613  19.786  1.00  0.00    -0.034 C 
ATOM      9  C   UNL     1      11.585  64.139  18.846  1.00  0.00     0.004 C 
ENDBRANCH   7   8
ENDBRANCH   1   7
TORSDOF 4
ENDMDL
MODEL 3
REMARK VINA RESULT:    -3.561     17.109     18.307
REMARK INTER + INTRA:          -4.749
REMARK INTER:                  -4.363
REMARK INTRA:                  -0.386
REMARK UNBOUND:                -0.356
REMARK SMILES C=CC[C@H](C)C(=O)CC
REMARK SMILES IDX 4 1 5 2 6 3 7 4 8 5 9 6 3 7 2 8 1 9
REMARK H PARENT
REMARK Flexibility Score: inf
ROOT
ATOM      1  C   UNL     1      15.349  52.110  35.333  1.00  0.00     0.057 C 
ATOM      2  C   UNL     1      14.131  51.939  34.416  1.00  0.00     0.016 C 
ENDROOT
BRANCH   1   3
ATOM      3  C   UNL     1      15.024  53.084  36.446  1.00  0.00     0.135 C 
ATOM      4  O   UNL     1      14.624  54.206  36.171  1.00  0.00    -0.299 OA
BRANCH   3   5
ATOM      5  C   UNL     1      15.180  52.695  37.893  1.00  0.00     0.072 C 
ATOM      6  C   UNL     1      14.691  51.270  38.124  1.00  0.00     0.012 C 
ENDBRANCH   3   5
ENDBRANCH   1   3
BRANCH   1   7
ATOM      7  C   UNL     1      16.588  52.600  34.553  1.00  0.00     0.038 C 
BRANCH   7   8
ATOM      8  C   UNL     1      17.879  52.186  35.211  1.00  0.00    -0.034 C 
ATOM      9  C   UNL     1      18.701  53.079  35.770  1.00  0.00     0.004 C 
ENDBRANCH   7   8
ENDBRANCH   1   7
TORSDOF 4
ENDMDL
MODEL 4
REMARK VINA RESULT:    -3.463      1.291      3.434
REMARK INTER + INTRA:          -4.629
REMARK INTER:                  -4.198
REMARK INTRA:                  -0.431
REMARK UNBOUND:                -0.356
REMARK SMILES C=CC[C@H](C)C(=O)CC
REMARK SMILES IDX 4 1 5 2 6 3 7 4 8 5 9 6 3 7 2 8 1 9
REMARK H PARENT
REMARK Flexibility Score: inf
ROOT
ATOM      1  C   UNL     1      14.370  62.755  21.365  1.00  0.00     0.057 C 
ATOM      2  C   UNL     1      15.904  62.769  21.328  1.00  0.00     0.016 C 
ENDROOT
BRANCH   1   3
ATOM      3  C   UNL     1      13.890  62.364  22.747  1.00  0.00     0.135 C 
ATOM      4  O   UNL     1      13.767  61.182  23.033  1.00  0.00    -0.299 OA
BRANCH   3   5
ATOM      5  C   UNL     1      13.565  63.408  23.784  1.00  0.00     0.072 C 
ATOM      6  C   UNL     1      12.187  64.009  23.530  1.00  0.00     0.012 C 
ENDBRANCH   3   5
ENDBRANCH   1   3
BRANCH   1   7
ATOM      7  C   UNL     1      13.781  61.790  20.314  1.00  0.00     0.038 C 
BRANCH   7   8
ATOM      8  C   UNL     1      12.464  62.274  19.766  1.00  0.00    -0.034 C 
ATOM      9  C   UNL     1      12.219  63.572  19.566  1.00  0.00     0.004 C 
ENDBRANCH   7   8
ENDBRANCH   1   7
TORSDOF 4
ENDMDL
MODEL 5
REMARK VINA RESULT:    -3.448      1.317      1.746
REMARK INTER + INTRA:          -4.610
REMARK INTER:                  -4.284
REMARK INTRA:                  -0.325
REMARK UNBOUND:                -0.356
REMARK SMILES C=CC[C@H](C)C(=O)CC
REMARK SMILES IDX 4 1 5 2 6 3 7 4 8 5 9 6 3 7 2 8 1 9
REMARK H PARENT
REMARK Flexibility Score: inf
ROOT
ATOM      1  C   UNL     1      13.899  61.244  21.272  1.00  0.00     0.057 C 
ATOM      2  C   UNL     1      13.479  59.851  21.761  1.00  0.00     0.016 C 
ENDROOT
BRANCH   1   3
ATOM      3  C   UNL     1      12.745  61.907  20.550  1.00  0.00     0.135 C 
ATOM      4  O   UNL     1      11.837  61.222  20.103  1.00  0.00    -0.299 OA
BRANCH   3   5
ATOM      5  C   UNL     1      12.692  63.403  20.375  1.00  0.00     0.072 C 
ATOM      6  C   UNL     1      11.886  63.772  19.135  1.00  0.00     0.012 C 
ENDBRANCH   3   5
ENDBRANCH   1   3
BRANCH   1   7
ATOM      7  C   UNL     1      15.130  61.177  20.344  1.00  0.00     0.038 C 
BRANCH   7   8
ATOM      8  C   UNL     1      16.299  61.958  20.884  1.00  0.00    -0.034 C 
ATOM      9  C   UNL     1      16.159  62.832  21.884  1.00  0.00     0.004 C 
ENDBRANCH   7   8
ENDBRANCH   1   7
TORSDOF 4
ENDMDL
MODEL 6
REMARK VINA RESULT:    -3.424     16.775     17.994
REMARK INTER + INTRA:          -4.581
REMARK INTER:                  -4.149
REMARK INTRA:                  -0.431
REMARK UNBOUND:                -0.356
REMARK SMILES C=CC[C@H](C)C(=O)CC
REMARK SMILES IDX 4 1 5 2 6 3 7 4 8 5 9 6 3 7 2 8 1 9
REMARK H PARENT
REMARK Flexibility Score: inf
ROOT
ATOM      1  C   UNL     1      16.400  52.269  35.605  1.00  0.00     0.057 C 
ATOM      2  C   UNL     1      17.877  52.145  35.204  1.00  0.00     0.016 C 
ENDROOT
BRANCH   1   3
ATOM      3  C   UNL     1      15.585  52.763  34.429  1.00  0.00     0.135 C 
ATOM      4  O   UNL     1      15.492  53.964  34.219  1.00  0.00    -0.299 OA
BRANCH   3   5
ATOM      5  C   UNL     1      14.888  51.800  33.504  1.00  0.00     0.072 C 
ATOM      6  C   UNL     1      13.639  51.227  34.164  1.00  0.00     0.012 C 
ENDBRANCH   3   5
ENDBRANCH   1   3
BRANCH   1   7
ATOM      7  C   UNL     1      16.212  53.217  36.809  1.00  0.00     0.038 C 
BRANCH   7   8
ATOM      8  C   UNL     1      15.202  52.695  37.797  1.00  0.00    -0.034 C 
ATOM      9  C   UNL     1      14.847  51.407  37.828  1.00  0.00     0.004 C 
ENDBRANCH   7   8
ENDBRANCH   1   7
TORSDOF 4
ENDMDL
MODEL 7
REMARK VINA RESULT:    -3.325     17.031     17.958
REMARK INTER + INTRA:          -4.458
REMARK INTER:                  -4.315
REMARK INTRA:                  -0.143
REMARK UNBOUND:                -0.356
REMARK SMILES C=CC[C@H](C)C(=O)CC
REMARK SMILES IDX 4 1 5 2 6 3 7 4 8 5 9 6 3 7 2 8 1 9
REMARK H PARENT
REMARK Flexibility Score: inf
ROOT
ATOM      1  C   UNL     1      17.837  52.372  35.351  1.00  0.00     0.057 C 
ATOM      2  C   UNL     1      17.646  52.173  33.842  1.00  0.00     0.016 C 
ENDROOT
BRANCH   1   3
ATOM      3  C   UNL     1      16.582  52.963  35.957  1.00  0.00     0.135 C 
ATOM      4  O   UNL     1      16.417  54.175  35.945  1.00  0.00    -0.299 OA
BRANCH   3   5
ATOM      5  C   UNL     1      15.525  52.084  36.574  1.00  0.00     0.072 C 
ATOM      6  C   UNL     1      15.182  52.560  37.981  1.00  0.00     0.012 C 
ENDBRANCH   3   5
ENDBRANCH   1   3
BRANCH   1   7
ATOM      7  C   UNL     1      19.047  53.281  35.659  1.00  0.00     0.038 C 
BRANCH   7   8
ATOM      8  C   UNL     1      19.567  53.980  34.430  1.00  0.00    -0.034 C 
ATOM      9  C   UNL     1      20.834  53.846  34.028  1.00  0.00     0.004 C 
ENDBRANCH   7   8
ENDBRANCH   1   7
TORSDOF 4
ENDMDL
MODEL 8
REMARK VINA RESULT:    -3.313      1.580      2.509
REMARK INTER + INTRA:          -4.443
REMARK INTER:                  -3.966
REMARK INTRA:                  -0.476
REMARK UNBOUND:                -0.356
REMARK SMILES C=CC[C@H](C)C(=O)CC
REMARK SMILES IDX 4 1 5 2 6 3 7 4 8 5 9 6 3 7 2 8 1 9
REMARK H PARENT
REMARK Flexibility Score: inf
ROOT
ATOM      1  C   UNL     1      15.648  62.675  21.148  1.00  0.00     0.057 C 
ATOM      2  C   UNL     1      16.383  62.744  22.494  1.00  0.00     0.016 C 
ENDROOT
BRANCH   1   3
ATOM      3  C   UNL     1      14.152  62.625  21.378  1.00  0.00     0.135 C 
ATOM      4  O   UNL     1      13.693  62.984  22.453  1.00  0.00    -0.299 OA
BRANCH   3   5
ATOM      5  C   UNL     1      13.214  62.144  20.303  1.00  0.00     0.072 C 
ATOM      6  C   UNL     1      12.238  61.114  20.859  1.00  0.00     0.012 C 
ENDBRANCH   3   5
ENDBRANCH   1   3
BRANCH   1   7
ATOM      7  C   UNL     1      16.092  61.453  20.316  1.00  0.00     0.038 C 
BRANCH   7   8
ATOM      8  C   UNL     1      16.419  60.261  21.178  1.00  0.00    -0.034 C 
ATOM      9  C   UNL     1      15.634  59.180  21.210  1.00  0.00     0.004 C 
ENDBRANCH   7   8
ENDBRANCH   1   7
TORSDOF 4
ENDMDL
MODEL 9
REMARK VINA RESULT:    -3.252      1.069      2.484
REMARK INTER + INTRA:          -4.368
REMARK INTER:                  -4.048
REMARK INTRA:                  -0.320
REMARK UNBOUND:                -0.356
REMARK SMILES C=CC[C@H](C)C(=O)CC
REMARK SMILES IDX 4 1 5 2 6 3 7 4 8 5 9 6 3 7 2 8 1 9
REMARK H PARENT
REMARK Flexibility Score: inf
ROOT
ATOM      1  C   UNL     1      13.555  62.331  21.087  1.00  0.00     0.057 C 
ATOM      2  C   UNL     1      12.709  63.183  20.131  1.00  0.00     0.016 C 
ENDROOT
BRANCH   1   3
ATOM      3  C   UNL     1      12.868  62.230  22.433  1.00  0.00     0.135 C 
ATOM      4  O   UNL     1      12.030  61.360  22.621  1.00  0.00    -0.299 OA
BRANCH   3   5
ATOM      5  C   UNL     1      13.202  63.182  23.552  1.00  0.00     0.072 C 
ATOM      6  C   UNL     1      12.099  64.219  23.725  1.00  0.00     0.012 C 
ENDBRANCH   3   5
ENDBRANCH   1   3
BRANCH   1   7
ATOM      7  C   UNL     1      14.974  62.910  21.265  1.00  0.00     0.038 C 
BRANCH   7   8
ATOM      8  C   UNL     1      16.048  61.923  20.888  1.00  0.00    -0.034 C 
ATOM      9  C   UNL     1      15.883  61.050  19.890  1.00  0.00     0.004 C 
ENDBRANCH   7   8
ENDBRANCH   1   7
TORSDOF 4
ENDMDL
