MODEL 1
REMARK VINA RESULT:    -7.627      0.000      0.000
REMARK INTER + INTRA:         -12.170
REMARK INTER:                 -10.303
REMARK INTRA:                  -1.867
REMARK UNBOUND:                -1.867
REMARK SMILES CC[C@H](CC[C@@H](C)[C@@H]1CC[C@@H]2[C@@H]3CC(=O)C4=CC(=O)CC[C@]4(C)[C@H]3CC[C@@]21C)C(C)C
REMARK SMILES IDX 4 1 3 2 2 3 1 4 29 5 30 6 31 7 5 8 6 9 7 10 8 11 9 12 27 13
REMARK SMILES IDX 10 14 11 15 26 16 28 17 12 18 25 19 24 20 13 21 22 22 14 23
REMARK SMILES IDX 16 24 21 25 23 26 15 27 17 28 20 29 18 30 19 31
REMARK H PARENT
REMARK Flexibility Score: inf
ROOT
ATOM      1  C   UNL     1       6.090 -16.266  24.264  1.00  0.00     0.004 C 
ENDROOT
BRANCH   1   2
ATOM      2  C   UNL     1       6.790 -14.907  23.970  1.00  0.00    -0.009 C 
BRANCH   2   3
ATOM      3  C   UNL     1       8.007 -14.759  24.929  1.00  0.00     0.000 C 
ATOM      4  C   UNL     1       9.342 -14.504  24.230  1.00  0.00     0.004 C 
ENDBRANCH   2   3
BRANCH   2   5
ATOM      5  C   UNL     1       7.126 -14.742  22.442  1.00  0.00    -0.014 C 
ATOM      6  C   UNL     1       7.492 -16.072  21.762  1.00  0.00     0.007 C 
ATOM      7  C   UNL     1       6.046 -13.998  21.638  1.00  0.00     0.007 C 
ENDBRANCH   2   5
ENDBRANCH   1   2
BRANCH   1   8
ATOM      8  C   UNL     1       6.745 -17.071  25.408  1.00  0.00     0.004 C 
BRANCH   8   9
ATOM      9  C   UNL     1       7.478 -18.342  24.887  1.00  0.00    -0.011 C 
ATOM     10  C   UNL     1       6.712 -18.967  23.706  1.00  0.00     0.008 C 
BRANCH   9  11
ATOM     11  C   UNL     1       9.014 -18.201  24.584  1.00  0.00    -0.002 C 
ATOM     12  C   UNL     1       9.457 -18.944  23.308  1.00  0.00     0.005 C 
ATOM     13  C   UNL     1      10.100 -18.499  25.675  1.00  0.00    -0.026 C 
ATOM     14  C   UNL     1      10.876 -19.442  23.557  1.00  0.00     0.005 C 
ATOM     15  C   UNL     1      11.367 -18.710  24.809  1.00  0.00    -0.001 C 
ATOM     16  C   UNL     1       9.788 -19.779  26.499  1.00  0.00     0.007 C 
ATOM     17  C   UNL     1      10.300 -17.283  26.621  1.00  0.00     0.012 C 
ATOM     18  C   UNL     1      12.570 -19.376  25.549  1.00  0.00     0.004 C 
ATOM     19  C   UNL     1      10.987 -20.309  27.290  1.00  0.00     0.005 C 
ATOM     20  C   UNL     1      12.164 -20.661  26.350  1.00  0.00     0.003 C 
ATOM     21  C   UNL     1      13.761 -19.605  24.580  1.00  0.00     0.085 C 
ATOM     22  C   UNL     1      13.399 -21.321  27.088  1.00  0.00    -0.000 C 
ATOM     23  C   UNL     1      14.857 -20.407  25.210  1.00  0.00     0.159 C 
ATOM     24  C   UNL     1      14.471 -21.562  26.025  1.00  0.00     0.005 C 
ATOM     25  C   UNL     1      13.042 -22.660  27.822  1.00  0.00     0.020 C 
ATOM     26  C   UNL     1      14.001 -20.376  28.164  1.00  0.00     0.017 C 
ATOM     27  O   UNL     1      16.066 -20.178  24.936  1.00  0.00    -0.295 OA
ATOM     28  C   UNL     1      14.818 -22.786  25.591  1.00  0.00     0.055 C 
ATOM     29  C   UNL     1      12.870 -23.842  26.871  1.00  0.00     0.081 C 
ATOM     30  C   UNL     1      14.105 -23.987  26.043  1.00  0.00     0.156 C 
ATOM     31  O   UNL     1      14.475 -25.125  25.653  1.00  0.00    -0.295 OA
ENDBRANCH   9  11
ENDBRANCH   8   9
ENDBRANCH   1   8
TORSDOF 6
ENDMDL
MODEL 2
REMARK VINA RESULT:    -7.468      1.869      3.004
REMARK INTER + INTRA:         -11.954
REMARK INTER:                  -9.721
REMARK INTRA:                  -2.233
REMARK UNBOUND:                -1.867
REMARK SMILES CC[C@H](CC[C@@H](C)[C@@H]1CC[C@@H]2[C@@H]3CC(=O)C4=CC(=O)CC[C@]4(C)[C@H]3CC[C@@]21C)C(C)C
REMARK SMILES IDX 4 1 3 2 2 3 1 4 29 5 30 6 31 7 5 8 6 9 7 10 8 11 9 12 27 13
REMARK SMILES IDX 10 14 11 15 26 16 28 17 12 18 25 19 24 20 13 21 22 22 14 23
REMARK SMILES IDX 16 24 21 25 23 26 15 27 17 28 20 29 18 30 19 31
REMARK H PARENT
REMARK Flexibility Score: inf
ROOT
ATOM      1  C   UNL     1       8.002 -16.678  21.609  1.00  0.00     0.004 C 
ENDROOT
BRANCH   1   2
ATOM      2  C   UNL     1       8.230 -16.341  23.111  1.00  0.00    -0.009 C 
BRANCH   2   3
ATOM      3  C   UNL     1       9.636 -15.693  23.266  1.00  0.00     0.000 C 
ATOM      4  C   UNL     1      10.078 -15.466  24.711  1.00  0.00     0.004 C 
ENDBRANCH   2   3
BRANCH   2   5
ATOM      5  C   UNL     1       7.042 -15.499  23.707  1.00  0.00    -0.014 C 
ATOM      6  C   UNL     1       6.375 -14.584  22.667  1.00  0.00     0.007 C 
ATOM      7  C   UNL     1       5.988 -16.337  24.451  1.00  0.00     0.007 C 
ENDBRANCH   2   5
ENDBRANCH   1   2
BRANCH   1   8
ATOM      8  C   UNL     1       7.883 -18.190  21.318  1.00  0.00     0.004 C 
BRANCH   8   9
ATOM      9  C   UNL     1       7.929 -19.043  22.620  1.00  0.00    -0.011 C 
ATOM     10  C   UNL     1       6.559 -19.690  22.895  1.00  0.00     0.008 C 
BRANCH   9  11
ATOM     11  C   UNL     1       9.105 -20.079  22.748  1.00  0.00    -0.002 C 
ATOM     12  C   UNL     1       8.633 -21.498  23.121  1.00  0.00     0.005 C 
ATOM     13  C   UNL     1      10.372 -19.784  23.624  1.00  0.00    -0.026 C 
ATOM     14  C   UNL     1       9.726 -22.114  23.987  1.00  0.00     0.005 C 
ATOM     15  C   UNL     1      10.950 -21.206  23.832  1.00  0.00    -0.001 C 
ATOM     16  C   UNL     1      10.018 -19.138  24.992  1.00  0.00     0.007 C 
ATOM     17  C   UNL     1      11.395 -18.901  22.859  1.00  0.00     0.012 C 
ATOM     18  C   UNL     1      12.022 -21.325  24.960  1.00  0.00     0.004 C 
ATOM     19  C   UNL     1      11.159 -19.190  26.011  1.00  0.00     0.005 C 
ATOM     20  C   UNL     1      11.580 -20.650  26.303  1.00  0.00     0.003 C 
ATOM     21  C   UNL     1      12.486 -22.796  25.133  1.00  0.00     0.085 C 
ATOM     22  C   UNL     1      12.681 -20.786  27.433  1.00  0.00    -0.000 C 
ATOM     23  C   UNL     1      13.373 -22.973  26.326  1.00  0.00     0.159 C 
ATOM     24  C   UNL     1      13.000 -22.276  27.559  1.00  0.00     0.005 C 
ATOM     25  C   UNL     1      12.228 -20.201  28.815  1.00  0.00     0.020 C 
ATOM     26  C   UNL     1      13.994 -20.049  27.052  1.00  0.00     0.017 C 
ATOM     27  O   UNL     1      14.326 -23.799  26.307  1.00  0.00    -0.295 OA
ATOM     28  C   UNL     1      12.649 -23.019  28.624  1.00  0.00     0.055 C 
ATOM     29  C   UNL     1      11.237 -21.097  29.555  1.00  0.00     0.081 C 
ATOM     30  C   UNL     1      11.829 -22.461  29.707  1.00  0.00     0.156 C 
ATOM     31  O   UNL     1      11.548 -23.165  30.711  1.00  0.00    -0.295 OA
ENDBRANCH   9  11
ENDBRANCH   8   9
ENDBRANCH   1   8
TORSDOF 6
ENDMDL
MODEL 3
REMARK VINA RESULT:    -7.335      4.219      6.832
REMARK INTER + INTRA:         -11.775
REMARK INTER:                 -10.194
REMARK INTRA:                  -1.581
REMARK UNBOUND:                -1.867
REMARK SMILES CC[C@H](CC[C@@H](C)[C@@H]1CC[C@@H]2[C@@H]3CC(=O)C4=CC(=O)CC[C@]4(C)[C@H]3CC[C@@]21C)C(C)C
REMARK SMILES IDX 4 1 3 2 2 3 1 4 29 5 30 6 31 7 5 8 6 9 7 10 8 11 9 12 27 13
REMARK SMILES IDX 10 14 11 15 26 16 28 17 12 18 25 19 24 20 13 21 22 22 14 23
REMARK SMILES IDX 16 24 21 25 23 26 15 27 17 28 20 29 18 30 19 31
REMARK H PARENT
REMARK Flexibility Score: inf
ROOT
ATOM      1  C   UNL     1      10.017 -21.133  19.684  1.00  0.00     0.004 C 
ENDROOT
BRANCH   1   2
ATOM      2  C   UNL     1       9.971 -19.669  19.156  1.00  0.00    -0.009 C 
BRANCH   2   3
ATOM      3  C   UNL     1      11.218 -18.909  19.695  1.00  0.00     0.000 C 
ATOM      4  C   UNL     1      10.922 -17.520  20.261  1.00  0.00     0.004 C 
ENDBRANCH   2   3
BRANCH   2   5
ATOM      5  C   UNL     1       9.787 -19.618  17.594  1.00  0.00    -0.014 C 
ATOM      6  C   UNL     1       8.439 -19.010  17.170  1.00  0.00     0.007 C 
ATOM      7  C   UNL     1      10.948 -18.944  16.845  1.00  0.00     0.007 C 
ENDBRANCH   2   5
ENDBRANCH   1   2
BRANCH   1   8
ATOM      8  C   UNL     1       8.653 -21.855  19.641  1.00  0.00     0.004 C 
BRANCH   8   9
ATOM      9  C   UNL     1       8.058 -22.071  21.064  1.00  0.00    -0.011 C 
ATOM     10  C   UNL     1       9.044 -22.848  21.955  1.00  0.00     0.008 C 
BRANCH   9  11
ATOM     11  C   UNL     1       7.482 -20.801  21.791  1.00  0.00    -0.002 C 
ATOM     12  C   UNL     1       7.185 -19.629  20.834  1.00  0.00     0.005 C 
ATOM     13  C   UNL     1       8.182 -20.183  23.051  1.00  0.00    -0.026 C 
ATOM     14  C   UNL     1       7.460 -18.346  21.608  1.00  0.00     0.005 C 
ATOM     15  C   UNL     1       7.580 -18.757  23.079  1.00  0.00    -0.001 C 
ATOM     16  C   UNL     1       9.728 -20.115  22.904  1.00  0.00     0.007 C 
ATOM     17  C   UNL     1       7.796 -20.949  24.346  1.00  0.00     0.012 C 
ATOM     18  C   UNL     1       8.325 -17.742  24.002  1.00  0.00     0.004 C 
ATOM     19  C   UNL     1      10.402 -19.187  23.919  1.00  0.00     0.005 C 
ATOM     20  C   UNL     1       9.877 -17.738  23.785  1.00  0.00     0.003 C 
ATOM     21  C   UNL     1       7.687 -16.331  23.907  1.00  0.00     0.085 C 
ATOM     22  C   UNL     1      10.611 -16.700  24.727  1.00  0.00    -0.000 C 
ATOM     23  C   UNL     1       8.488 -15.296  24.634  1.00  0.00     0.159 C 
ATOM     24  C   UNL     1       9.945 -15.344  24.492  1.00  0.00     0.005 C 
ATOM     25  C   UNL     1      12.155 -16.607  24.467  1.00  0.00     0.020 C 
ATOM     26  C   UNL     1      10.440 -17.061  26.228  1.00  0.00     0.017 C 
ATOM     27  O   UNL     1       7.922 -14.341  25.232  1.00  0.00    -0.295 OA
ATOM     28  C   UNL     1      10.554 -14.321  23.866  1.00  0.00     0.055 C 
ATOM     29  C   UNL     1      12.508 -15.834  23.198  1.00  0.00     0.081 C 
ATOM     30  C   UNL     1      11.883 -14.478  23.263  1.00  0.00     0.156 C 
ATOM     31  O   UNL     1      12.447 -13.494  22.717  1.00  0.00    -0.295 OA
ENDBRANCH   9  11
ENDBRANCH   8   9
ENDBRANCH   1   8
TORSDOF 6
ENDMDL
MODEL 4
REMARK VINA RESULT:    -7.223      2.540      4.359
REMARK INTER + INTRA:         -11.624
REMARK INTER:                  -9.582
REMARK INTRA:                  -2.042
REMARK UNBOUND:                -1.867
REMARK SMILES CC[C@H](CC[C@@H](C)[C@@H]1CC[C@@H]2[C@@H]3CC(=O)C4=CC(=O)CC[C@]4(C)[C@H]3CC[C@@]21C)C(C)C
REMARK SMILES IDX 4 1 3 2 2 3 1 4 29 5 30 6 31 7 5 8 6 9 7 10 8 11 9 12 27 13
REMARK SMILES IDX 10 14 11 15 26 16 28 17 12 18 25 19 24 20 13 21 22 22 14 23
REMARK SMILES IDX 16 24 21 25 23 26 15 27 17 28 20 29 18 30 19 31
REMARK H PARENT
REMARK Flexibility Score: inf
ROOT
ATOM      1  C   UNL     1       7.493 -19.072  21.530  1.00  0.00     0.004 C 
ENDROOT
BRANCH   1   2
ATOM      2  C   UNL     1       6.947 -18.976  22.984  1.00  0.00    -0.009 C 
BRANCH   2   3
ATOM      3  C   UNL     1       7.076 -20.374  23.655  1.00  0.00     0.000 C 
ATOM      4  C   UNL     1       7.943 -20.400  24.914  1.00  0.00     0.004 C 
ENDBRANCH   2   3
BRANCH   2   5
ATOM      5  C   UNL     1       7.613 -17.793  23.781  1.00  0.00    -0.014 C 
ATOM      6  C   UNL     1       8.565 -16.950  22.916  1.00  0.00     0.007 C 
ATOM      7  C   UNL     1       6.611 -16.895  24.526  1.00  0.00     0.007 C 
ENDBRANCH   2   5
ENDBRANCH   1   2
BRANCH   1   8
ATOM      8  C   UNL     1       7.502 -20.507  20.960  1.00  0.00     0.004 C 
BRANCH   8   9
ATOM      9  C   UNL     1       8.844 -20.847  20.246  1.00  0.00    -0.011 C 
ATOM     10  C   UNL     1       9.538 -19.565  19.751  1.00  0.00     0.008 C 
BRANCH   9  11
ATOM     11  C   UNL     1       9.836 -21.795  21.014  1.00  0.00    -0.002 C 
ATOM     12  C   UNL     1       9.129 -22.765  21.982  1.00  0.00     0.005 C 
ATOM     13  C   UNL     1      11.087 -21.235  21.776  1.00  0.00    -0.026 C 
ATOM     14  C   UNL     1      10.067 -22.969  23.166  1.00  0.00     0.005 C 
ATOM     15  C   UNL     1      11.424 -22.407  22.732  1.00  0.00    -0.001 C 
ATOM     16  C   UNL     1      10.770 -19.949  22.588  1.00  0.00     0.007 C 
ATOM     17  C   UNL     1      12.273 -20.983  20.806  1.00  0.00     0.012 C 
ATOM     18  C   UNL     1      12.407 -22.052  23.892  1.00  0.00     0.004 C 
ATOM     19  C   UNL     1      11.837 -19.600  23.629  1.00  0.00     0.005 C 
ATOM     20  C   UNL     1      12.009 -20.743  24.657  1.00  0.00     0.003 C 
ATOM     21  C   UNL     1      12.625 -23.270  24.829  1.00  0.00     0.085 C 
ATOM     22  C   UNL     1      13.016 -20.405  25.830  1.00  0.00    -0.000 C 
ATOM     23  C   UNL     1      13.412 -22.911  26.050  1.00  0.00     0.159 C 
ATOM     24  C   UNL     1      13.091 -21.648  26.718  1.00  0.00     0.005 C 
ATOM     25  C   UNL     1      12.592 -19.153  26.672  1.00  0.00     0.020 C 
ATOM     26  C   UNL     1      14.445 -20.114  25.298  1.00  0.00     0.017 C 
ATOM     27  O   UNL     1      14.224 -23.731  26.560  1.00  0.00    -0.295 OA
ATOM     28  C   UNL     1      12.575 -21.701  27.958  1.00  0.00     0.055 C 
ATOM     29  C   UNL     1      11.436 -19.432  27.631  1.00  0.00     0.081 C 
ATOM     30  C   UNL     1      11.799 -20.584  28.511  1.00  0.00     0.156 C 
ATOM     31  O   UNL     1      11.361 -20.643  29.689  1.00  0.00    -0.295 OA
ENDBRANCH   9  11
ENDBRANCH   8   9
ENDBRANCH   1   8
TORSDOF 6
ENDMDL
MODEL 5
REMARK VINA RESULT:    -7.173      1.854      3.723
REMARK INTER + INTRA:         -11.556
REMARK INTER:                  -9.859
REMARK INTRA:                  -1.698
REMARK UNBOUND:                -1.867
REMARK SMILES CC[C@H](CC[C@@H](C)[C@@H]1CC[C@@H]2[C@@H]3CC(=O)C4=CC(=O)CC[C@]4(C)[C@H]3CC[C@@]21C)C(C)C
REMARK SMILES IDX 4 1 3 2 2 3 1 4 29 5 30 6 31 7 5 8 6 9 7 10 8 11 9 12 27 13
REMARK SMILES IDX 10 14 11 15 26 16 28 17 12 18 25 19 24 20 13 21 22 22 14 23
REMARK SMILES IDX 16 24 21 25 23 26 15 27 17 28 20 29 18 30 19 31
REMARK H PARENT
REMARK Flexibility Score: inf
ROOT
ATOM      1  C   UNL     1       7.731 -16.408  23.303  1.00  0.00     0.004 C 
ENDROOT
BRANCH   1   2
ATOM      2  C   UNL     1       8.946 -16.276  24.266  1.00  0.00    -0.009 C 
BRANCH   2   3
ATOM      3  C   UNL     1       9.509 -14.829  24.157  1.00  0.00     0.000 C 
ATOM      4  C   UNL     1      10.939 -14.740  23.626  1.00  0.00     0.004 C 
ENDBRANCH   2   3
BRANCH   2   5
ATOM      5  C   UNL     1       8.586 -16.740  25.726  1.00  0.00    -0.014 C 
ATOM      6  C   UNL     1       9.740 -17.483  26.420  1.00  0.00     0.007 C 
ATOM      7  C   UNL     1       8.040 -15.619  26.626  1.00  0.00     0.007 C 
ENDBRANCH   2   5
ENDBRANCH   1   2
BRANCH   1   8
ATOM      8  C   UNL     1       6.858 -17.655  23.565  1.00  0.00     0.004 C 
BRANCH   8   9
ATOM      9  C   UNL     1       7.125 -18.788  22.530  1.00  0.00    -0.011 C 
ATOM     10  C   UNL     1       7.906 -18.246  21.319  1.00  0.00     0.008 C 
BRANCH   9  11
ATOM     11  C   UNL     1       7.748 -20.121  23.084  1.00  0.00    -0.002 C 
ATOM     12  C   UNL     1       7.349 -20.424  24.542  1.00  0.00     0.005 C 
ATOM     13  C   UNL     1       9.283 -20.425  22.968  1.00  0.00    -0.026 C 
ATOM     14  C   UNL     1       8.537 -21.126  25.189  1.00  0.00     0.005 C 
ATOM     15  C   UNL     1       9.468 -21.528  24.040  1.00  0.00    -0.001 C 
ATOM     16  C   UNL     1      10.165 -19.191  23.303  1.00  0.00     0.007 C 
ATOM     17  C   UNL     1       9.644 -20.983  21.564  1.00  0.00     0.012 C 
ATOM     18  C   UNL     1      10.948 -21.816  24.444  1.00  0.00     0.004 C 
ATOM     19  C   UNL     1      11.631 -19.539  23.575  1.00  0.00     0.005 C 
ATOM     20  C   UNL     1      11.762 -20.516  24.767  1.00  0.00     0.003 C 
ATOM     21  C   UNL     1      11.020 -22.883  25.568  1.00  0.00     0.085 C 
ATOM     22  C   UNL     1      13.257 -20.833  25.177  1.00  0.00    -0.000 C 
ATOM     23  C   UNL     1      12.408 -23.047  26.105  1.00  0.00     0.159 C 
ATOM     24  C   UNL     1      13.196 -21.833  26.332  1.00  0.00     0.005 C 
ATOM     25  C   UNL     1      14.070 -19.559  25.596  1.00  0.00     0.020 C 
ATOM     26  C   UNL     1      14.047 -21.495  24.015  1.00  0.00     0.017 C 
ATOM     27  O   UNL     1      12.829 -24.176  26.476  1.00  0.00    -0.295 OA
ATOM     28  C   UNL     1      13.528 -21.521  27.597  1.00  0.00     0.055 C 
ATOM     29  C   UNL     1      13.708 -19.042  26.987  1.00  0.00     0.081 C 
ATOM     30  C   UNL     1      13.878 -20.147  27.978  1.00  0.00     0.156 C 
ATOM     31  O   UNL     1      14.224 -19.890  29.161  1.00  0.00    -0.295 OA
ENDBRANCH   9  11
ENDBRANCH   8   9
ENDBRANCH   1   8
TORSDOF 6
ENDMDL
MODEL 6
REMARK VINA RESULT:    -7.155      2.081      3.376
REMARK INTER + INTRA:         -11.532
REMARK INTER:                 -10.122
REMARK INTRA:                  -1.410
REMARK UNBOUND:                -1.867
REMARK SMILES CC[C@H](CC[C@@H](C)[C@@H]1CC[C@@H]2[C@@H]3CC(=O)C4=CC(=O)CC[C@]4(C)[C@H]3CC[C@@]21C)C(C)C
REMARK SMILES IDX 4 1 3 2 2 3 1 4 29 5 30 6 31 7 5 8 6 9 7 10 8 11 9 12 27 13
REMARK SMILES IDX 10 14 11 15 26 16 28 17 12 18 25 19 24 20 13 21 22 22 14 23
REMARK SMILES IDX 16 24 21 25 23 26 15 27 17 28 20 29 18 30 19 31
REMARK H PARENT
REMARK Flexibility Score: inf
ROOT
ATOM      1  C   UNL     1       6.468 -16.411  24.742  1.00  0.00     0.004 C 
ENDROOT
BRANCH   1   2
ATOM      2  C   UNL     1       6.859 -16.208  23.249  1.00  0.00    -0.009 C 
BRANCH   2   3
ATOM      3  C   UNL     1       7.071 -14.687  22.996  1.00  0.00     0.000 C 
ATOM      4  C   UNL     1       6.046 -14.047  22.060  1.00  0.00     0.004 C 
ENDBRANCH   2   3
BRANCH   2   5
ATOM      5  C   UNL     1       8.068 -17.125  22.833  1.00  0.00    -0.014 C 
ATOM      6  C   UNL     1       7.623 -18.499  22.304  1.00  0.00     0.007 C 
ATOM      7  C   UNL     1       9.057 -16.460  21.861  1.00  0.00     0.007 C 
ENDBRANCH   2   5
ENDBRANCH   1   2
BRANCH   1   8
ATOM      8  C   UNL     1       7.491 -15.829  25.741  1.00  0.00     0.004 C 
BRANCH   8   9
ATOM      9  C   UNL     1       8.156 -16.935  26.613  1.00  0.00    -0.011 C 
ATOM     10  C   UNL     1       7.448 -18.287  26.411  1.00  0.00     0.008 C 
BRANCH   9  11
ATOM     11  C   UNL     1       9.720 -17.069  26.515  1.00  0.00    -0.002 C 
ATOM     12  C   UNL     1      10.352 -16.118  25.479  1.00  0.00     0.005 C 
ATOM     13  C   UNL     1      10.419 -18.460  26.330  1.00  0.00    -0.026 C 
ATOM     14  C   UNL     1      11.554 -16.845  24.888  1.00  0.00     0.005 C 
ATOM     15  C   UNL     1      11.815 -18.045  25.804  1.00  0.00    -0.001 C 
ATOM     16  C   UNL     1       9.695 -19.362  25.292  1.00  0.00     0.007 C 
ATOM     17  C   UNL     1      10.562 -19.206  27.686  1.00  0.00     0.012 C 
ATOM     18  C   UNL     1      12.655 -19.201  25.175  1.00  0.00     0.004 C 
ATOM     19  C   UNL     1      10.541 -20.542  24.807  1.00  0.00     0.005 C 
ATOM     20  C   UNL     1      11.848 -20.055  24.139  1.00  0.00     0.003 C 
ATOM     21  C   UNL     1      14.003 -18.670  24.619  1.00  0.00     0.085 C 
ATOM     22  C   UNL     1      12.720 -21.218  23.512  1.00  0.00    -0.000 C 
ATOM     23  C   UNL     1      14.748 -19.714  23.848  1.00  0.00     0.159 C 
ATOM     24  C   UNL     1      13.978 -20.564  22.937  1.00  0.00     0.005 C 
ATOM     25  C   UNL     1      11.967 -22.031  22.403  1.00  0.00     0.020 C 
ATOM     26  C   UNL     1      13.167 -22.247  24.586  1.00  0.00     0.017 C 
ATOM     27  O   UNL     1      16.008 -19.766  23.878  1.00  0.00    -0.295 OA
ATOM     28  C   UNL     1      14.219 -20.461  21.619  1.00  0.00     0.055 C 
ATOM     29  C   UNL     1      11.857 -21.284  21.076  1.00  0.00     0.081 C 
ATOM     30  C   UNL     1      13.224 -20.883  20.625  1.00  0.00     0.156 C 
ATOM     31  O   UNL     1      13.490 -20.813  19.397  1.00  0.00    -0.295 OA
ENDBRANCH   9  11
ENDBRANCH   8   9
ENDBRANCH   1   8
TORSDOF 6
ENDMDL
MODEL 7
REMARK VINA RESULT:    -7.141      4.494      7.812
REMARK INTER + INTRA:         -11.513
REMARK INTER:                  -9.289
REMARK INTRA:                  -2.224
REMARK UNBOUND:                -1.867
REMARK SMILES CC[C@H](CC[C@@H](C)[C@@H]1CC[C@@H]2[C@@H]3CC(=O)C4=CC(=O)CC[C@]4(C)[C@H]3CC[C@@]21C)C(C)C
REMARK SMILES IDX 4 1 3 2 2 3 1 4 29 5 30 6 31 7 5 8 6 9 7 10 8 11 9 12 27 13
REMARK SMILES IDX 10 14 11 15 26 16 28 17 12 18 25 19 24 20 13 21 22 22 14 23
REMARK SMILES IDX 16 24 21 25 23 26 15 27 17 28 20 29 18 30 19 31
REMARK H PARENT
REMARK Flexibility Score: inf
ROOT
ATOM      1  C   UNL     1       7.294 -16.855  26.094  1.00  0.00     0.004 C 
ENDROOT
BRANCH   1   2
ATOM      2  C   UNL     1       8.009 -18.144  26.594  1.00  0.00    -0.009 C 
BRANCH   2   3
ATOM      3  C   UNL     1       7.451 -19.360  25.799  1.00  0.00     0.000 C 
ATOM      4  C   UNL     1       7.106 -20.578  26.656  1.00  0.00     0.004 C 
ENDBRANCH   2   3
BRANCH   2   5
ATOM      5  C   UNL     1       9.575 -17.993  26.563  1.00  0.00    -0.014 C 
ATOM      6  C   UNL     1      10.246 -18.923  25.539  1.00  0.00     0.007 C 
ATOM      7  C   UNL     1      10.063 -16.545  26.388  1.00  0.00     0.007 C 
ENDBRANCH   2   5
ENDBRANCH   1   2
BRANCH   1   8
ATOM      8  C   UNL     1       6.532 -17.040  24.764  1.00  0.00     0.004 C 
BRANCH   8   9
ATOM      9  C   UNL     1       7.249 -16.335  23.574  1.00  0.00    -0.011 C 
ATOM     10  C   UNL     1       7.442 -14.836  23.866  1.00  0.00     0.008 C 
BRANCH   9  11
ATOM     11  C   UNL     1       8.567 -17.007  23.042  1.00  0.00    -0.002 C 
ATOM     12  C   UNL     1       9.674 -15.991  22.694  1.00  0.00     0.005 C 
ATOM     13  C   UNL     1       8.545 -18.060  21.880  1.00  0.00    -0.026 C 
ATOM     14  C   UNL     1      10.447 -16.567  21.514  1.00  0.00     0.005 C 
ATOM     15  C   UNL     1      10.019 -18.034  21.403  1.00  0.00    -0.001 C 
ATOM     16  C   UNL     1       7.594 -17.654  20.720  1.00  0.00     0.007 C 
ATOM     17  C   UNL     1       8.182 -19.475  22.406  1.00  0.00     0.012 C 
ATOM     18  C   UNL     1      10.277 -18.707  20.018  1.00  0.00     0.004 C 
ATOM     19  C   UNL     1       7.831 -18.438  19.427  1.00  0.00     0.005 C 
ATOM     20  C   UNL     1       9.274 -18.237  18.909  1.00  0.00     0.003 C 
ATOM     21  C   UNL     1      11.766 -18.568  19.601  1.00  0.00     0.085 C 
ATOM     22  C   UNL     1       9.558 -18.929  17.514  1.00  0.00    -0.000 C 
ATOM     23  C   UNL     1      12.008 -19.037  18.201  1.00  0.00     0.159 C 
ATOM     24  C   UNL     1      11.026 -18.663  17.180  1.00  0.00     0.005 C 
ATOM     25  C   UNL     1       8.630 -18.409  16.362  1.00  0.00     0.020 C 
ATOM     26  C   UNL     1       9.357 -20.467  17.581  1.00  0.00     0.017 C 
ATOM     27  O   UNL     1      13.085 -19.614  17.889  1.00  0.00    -0.295 OA
ATOM     28  C   UNL     1      11.422 -17.838  16.195  1.00  0.00     0.055 C 
ATOM     29  C   UNL     1       9.019 -17.024  15.851  1.00  0.00     0.081 C 
ATOM     30  C   UNL     1      10.453 -17.045  15.429  1.00  0.00     0.156 C 
ATOM     31  O   UNL     1      10.845 -16.311  14.484  1.00  0.00    -0.295 OA
ENDBRANCH   9  11
ENDBRANCH   8   9
ENDBRANCH   1   8
TORSDOF 6
ENDMDL
MODEL 8
REMARK VINA RESULT:    -7.129      3.104      5.297
REMARK INTER + INTRA:         -11.497
REMARK INTER:                  -9.733
REMARK INTRA:                  -1.764
REMARK UNBOUND:                -1.867
REMARK SMILES CC[C@H](CC[C@@H](C)[C@@H]1CC[C@@H]2[C@@H]3CC(=O)C4=CC(=O)CC[C@]4(C)[C@H]3CC[C@@]21C)C(C)C
REMARK SMILES IDX 4 1 3 2 2 3 1 4 29 5 30 6 31 7 5 8 6 9 7 10 8 11 9 12 27 13
REMARK SMILES IDX 10 14 11 15 26 16 28 17 12 18 25 19 24 20 13 21 22 22 14 23
REMARK SMILES IDX 16 24 21 25 23 26 15 27 17 28 20 29 18 30 19 31
REMARK H PARENT
REMARK Flexibility Score: inf
ROOT
ATOM      1  C   UNL     1       7.241 -17.758  25.155  1.00  0.00     0.004 C 
ENDROOT
BRANCH   1   2
ATOM      2  C   UNL     1       7.672 -19.195  25.570  1.00  0.00    -0.009 C 
BRANCH   2   3
ATOM      3  C   UNL     1       7.061 -19.512  26.966  1.00  0.00     0.000 C 
ATOM      4  C   UNL     1       6.866 -21.000  27.254  1.00  0.00     0.004 C 
ENDBRANCH   2   3
BRANCH   2   5
ATOM      5  C   UNL     1       7.347 -20.249  24.448  1.00  0.00    -0.014 C 
ATOM      6  C   UNL     1       6.794 -19.606  23.165  1.00  0.00     0.007 C 
ATOM      7  C   UNL     1       8.510 -21.201  24.124  1.00  0.00     0.007 C 
ENDBRANCH   2   5
ENDBRANCH   1   2
BRANCH   1   8
ATOM      8  C   UNL     1       8.175 -16.648  25.684  1.00  0.00     0.004 C 
BRANCH   8   9
ATOM      9  C   UNL     1       8.949 -15.935  24.536  1.00  0.00    -0.011 C 
ATOM     10  C   UNL     1       8.500 -14.468  24.405  1.00  0.00     0.008 C 
BRANCH   9  11
ATOM     11  C   UNL     1      10.516 -16.074  24.546  1.00  0.00    -0.002 C 
ATOM     12  C   UNL     1      11.226 -15.055  23.632  1.00  0.00     0.005 C 
ATOM     13  C   UNL     1      11.223 -17.453  24.312  1.00  0.00    -0.026 C 
ATOM     14  C   UNL     1      12.467 -15.746  23.080  1.00  0.00     0.005 C 
ATOM     15  C   UNL     1      12.656 -17.011  23.923  1.00  0.00    -0.001 C 
ATOM     16  C   UNL     1      10.577 -18.271  23.159  1.00  0.00     0.007 C 
ATOM     17  C   UNL     1      11.263 -18.297  25.616  1.00  0.00     0.012 C 
ATOM     18  C   UNL     1      13.538 -18.124  23.275  1.00  0.00     0.004 C 
ATOM     19  C   UNL     1      11.454 -19.419  22.653  1.00  0.00     0.005 C 
ATOM     20  C   UNL     1      12.809 -18.894  22.121  1.00  0.00     0.003 C 
ATOM     21  C   UNL     1      14.925 -17.564  22.861  1.00  0.00     0.085 C 
ATOM     22  C   UNL     1      13.723 -20.015  21.478  1.00  0.00    -0.000 C 
ATOM     23  C   UNL     1      15.724 -18.555  22.072  1.00  0.00     0.159 C 
ATOM     24  C   UNL     1      15.021 -19.330  21.047  1.00  0.00     0.005 C 
ATOM     25  C   UNL     1      13.054 -20.739  20.259  1.00  0.00     0.020 C 
ATOM     26  C   UNL     1      14.087 -21.123  22.503  1.00  0.00     0.017 C 
ATOM     27  O   UNL     1      16.977 -18.618  22.193  1.00  0.00    -0.295 OA
ATOM     28  C   UNL     1      15.361 -19.133  19.761  1.00  0.00     0.055 C 
ATOM     29  C   UNL     1      13.044 -19.896  18.986  1.00  0.00     0.081 C 
ATOM     30  C   UNL     1      14.442 -19.474  18.668  1.00  0.00     0.156 C 
ATOM     31  O   UNL     1      14.799 -19.316  17.472  1.00  0.00    -0.295 OA
ENDBRANCH   9  11
ENDBRANCH   8   9
ENDBRANCH   1   8
TORSDOF 6
ENDMDL
MODEL 9
REMARK VINA RESULT:    -7.112      3.407      5.675
REMARK INTER + INTRA:         -11.473
REMARK INTER:                  -9.590
REMARK INTRA:                  -1.883
REMARK UNBOUND:                -1.867
REMARK SMILES CC[C@H](CC[C@@H](C)[C@@H]1CC[C@@H]2[C@@H]3CC(=O)C4=CC(=O)CC[C@]4(C)[C@H]3CC[C@@]21C)C(C)C
REMARK SMILES IDX 4 1 3 2 2 3 1 4 29 5 30 6 31 7 5 8 6 9 7 10 8 11 9 12 27 13
REMARK SMILES IDX 10 14 11 15 26 16 28 17 12 18 25 19 24 20 13 21 22 22 14 23
REMARK SMILES IDX 16 24 21 25 23 26 15 27 17 28 20 29 18 30 19 31
REMARK H PARENT
REMARK Flexibility Score: inf
ROOT
ATOM      1  C   UNL     1       7.168 -16.614  22.149  1.00  0.00     0.004 C 
ENDROOT
BRANCH   1   2
ATOM      2  C   UNL     1       7.493 -15.603  21.012  1.00  0.00    -0.009 C 
BRANCH   2   3
ATOM      3  C   UNL     1       7.964 -16.400  19.760  1.00  0.00     0.000 C 
ATOM      4  C   UNL     1       7.468 -17.844  19.700  1.00  0.00     0.004 C 
ENDBRANCH   2   3
BRANCH   2   5
ATOM      5  C   UNL     1       6.301 -14.609  20.756  1.00  0.00    -0.014 C 
ATOM      6  C   UNL     1       6.088 -13.619  21.913  1.00  0.00     0.007 C 
ATOM      7  C   UNL     1       6.378 -13.867  19.411  1.00  0.00     0.007 C 
ENDBRANCH   2   5
ENDBRANCH   1   2
BRANCH   1   8
ATOM      8  C   UNL     1       7.749 -16.217  23.524  1.00  0.00     0.004 C 
BRANCH   8   9
ATOM      9  C   UNL     1       9.257 -15.841  23.437  1.00  0.00    -0.011 C 
ATOM     10  C   UNL     1       9.552 -14.578  24.268  1.00  0.00     0.008 C 
BRANCH   9  11
ATOM     11  C   UNL     1      10.292 -16.989  23.724  1.00  0.00    -0.002 C 
ATOM     12  C   UNL     1      11.495 -16.531  24.573  1.00  0.00     0.005 C 
ATOM     13  C   UNL     1      10.871 -17.884  22.574  1.00  0.00    -0.026 C 
ATOM     14  C   UNL     1      12.701 -17.334  24.100  1.00  0.00     0.005 C 
ATOM     15  C   UNL     1      12.140 -18.471  23.239  1.00  0.00    -0.001 C 
ATOM     16  C   UNL     1      11.253 -17.064  21.310  1.00  0.00     0.007 C 
ATOM     17  C   UNL     1       9.890 -19.028  22.199  1.00  0.00     0.012 C 
ATOM     18  C   UNL     1      13.156 -19.133  22.256  1.00  0.00     0.004 C 
ATOM     19  C   UNL     1      12.159 -17.820  20.336  1.00  0.00     0.005 C 
ATOM     20  C   UNL     1      13.485 -18.235  21.014  1.00  0.00     0.003 C 
ATOM     21  C   UNL     1      14.420 -19.627  23.011  1.00  0.00     0.085 C 
ATOM     22  C   UNL     1      14.520 -18.925  20.034  1.00  0.00    -0.000 C 
ATOM     23  C   UNL     1      15.490 -20.098  22.076  1.00  0.00     0.159 C 
ATOM     24  C   UNL     1      15.741 -19.299  20.875  1.00  0.00     0.005 C 
ATOM     25  C   UNL     1      14.939 -18.012  18.831  1.00  0.00     0.020 C 
ATOM     26  C   UNL     1      13.948 -20.231  19.418  1.00  0.00     0.017 C 
ATOM     27  O   UNL     1      16.237 -21.067  22.383  1.00  0.00    -0.295 OA
ATOM     28  C   UNL     1      16.931 -18.683  20.762  1.00  0.00     0.055 C 
ATOM     29  C   UNL     1      15.917 -16.907  19.223  1.00  0.00     0.081 C 
ATOM     30  C   UNL     1      17.109 -17.521  19.882  1.00  0.00     0.156 C 
ATOM     31  O   UNL     1      18.243 -16.988  19.764  1.00  0.00    -0.295 OA
ENDBRANCH   9  11
ENDBRANCH   8   9
ENDBRANCH   1   8
TORSDOF 6
ENDMDL
