MODEL 1
REMARK VINA RESULT:    29.777      0.000      0.000
REMARK INTER + INTRA:          40.267
REMARK INTER:                  40.222
REMARK INTRA:                   0.045
REMARK UNBOUND:                 0.045
REMARK SMILES CC[C@H](CC[C@@H](C)[C@H]1CC[C@H]2[C@@H]3CC(=O)C4=CC(=O)CC[C@@]4(C)[C@H]3CC[C@]12C)C(C)C
REMARK SMILES IDX 4 1 3 2 2 3 1 4 29 5 30 6 31 7 5 8 6 9 7 10 8 11 9 12 27 13
REMARK SMILES IDX 10 14 11 15 26 16 28 17 12 18 25 19 24 20 13 21 22 22 14 23
REMARK SMILES IDX 16 24 21 25 23 26 15 27 17 28 20 29 18 30 19 31
REMARK H PARENT
REMARK Flexibility Score: inf
ROOT
ATOM      1  C   UNL     1       2.891  23.159  -4.844  1.00  0.00     0.004 C 
ENDROOT
BRANCH   1   2
ATOM      2  C   UNL     1       3.584  24.053  -3.776  1.00  0.00    -0.009 C 
BRANCH   2   3
ATOM      3  C   UNL     1       4.609  25.004  -4.457  1.00  0.00     0.000 C 
ATOM      4  C   UNL     1       5.972  25.030  -3.761  1.00  0.00     0.004 C 
ENDBRANCH   2   3
BRANCH   2   5
ATOM      5  C   UNL     1       2.557  24.822  -2.876  1.00  0.00    -0.014 C 
ATOM      6  C   UNL     1       2.564  26.336  -3.147  1.00  0.00     0.007 C 
ATOM      7  C   UNL     1       2.734  24.554  -1.372  1.00  0.00     0.007 C 
ENDBRANCH   2   5
ENDBRANCH   1   2
BRANCH   1   8
ATOM      8  C   UNL     1       2.669  21.691  -4.387  1.00  0.00     0.004 C 
BRANCH   8   9
ATOM      9  C   UNL     1       3.115  20.584  -5.389  1.00  0.00    -0.011 C 
ATOM     10  C   UNL     1       4.641  20.597  -5.608  1.00  0.00     0.008 C 
BRANCH   9  11
ATOM     11  C   UNL     1       2.591  19.123  -5.127  1.00  0.00    -0.002 C 
ATOM     12  C   UNL     1       1.108  18.813  -5.454  1.00  0.00     0.005 C 
ATOM     13  C   UNL     1       3.368  17.968  -5.812  1.00  0.00    -0.026 C 
ATOM     14  C   UNL     1       1.036  17.298  -5.728  1.00  0.00     0.005 C 
ATOM     15  C   UNL     1       2.451  16.788  -5.466  1.00  0.00    -0.001 C 
ATOM     16  C   UNL     1       4.755  17.664  -5.195  1.00  0.00     0.007 C 
ATOM     17  C   UNL     1       3.488  18.216  -7.350  1.00  0.00     0.012 C 
ATOM     18  C   UNL     1       2.897  15.455  -6.109  1.00  0.00     0.004 C 
ATOM     19  C   UNL     1       5.330  16.341  -5.754  1.00  0.00     0.005 C 
ATOM     20  C   UNL     1       4.352  15.121  -5.639  1.00  0.00     0.003 C 
ATOM     21  C   UNL     1       1.950  14.323  -5.665  1.00  0.00     0.085 C 
ATOM     22  C   UNL     1       4.913  13.771  -6.274  1.00  0.00    -0.000 C 
ATOM     23  C   UNL     1       2.415  12.995  -6.165  1.00  0.00     0.159 C 
ATOM     24  C   UNL     1       3.777  12.836  -6.723  1.00  0.00     0.005 C 
ATOM     25  C   UNL     1       5.837  14.040  -7.505  1.00  0.00     0.020 C 
ATOM     26  C   UNL     1       5.721  13.030  -5.180  1.00  0.00     0.017 C 
ATOM     27  O   UNL     1       1.623  12.015  -6.116  1.00  0.00    -0.295 OA
ATOM     28  C   UNL     1       3.991  11.865  -7.632  1.00  0.00     0.055 C 
ATOM     29  C   UNL     1       6.351  12.760  -8.182  1.00  0.00     0.081 C 
ATOM     30  C   UNL     1       5.266  11.744  -8.352  1.00  0.00     0.156 C 
ATOM     31  O   UNL     1       5.451  10.762  -9.119  1.00  0.00    -0.295 OA
ENDBRANCH   9  11
ENDBRANCH   8   9
ENDBRANCH   1   8
TORSDOF 6
ENDMDL
MODEL 2
REMARK VINA RESULT:    30.261      1.551      2.742
REMARK INTER + INTRA:          40.920
REMARK INTER:                  41.583
REMARK INTRA:                  -0.662
REMARK UNBOUND:                 0.045
REMARK SMILES CC[C@H](CC[C@@H](C)[C@H]1CC[C@H]2[C@@H]3CC(=O)C4=CC(=O)CC[C@@]4(C)[C@H]3CC[C@]12C)C(C)C
REMARK SMILES IDX 4 1 3 2 2 3 1 4 29 5 30 6 31 7 5 8 6 9 7 10 8 11 9 12 27 13
REMARK SMILES IDX 10 14 11 15 26 16 28 17 12 18 25 19 24 20 13 21 22 22 14 23
REMARK SMILES IDX 16 24 21 25 23 26 15 27 17 28 20 29 18 30 19 31
REMARK H PARENT
REMARK Flexibility Score: inf
ROOT
ATOM      1  C   UNL     1       2.567  23.209  -4.647  1.00  0.00     0.004 C 
ENDROOT
BRANCH   1   2
ATOM      2  C   UNL     1       3.407  24.043  -3.638  1.00  0.00    -0.009 C 
BRANCH   2   3
ATOM      3  C   UNL     1       4.464  24.895  -4.398  1.00  0.00     0.000 C 
ATOM      4  C   UNL     1       5.774  25.069  -3.626  1.00  0.00     0.004 C 
ENDBRANCH   2   3
BRANCH   2   5
ATOM      5  C   UNL     1       2.515  24.906  -2.681  1.00  0.00    -0.014 C 
ATOM      6  C   UNL     1       2.610  26.409  -2.993  1.00  0.00     0.007 C 
ATOM      7  C   UNL     1       2.794  24.657  -1.189  1.00  0.00     0.007 C 
ENDBRANCH   2   5
ENDBRANCH   1   2
BRANCH   1   8
ATOM      8  C   UNL     1       3.126  21.781  -4.900  1.00  0.00     0.004 C 
BRANCH   8   9
ATOM      9  C   UNL     1       2.127  20.748  -5.504  1.00  0.00    -0.011 C 
ATOM     10  C   UNL     1       0.853  21.435  -6.034  1.00  0.00     0.008 C 
BRANCH   9  11
ATOM     11  C   UNL     1       2.700  19.723  -6.553  1.00  0.00    -0.002 C 
ATOM     12  C   UNL     1       3.900  20.169  -7.425  1.00  0.00     0.005 C 
ATOM     13  C   UNL     1       3.135  18.336  -6.009  1.00  0.00    -0.026 C 
ATOM     14  C   UNL     1       4.631  18.878  -7.842  1.00  0.00     0.005 C 
ATOM     15  C   UNL     1       3.781  17.748  -7.269  1.00  0.00    -0.001 C 
ATOM     16  C   UNL     1       1.967  17.399  -5.614  1.00  0.00     0.007 C 
ATOM     17  C   UNL     1       4.142  18.497  -4.825  1.00  0.00     0.012 C 
ATOM     18  C   UNL     1       4.432  16.365  -7.036  1.00  0.00     0.004 C 
ATOM     19  C   UNL     1       2.478  15.963  -5.348  1.00  0.00     0.005 C 
ATOM     20  C   UNL     1       3.345  15.369  -6.510  1.00  0.00     0.003 C 
ATOM     21  C   UNL     1       5.006  15.833  -8.363  1.00  0.00     0.085 C 
ATOM     22  C   UNL     1       3.930  13.916  -6.213  1.00  0.00    -0.000 C 
ATOM     23  C   UNL     1       5.538  14.446  -8.210  1.00  0.00     0.159 C 
ATOM     24  C   UNL     1       5.222  13.648  -7.004  1.00  0.00     0.005 C 
ATOM     25  C   UNL     1       4.236  13.705  -4.695  1.00  0.00     0.020 C 
ATOM     26  C   UNL     1       2.878  12.876  -6.672  1.00  0.00     0.017 C 
ATOM     27  O   UNL     1       6.271  13.971  -9.120  1.00  0.00    -0.295 OA
ATOM     28  C   UNL     1       6.092  12.694  -6.615  1.00  0.00     0.055 C 
ATOM     29  C   UNL     1       4.857  12.336  -4.375  1.00  0.00     0.081 C 
ATOM     30  C   UNL     1       5.936  11.972  -5.346  1.00  0.00     0.156 C 
ATOM     31  O   UNL     1       6.719  11.023  -5.075  1.00  0.00    -0.295 OA
ENDBRANCH   9  11
ENDBRANCH   8   9
ENDBRANCH   1   8
TORSDOF 6
ENDMDL
MODEL 3
REMARK VINA RESULT:    30.496      1.529      2.581
REMARK INTER + INTRA:          41.237
REMARK INTER:                  40.911
REMARK INTRA:                   0.326
REMARK UNBOUND:                 0.045
REMARK SMILES CC[C@H](CC[C@@H](C)[C@H]1CC[C@H]2[C@@H]3CC(=O)C4=CC(=O)CC[C@@]4(C)[C@H]3CC[C@]12C)C(C)C
REMARK SMILES IDX 4 1 3 2 2 3 1 4 29 5 30 6 31 7 5 8 6 9 7 10 8 11 9 12 27 13
REMARK SMILES IDX 10 14 11 15 26 16 28 17 12 18 25 19 24 20 13 21 22 22 14 23
REMARK SMILES IDX 16 24 21 25 23 26 15 27 17 28 20 29 18 30 19 31
REMARK H PARENT
REMARK Flexibility Score: inf
ROOT
ATOM      1  C   UNL     1       3.482  22.624  -4.331  1.00  0.00     0.004 C 
ENDROOT
BRANCH   1   2
ATOM      2  C   UNL     1       2.779  23.944  -3.906  1.00  0.00    -0.009 C 
BRANCH   2   3
ATOM      3  C   UNL     1       2.413  23.893  -2.394  1.00  0.00     0.000 C 
ATOM      4  C   UNL     1       3.461  24.550  -1.492  1.00  0.00     0.004 C 
ENDBRANCH   2   3
BRANCH   2   5
ATOM      5  C   UNL     1       3.610  25.218  -4.280  1.00  0.00    -0.014 C 
ATOM      6  C   UNL     1       5.090  25.086  -3.880  1.00  0.00     0.007 C 
ATOM      7  C   UNL     1       3.025  26.524  -3.718  1.00  0.00     0.007 C 
ENDBRANCH   2   5
ENDBRANCH   1   2
BRANCH   1   8
ATOM      8  C   UNL     1       2.506  21.523  -4.830  1.00  0.00     0.004 C 
BRANCH   8   9
ATOM      9  C   UNL     1       3.007  20.644  -6.014  1.00  0.00    -0.011 C 
ATOM     10  C   UNL     1       3.625  21.502  -7.136  1.00  0.00     0.008 C 
BRANCH   9  11
ATOM     11  C   UNL     1       3.931  19.420  -5.660  1.00  0.00    -0.002 C 
ATOM     12  C   UNL     1       4.090  19.036  -4.167  1.00  0.00     0.005 C 
ATOM     13  C   UNL     1       3.601  18.071  -6.354  1.00  0.00    -0.026 C 
ATOM     14  C   UNL     1       4.457  17.540  -4.145  1.00  0.00     0.005 C 
ATOM     15  C   UNL     1       4.577  17.147  -5.615  1.00  0.00    -0.001 C 
ATOM     16  C   UNL     1       3.964  18.009  -7.858  1.00  0.00     0.007 C 
ATOM     17  C   UNL     1       2.105  17.684  -6.128  1.00  0.00     0.012 C 
ATOM     18  C   UNL     1       4.428  15.659  -6.007  1.00  0.00     0.004 C 
ATOM     19  C   UNL     1       3.857  16.561  -8.392  1.00  0.00     0.005 C 
ATOM     20  C   UNL     1       4.656  15.509  -7.548  1.00  0.00     0.003 C 
ATOM     21  C   UNL     1       5.479  14.818  -5.256  1.00  0.00     0.085 C 
ATOM     22  C   UNL     1       4.496  14.006  -8.054  1.00  0.00    -0.000 C 
ATOM     23  C   UNL     1       5.451  13.391  -5.695  1.00  0.00     0.159 C 
ATOM     24  C   UNL     1       4.714  12.994  -6.916  1.00  0.00     0.005 C 
ATOM     25  C   UNL     1       3.086  13.743  -8.676  1.00  0.00     0.020 C 
ATOM     26  C   UNL     1       5.584  13.746  -9.125  1.00  0.00     0.017 C 
ATOM     27  O   UNL     1       6.056  12.528  -5.002  1.00  0.00    -0.295 OA
ATOM     28  C   UNL     1       4.236  11.737  -7.001  1.00  0.00     0.055 C 
ATOM     29  C   UNL     1       2.870  12.289  -9.123  1.00  0.00     0.081 C 
ATOM     30  C   UNL     1       3.358  11.312  -8.099  1.00  0.00     0.156 C 
ATOM     31  O   UNL     1       3.019  10.102  -8.186  1.00  0.00    -0.295 OA
ENDBRANCH   9  11
ENDBRANCH   8   9
ENDBRANCH   1   8
TORSDOF 6
ENDMDL
