MODEL 1
REMARK VINA RESULT:    -7.149      0.000      0.000
REMARK INTER + INTRA:         -12.371
REMARK INTER:                 -10.701
REMARK INTRA:                  -1.670
REMARK UNBOUND:                -1.670
REMARK SMILES C=C(CC[C@@H](C(=O)[O-])[C@@H]1[C@@H](O)C[C@]2(C)C3=C(CC[C@]12C)[C@@]1(C)CC[C@H](OC(C)=O)C(C)(C)[C@H]1CC3)C(C)C
REMARK SMILES IDX 4 1 5 2 6 3 7 4 8 5 9 6 10 7 19 8 12 9 13 10 18 11 20 12
REMARK SMILES IDX 14 13 15 14 17 15 16 16 35 17 21 18 34 19 33 20 23 21 22 22
REMARK SMILES IDX 30 23 24 24 25 25 31 26 32 27 11 28 26 30 27 31 29 32 28 33
REMARK SMILES IDX 3 34 2 35 1 36 36 37 37 38 38 39
REMARK H PARENT 11 29
REMARK Flexibility Score: inf
ROOT
ATOM      1  C   UNL     1      54.711   0.517  28.864  1.00  0.00     0.014 C 
ENDROOT
BRANCH   1   2
ATOM      2  C   UNL     1      53.688  -0.065  27.832  1.00  0.00     0.042 C 
BRANCH   2   3
ATOM      3  C   UNL     1      54.074  -1.442  27.348  1.00  0.00     0.045 C 
ATOM      4  O   UNL     1      54.093  -1.721  26.120  1.00  0.00    -0.550 OA
ATOM      5  O   UNL     1      54.461  -2.409  28.269  1.00  0.00    -0.550 OA
ENDBRANCH   2   3
BRANCH   2   6
ATOM      6  C   UNL     1      52.165   0.017  28.211  1.00  0.00     0.033 C 
ATOM      7  C   UNL     1      51.544  -1.359  28.506  1.00  0.00     0.119 C 
ATOM      8  C   UNL     1      51.131   0.813  27.336  1.00  0.00    -0.017 C 
ATOM      9  C   UNL     1      50.031  -1.214  28.322  1.00  0.00     0.043 C 
ATOM     10  C   UNL     1      49.731   0.229  27.821  1.00  0.00    -0.003 C 
ATOM     11  C   UNL     1      51.333   0.626  25.795  1.00  0.00     0.012 C 
ATOM     12  C   UNL     1      51.255   2.345  27.601  1.00  0.00     0.013 C 
ATOM     13  C   UNL     1      49.178   1.010  29.055  1.00  0.00     0.017 C 
ATOM     14  C   UNL     1      48.689   0.146  26.667  1.00  0.00    -0.064 C 
ATOM     15  C   UNL     1      50.562  -0.560  25.229  1.00  0.00     0.032 C 
ATOM     16  C   UNL     1      49.075  -0.320  25.437  1.00  0.00    -0.064 C 
ATOM     17  C   UNL     1      47.226   0.462  26.907  1.00  0.00     0.032 C 
ATOM     18  C   UNL     1      48.050  -0.753  24.339  1.00  0.00    -0.008 C 
ATOM     19  C   UNL     1      46.599   0.977  25.630  1.00  0.00     0.009 C 
ATOM     20  C   UNL     1      46.601  -0.097  24.518  1.00  0.00     0.009 C 
ATOM     21  C   UNL     1      47.999  -2.305  24.380  1.00  0.00     0.015 C 
ATOM     22  C   UNL     1      48.576  -0.343  22.935  1.00  0.00     0.016 C 
ATOM     23  C   UNL     1      45.379  -1.124  24.526  1.00  0.00     0.005 C 
ATOM     24  C   UNL     1      47.137  -2.818  25.523  1.00  0.00     0.047 C 
ATOM     25  C   UNL     1      45.658  -2.395  25.420  1.00  0.00     0.182 C 
ATOM     26  C   UNL     1      44.075  -0.453  25.043  1.00  0.00     0.015 C 
ATOM     27  C   UNL     1      45.057  -1.529  23.054  1.00  0.00     0.015 C 
BRANCH   7  28
ATOM     28  O   UNL     1      51.854  -1.756  29.818  1.00  0.00    -0.393 OA
ATOM     29  H   UNL     1      51.043  -1.589  30.367  1.00  0.00     0.210 HD
ENDBRANCH   7  28
BRANCH  25  30
ATOM     30  O   UNL     1      44.904  -3.523  24.961  1.00  0.00    -0.462 OA
BRANCH  30  31
ATOM     31  C   UNL     1      43.977  -4.226  25.740  1.00  0.00     0.302 C 
ATOM     32  O   UNL     1      43.477  -5.310  25.334  1.00  0.00    -0.253 OA
ATOM     33  C   UNL     1      43.529  -3.650  27.040  1.00  0.00     0.139 C 
ENDBRANCH  30  31
ENDBRANCH  25  30
ENDBRANCH   2   6
ENDBRANCH   1   2
BRANCH   1  34
ATOM     34  C   UNL     1      54.074   0.871  30.221  1.00  0.00     0.031 C 
BRANCH  34  35
ATOM     35  C   UNL     1      55.108   0.955  31.328  1.00  0.00    -0.075 C 
ATOM     36  C   UNL     1      56.377   1.287  31.032  1.00  0.00     0.008 C 
BRANCH  35  37
ATOM     37  C   UNL     1      54.683   0.666  32.761  1.00  0.00     0.008 C 
ATOM     38  C   UNL     1      53.236   0.161  32.830  1.00  0.00     0.012 C 
ATOM     39  C   UNL     1      55.644  -0.324  33.433  1.00  0.00     0.012 C 
ENDBRANCH  35  37
ENDBRANCH  34  35
ENDBRANCH   1  34
TORSDOF 9
ENDMDL
MODEL 2
REMARK VINA RESULT:    -7.000      3.484      9.529
REMARK INTER + INTRA:         -12.147
REMARK INTER:                 -10.704
REMARK INTRA:                  -1.443
REMARK UNBOUND:                -1.670
REMARK SMILES C=C(CC[C@@H](C(=O)[O-])[C@@H]1[C@@H](O)C[C@]2(C)C3=C(CC[C@]12C)[C@@]1(C)CC[C@H](OC(C)=O)C(C)(C)[C@H]1CC3)C(C)C
REMARK SMILES IDX 4 1 5 2 6 3 7 4 8 5 9 6 10 7 19 8 12 9 13 10 18 11 20 12
REMARK SMILES IDX 14 13 15 14 17 15 16 16 35 17 21 18 34 19 33 20 23 21 22 22
REMARK SMILES IDX 30 23 24 24 25 25 31 26 32 27 11 28 26 30 27 31 29 32 28 33
REMARK SMILES IDX 3 34 2 35 1 36 36 37 37 38 38 39
REMARK H PARENT 11 29
REMARK Flexibility Score: inf
ROOT
ATOM      1  C   UNL     1      42.122  -2.480  26.506  1.00  0.00     0.014 C 
ENDROOT
BRANCH   1   2
ATOM      2  C   UNL     1      42.044  -3.267  27.857  1.00  0.00     0.042 C 
BRANCH   2   3
ATOM      3  C   UNL     1      40.844  -4.181  27.926  1.00  0.00     0.045 C 
ATOM      4  O   UNL     1      40.522  -4.756  28.999  1.00  0.00    -0.550 OA
ATOM      5  O   UNL     1      40.051  -4.357  26.798  1.00  0.00    -0.550 OA
ENDBRANCH   2   3
BRANCH   2   6
ATOM      6  C   UNL     1      43.356  -3.984  28.343  1.00  0.00     0.033 C 
ATOM      7  C   UNL     1      44.381  -3.012  28.951  1.00  0.00     0.119 C 
ATOM      8  C   UNL     1      44.150  -4.979  27.424  1.00  0.00    -0.017 C 
ATOM      9  C   UNL     1      45.747  -3.699  28.874  1.00  0.00     0.043 C 
ATOM     10  C   UNL     1      45.575  -5.057  28.132  1.00  0.00    -0.003 C 
ATOM     11  C   UNL     1      44.268  -4.506  25.936  1.00  0.00     0.012 C 
ATOM     12  C   UNL     1      43.439  -6.366  27.376  1.00  0.00     0.013 C 
ATOM     13  C   UNL     1      45.610  -6.162  29.234  1.00  0.00     0.017 C 
ATOM     14  C   UNL     1      46.739  -5.214  27.110  1.00  0.00    -0.064 C 
ATOM     15  C   UNL     1      45.494  -3.639  25.678  1.00  0.00     0.032 C 
ATOM     16  C   UNL     1      46.742  -4.461  25.964  1.00  0.00    -0.064 C 
ATOM     17  C   UNL     1      47.931  -6.100  27.409  1.00  0.00     0.032 C 
ATOM     18  C   UNL     1      48.009  -4.301  25.063  1.00  0.00    -0.008 C 
ATOM     19  C   UNL     1      48.516  -6.625  26.116  1.00  0.00     0.009 C 
ATOM     20  C   UNL     1      49.075  -5.482  25.237  1.00  0.00     0.009 C 
ATOM     21  C   UNL     1      48.615  -2.912  25.408  1.00  0.00     0.015 C 
ATOM     22  C   UNL     1      47.591  -4.267  23.566  1.00  0.00     0.016 C 
ATOM     23  C   UNL     1      50.570  -5.018  25.549  1.00  0.00     0.005 C 
ATOM     24  C   UNL     1      49.418  -2.944  26.698  1.00  0.00     0.047 C 
ATOM     25  C   UNL     1      50.639  -3.883  26.643  1.00  0.00     0.182 C 
ATOM     26  C   UNL     1      51.445  -6.207  26.036  1.00  0.00     0.015 C 
ATOM     27  C   UNL     1      51.238  -4.557  24.216  1.00  0.00     0.015 C 
BRANCH   7  28
ATOM     28  O   UNL     1      44.040  -2.722  30.284  1.00  0.00    -0.393 OA
ATOM     29  H   UNL     1      44.600  -1.950  30.561  1.00  0.00     0.210 HD
ENDBRANCH   7  28
BRANCH  25  30
ATOM     30  O   UNL     1      51.813  -3.078  26.478  1.00  0.00    -0.462 OA
BRANCH  30  31
ATOM     31  C   UNL     1      52.636  -2.652  27.527  1.00  0.00     0.302 C 
ATOM     32  O   UNL     1      52.150  -2.097  28.549  1.00  0.00    -0.253 OA
ATOM     33  C   UNL     1      54.114  -2.802  27.403  1.00  0.00     0.139 C 
ENDBRANCH  30  31
ENDBRANCH  25  30
ENDBRANCH   2   6
ENDBRANCH   1   2
BRANCH   1  34
ATOM     34  C   UNL     1      42.906  -1.159  26.613  1.00  0.00     0.031 C 
BRANCH  34  35
ATOM     35  C   UNL     1      43.032  -0.463  25.272  1.00  0.00    -0.075 C 
ATOM     36  C   UNL     1      41.924  -0.108  24.598  1.00  0.00     0.008 C 
BRANCH  35  37
ATOM     37  C   UNL     1      44.419  -0.174  24.715  1.00  0.00     0.008 C 
ATOM     38  C   UNL     1      45.486  -0.193  25.817  1.00  0.00     0.012 C 
ATOM     39  C   UNL     1      44.776  -1.150  23.586  1.00  0.00     0.012 C 
ENDBRANCH  35  37
ENDBRANCH  34  35
ENDBRANCH   1  34
TORSDOF 9
ENDMDL
MODEL 3
REMARK VINA RESULT:    -6.853      3.780      9.411
REMARK INTER + INTRA:         -11.927
REMARK INTER:                  -9.980
REMARK INTRA:                  -1.947
REMARK UNBOUND:                -1.670
REMARK SMILES C=C(CC[C@@H](C(=O)[O-])[C@@H]1[C@@H](O)C[C@]2(C)C3=C(CC[C@]12C)[C@@]1(C)CC[C@H](OC(C)=O)C(C)(C)[C@H]1CC3)C(C)C
REMARK SMILES IDX 4 1 5 2 6 3 7 4 8 5 9 6 10 7 19 8 12 9 13 10 18 11 20 12
REMARK SMILES IDX 14 13 15 14 17 15 16 16 35 17 21 18 34 19 33 20 23 21 22 22
REMARK SMILES IDX 30 23 24 24 25 25 31 26 32 27 11 28 26 30 27 31 29 32 28 33
REMARK SMILES IDX 3 34 2 35 1 36 36 37 37 38 38 39
REMARK H PARENT 11 29
REMARK Flexibility Score: inf
ROOT
ATOM      1  C   UNL     1      43.205  -1.975  26.621  1.00  0.00     0.014 C 
ENDROOT
BRANCH   1   2
ATOM      2  C   UNL     1      44.466  -2.259  25.738  1.00  0.00     0.042 C 
BRANCH   2   3
ATOM      3  C   UNL     1      44.540  -1.357  24.529  1.00  0.00     0.045 C 
ATOM      4  O   UNL     1      44.895  -1.798  23.405  1.00  0.00    -0.550 OA
ATOM      5  O   UNL     1      44.167  -0.023  24.646  1.00  0.00    -0.550 OA
ENDBRANCH   2   3
BRANCH   2   6
ATOM      6  C   UNL     1      45.849  -2.362  26.478  1.00  0.00     0.033 C 
ATOM      7  C   UNL     1      46.765  -1.156  26.210  1.00  0.00     0.119 C 
ATOM      8  C   UNL     1      46.744  -3.650  26.393  1.00  0.00    -0.017 C 
ATOM      9  C   UNL     1      48.197  -1.609  26.507  1.00  0.00     0.043 C 
ATOM     10  C   UNL     1      48.171  -3.124  26.867  1.00  0.00    -0.003 C 
ATOM     11  C   UNL     1      46.806  -4.282  24.962  1.00  0.00     0.012 C 
ATOM     12  C   UNL     1      46.187  -4.766  27.330  1.00  0.00     0.013 C 
ATOM     13  C   UNL     1      48.328  -3.204  28.418  1.00  0.00     0.017 C 
ATOM     14  C   UNL     1      49.342  -3.830  26.123  1.00  0.00    -0.064 C 
ATOM     15  C   UNL     1      47.930  -3.716  24.105  1.00  0.00     0.032 C 
ATOM     16  C   UNL     1      49.260  -4.036  24.770  1.00  0.00    -0.064 C 
ATOM     17  C   UNL     1      50.624  -4.193  26.845  1.00  0.00     0.032 C 
ATOM     18  C   UNL     1      50.500  -4.419  23.898  1.00  0.00    -0.008 C 
ATOM     19  C   UNL     1      51.258  -5.398  26.186  1.00  0.00     0.009 C 
ATOM     20  C   UNL     1      51.688  -5.094  24.732  1.00  0.00     0.009 C 
ATOM     21  C   UNL     1      50.953  -3.112  23.189  1.00  0.00     0.015 C 
ATOM     22  C   UNL     1      50.077  -5.424  22.791  1.00  0.00     0.016 C 
ATOM     23  C   UNL     1      53.125  -4.424  24.546  1.00  0.00     0.005 C 
ATOM     24  C   UNL     1      51.759  -2.211  24.113  1.00  0.00     0.047 C 
ATOM     25  C   UNL     1      53.074  -2.848  24.603  1.00  0.00     0.182 C 
ATOM     26  C   UNL     1      54.125  -4.912  25.632  1.00  0.00     0.015 C 
ATOM     27  C   UNL     1      53.736  -4.920  23.197  1.00  0.00     0.015 C 
BRANCH   7  28
ATOM     28  O   UNL     1      46.398  -0.079  27.036  1.00  0.00    -0.393 OA
ATOM     29  H   UNL     1      46.591   0.751  26.527  1.00  0.00     0.210 HD
ENDBRANCH   7  28
BRANCH  25  30
ATOM     30  O   UNL     1      54.153  -2.270  23.860  1.00  0.00    -0.462 OA
BRANCH  30  31
ATOM     31  C   UNL     1      55.170  -1.486  24.419  1.00  0.00     0.302 C 
ATOM     32  O   UNL     1      56.359  -1.576  24.010  1.00  0.00    -0.253 OA
ATOM     33  C   UNL     1      54.849  -0.578  25.557  1.00  0.00     0.139 C 
ENDBRANCH  30  31
ENDBRANCH  25  30
ENDBRANCH   2   6
ENDBRANCH   1   2
BRANCH   1  34
ATOM     34  C   UNL     1      42.875  -3.119  27.598  1.00  0.00     0.031 C 
BRANCH  34  35
ATOM     35  C   UNL     1      42.067  -4.217  26.933  1.00  0.00    -0.075 C 
ATOM     36  C   UNL     1      40.738  -4.071  26.785  1.00  0.00     0.008 C 
BRANCH  35  37
ATOM     37  C   UNL     1      42.781  -5.467  26.438  1.00  0.00     0.008 C 
ATOM     38  C   UNL     1      43.064  -6.447  27.584  1.00  0.00     0.012 C 
ATOM     39  C   UNL     1      41.989  -6.148  25.314  1.00  0.00     0.012 C 
ENDBRANCH  35  37
ENDBRANCH  34  35
ENDBRANCH   1  34
TORSDOF 9
ENDMDL
MODEL 4
REMARK VINA RESULT:    -6.770      4.359      9.378
REMARK INTER + INTRA:         -11.804
REMARK INTER:                 -10.023
REMARK INTRA:                  -1.782
REMARK UNBOUND:                -1.670
REMARK SMILES C=C(CC[C@@H](C(=O)[O-])[C@@H]1[C@@H](O)C[C@]2(C)C3=C(CC[C@]12C)[C@@]1(C)CC[C@H](OC(C)=O)C(C)(C)[C@H]1CC3)C(C)C
REMARK SMILES IDX 4 1 5 2 6 3 7 4 8 5 9 6 10 7 19 8 12 9 13 10 18 11 20 12
REMARK SMILES IDX 14 13 15 14 17 15 16 16 35 17 21 18 34 19 33 20 23 21 22 22
REMARK SMILES IDX 30 23 24 24 25 25 31 26 32 27 11 28 26 30 27 31 29 32 28 33
REMARK SMILES IDX 3 34 2 35 1 36 36 37 37 38 38 39
REMARK H PARENT 11 29
REMARK Flexibility Score: inf
ROOT
ATOM      1  C   UNL     1      45.372  -3.327  26.764  1.00  0.00     0.014 C 
ENDROOT
BRANCH   1   2
ATOM      2  C   UNL     1      46.875  -2.916  26.608  1.00  0.00     0.042 C 
BRANCH   2   3
ATOM      3  C   UNL     1      47.323  -1.950  27.679  1.00  0.00     0.045 C 
ATOM      4  O   UNL     1      47.026  -2.132  28.889  1.00  0.00    -0.550 OA
ATOM      5  O   UNL     1      48.118  -0.864  27.333  1.00  0.00    -0.550 OA
ENDBRANCH   2   3
BRANCH   2   6
ATOM      6  C   UNL     1      47.914  -4.074  26.390  1.00  0.00     0.033 C 
ATOM      7  C   UNL     1      49.031  -4.086  27.448  1.00  0.00     0.119 C 
ATOM      8  C   UNL     1      48.594  -4.331  24.997  1.00  0.00    -0.017 C 
ATOM      9  C   UNL     1      50.209  -4.854  26.844  1.00  0.00     0.043 C 
ATOM     10  C   UNL     1      49.851  -5.232  25.376  1.00  0.00    -0.003 C 
ATOM     11  C   UNL     1      49.023  -3.022  24.254  1.00  0.00     0.012 C 
ATOM     12  C   UNL     1      47.610  -5.065  24.036  1.00  0.00     0.013 C 
ATOM     13  C   UNL     1      49.487  -6.750  25.397  1.00  0.00     0.017 C 
ATOM     14  C   UNL     1      51.086  -4.940  24.474  1.00  0.00    -0.064 C 
ATOM     15  C   UNL     1      50.433  -2.567  24.607  1.00  0.00     0.032 C 
ATOM     16  C   UNL     1      51.417  -3.643  24.176  1.00  0.00    -0.064 C 
ATOM     17  C   UNL     1      52.000  -6.056  24.010  1.00  0.00     0.032 C 
ATOM     18  C   UNL     1      52.804  -3.243  23.575  1.00  0.00    -0.008 C 
ATOM     19  C   UNL     1      52.633  -5.683  22.688  1.00  0.00     0.009 C 
ATOM     20  C   UNL     1      53.549  -4.443  22.823  1.00  0.00     0.009 C 
ATOM     21  C   UNL     1      53.643  -2.683  24.756  1.00  0.00     0.015 C 
ATOM     22  C   UNL     1      52.621  -2.091  22.548  1.00  0.00     0.016 C 
ATOM     23  C   UNL     1      55.049  -4.721  23.291  1.00  0.00     0.005 C 
ATOM     24  C   UNL     1      54.228  -3.791  25.617  1.00  0.00     0.047 C 
ATOM     25  C   UNL     1      55.209  -4.709  24.861  1.00  0.00     0.182 C 
ATOM     26  C   UNL     1      55.564  -6.092  22.768  1.00  0.00     0.015 C 
ATOM     27  C   UNL     1      55.985  -3.667  22.620  1.00  0.00     0.015 C 
BRANCH   7  28
ATOM     28  O   UNL     1      48.576  -4.710  28.622  1.00  0.00    -0.393 OA
ATOM     29  H   UNL     1      48.599  -5.689  28.454  1.00  0.00     0.210 HD
ENDBRANCH   7  28
BRANCH  25  30
ATOM     30  O   UNL     1      56.542  -4.346  25.240  1.00  0.00    -0.462 OA
BRANCH  30  31
ATOM     31  C   UNL     1      57.613  -5.243  25.326  1.00  0.00     0.302 C 
ATOM     32  O   UNL     1      57.416  -6.476  25.498  1.00  0.00    -0.253 OA
ATOM     33  C   UNL     1      59.009  -4.720  25.277  1.00  0.00     0.139 C 
ENDBRANCH  30  31
ENDBRANCH  25  30
ENDBRANCH   2   6
ENDBRANCH   1   2
BRANCH   1  34
ATOM     34  C   UNL     1      44.614  -3.385  25.424  1.00  0.00     0.031 C 
BRANCH  34  35
ATOM     35  C   UNL     1      44.792  -2.114  24.617  1.00  0.00    -0.075 C 
ATOM     36  C   UNL     1      45.339  -2.174  23.390  1.00  0.00     0.008 C 
BRANCH  35  37
ATOM     37  C   UNL     1      44.340  -0.788  25.213  1.00  0.00     0.008 C 
ATOM     38  C   UNL     1      45.440   0.277  25.120  1.00  0.00     0.012 C 
ATOM     39  C   UNL     1      43.043  -0.299  24.553  1.00  0.00     0.012 C 
ENDBRANCH  35  37
ENDBRANCH  34  35
ENDBRANCH   1  34
TORSDOF 9
ENDMDL
MODEL 5
REMARK VINA RESULT:    -6.662      1.839      3.501
REMARK INTER + INTRA:         -11.643
REMARK INTER:                  -9.731
REMARK INTRA:                  -1.912
REMARK UNBOUND:                -1.670
REMARK SMILES C=C(CC[C@@H](C(=O)[O-])[C@@H]1[C@@H](O)C[C@]2(C)C3=C(CC[C@]12C)[C@@]1(C)CC[C@H](OC(C)=O)C(C)(C)[C@H]1CC3)C(C)C
REMARK SMILES IDX 4 1 5 2 6 3 7 4 8 5 9 6 10 7 19 8 12 9 13 10 18 11 20 12
REMARK SMILES IDX 14 13 15 14 17 15 16 16 35 17 21 18 34 19 33 20 23 21 22 22
REMARK SMILES IDX 30 23 24 24 25 25 31 26 32 27 11 28 26 30 27 31 29 32 28 33
REMARK SMILES IDX 3 34 2 35 1 36 36 37 37 38 38 39
REMARK H PARENT 11 29
REMARK Flexibility Score: inf
ROOT
ATOM      1  C   UNL     1      54.130  -1.320  26.655  1.00  0.00     0.014 C 
ENDROOT
BRANCH   1   2
ATOM      2  C   UNL     1      53.761  -0.556  27.971  1.00  0.00     0.042 C 
BRANCH   2   3
ATOM      3  C   UNL     1      54.614   0.670  28.187  1.00  0.00     0.045 C 
ATOM      4  O   UNL     1      54.743   1.184  29.329  1.00  0.00    -0.550 OA
ATOM      5  O   UNL     1      55.309   1.218  27.115  1.00  0.00    -0.550 OA
ENDBRANCH   2   3
BRANCH   2   6
ATOM      6  C   UNL     1      52.238  -0.263  28.224  1.00  0.00     0.033 C 
ATOM      7  C   UNL     1      51.452  -1.508  28.670  1.00  0.00     0.119 C 
ATOM      8  C   UNL     1      51.349   0.492  27.171  1.00  0.00    -0.017 C 
ATOM      9  C   UNL     1      49.978  -1.239  28.360  1.00  0.00     0.043 C 
ATOM     10  C   UNL     1      49.868   0.134  27.634  1.00  0.00    -0.003 C 
ATOM     11  C   UNL     1      51.615   0.053  25.692  1.00  0.00     0.012 C 
ATOM     12  C   UNL     1      51.628   2.026  27.218  1.00  0.00     0.013 C 
ATOM     13  C   UNL     1      49.337   1.145  28.698  1.00  0.00     0.017 C 
ATOM     14  C   UNL     1      48.889  -0.017  26.433  1.00  0.00    -0.064 C 
ATOM     15  C   UNL     1      50.750  -1.120  25.250  1.00  0.00     0.032 C 
ATOM     16  C   UNL     1      49.289  -0.701  25.314  1.00  0.00    -0.064 C 
ATOM     17  C   UNL     1      47.460   0.479  26.518  1.00  0.00     0.032 C 
ATOM     18  C   UNL     1      48.285  -1.189  24.219  1.00  0.00    -0.008 C 
ATOM     19  C   UNL     1      46.966   0.856  25.139  1.00  0.00     0.009 C 
ATOM     20  C   UNL     1      46.910  -0.370  24.198  1.00  0.00     0.009 C 
ATOM     21  C   UNL     1      48.059  -2.704  24.482  1.00  0.00     0.015 C 
ATOM     22  C   UNL     1      48.931  -1.053  22.812  1.00  0.00     0.016 C 
ATOM     23  C   UNL     1      45.583  -1.254  24.267  1.00  0.00     0.005 C 
ATOM     24  C   UNL     1      47.083  -2.946  25.623  1.00  0.00     0.047 C 
ATOM     25  C   UNL     1      45.668  -2.396  25.353  1.00  0.00     0.182 C 
ATOM     26  C   UNL     1      44.335  -0.383  24.585  1.00  0.00     0.015 C 
ATOM     27  C   UNL     1      45.301  -1.843  22.850  1.00  0.00     0.015 C 
BRANCH   7  28
ATOM     28  O   UNL     1      51.643  -1.730  30.045  1.00  0.00    -0.393 OA
ATOM     29  H   UNL     1      51.059  -1.084  30.523  1.00  0.00     0.210 HD
ENDBRANCH   7  28
BRANCH  25  30
ATOM     30  O   UNL     1      44.820  -3.498  25.010  1.00  0.00    -0.462 OA
BRANCH  30  31
ATOM     31  C   UNL     1      43.866  -4.060  25.866  1.00  0.00     0.302 C 
ATOM     32  O   UNL     1      43.558  -5.280  25.785  1.00  0.00    -0.253 OA
ATOM     33  C   UNL     1      43.160  -3.186  26.847  1.00  0.00     0.139 C 
ENDBRANCH  30  31
ENDBRANCH  25  30
ENDBRANCH   2   6
ENDBRANCH   1   2
BRANCH   1  34
ATOM     34  C   UNL     1      54.185  -2.849  26.832  1.00  0.00     0.031 C 
BRANCH  34  35
ATOM     35  C   UNL     1      53.587  -3.579  25.645  1.00  0.00    -0.075 C 
ATOM     36  C   UNL     1      53.812  -3.124  24.399  1.00  0.00     0.008 C 
BRANCH  35  37
ATOM     37  C   UNL     1      52.743  -4.822  25.888  1.00  0.00     0.008 C 
ATOM     38  C   UNL     1      51.411  -4.477  26.566  1.00  0.00     0.012 C 
ATOM     39  C   UNL     1      52.513  -5.599  24.585  1.00  0.00     0.012 C 
ENDBRANCH  35  37
ENDBRANCH  34  35
ENDBRANCH   1  34
TORSDOF 9
ENDMDL
MODEL 6
REMARK VINA RESULT:    -6.589      3.370      9.097
REMARK INTER + INTRA:         -11.533
REMARK INTER:                  -9.249
REMARK INTRA:                  -2.284
REMARK UNBOUND:                -1.670
REMARK SMILES C=C(CC[C@@H](C(=O)[O-])[C@@H]1[C@@H](O)C[C@]2(C)C3=C(CC[C@]12C)[C@@]1(C)CC[C@H](OC(C)=O)C(C)(C)[C@H]1CC3)C(C)C
REMARK SMILES IDX 4 1 5 2 6 3 7 4 8 5 9 6 10 7 19 8 12 9 13 10 18 11 20 12
REMARK SMILES IDX 14 13 15 14 17 15 16 16 35 17 21 18 34 19 33 20 23 21 22 22
REMARK SMILES IDX 30 23 24 24 25 25 31 26 32 27 11 28 26 30 27 31 29 32 28 33
REMARK SMILES IDX 3 34 2 35 1 36 36 37 37 38 38 39
REMARK H PARENT 11 29
REMARK Flexibility Score: inf
ROOT
ATOM      1  C   UNL     1      43.661  -2.864  25.740  1.00  0.00     0.014 C 
ENDROOT
BRANCH   1   2
ATOM      2  C   UNL     1      45.052  -2.610  25.067  1.00  0.00     0.042 C 
BRANCH   2   3
ATOM      3  C   UNL     1      45.153  -1.236  24.449  1.00  0.00     0.045 C 
ATOM      4  O   UNL     1      45.662  -1.068  23.309  1.00  0.00    -0.550 OA
ATOM      5  O   UNL     1      44.634  -0.140  25.127  1.00  0.00    -0.550 OA
ENDBRANCH   2   3
BRANCH   2   6
ATOM      6  C   UNL     1      46.330  -2.970  25.908  1.00  0.00     0.033 C 
ATOM      7  C   UNL     1      47.058  -1.730  26.454  1.00  0.00     0.119 C 
ATOM      8  C   UNL     1      47.430  -3.954  25.370  1.00  0.00    -0.017 C 
ATOM      9  C   UNL     1      48.497  -2.156  26.756  1.00  0.00     0.043 C 
ATOM     10  C   UNL     1      48.679  -3.636  26.306  1.00  0.00    -0.003 C 
ATOM     11  C   UNL     1      47.773  -3.750  23.857  1.00  0.00     0.012 C 
ATOM     12  C   UNL     1      46.954  -5.433  25.505  1.00  0.00     0.013 C 
ATOM     13  C   UNL     1      48.654  -4.492  27.611  1.00  0.00     0.017 C 
ATOM     14  C   UNL     1      50.035  -3.761  25.551  1.00  0.00    -0.064 C 
ATOM     15  C   UNL     1      48.885  -2.734  23.626  1.00  0.00     0.032 C 
ATOM     16  C   UNL     1      50.157  -3.244  24.287  1.00  0.00    -0.064 C 
ATOM     17  C   UNL     1      51.260  -4.341  26.229  1.00  0.00     0.032 C 
ATOM     18  C   UNL     1      51.542  -3.022  23.596  1.00  0.00    -0.008 C 
ATOM     19  C   UNL     1      52.162  -4.978  25.195  1.00  0.00     0.009 C 
ATOM     20  C   UNL     1      52.713  -3.934  24.196  1.00  0.00     0.009 C 
ATOM     21  C   UNL     1      51.855  -1.506  23.729  1.00  0.00     0.015 C 
ATOM     22  C   UNL     1      51.433  -3.343  22.079  1.00  0.00     0.016 C 
ATOM     23  C   UNL     1      54.030  -3.152  24.645  1.00  0.00     0.005 C 
ATOM     24  C   UNL     1      52.379  -1.150  25.112  1.00  0.00     0.047 C 
ATOM     25  C   UNL     1      53.710  -1.842  25.465  1.00  0.00     0.182 C 
ATOM     26  C   UNL     1      54.955  -4.049  25.517  1.00  0.00     0.015 C 
ATOM     27  C   UNL     1      54.877  -2.830  23.374  1.00  0.00     0.015 C 
BRANCH   7  28
ATOM     28  O   UNL     1      46.417  -1.268  27.616  1.00  0.00    -0.393 OA
ATOM     29  H   UNL     1      46.353  -0.279  27.534  1.00  0.00     0.210 HD
ENDBRANCH   7  28
BRANCH  25  30
ATOM     30  O   UNL     1      54.762  -0.879  25.328  1.00  0.00    -0.462 OA
BRANCH  30  31
ATOM     31  C   UNL     1      54.971   0.197  26.199  1.00  0.00     0.302 C 
ATOM     32  O   UNL     1      54.593   0.142  27.400  1.00  0.00    -0.253 OA
ATOM     33  C   UNL     1      55.593   1.448  25.679  1.00  0.00     0.139 C 
ENDBRANCH  30  31
ENDBRANCH  25  30
ENDBRANCH   2   6
ENDBRANCH   1   2
BRANCH   1  34
ATOM     34  C   UNL     1      43.763  -3.573  27.104  1.00  0.00     0.031 C 
BRANCH  34  35
ATOM     35  C   UNL     1      43.588  -5.074  26.976  1.00  0.00    -0.075 C 
ATOM     36  C   UNL     1      42.847  -5.576  25.973  1.00  0.00     0.008 C 
BRANCH  35  37
ATOM     37  C   UNL     1      44.264  -5.987  27.990  1.00  0.00     0.008 C 
ATOM     38  C   UNL     1      45.238  -5.212  28.887  1.00  0.00     0.012 C 
ATOM     39  C   UNL     1      43.226  -6.744  28.830  1.00  0.00     0.012 C 
ENDBRANCH  35  37
ENDBRANCH  34  35
ENDBRANCH   1  34
TORSDOF 9
ENDMDL
MODEL 7
REMARK VINA RESULT:    -6.589      4.194      8.465
REMARK INTER + INTRA:         -11.533
REMARK INTER:                  -9.449
REMARK INTRA:                  -2.084
REMARK UNBOUND:                -1.670
REMARK SMILES C=C(CC[C@@H](C(=O)[O-])[C@@H]1[C@@H](O)C[C@]2(C)C3=C(CC[C@]12C)[C@@]1(C)CC[C@H](OC(C)=O)C(C)(C)[C@H]1CC3)C(C)C
REMARK SMILES IDX 4 1 5 2 6 3 7 4 8 5 9 6 10 7 19 8 12 9 13 10 18 11 20 12
REMARK SMILES IDX 14 13 15 14 17 15 16 16 35 17 21 18 34 19 33 20 23 21 22 22
REMARK SMILES IDX 30 23 24 24 25 25 31 26 32 27 11 28 26 30 27 31 29 32 28 33
REMARK SMILES IDX 3 34 2 35 1 36 36 37 37 38 38 39
REMARK H PARENT 11 29
REMARK Flexibility Score: inf
ROOT
ATOM      1  C   UNL     1      44.290  -4.165  25.503  1.00  0.00     0.014 C 
ENDROOT
BRANCH   1   2
ATOM      2  C   UNL     1      44.670  -2.646  25.484  1.00  0.00     0.042 C 
BRANCH   2   3
ATOM      3  C   UNL     1      43.589  -1.773  26.075  1.00  0.00     0.045 C 
ATOM      4  O   UNL     1      43.243  -0.696  25.520  1.00  0.00    -0.550 OA
ATOM      5  O   UNL     1      42.930  -2.184  27.228  1.00  0.00    -0.550 OA
ENDBRANCH   2   3
BRANCH   2   6
ATOM      6  C   UNL     1      46.095  -2.258  26.021  1.00  0.00     0.033 C 
ATOM      7  C   UNL     1      46.046  -1.464  27.337  1.00  0.00     0.119 C 
ATOM      8  C   UNL     1      47.170  -1.570  25.106  1.00  0.00    -0.017 C 
ATOM      9  C   UNL     1      47.373  -0.710  27.453  1.00  0.00     0.043 C 
ATOM     10  C   UNL     1      48.201  -0.967  26.160  1.00  0.00    -0.003 C 
ATOM     11  C   UNL     1      46.585  -0.461  24.169  1.00  0.00     0.012 C 
ATOM     12  C   UNL     1      47.837  -2.618  24.162  1.00  0.00     0.013 C 
ATOM     13  C   UNL     1      49.301  -2.004  26.548  1.00  0.00     0.017 C 
ATOM     14  C   UNL     1      48.813   0.384  25.687  1.00  0.00    -0.064 C 
ATOM     15  C   UNL     1      46.572   0.920  24.811  1.00  0.00     0.032 C 
ATOM     16  C   UNL     1      48.004   1.331  25.114  1.00  0.00    -0.064 C 
ATOM     17  C   UNL     1      50.267   0.722  25.950  1.00  0.00     0.032 C 
ATOM     18  C   UNL     1      48.450   2.818  24.923  1.00  0.00    -0.008 C 
ATOM     19  C   UNL     1      50.778   1.657  24.876  1.00  0.00     0.009 C 
ATOM     20  C   UNL     1      50.039   3.015  24.902  1.00  0.00     0.009 C 
ATOM     21  C   UNL     1      47.776   3.624  26.068  1.00  0.00     0.015 C 
ATOM     22  C   UNL     1      47.895   3.367  23.580  1.00  0.00     0.016 C 
ATOM     23  C   UNL     1      50.608   4.109  25.915  1.00  0.00     0.005 C 
ATOM     24  C   UNL     1      48.517   3.470  27.388  1.00  0.00     0.047 C 
ATOM     25  C   UNL     1      49.962   4.005  27.351  1.00  0.00     0.182 C 
ATOM     26  C   UNL     1      52.150   3.990  26.074  1.00  0.00     0.015 C 
ATOM     27  C   UNL     1      50.384   5.525  25.297  1.00  0.00     0.015 C 
BRANCH   7  28
ATOM     28  O   UNL     1      45.870  -2.340  28.422  1.00  0.00    -0.393 OA
ATOM     29  H   UNL     1      46.692  -2.277  28.977  1.00  0.00     0.210 HD
ENDBRANCH   7  28
BRANCH  25  30
ATOM     30  O   UNL     1      49.985   5.272  28.020  1.00  0.00    -0.462 OA
BRANCH  30  31
ATOM     31  C   UNL     1      49.580   5.476  29.344  1.00  0.00     0.302 C 
ATOM     32  O   UNL     1      50.285   5.072  30.308  1.00  0.00    -0.253 OA
ATOM     33  C   UNL     1      48.265   6.125  29.614  1.00  0.00     0.139 C 
ENDBRANCH  30  31
ENDBRANCH  25  30
ENDBRANCH   2   6
ENDBRANCH   1   2
BRANCH   1  34
ATOM     34  C   UNL     1      45.456  -5.080  25.924  1.00  0.00     0.031 C 
BRANCH  34  35
ATOM     35  C   UNL     1      45.361  -5.484  27.382  1.00  0.00    -0.075 C 
ATOM     36  C   UNL     1      44.155  -5.705  27.936  1.00  0.00     0.008 C 
BRANCH  35  37
ATOM     37  C   UNL     1      46.640  -5.639  28.193  1.00  0.00     0.008 C 
ATOM     38  C   UNL     1      46.623  -6.921  29.036  1.00  0.00     0.012 C 
ATOM     39  C   UNL     1      47.878  -5.593  27.287  1.00  0.00     0.012 C 
ENDBRANCH  35  37
ENDBRANCH  34  35
ENDBRANCH   1  34
TORSDOF 9
ENDMDL
MODEL 8
REMARK VINA RESULT:    -6.582      4.702      8.683
REMARK INTER + INTRA:         -11.523
REMARK INTER:                  -9.278
REMARK INTRA:                  -2.245
REMARK UNBOUND:                -1.670
REMARK SMILES C=C(CC[C@@H](C(=O)[O-])[C@@H]1[C@@H](O)C[C@]2(C)C3=C(CC[C@]12C)[C@@]1(C)CC[C@H](OC(C)=O)C(C)(C)[C@H]1CC3)C(C)C
REMARK SMILES IDX 4 1 5 2 6 3 7 4 8 5 9 6 10 7 19 8 12 9 13 10 18 11 20 12
REMARK SMILES IDX 14 13 15 14 17 15 16 16 35 17 21 18 34 19 33 20 23 21 22 22
REMARK SMILES IDX 30 23 24 24 25 25 31 26 32 27 11 28 26 30 27 31 29 32 28 33
REMARK SMILES IDX 3 34 2 35 1 36 36 37 37 38 38 39
REMARK H PARENT 11 29
REMARK Flexibility Score: inf
ROOT
ATOM      1  C   UNL     1      43.252  -7.097  28.728  1.00  0.00     0.014 C 
ENDROOT
BRANCH   1   2
ATOM      2  C   UNL     1      43.552  -5.909  27.753  1.00  0.00     0.042 C 
BRANCH   2   3
ATOM      3  C   UNL     1      42.314  -5.112  27.415  1.00  0.00     0.045 C 
ATOM      4  O   UNL     1      42.048  -4.791  26.227  1.00  0.00    -0.550 OA
ATOM      5  O   UNL     1      41.427  -4.764  28.427  1.00  0.00    -0.550 OA
ENDBRANCH   2   3
BRANCH   2   6
ATOM      6  C   UNL     1      44.768  -4.980  28.111  1.00  0.00     0.033 C 
ATOM      7  C   UNL     1      44.335  -3.595  28.621  1.00  0.00     0.119 C 
ATOM      8  C   UNL     1      45.963  -4.754  27.118  1.00  0.00    -0.017 C 
ATOM      9  C   UNL     1      45.524  -2.652  28.414  1.00  0.00     0.043 C 
ATOM     10  C   UNL     1      46.656  -3.438  27.688  1.00  0.00    -0.003 C 
ATOM     11  C   UNL     1      45.520  -4.577  25.627  1.00  0.00     0.012 C 
ATOM     12  C   UNL     1      46.927  -5.981  27.134  1.00  0.00     0.013 C 
ATOM     13  C   UNL     1      47.720  -3.772  28.779  1.00  0.00     0.017 C 
ATOM     14  C   UNL     1      47.239  -2.537  26.560  1.00  0.00    -0.064 C 
ATOM     15  C   UNL     1      45.231  -3.128  25.256  1.00  0.00     0.032 C 
ATOM     16  C   UNL     1      46.507  -2.318  25.421  1.00  0.00    -0.064 C 
ATOM     17  C   UNL     1      48.551  -1.802  26.743  1.00  0.00     0.032 C 
ATOM     18  C   UNL     1      46.851  -1.181  24.404  1.00  0.00    -0.008 C 
ATOM     19  C   UNL     1      49.217  -1.602  25.399  1.00  0.00     0.009 C 
ATOM     20  C   UNL     1      48.374  -0.694  24.473  1.00  0.00     0.009 C 
ATOM     21  C   UNL     1      45.854  -0.024  24.693  1.00  0.00     0.015 C 
ATOM     22  C   UNL     1      46.584  -1.672  22.954  1.00  0.00     0.016 C 
ATOM     23  C   UNL     1      48.586   0.878  24.643  1.00  0.00     0.005 C 
ATOM     24  C   UNL     1      46.270   0.800  25.902  1.00  0.00     0.047 C 
ATOM     25  C   UNL     1      47.628   1.508  25.729  1.00  0.00     0.182 C 
ATOM     26  C   UNL     1      50.050   1.216  25.042  1.00  0.00     0.015 C 
ATOM     27  C   UNL     1      48.389   1.562  23.253  1.00  0.00     0.015 C 
BRANCH   7  28
ATOM     28  O   UNL     1      43.986  -3.669  29.981  1.00  0.00    -0.393 OA
ATOM     29  H   UNL     1      43.562  -4.557  30.120  1.00  0.00     0.210 HD
ENDBRANCH   7  28
BRANCH  25  30
ATOM     30  O   UNL     1      47.378   2.891  25.455  1.00  0.00    -0.462 OA
BRANCH  30  31
ATOM     31  C   UNL     1      48.060   3.955  26.057  1.00  0.00     0.302 C 
ATOM     32  O   UNL     1      48.769   4.742  25.374  1.00  0.00    -0.253 OA
ATOM     33  C   UNL     1      47.997   4.118  27.538  1.00  0.00     0.139 C 
ENDBRANCH  30  31
ENDBRANCH  25  30
ENDBRANCH   2   6
ENDBRANCH   1   2
BRANCH   1  34
ATOM     34  C   UNL     1      44.080  -7.046  30.025  1.00  0.00     0.031 C 
BRANCH  34  35
ATOM     35  C   UNL     1      44.850  -8.331  30.258  1.00  0.00    -0.075 C 
ATOM     36  C   UNL     1      44.207  -9.512  30.210  1.00  0.00     0.008 C 
BRANCH  35  37
ATOM     37  C   UNL     1      46.344  -8.259  30.538  1.00  0.00     0.008 C 
ATOM     38  C   UNL     1      47.159  -8.950  29.437  1.00  0.00     0.012 C 
ATOM     39  C   UNL     1      46.801  -6.807  30.733  1.00  0.00     0.012 C 
ENDBRANCH  35  37
ENDBRANCH  34  35
ENDBRANCH   1  34
TORSDOF 9
ENDMDL
MODEL 9
REMARK VINA RESULT:    -6.463      3.678      7.670
REMARK INTER + INTRA:         -11.344
REMARK INTER:                  -8.878
REMARK INTRA:                  -2.466
REMARK UNBOUND:                -1.670
REMARK SMILES C=C(CC[C@@H](C(=O)[O-])[C@@H]1[C@@H](O)C[C@]2(C)C3=C(CC[C@]12C)[C@@]1(C)CC[C@H](OC(C)=O)C(C)(C)[C@H]1CC3)C(C)C
REMARK SMILES IDX 4 1 5 2 6 3 7 4 8 5 9 6 10 7 19 8 12 9 13 10 18 11 20 12
REMARK SMILES IDX 14 13 15 14 17 15 16 16 35 17 21 18 34 19 33 20 23 21 22 22
REMARK SMILES IDX 30 23 24 24 25 25 31 26 32 27 11 28 26 30 27 31 29 32 28 33
REMARK SMILES IDX 3 34 2 35 1 36 36 37 37 38 38 39
REMARK H PARENT 11 29
REMARK Flexibility Score: inf
ROOT
ATOM      1  C   UNL     1      48.443  -5.669  27.550  1.00  0.00     0.014 C 
ENDROOT
BRANCH   1   2
ATOM      2  C   UNL     1      49.103  -4.303  27.163  1.00  0.00     0.042 C 
BRANCH   2   3
ATOM      3  C   UNL     1      50.502  -4.469  26.621  1.00  0.00     0.045 C 
ATOM      4  O   UNL     1      51.433  -3.694  26.965  1.00  0.00    -0.550 OA
ATOM      5  O   UNL     1      50.782  -5.525  25.761  1.00  0.00    -0.550 OA
ENDBRANCH   2   3
BRANCH   2   6
ATOM      6  C   UNL     1      48.248  -3.318  26.287  1.00  0.00     0.033 C 
ATOM      7  C   UNL     1      48.815  -3.129  24.870  1.00  0.00     0.119 C 
ATOM      8  C   UNL     1      47.819  -1.899  26.807  1.00  0.00    -0.017 C 
ATOM      9  C   UNL     1      48.255  -1.807  24.338  1.00  0.00     0.043 C 
ATOM     10  C   UNL     1      47.419  -1.136  25.467  1.00  0.00    -0.003 C 
ATOM     11  C   UNL     1      48.948  -1.146  27.587  1.00  0.00     0.012 C 
ATOM     12  C   UNL     1      46.621  -2.018  27.798  1.00  0.00     0.013 C 
ATOM     13  C   UNL     1      45.921  -1.372  25.095  1.00  0.00     0.017 C 
ATOM     14  C   UNL     1      47.776   0.379  25.516  1.00  0.00    -0.064 C 
ATOM     15  C   UNL     1      49.838  -0.300  26.685  1.00  0.00     0.032 C 
ATOM     16  C   UNL     1      48.987   0.773  26.026  1.00  0.00    -0.064 C 
ATOM     17  C   UNL     1      46.861   1.421  24.905  1.00  0.00     0.032 C 
ATOM     18  C   UNL     1      49.565   2.210  25.809  1.00  0.00    -0.008 C 
ATOM     19  C   UNL     1      47.023   2.735  25.637  1.00  0.00     0.009 C 
ATOM     20  C   UNL     1      48.451   3.308  25.473  1.00  0.00     0.009 C 
ATOM     21  C   UNL     1      50.623   2.085  24.676  1.00  0.00     0.015 C 
ATOM     22  C   UNL     1      50.310   2.677  27.090  1.00  0.00     0.016 C 
ATOM     23  C   UNL     1      48.716   4.178  24.162  1.00  0.00     0.005 C 
ATOM     24  C   UNL     1      49.980   2.032  23.299  1.00  0.00     0.047 C 
ATOM     25  C   UNL     1      49.189   3.303  22.936  1.00  0.00     0.182 C 
ATOM     26  C   UNL     1      47.443   4.960  23.730  1.00  0.00     0.015 C 
ATOM     27  C   UNL     1      49.763   5.286  24.501  1.00  0.00     0.015 C 
BRANCH   7  28
ATOM     28  O   UNL     1      48.429  -4.202  24.048  1.00  0.00    -0.393 OA
ATOM     29  H   UNL     1      47.684  -3.874  23.480  1.00  0.00     0.210 HD
ENDBRANCH   7  28
BRANCH  25  30
ATOM     30  O   UNL     1      49.980   4.076  22.026  1.00  0.00    -0.462 OA
BRANCH  30  31
ATOM     31  C   UNL     1      49.634   4.328  20.693  1.00  0.00     0.302 C 
ATOM     32  O   UNL     1      49.839   3.468  19.795  1.00  0.00    -0.253 OA
ATOM     33  C   UNL     1      49.074   5.660  20.324  1.00  0.00     0.139 C 
ENDBRANCH  30  31
ENDBRANCH  25  30
ENDBRANCH   2   6
ENDBRANCH   1   2
BRANCH   1  34
ATOM     34  C   UNL     1      47.100  -5.921  26.838  1.00  0.00     0.031 C 
BRANCH  34  35
ATOM     35  C   UNL     1      45.918  -5.660  27.750  1.00  0.00    -0.075 C 
ATOM     36  C   UNL     1      46.003  -5.964  29.057  1.00  0.00     0.008 C 
BRANCH  35  37
ATOM     37  C   UNL     1      44.652  -5.049  27.166  1.00  0.00     0.008 C 
ATOM     38  C   UNL     1      44.787  -4.806  25.657  1.00  0.00     0.012 C 
ATOM     39  C   UNL     1      43.425  -5.918  27.475  1.00  0.00     0.012 C 
ENDBRANCH  35  37
ENDBRANCH  34  35
ENDBRANCH   1  34
TORSDOF 9
ENDMDL
