MODEL 1
REMARK VINA RESULT:    -5.039      0.000      0.000
REMARK INTER + INTRA:          -5.493
REMARK INTER:                  -5.334
REMARK INTRA:                  -0.159
REMARK UNBOUND:                -0.159
REMARK SMILES C=C(C)[C@H]1CC=C(C)CC1
REMARK SMILES IDX 8 1 7 2 6 3 5 4 4 5 10 6 9 7 2 8 1 9 3 10
REMARK H PARENT
REMARK Flexibility Score: inf
ROOT
ATOM      1  C   UNL     1       7.439   4.905  12.750  1.00  0.00     0.039 C 
ATOM      2  C   UNL     1       6.705   6.215  12.678  1.00  0.00    -0.077 C 
ATOM      3  C   UNL     1       7.228   7.246  11.995  1.00  0.00    -0.027 C 
ATOM      4  C   UNL     1       6.454   8.531  11.892  1.00  0.00     0.035 C 
ATOM      5  C   UNL     1       4.976   8.240  11.536  1.00  0.00     0.018 C 
ATOM      6  C   UNL     1       4.362   7.050  12.347  1.00  0.00     0.013 C 
ATOM      7  C   UNL     1       5.351   6.392  13.327  1.00  0.00     0.031 C 
ENDROOT
BRANCH   5   8
ATOM      8  C   UNL     1       4.133   9.502  11.655  1.00  0.00    -0.077 C 
ATOM      9  C   UNL     1       4.375  10.569  10.875  1.00  0.00     0.008 C 
ATOM     10  C   UNL     1       3.008   9.575  12.655  1.00  0.00     0.039 C 
ENDBRANCH   5   8
TORSDOF 1
ENDMDL
MODEL 2
REMARK VINA RESULT:    -4.625      0.937      4.360
REMARK INTER + INTRA:          -5.054
REMARK INTER:                  -4.898
REMARK INTRA:                  -0.156
REMARK UNBOUND:                -0.159
REMARK SMILES C=C(C)[C@H]1CC=C(C)CC1
REMARK SMILES IDX 8 1 7 2 6 3 5 4 4 5 10 6 9 7 2 8 1 9 3 10
REMARK H PARENT
REMARK Flexibility Score: inf
ROOT
ATOM      1  C   UNL     1       4.051  10.154  11.240  1.00  0.00     0.039 C 
ATOM      2  C   UNL     1       4.850   8.915  11.539  1.00  0.00    -0.077 C 
ATOM      3  C   UNL     1       6.175   8.998  11.738  1.00  0.00    -0.027 C 
ATOM      4  C   UNL     1       6.948   7.756  12.086  1.00  0.00     0.035 C 
ATOM      5  C   UNL     1       6.208   6.955  13.184  1.00  0.00     0.018 C 
ATOM      6  C   UNL     1       4.665   6.843  12.942  1.00  0.00     0.013 C 
ATOM      7  C   UNL     1       4.184   7.565  11.669  1.00  0.00     0.031 C 
ENDROOT
BRANCH   5   8
ATOM      8  C   UNL     1       6.851   5.589  13.383  1.00  0.00    -0.077 C 
ATOM      9  C   UNL     1       6.626   4.877  14.500  1.00  0.00     0.008 C 
ATOM     10  C   UNL     1       7.754   5.012  12.324  1.00  0.00     0.039 C 
ENDBRANCH   5   8
TORSDOF 1
ENDMDL
MODEL 3
REMARK VINA RESULT:    -4.412      1.954      3.819
REMARK INTER + INTRA:          -4.829
REMARK INTER:                  -4.664
REMARK INTRA:                  -0.164
REMARK UNBOUND:                -0.159
REMARK SMILES C=C(C)[C@H]1CC=C(C)CC1
REMARK SMILES IDX 8 1 7 2 6 3 5 4 4 5 10 6 9 7 2 8 1 9 3 10
REMARK H PARENT
REMARK Flexibility Score: inf
ROOT
ATOM      1  C   UNL     1       3.640   4.875  12.006  1.00  0.00     0.039 C 
ATOM      2  C   UNL     1       4.765   5.614  12.678  1.00  0.00    -0.077 C 
ATOM      3  C   UNL     1       5.837   4.944  13.131  1.00  0.00    -0.027 C 
ATOM      4  C   UNL     1       6.974   5.707  13.753  1.00  0.00     0.035 C 
ATOM      5  C   UNL     1       7.335   6.935  12.883  1.00  0.00     0.018 C 
ATOM      6  C   UNL     1       6.084   7.726  12.371  1.00  0.00     0.013 C 
ATOM      7  C   UNL     1       4.742   7.118  12.818  1.00  0.00     0.031 C 
ENDROOT
BRANCH   5   8
ATOM      8  C   UNL     1       8.320   7.841  13.610  1.00  0.00    -0.077 C 
ATOM      9  C   UNL     1       9.591   7.957  13.188  1.00  0.00     0.008 C 
ATOM     10  C   UNL     1       7.883   8.625  14.820  1.00  0.00     0.039 C 
ENDBRANCH   5   8
TORSDOF 1
ENDMDL
MODEL 4
REMARK VINA RESULT:    -4.279      0.562      1.999
REMARK INTER + INTRA:          -4.688
REMARK INTER:                  -4.529
REMARK INTRA:                  -0.159
REMARK UNBOUND:                -0.159
REMARK SMILES C=C(C)[C@H]1CC=C(C)CC1
REMARK SMILES IDX 8 1 7 2 6 3 5 4 4 5 10 6 9 7 2 8 1 9 3 10
REMARK H PARENT
REMARK Flexibility Score: inf
ROOT
ATOM      1  C   UNL     1       7.607   4.877  12.804  1.00  0.00     0.039 C 
ATOM      2  C   UNL     1       6.596   5.906  12.380  1.00  0.00    -0.077 C 
ATOM      3  C   UNL     1       5.303   5.758  12.707  1.00  0.00    -0.027 C 
ATOM      4  C   UNL     1       4.316   6.824  12.318  1.00  0.00     0.035 C 
ATOM      5  C   UNL     1       4.881   8.225  12.653  1.00  0.00     0.018 C 
ATOM      6  C   UNL     1       6.385   8.403  12.254  1.00  0.00     0.013 C 
ATOM      7  C   UNL     1       7.011   7.146  11.622  1.00  0.00     0.031 C 
ENDROOT
BRANCH   5   8
ATOM      8  C   UNL     1       4.003   9.318  12.059  1.00  0.00    -0.077 C 
ATOM      9  C   UNL     1       2.793   9.587  12.576  1.00  0.00     0.008 C 
ATOM     10  C   UNL     1       4.481  10.119  10.875  1.00  0.00     0.039 C 
ENDBRANCH   5   8
TORSDOF 1
ENDMDL
MODEL 5
REMARK VINA RESULT:    -4.105      1.044      4.501
REMARK INTER + INTRA:          -4.504
REMARK INTER:                  -4.337
REMARK INTRA:                  -0.166
REMARK UNBOUND:                -0.159
REMARK SMILES C=C(C)[C@H]1CC=C(C)CC1
REMARK SMILES IDX 8 1 7 2 6 3 5 4 4 5 10 6 9 7 2 8 1 9 3 10
REMARK H PARENT
REMARK Flexibility Score: inf
ROOT
ATOM      1  C   UNL     1       3.226  10.012  10.877  1.00  0.00     0.039 C 
ATOM      2  C   UNL     1       4.179   9.167  11.677  1.00  0.00    -0.077 C 
ATOM      3  C   UNL     1       3.716   8.162  12.438  1.00  0.00    -0.027 C 
ATOM      4  C   UNL     1       4.689   7.297  13.190  1.00  0.00     0.035 C 
ATOM      5  C   UNL     1       5.862   6.884  12.268  1.00  0.00     0.018 C 
ATOM      6  C   UNL     1       6.414   8.061  11.395  1.00  0.00     0.013 C 
ATOM      7  C   UNL     1       5.672   9.393  11.612  1.00  0.00     0.031 C 
ENDROOT
BRANCH   5   8
ATOM      8  C   UNL     1       6.966   6.206  13.069  1.00  0.00    -0.077 C 
ATOM      9  C   UNL     1       7.465   6.779  14.177  1.00  0.00     0.008 C 
ATOM     10  C   UNL     1       7.518   4.875  12.629  1.00  0.00     0.039 C 
ENDBRANCH   5   8
TORSDOF 1
ENDMDL
MODEL 6
REMARK VINA RESULT:    -4.098      1.914      3.151
REMARK INTER + INTRA:          -4.497
REMARK INTER:                  -4.331
REMARK INTRA:                  -0.166
REMARK UNBOUND:                -0.159
REMARK SMILES C=C(C)[C@H]1CC=C(C)CC1
REMARK SMILES IDX 8 1 7 2 6 3 5 4 4 5 10 6 9 7 2 8 1 9 3 10
REMARK H PARENT
REMARK Flexibility Score: inf
ROOT
ATOM      1  C   UNL     1       9.804   8.255  13.708  1.00  0.00     0.039 C 
ATOM      2  C   UNL     1       8.341   7.980  13.496  1.00  0.00    -0.077 C 
ATOM      3  C   UNL     1       7.779   8.197  12.296  1.00  0.00    -0.027 C 
ATOM      4  C   UNL     1       6.326   7.867  12.091  1.00  0.00     0.035 C 
ATOM      5  C   UNL     1       6.005   6.473  12.680  1.00  0.00     0.018 C 
ATOM      6  C   UNL     1       6.644   6.228  14.088  1.00  0.00     0.013 C 
ATOM      7  C   UNL     1       7.481   7.414  14.603  1.00  0.00     0.031 C 
ENDROOT
BRANCH   5   8
ATOM      8  C   UNL     1       4.503   6.223  12.689  1.00  0.00    -0.077 C 
ATOM      9  C   UNL     1       3.644   7.196  13.039  1.00  0.00     0.008 C 
ATOM     10  C   UNL     1       3.953   4.875  12.302  1.00  0.00     0.039 C 
ENDBRANCH   5   8
TORSDOF 1
ENDMDL
MODEL 7
REMARK VINA RESULT:    -3.933      1.494      5.153
REMARK INTER + INTRA:          -4.322
REMARK INTER:                  -4.164
REMARK INTRA:                  -0.158
REMARK UNBOUND:                -0.159
REMARK SMILES C=C(C)[C@H]1CC=C(C)CC1
REMARK SMILES IDX 8 1 7 2 6 3 5 4 4 5 10 6 9 7 2 8 1 9 3 10
REMARK H PARENT
REMARK Flexibility Score: inf
ROOT
ATOM      1  C   UNL     1       1.645  12.762  11.567  1.00  0.00     0.039 C 
ATOM      2  C   UNL     1       2.559  11.626  11.935  1.00  0.00    -0.077 C 
ATOM      3  C   UNL     1       2.092  10.587  12.646  1.00  0.00    -0.027 C 
ATOM      4  C   UNL     1       3.009   9.437  12.960  1.00  0.00     0.035 C 
ATOM      5  C   UNL     1       3.794   9.016  11.693  1.00  0.00     0.018 C 
ATOM      6  C   UNL     1       4.353  10.228  10.875  1.00  0.00     0.013 C 
ATOM      7  C   UNL     1       4.000  11.599  11.480  1.00  0.00     0.031 C 
ENDROOT
BRANCH   5   8
ATOM      8  C   UNL     1       4.886   8.014  12.043  1.00  0.00    -0.077 C 
ATOM      9  C   UNL     1       6.184   8.353  11.960  1.00  0.00     0.008 C 
ATOM     10  C   UNL     1       4.527   6.622  12.490  1.00  0.00     0.039 C 
ENDBRANCH   5   8
TORSDOF 1
ENDMDL
MODEL 8
REMARK VINA RESULT:    -3.806      3.453      6.777
REMARK INTER + INTRA:          -4.187
REMARK INTER:                  -4.022
REMARK INTRA:                  -0.165
REMARK UNBOUND:                -0.159
REMARK SMILES C=C(C)[C@H]1CC=C(C)CC1
REMARK SMILES IDX 8 1 7 2 6 3 5 4 4 5 10 6 9 7 2 8 1 9 3 10
REMARK H PARENT
REMARK Flexibility Score: inf
ROOT
ATOM      1  C   UNL     1       4.308  16.445  12.047  1.00  0.00     0.039 C 
ATOM      2  C   UNL     1       3.777  15.038  12.037  1.00  0.00    -0.077 C 
ATOM      3  C   UNL     1       3.465  14.442  10.875  1.00  0.00    -0.027 C 
ATOM      4  C   UNL     1       2.984  13.017  10.882  1.00  0.00     0.035 C 
ATOM      5  C   UNL     1       3.885  12.153  11.798  1.00  0.00     0.018 C 
ATOM      6  C   UNL     1       4.233  12.841  13.160  1.00  0.00     0.013 C 
ATOM      7  C   UNL     1       3.626  14.248  13.316  1.00  0.00     0.031 C 
ENDROOT
BRANCH   5   8
ATOM      8  C   UNL     1       3.281  10.769  11.999  1.00  0.00    -0.077 C 
ATOM      9  C   UNL     1       2.137  10.610  12.686  1.00  0.00     0.008 C 
ATOM     10  C   UNL     1       3.959   9.552  11.428  1.00  0.00     0.039 C 
ENDBRANCH   5   8
TORSDOF 1
ENDMDL
