MODEL 1
REMARK VINA RESULT:    -9.525      0.000      0.000
REMARK INTER + INTRA:         -17.696
REMARK INTER:                 -15.650
REMARK INTRA:                  -2.046
REMARK UNBOUND:                -2.046
REMARK SMILES COc1ccc([C@H]2CC(=O)c3c(O)cc(O[C@H]4O[C@@H](CO[C@@H]5O[C@@H](C)[C@@H](O)[C@H](O)[C@@H]5O)[C@H](O)[C@H](O)[C@H]4O)cc3O2)cc1O
REMARK SMILES IDX 19 1 32 2 34 3 36 4 17 5 18 6 20 7 21 8 22 9 25 10 24 11
REMARK SMILES IDX 26 12 23 13 28 14 30 15 27 16 29 18 31 20 33 22 35 24 16 26
REMARK SMILES IDX 15 27 14 28 38 29 12 30 39 31 11 32 40 33 9 34 7 35 10 36
REMARK SMILES IDX 8 37 13 38 6 40 41 41 5 42 42 43 4 44 3 45 43 46 2 48 1 49
REMARK SMILES IDX 37 50
REMARK H PARENT 27 17 29 19 31 21 33 23 35 25 13 39 43 47 37 51
REMARK Flexibility Score: inf
ROOT
ATOM      1  C   UNL     1       3.186   2.819  -2.196  1.00  0.00     0.180 C 
ATOM      2  C   UNL     1       4.338   3.701  -1.676  1.00  0.00     0.177 C 
ATOM      3  C   UNL     1       3.998   5.179  -1.870  1.00  0.00     0.180 C 
ATOM      4  C   UNL     1       2.658   5.496  -1.195  1.00  0.00     0.214 C 
ATOM      5  C   UNL     1       1.534   4.495  -1.594  1.00  0.00     0.339 C 
ATOM      6  O   UNL     1       1.922   3.121  -1.623  1.00  0.00    -0.332 OA
ENDROOT
BRANCH   1   7
ATOM      7  C   UNL     1       3.151   2.641  -3.726  1.00  0.00     0.198 C 
BRANCH   7   8
ATOM      8  O   UNL     1       2.403   1.501  -4.111  1.00  0.00    -0.347 OA
BRANCH   8   9
ATOM      9  C   UNL     1       2.835   0.942  -5.350  1.00  0.00     0.281 C 
ATOM     10  C   UNL     1      -0.481   0.815  -6.950  1.00  0.00     0.041 C 
ATOM     11  C   UNL     1       0.614   0.478  -5.933  1.00  0.00     0.150 C 
ATOM     12  C   UNL     1       0.787  -1.055  -5.774  1.00  0.00     0.174 C 
ATOM     13  O   UNL     1       1.826   1.099  -6.334  1.00  0.00    -0.344 OA
ATOM     14  C   UNL     1       1.972  -1.392  -4.839  1.00  0.00     0.179 C 
ATOM     15  C   UNL     1       3.209  -0.554  -5.215  1.00  0.00     0.202 C 
BRANCH  12  16
ATOM     16  O   UNL     1       0.932  -1.701  -7.017  1.00  0.00    -0.388 OA
ATOM     17  H   UNL     1       1.892  -1.836  -7.192  1.00  0.00     0.211 HD
ENDBRANCH  12  16
BRANCH  14  18
ATOM     18  O   UNL     1       1.597  -1.137  -3.506  1.00  0.00    -0.387 OA
ATOM     19  H   UNL     1       2.017  -1.840  -2.947  1.00  0.00     0.211 HD
ENDBRANCH  14  18
BRANCH  15  20
ATOM     20  O   UNL     1       4.224  -0.738  -4.259  1.00  0.00    -0.385 OA
ATOM     21  H   UNL     1       4.836  -1.435  -4.628  1.00  0.00     0.211 HD
ENDBRANCH  15  20
ENDBRANCH   8   9
ENDBRANCH   7   8
ENDBRANCH   1   7
BRANCH   2  22
ATOM     22  O   UNL     1       4.521   3.424  -0.305  1.00  0.00    -0.387 OA
ATOM     23  H   UNL     1       3.805   3.908   0.188  1.00  0.00     0.211 HD
ENDBRANCH   2  22
BRANCH   3  24
ATOM     24  O   UNL     1       5.031   6.000  -1.376  1.00  0.00    -0.387 OA
ATOM     25  H   UNL     1       4.669   6.521  -0.612  1.00  0.00     0.211 HD
ENDBRANCH   3  24
BRANCH   5  26
ATOM     26  O   UNL     1       0.872   4.845  -2.816  1.00  0.00    -0.462 OA
BRANCH  26  27
ATOM     27  C   UNL     1      -0.278   4.220  -3.337  1.00  0.00     0.130 A 
ATOM     28  C   UNL     1      -1.195   4.887  -4.179  1.00  0.00     0.093 A 
ATOM     29  C   UNL     1      -0.521   2.880  -3.003  1.00  0.00     0.094 A 
ATOM     30  C   UNL     1      -2.301   4.212  -4.710  1.00  0.00     0.133 A 
ATOM     31  C   UNL     1      -1.621   2.201  -3.528  1.00  0.00     0.138 A 
ATOM     32  C   UNL     1      -2.516   2.860  -4.391  1.00  0.00     0.102 A 
ATOM     33  O   UNL     1      -1.833   0.858  -3.184  1.00  0.00    -0.484 OA
ATOM     34  C   UNL     1      -3.684   2.100  -4.895  1.00  0.00     0.174 C 
ATOM     35  C   UNL     1      -2.768   0.027  -3.879  1.00  0.00     0.211 C 
ATOM     36  O   UNL     1      -4.358   2.509  -5.873  1.00  0.00    -0.294 OA
ATOM     37  C   UNL     1      -4.046   0.805  -4.233  1.00  0.00     0.131 C 
BRANCH  30  38
ATOM     38  O   UNL     1      -3.190   4.892  -5.545  1.00  0.00    -0.507 OA
ATOM     39  H   UNL     1      -3.677   4.421  -6.293  1.00  0.00     0.293 HD
ENDBRANCH  30  38
BRANCH  35  40
ATOM     40  C   UNL     1      -3.124  -1.184  -3.043  1.00  0.00    -0.003 A 
ATOM     41  C   UNL     1      -3.798  -1.009  -1.822  1.00  0.00     0.057 A 
ATOM     42  C   UNL     1      -2.664  -2.463  -3.397  1.00  0.00     0.011 A 
ATOM     43  C   UNL     1      -3.998  -2.086  -0.955  1.00  0.00     0.158 A 
ATOM     44  C   UNL     1      -2.874  -3.545  -2.544  1.00  0.00     0.051 A 
ATOM     45  C   UNL     1      -3.525  -3.365  -1.306  1.00  0.00     0.160 A 
BRANCH  43  46
ATOM     46  O   UNL     1      -4.650  -1.861   0.260  1.00  0.00    -0.504 OA
ATOM     47  H   UNL     1      -5.624  -1.609   0.304  1.00  0.00     0.293 HD
ENDBRANCH  43  46
BRANCH  45  48
ATOM     48  O   UNL     1      -3.697  -4.423  -0.397  1.00  0.00    -0.493 OA
ATOM     49  C   UNL     1      -2.991  -5.661  -0.461  1.00  0.00     0.278 C 
ENDBRANCH  45  48
ENDBRANCH  35  40
ENDBRANCH  26  27
ENDBRANCH   5  26
BRANCH   4  50
ATOM     50  O   UNL     1       2.300   6.814  -1.540  1.00  0.00    -0.384 OA
ATOM     51  H   UNL     1       2.428   7.387  -0.734  1.00  0.00     0.211 HD
ENDBRANCH   4  50
TORSDOF 15
ENDMDL
MODEL 2
REMARK VINA RESULT:    -9.523      1.074      1.544
REMARK INTER + INTRA:         -17.692
REMARK INTER:                 -15.529
REMARK INTRA:                  -2.163
REMARK UNBOUND:                -2.046
REMARK SMILES COc1ccc([C@H]2CC(=O)c3c(O)cc(O[C@H]4O[C@@H](CO[C@@H]5O[C@@H](C)[C@@H](O)[C@H](O)[C@@H]5O)[C@H](O)[C@H](O)[C@H]4O)cc3O2)cc1O
REMARK SMILES IDX 19 1 32 2 34 3 36 4 17 5 18 6 20 7 21 8 22 9 25 10 24 11
REMARK SMILES IDX 26 12 23 13 28 14 30 15 27 16 29 18 31 20 33 22 35 24 16 26
REMARK SMILES IDX 15 27 14 28 38 29 12 30 39 31 11 32 40 33 9 34 7 35 10 36
REMARK SMILES IDX 8 37 13 38 6 40 41 41 5 42 42 43 4 44 3 45 43 46 2 48 1 49
REMARK SMILES IDX 37 50
REMARK H PARENT 27 17 29 19 31 21 33 23 35 25 13 39 43 47 37 51
REMARK Flexibility Score: inf
ROOT
ATOM      1  C   UNL     1       3.446   3.307  -2.119  1.00  0.00     0.180 C 
ATOM      2  C   UNL     1       4.444   4.235  -1.401  1.00  0.00     0.177 C 
ATOM      3  C   UNL     1       3.904   5.665  -1.367  1.00  0.00     0.180 C 
ATOM      4  C   UNL     1       2.513   5.678  -0.722  1.00  0.00     0.214 C 
ATOM      5  C   UNL     1       1.555   4.617  -1.339  1.00  0.00     0.339 C 
ATOM      6  O   UNL     1       2.135   3.334  -1.573  1.00  0.00    -0.332 OA
ENDROOT
BRANCH   1   7
ATOM      7  C   UNL     1       3.481   3.389  -3.657  1.00  0.00     0.198 C 
BRANCH   7   8
ATOM      8  O   UNL     1       2.738   2.345  -4.262  1.00  0.00    -0.347 OA
BRANCH   8   9
ATOM      9  C   UNL     1       3.216   1.046  -3.916  1.00  0.00     0.281 C 
ATOM     10  C   UNL     1       4.568   0.183  -7.233  1.00  0.00     0.041 C 
ATOM     11  C   UNL     1       3.508   0.534  -6.184  1.00  0.00     0.150 C 
ATOM     12  C   UNL     1       2.329  -0.474  -6.211  1.00  0.00     0.174 C 
ATOM     13  O   UNL     1       4.121   0.581  -4.905  1.00  0.00    -0.344 OA
ATOM     14  C   UNL     1       1.321  -0.189  -5.073  1.00  0.00     0.179 C 
ATOM     15  C   UNL     1       2.063   0.029  -3.740  1.00  0.00     0.202 C 
BRANCH  12  16
ATOM     16  O   UNL     1       2.775  -1.809  -6.162  1.00  0.00    -0.388 OA
ATOM     17  H   UNL     1       3.534  -1.910  -6.783  1.00  0.00     0.211 HD
ENDBRANCH  12  16
BRANCH  14  18
ATOM     18  O   UNL     1       0.562   0.950  -5.401  1.00  0.00    -0.387 OA
ATOM     19  H   UNL     1       0.744   1.156  -6.354  1.00  0.00     0.211 HD
ENDBRANCH  14  18
BRANCH  15  20
ATOM     20  O   UNL     1       1.159   0.455  -2.750  1.00  0.00    -0.385 OA
ATOM     21  H   UNL     1       0.385   0.861  -3.232  1.00  0.00     0.211 HD
ENDBRANCH  15  20
ENDBRANCH   8   9
ENDBRANCH   7   8
ENDBRANCH   1   7
BRANCH   2  22
ATOM     22  O   UNL     1       4.624   3.756  -0.087  1.00  0.00    -0.387 OA
ATOM     23  H   UNL     1       5.438   3.182  -0.095  1.00  0.00     0.211 HD
ENDBRANCH   2  22
BRANCH   3  24
ATOM     24  O   UNL     1       4.794   6.521  -0.691  1.00  0.00    -0.387 OA
ATOM     25  H   UNL     1       5.673   6.063  -0.630  1.00  0.00     0.211 HD
ENDBRANCH   3  24
BRANCH   5  26
ATOM     26  O   UNL     1       0.887   5.078  -2.520  1.00  0.00    -0.462 OA
BRANCH  26  27
ATOM     27  C   UNL     1      -0.218   4.456  -3.135  1.00  0.00     0.130 A 
ATOM     28  C   UNL     1      -0.964   5.070  -4.167  1.00  0.00     0.093 A 
ATOM     29  C   UNL     1      -0.592   3.176  -2.703  1.00  0.00     0.094 A 
ATOM     30  C   UNL     1      -2.026   4.395  -4.780  1.00  0.00     0.133 A 
ATOM     31  C   UNL     1      -1.650   2.498  -3.310  1.00  0.00     0.138 A 
ATOM     32  C   UNL     1      -2.371   3.100  -4.358  1.00  0.00     0.102 A 
ATOM     33  O   UNL     1      -1.996   1.214  -2.863  1.00  0.00    -0.484 OA
ATOM     34  C   UNL     1      -3.505   2.347  -4.945  1.00  0.00     0.174 C 
ATOM     35  C   UNL     1      -2.876   0.358  -3.596  1.00  0.00     0.211 C 
ATOM     36  O   UNL     1      -4.007   2.677  -6.047  1.00  0.00    -0.294 OA
ATOM     37  C   UNL     1      -4.039   1.154  -4.212  1.00  0.00     0.131 C 
BRANCH  30  38
ATOM     38  O   UNL     1      -2.743   5.020  -5.802  1.00  0.00    -0.507 OA
ATOM     39  H   UNL     1      -3.431   4.521  -6.346  1.00  0.00     0.293 HD
ENDBRANCH  30  38
BRANCH  35  40
ATOM     40  C   UNL     1      -3.424  -0.733  -2.700  1.00  0.00    -0.003 A 
ATOM     41  C   UNL     1      -4.624  -0.517  -2.000  1.00  0.00     0.057 A 
ATOM     42  C   UNL     1      -2.679  -1.896  -2.446  1.00  0.00     0.011 A 
ATOM     43  C   UNL     1      -5.070  -1.435  -1.047  1.00  0.00     0.158 A 
ATOM     44  C   UNL     1      -3.127  -2.824  -1.507  1.00  0.00     0.051 A 
ATOM     45  C   UNL     1      -4.316  -2.594  -0.783  1.00  0.00     0.160 A 
BRANCH  43  46
ATOM     46  O   UNL     1      -6.254  -1.167  -0.356  1.00  0.00    -0.504 OA
ATOM     47  H   UNL     1      -6.410  -0.290   0.115  1.00  0.00     0.293 HD
ENDBRANCH  43  46
BRANCH  45  48
ATOM     48  O   UNL     1      -4.761  -3.479   0.213  1.00  0.00    -0.493 OA
ATOM     49  C   UNL     1      -4.621  -4.897   0.150  1.00  0.00     0.278 C 
ENDBRANCH  45  48
ENDBRANCH  35  40
ENDBRANCH  26  27
ENDBRANCH   5  26
BRANCH   4  50
ATOM     50  O   UNL     1       1.982   6.976  -0.864  1.00  0.00    -0.384 OA
ATOM     51  H   UNL     1       1.647   7.068  -1.799  1.00  0.00     0.211 HD
ENDBRANCH   4  50
TORSDOF 15
ENDMDL
MODEL 3
REMARK VINA RESULT:    -9.384      1.880      7.403
REMARK INTER + INTRA:         -17.463
REMARK INTER:                 -14.943
REMARK INTRA:                  -2.521
REMARK UNBOUND:                -2.046
REMARK SMILES COc1ccc([C@H]2CC(=O)c3c(O)cc(O[C@H]4O[C@@H](CO[C@@H]5O[C@@H](C)[C@@H](O)[C@H](O)[C@@H]5O)[C@H](O)[C@H](O)[C@H]4O)cc3O2)cc1O
REMARK SMILES IDX 19 1 32 2 34 3 36 4 17 5 18 6 20 7 21 8 22 9 25 10 24 11
REMARK SMILES IDX 26 12 23 13 28 14 30 15 27 16 29 18 31 20 33 22 35 24 16 26
REMARK SMILES IDX 15 27 14 28 38 29 12 30 39 31 11 32 40 33 9 34 7 35 10 36
REMARK SMILES IDX 8 37 13 38 6 40 41 41 5 42 42 43 4 44 3 45 43 46 2 48 1 49
REMARK SMILES IDX 37 50
REMARK H PARENT 27 17 29 19 31 21 33 23 35 25 13 39 43 47 37 51
REMARK Flexibility Score: inf
ROOT
ATOM      1  C   UNL     1      -1.539  -3.316  -4.546  1.00  0.00     0.180 C 
ATOM      2  C   UNL     1      -1.803  -4.712  -3.949  1.00  0.00     0.177 C 
ATOM      3  C   UNL     1      -3.128  -4.716  -3.185  1.00  0.00     0.180 C 
ATOM      4  C   UNL     1      -4.259  -4.241  -4.106  1.00  0.00     0.214 C 
ATOM      5  C   UNL     1      -3.915  -2.912  -4.842  1.00  0.00     0.339 C 
ATOM      6  O   UNL     1      -2.591  -2.829  -5.367  1.00  0.00    -0.332 OA
ENDROOT
BRANCH   1   7
ATOM      7  C   UNL     1      -0.999  -2.277  -3.544  1.00  0.00     0.198 C 
BRANCH   7   8
ATOM      8  O   UNL     1       0.307  -1.845  -3.880  1.00  0.00    -0.347 OA
BRANCH   8   9
ATOM      9  C   UNL     1       0.363  -0.466  -4.243  1.00  0.00     0.281 C 
ATOM     10  C   UNL     1       0.210  -0.969  -7.889  1.00  0.00     0.041 C 
ATOM     11  C   UNL     1       0.784  -1.054  -6.471  1.00  0.00     0.150 C 
ATOM     12  C   UNL     1       2.256  -0.568  -6.426  1.00  0.00     0.174 C 
ATOM     13  O   UNL     1      -0.038  -0.301  -5.594  1.00  0.00    -0.344 OA
ATOM     14  C   UNL     1       2.794  -0.541  -4.976  1.00  0.00     0.179 C 
ATOM     15  C   UNL     1       1.775   0.134  -4.038  1.00  0.00     0.202 C 
BRANCH  12  16
ATOM     16  O   UNL     1       2.416   0.689  -7.043  1.00  0.00    -0.388 OA
ATOM     17  H   UNL     1       2.862   0.557  -7.912  1.00  0.00     0.211 HD
ENDBRANCH  12  16
BRANCH  14  18
ATOM     18  O   UNL     1       3.050  -1.858  -4.553  1.00  0.00    -0.387 OA
ATOM     19  H   UNL     1       2.308  -2.422  -4.893  1.00  0.00     0.211 HD
ENDBRANCH  14  18
BRANCH  15  20
ATOM     20  O   UNL     1       2.191   0.002  -2.700  1.00  0.00    -0.385 OA
ATOM     21  H   UNL     1       2.807  -0.783  -2.673  1.00  0.00     0.211 HD
ENDBRANCH  15  20
ENDBRANCH   8   9
ENDBRANCH   7   8
ENDBRANCH   1   7
BRANCH   2  22
ATOM     22  O   UNL     1      -1.854  -5.642  -5.007  1.00  0.00    -0.387 OA
ATOM     23  H   UNL     1      -2.361  -5.212  -5.749  1.00  0.00     0.211 HD
ENDBRANCH   2  22
BRANCH   3  24
ATOM     24  O   UNL     1      -3.397  -5.991  -2.654  1.00  0.00    -0.387 OA
ATOM     25  H   UNL     1      -2.567  -6.533  -2.722  1.00  0.00     0.211 HD
ENDBRANCH   3  24
BRANCH   5  26
ATOM     26  O   UNL     1      -4.211  -1.744  -4.067  1.00  0.00    -0.462 OA
BRANCH  26  27
ATOM     27  C   UNL     1      -3.946  -0.414  -4.449  1.00  0.00     0.130 A 
ATOM     28  C   UNL     1      -4.625   0.226  -5.511  1.00  0.00     0.093 A 
ATOM     29  C   UNL     1      -2.968   0.302  -3.746  1.00  0.00     0.094 A 
ATOM     30  C   UNL     1      -4.360   1.564  -5.826  1.00  0.00     0.133 A 
ATOM     31  C   UNL     1      -2.699   1.636  -4.054  1.00  0.00     0.138 A 
ATOM     32  C   UNL     1      -3.397   2.279  -5.093  1.00  0.00     0.102 A 
ATOM     33  O   UNL     1      -1.721   2.330  -3.327  1.00  0.00    -0.484 OA
ATOM     34  C   UNL     1      -3.050   3.687  -5.398  1.00  0.00     0.174 C 
ATOM     35  C   UNL     1      -1.576   3.752  -3.399  1.00  0.00     0.211 C 
ATOM     36  O   UNL     1      -3.802   4.410  -6.096  1.00  0.00    -0.294 OA
ATOM     37  C   UNL     1      -1.783   4.259  -4.836  1.00  0.00     0.131 C 
BRANCH  30  38
ATOM     38  O   UNL     1      -5.047   2.175  -6.876  1.00  0.00    -0.507 OA
ATOM     39  H   UNL     1      -5.196   1.704  -7.756  1.00  0.00     0.293 HD
ENDBRANCH  30  38
BRANCH  35  40
ATOM     40  C   UNL     1      -0.210   4.172  -2.903  1.00  0.00    -0.003 A 
ATOM     41  C   UNL     1       0.681   3.198  -2.418  1.00  0.00     0.057 A 
ATOM     42  C   UNL     1       0.126   5.530  -2.784  1.00  0.00     0.011 A 
ATOM     43  C   UNL     1       1.882   3.568  -1.807  1.00  0.00     0.158 A 
ATOM     44  C   UNL     1       1.330   5.906  -2.190  1.00  0.00     0.051 A 
ATOM     45  C   UNL     1       2.211   4.930  -1.677  1.00  0.00     0.160 A 
BRANCH  43  46
ATOM     46  O   UNL     1       2.724   2.568  -1.316  1.00  0.00    -0.504 OA
ATOM     47  H   UNL     1       2.410   1.892  -0.638  1.00  0.00     0.293 HD
ENDBRANCH  43  46
BRANCH  45  48
ATOM     48  O   UNL     1       3.401   5.279  -1.017  1.00  0.00    -0.493 OA
ATOM     49  C   UNL     1       4.554   5.813  -1.667  1.00  0.00     0.278 C 
ENDBRANCH  45  48
ENDBRANCH  35  40
ENDBRANCH  26  27
ENDBRANCH   5  26
BRANCH   4  50
ATOM     50  O   UNL     1      -5.422  -4.095  -3.325  1.00  0.00    -0.384 OA
ATOM     51  H   UNL     1      -5.746  -3.158  -3.431  1.00  0.00     0.211 HD
ENDBRANCH   4  50
TORSDOF 15
ENDMDL
MODEL 4
REMARK VINA RESULT:    -9.358      3.309      9.916
REMARK INTER + INTRA:         -17.421
REMARK INTER:                 -15.240
REMARK INTRA:                  -2.182
REMARK UNBOUND:                -2.046
REMARK SMILES COc1ccc([C@H]2CC(=O)c3c(O)cc(O[C@H]4O[C@@H](CO[C@@H]5O[C@@H](C)[C@@H](O)[C@H](O)[C@@H]5O)[C@H](O)[C@H](O)[C@H]4O)cc3O2)cc1O
REMARK SMILES IDX 19 1 32 2 34 3 36 4 17 5 18 6 20 7 21 8 22 9 25 10 24 11
REMARK SMILES IDX 26 12 23 13 28 14 30 15 27 16 29 18 31 20 33 22 35 24 16 26
REMARK SMILES IDX 15 27 14 28 38 29 12 30 39 31 11 32 40 33 9 34 7 35 10 36
REMARK SMILES IDX 8 37 13 38 6 40 41 41 5 42 42 43 4 44 3 45 43 46 2 48 1 49
REMARK SMILES IDX 37 50
REMARK H PARENT 27 17 29 19 31 21 33 23 35 25 13 39 43 47 37 51
REMARK Flexibility Score: inf
ROOT
ATOM      1  C   UNL     1      -6.978  -2.438   0.766  1.00  0.00     0.180 C 
ATOM      2  C   UNL     1      -7.648  -2.546   2.149  1.00  0.00     0.177 C 
ATOM      3  C   UNL     1      -7.145  -3.789   2.883  1.00  0.00     0.180 C 
ATOM      4  C   UNL     1      -5.614  -3.757   2.967  1.00  0.00     0.214 C 
ATOM      5  C   UNL     1      -4.943  -3.477   1.590  1.00  0.00     0.339 C 
ATOM      6  O   UNL     1      -5.558  -2.453   0.808  1.00  0.00    -0.332 OA
ENDROOT
BRANCH   1   7
ATOM      7  C   UNL     1      -7.579  -3.356  -0.316  1.00  0.00     0.198 C 
BRANCH   7   8
ATOM      8  O   UNL     1      -7.332  -2.869  -1.623  1.00  0.00    -0.347 OA
BRANCH   8   9
ATOM      9  C   UNL     1      -7.633  -1.482  -1.769  1.00  0.00     0.281 C 
ATOM     10  C   UNL     1      -9.974  -1.841  -4.591  1.00  0.00     0.041 C 
ATOM     11  C   UNL     1      -8.639  -1.904  -3.842  1.00  0.00     0.150 C 
ATOM     12  C   UNL     1      -7.506  -1.212  -4.645  1.00  0.00     0.174 C 
ATOM     13  O   UNL     1      -8.799  -1.318  -2.560  1.00  0.00    -0.344 OA
ATOM     14  C   UNL     1      -6.189  -1.171  -3.835  1.00  0.00     0.179 C 
ATOM     15  C   UNL     1      -6.458  -0.693  -2.395  1.00  0.00     0.202 C 
BRANCH  12  16
ATOM     16  O   UNL     1      -7.874   0.081  -5.069  1.00  0.00    -0.388 OA
ATOM     17  H   UNL     1      -7.328   0.321  -5.854  1.00  0.00     0.211 HD
ENDBRANCH  12  16
BRANCH  14  18
ATOM     18  O   UNL     1      -5.612  -2.455  -3.824  1.00  0.00    -0.387 OA
ATOM     19  H   UNL     1      -4.828  -2.416  -3.218  1.00  0.00     0.211 HD
ENDBRANCH  14  18
BRANCH  15  20
ATOM     20  O   UNL     1      -5.292  -0.822  -1.619  1.00  0.00    -0.385 OA
ATOM     21  H   UNL     1      -5.592  -0.920  -0.673  1.00  0.00     0.211 HD
ENDBRANCH  15  20
ENDBRANCH   8   9
ENDBRANCH   7   8
ENDBRANCH   1   7
BRANCH   2  22
ATOM     22  O   UNL     1      -7.327  -1.387   2.886  1.00  0.00    -0.387 OA
ATOM     23  H   UNL     1      -8.158  -0.842   2.948  1.00  0.00     0.211 HD
ENDBRANCH   2  22
BRANCH   3  24
ATOM     24  O   UNL     1      -7.730  -3.889   4.160  1.00  0.00    -0.387 OA
ATOM     25  H   UNL     1      -7.634  -3.009   4.610  1.00  0.00     0.211 HD
ENDBRANCH   3  24
BRANCH   5  26
ATOM     26  O   UNL     1      -4.761  -4.658   0.799  1.00  0.00    -0.462 OA
BRANCH  26  27
ATOM     27  C   UNL     1      -4.169  -4.709  -0.479  1.00  0.00     0.130 A 
ATOM     28  C   UNL     1      -4.356  -5.794  -1.365  1.00  0.00     0.093 A 
ATOM     29  C   UNL     1      -3.360  -3.639  -0.885  1.00  0.00     0.094 A 
ATOM     30  C   UNL     1      -3.785  -5.780  -2.643  1.00  0.00     0.133 A 
ATOM     31  C   UNL     1      -2.787  -3.619  -2.157  1.00  0.00     0.138 A 
ATOM     32  C   UNL     1      -3.000  -4.686  -3.048  1.00  0.00     0.102 A 
ATOM     33  O   UNL     1      -1.990  -2.530  -2.539  1.00  0.00    -0.484 OA
ATOM     34  C   UNL     1      -2.342  -4.628  -4.375  1.00  0.00     0.174 C 
ATOM     35  C   UNL     1      -1.593  -2.308  -3.896  1.00  0.00     0.211 C 
ATOM     36  O   UNL     1      -2.701  -5.377  -5.316  1.00  0.00    -0.294 OA
ATOM     37  C   UNL     1      -1.244  -3.632  -4.595  1.00  0.00     0.131 C 
BRANCH  30  38
ATOM     38  O   UNL     1      -3.989  -6.861  -3.502  1.00  0.00    -0.507 OA
ATOM     39  H   UNL     1      -3.340  -7.075  -4.246  1.00  0.00     0.293 HD
ENDBRANCH  30  38
BRANCH  35  40
ATOM     40  C   UNL     1      -0.406  -1.372  -3.955  1.00  0.00    -0.003 A 
ATOM     41  C   UNL     1       0.848  -1.868  -4.353  1.00  0.00     0.057 A 
ATOM     42  C   UNL     1      -0.505  -0.053  -3.482  1.00  0.00     0.011 A 
ATOM     43  C   UNL     1       1.993  -1.071  -4.265  1.00  0.00     0.158 A 
ATOM     44  C   UNL     1       0.630   0.752  -3.406  1.00  0.00     0.051 A 
ATOM     45  C   UNL     1       1.894   0.246  -3.778  1.00  0.00     0.160 A 
BRANCH  43  46
ATOM     46  O   UNL     1       3.222  -1.614  -4.646  1.00  0.00    -0.504 OA
ATOM     47  H   UNL     1       4.022  -1.603  -4.034  1.00  0.00     0.293 HD
ENDBRANCH  43  46
BRANCH  45  48
ATOM     48  O   UNL     1       3.065   1.012  -3.655  1.00  0.00    -0.493 OA
ATOM     49  C   UNL     1       3.246   2.057  -2.700  1.00  0.00     0.278 C 
ENDBRANCH  45  48
ENDBRANCH  35  40
ENDBRANCH  26  27
ENDBRANCH   5  26
BRANCH   4  50
ATOM     50  O   UNL     1      -5.183  -4.992   3.492  1.00  0.00    -0.384 OA
ATOM     51  H   UNL     1      -4.943  -4.849   4.450  1.00  0.00     0.211 HD
ENDBRANCH   4  50
TORSDOF 15
ENDMDL
MODEL 5
REMARK VINA RESULT:    -9.340      2.920      6.527
REMARK INTER + INTRA:         -17.391
REMARK INTER:                 -15.811
REMARK INTRA:                  -1.580
REMARK UNBOUND:                -2.046
REMARK SMILES COc1ccc([C@H]2CC(=O)c3c(O)cc(O[C@H]4O[C@@H](CO[C@@H]5O[C@@H](C)[C@@H](O)[C@H](O)[C@@H]5O)[C@H](O)[C@H](O)[C@H]4O)cc3O2)cc1O
REMARK SMILES IDX 19 1 32 2 34 3 36 4 17 5 18 6 20 7 21 8 22 9 25 10 24 11
REMARK SMILES IDX 26 12 23 13 28 14 30 15 27 16 29 18 31 20 33 22 35 24 16 26
REMARK SMILES IDX 15 27 14 28 38 29 12 30 39 31 11 32 40 33 9 34 7 35 10 36
REMARK SMILES IDX 8 37 13 38 6 40 41 41 5 42 42 43 4 44 3 45 43 46 2 48 1 49
REMARK SMILES IDX 37 50
REMARK H PARENT 27 17 29 19 31 21 33 23 35 25 13 39 43 47 37 51
REMARK Flexibility Score: inf
ROOT
ATOM      1  C   UNL     1      -0.659   2.132  -4.626  1.00  0.00     0.180 C 
ATOM      2  C   UNL     1      -1.622   3.104  -5.334  1.00  0.00     0.177 C 
ATOM      3  C   UNL     1      -2.970   2.425  -5.580  1.00  0.00     0.180 C 
ATOM      4  C   UNL     1      -3.532   1.893  -4.255  1.00  0.00     0.214 C 
ATOM      5  C   UNL     1      -2.493   1.048  -3.460  1.00  0.00     0.339 C 
ATOM      6  O   UNL     1      -1.171   1.585  -3.419  1.00  0.00    -0.332 OA
ENDROOT
BRANCH   1   7
ATOM      7  C   UNL     1       0.001   1.091  -5.551  1.00  0.00     0.198 C 
BRANCH   7   8
ATOM      8  O   UNL     1       1.403   1.025  -5.361  1.00  0.00    -0.347 OA
BRANCH   8   9
ATOM      9  C   UNL     1       1.791   0.056  -4.388  1.00  0.00     0.281 C 
ATOM     10  C   UNL     1       3.305   2.418  -2.001  1.00  0.00     0.041 C 
ATOM     11  C   UNL     1       3.131   1.649  -3.315  1.00  0.00     0.150 C 
ATOM     12  C   UNL     1       4.457   0.976  -3.756  1.00  0.00     0.174 C 
ATOM     13  O   UNL     1       2.093   0.695  -3.158  1.00  0.00    -0.344 OA
ATOM     14  C   UNL     1       4.251   0.102  -5.015  1.00  0.00     0.179 C 
ATOM     15  C   UNL     1       3.002  -0.786  -4.855  1.00  0.00     0.202 C 
BRANCH  12  16
ATOM     16  O   UNL     1       5.040   0.226  -2.716  1.00  0.00    -0.388 OA
ATOM     17  H   UNL     1       5.208   0.825  -1.952  1.00  0.00     0.211 HD
ENDBRANCH  12  16
BRANCH  14  18
ATOM     18  O   UNL     1       4.116   0.937  -6.141  1.00  0.00    -0.387 OA
ATOM     19  H   UNL     1       4.787   0.638  -6.807  1.00  0.00     0.211 HD
ENDBRANCH  14  18
BRANCH  15  20
ATOM     20  O   UNL     1       2.724  -1.447  -6.065  1.00  0.00    -0.385 OA
ATOM     21  H   UNL     1       3.473  -1.227  -6.685  1.00  0.00     0.211 HD
ENDBRANCH  15  20
ENDBRANCH   8   9
ENDBRANCH   7   8
ENDBRANCH   1   7
BRANCH   2  22
ATOM     22  O   UNL     1      -1.795   4.234  -4.507  1.00  0.00    -0.387 OA
ATOM     23  H   UNL     1      -2.738   4.219  -4.188  1.00  0.00     0.211 HD
ENDBRANCH   2  22
BRANCH   3  24
ATOM     24  O   UNL     1      -3.871   3.309  -6.203  1.00  0.00    -0.387 OA
ATOM     25  H   UNL     1      -3.689   4.224  -5.862  1.00  0.00     0.211 HD
ENDBRANCH   3  24
BRANCH   5  26
ATOM     26  O   UNL     1      -2.454  -0.326  -3.864  1.00  0.00    -0.462 OA
BRANCH  26  27
ATOM     27  C   UNL     1      -2.804  -1.430  -3.061  1.00  0.00     0.130 A 
ATOM     28  C   UNL     1      -2.319  -2.735  -3.303  1.00  0.00     0.093 A 
ATOM     29  C   UNL     1      -3.671  -1.223  -1.979  1.00  0.00     0.094 A 
ATOM     30  C   UNL     1      -2.658  -3.793  -2.451  1.00  0.00     0.133 A 
ATOM     31  C   UNL     1      -4.013  -2.273  -1.127  1.00  0.00     0.138 A 
ATOM     32  C   UNL     1      -3.505  -3.565  -1.352  1.00  0.00     0.102 A 
ATOM     33  O   UNL     1      -4.876  -2.034  -0.047  1.00  0.00    -0.484 OA
ATOM     34  C   UNL     1      -3.926  -4.649  -0.434  1.00  0.00     0.174 C 
ATOM     35  C   UNL     1      -5.059  -2.978   1.012  1.00  0.00     0.211 C 
ATOM     36  O   UNL     1      -3.310  -5.743  -0.388  1.00  0.00    -0.294 OA
ATOM     37  C   UNL     1      -5.097  -4.417   0.472  1.00  0.00     0.131 C 
BRANCH  30  38
ATOM     38  O   UNL     1      -2.161  -5.073  -2.707  1.00  0.00    -0.507 OA
ATOM     39  H   UNL     1      -1.473  -5.238  -3.427  1.00  0.00     0.293 HD
ENDBRANCH  30  38
BRANCH  35  40
ATOM     40  C   UNL     1      -6.336  -2.684   1.770  1.00  0.00    -0.003 A 
ATOM     41  C   UNL     1      -7.200  -1.676   1.307  1.00  0.00     0.057 A 
ATOM     42  C   UNL     1      -6.599  -3.302   3.003  1.00  0.00     0.011 A 
ATOM     43  C   UNL     1      -8.301  -1.273   2.067  1.00  0.00     0.158 A 
ATOM     44  C   UNL     1      -7.705  -2.915   3.760  1.00  0.00     0.051 A 
ATOM     45  C   UNL     1      -8.555  -1.884   3.309  1.00  0.00     0.160 A 
BRANCH  43  46
ATOM     46  O   UNL     1      -9.117  -0.249   1.581  1.00  0.00    -0.504 OA
ATOM     47  H   UNL     1      -9.219  -0.072   0.594  1.00  0.00     0.293 HD
ENDBRANCH  43  46
BRANCH  45  48
ATOM     48  O   UNL     1      -9.641  -1.430   4.077  1.00  0.00    -0.493 OA
ATOM     49  C   UNL     1     -10.633  -2.280   4.649  1.00  0.00     0.278 C 
ENDBRANCH  45  48
ENDBRANCH  35  40
ENDBRANCH  26  27
ENDBRANCH   5  26
BRANCH   4  50
ATOM     50  O   UNL     1      -4.680   1.130  -4.547  1.00  0.00    -0.384 OA
ATOM     51  H   UNL     1      -5.413   1.440  -3.946  1.00  0.00     0.211 HD
ENDBRANCH   4  50
TORSDOF 15
ENDMDL
MODEL 6
REMARK VINA RESULT:    -9.312      2.069      3.028
REMARK INTER + INTRA:         -17.346
REMARK INTER:                 -15.209
REMARK INTRA:                  -2.137
REMARK UNBOUND:                -2.046
REMARK SMILES COc1ccc([C@H]2CC(=O)c3c(O)cc(O[C@H]4O[C@@H](CO[C@@H]5O[C@@H](C)[C@@H](O)[C@H](O)[C@@H]5O)[C@H](O)[C@H](O)[C@H]4O)cc3O2)cc1O
REMARK SMILES IDX 19 1 32 2 34 3 36 4 17 5 18 6 20 7 21 8 22 9 25 10 24 11
REMARK SMILES IDX 26 12 23 13 28 14 30 15 27 16 29 18 31 20 33 22 35 24 16 26
REMARK SMILES IDX 15 27 14 28 38 29 12 30 39 31 11 32 40 33 9 34 7 35 10 36
REMARK SMILES IDX 8 37 13 38 6 40 41 41 5 42 42 43 4 44 3 45 43 46 2 48 1 49
REMARK SMILES IDX 37 50
REMARK H PARENT 27 17 29 19 31 21 33 23 35 25 13 39 43 47 37 51
REMARK Flexibility Score: inf
ROOT
ATOM      1  C   UNL     1       1.177   2.931  -2.716  1.00  0.00     0.180 C 
ATOM      2  C   UNL     1       1.752   4.346  -2.513  1.00  0.00     0.177 C 
ATOM      3  C   UNL     1       0.934   5.366  -3.306  1.00  0.00     0.180 C 
ATOM      4  C   UNL     1      -0.544   5.265  -2.910  1.00  0.00     0.214 C 
ATOM      5  C   UNL     1      -1.077   3.803  -2.953  1.00  0.00     0.339 C 
ATOM      6  O   UNL     1      -0.204   2.817  -2.403  1.00  0.00    -0.332 OA
ENDROOT
BRANCH   1   7
ATOM      7  C   UNL     1       1.571   2.259  -4.046  1.00  0.00     0.198 C 
BRANCH   7   8
ATOM      8  O   UNL     1       1.245   0.881  -4.061  1.00  0.00    -0.347 OA
BRANCH   8   9
ATOM      9  C   UNL     1       0.677   0.455  -5.299  1.00  0.00     0.281 C 
ATOM     10  C   UNL     1      -1.557  -2.114  -3.892  1.00  0.00     0.041 C 
ATOM     11  C   UNL     1      -0.233  -1.431  -4.250  1.00  0.00     0.150 C 
ATOM     12  C   UNL     1       0.739  -2.415  -4.952  1.00  0.00     0.174 C 
ATOM     13  O   UNL     1      -0.501  -0.298  -5.061  1.00  0.00    -0.344 OA
ATOM     14  C   UNL     1       2.025  -1.694  -5.419  1.00  0.00     0.179 C 
ATOM     15  C   UNL     1       1.673  -0.379  -6.141  1.00  0.00     0.202 C 
BRANCH  12  16
ATOM     16  O   UNL     1       0.124  -3.088  -6.025  1.00  0.00    -0.388 OA
ATOM     17  H   UNL     1      -0.307  -2.421  -6.609  1.00  0.00     0.211 HD
ENDBRANCH  12  16
BRANCH  14  18
ATOM     18  O   UNL     1       2.843  -1.435  -4.303  1.00  0.00    -0.387 OA
ATOM     19  H   UNL     1       3.736  -1.819  -4.501  1.00  0.00     0.211 HD
ENDBRANCH  14  18
BRANCH  15  20
ATOM     20  O   UNL     1       2.845   0.352  -6.409  1.00  0.00    -0.385 OA
ATOM     21  H   UNL     1       2.549   1.257  -6.708  1.00  0.00     0.211 HD
ENDBRANCH  15  20
ENDBRANCH   8   9
ENDBRANCH   7   8
ENDBRANCH   1   7
BRANCH   2  22
ATOM     22  O   UNL     1       1.700   4.650  -1.137  1.00  0.00    -0.387 OA
ATOM     23  H   UNL     1       1.482   3.804  -0.660  1.00  0.00     0.211 HD
ENDBRANCH   2  22
BRANCH   3  24
ATOM     24  O   UNL     1       1.432   6.669  -3.111  1.00  0.00    -0.387 OA
ATOM     25  H   UNL     1       1.356   7.158  -3.972  1.00  0.00     0.211 HD
ENDBRANCH   3  24
BRANCH   5  26
ATOM     26  O   UNL     1      -1.516   3.398  -4.256  1.00  0.00    -0.462 OA
BRANCH  26  27
ATOM     27  C   UNL     1      -2.623   2.570  -4.531  1.00  0.00     0.130 A 
ATOM     28  C   UNL     1      -3.404   2.702  -5.701  1.00  0.00     0.093 A 
ATOM     29  C   UNL     1      -2.960   1.574  -3.604  1.00  0.00     0.094 A 
ATOM     30  C   UNL     1      -4.467   1.827  -5.954  1.00  0.00     0.133 A 
ATOM     31  C   UNL     1      -4.018   0.699  -3.850  1.00  0.00     0.138 A 
ATOM     32  C   UNL     1      -4.776   0.814  -5.030  1.00  0.00     0.102 A 
ATOM     33  O   UNL     1      -4.327  -0.294  -2.908  1.00  0.00    -0.484 OA
ATOM     34  C   UNL     1      -5.908  -0.123  -5.225  1.00  0.00     0.174 C 
ATOM     35  C   UNL     1      -5.208  -1.383  -3.202  1.00  0.00     0.211 C 
ATOM     36  O   UNL     1      -6.443  -0.276  -6.351  1.00  0.00    -0.294 OA
ATOM     37  C   UNL     1      -6.400  -0.918  -4.054  1.00  0.00     0.131 C 
BRANCH  30  38
ATOM     38  O   UNL     1      -5.221   1.975  -7.120  1.00  0.00    -0.507 OA
ATOM     39  H   UNL     1      -5.897   1.281  -7.403  1.00  0.00     0.293 HD
ENDBRANCH  30  38
BRANCH  35  40
ATOM     40  C   UNL     1      -5.712  -2.018  -1.924  1.00  0.00    -0.003 A 
ATOM     41  C   UNL     1      -6.096  -1.198  -0.848  1.00  0.00     0.057 A 
ATOM     42  C   UNL     1      -5.664  -3.409  -1.744  1.00  0.00     0.011 A 
ATOM     43  C   UNL     1      -6.412  -1.751   0.395  1.00  0.00     0.158 A 
ATOM     44  C   UNL     1      -5.993  -3.970  -0.511  1.00  0.00     0.051 A 
ATOM     45  C   UNL     1      -6.351  -3.146   0.577  1.00  0.00     0.160 A 
BRANCH  43  46
ATOM     46  O   UNL     1      -6.763  -0.897   1.443  1.00  0.00    -0.504 OA
ATOM     47  H   UNL     1      -6.251  -0.051   1.636  1.00  0.00     0.293 HD
ENDBRANCH  43  46
BRANCH  45  48
ATOM     48  O   UNL     1      -6.628  -3.676   1.849  1.00  0.00    -0.493 OA
ATOM     49  C   UNL     1      -5.635  -3.975   2.829  1.00  0.00     0.278 C 
ENDBRANCH  45  48
ENDBRANCH  35  40
ENDBRANCH  26  27
ENDBRANCH   5  26
BRANCH   4  50
ATOM     50  O   UNL     1      -1.283   6.093  -3.779  1.00  0.00    -0.384 OA
ATOM     51  H   UNL     1      -1.529   6.919  -3.277  1.00  0.00     0.211 HD
ENDBRANCH   4  50
TORSDOF 15
ENDMDL
MODEL 7
REMARK VINA RESULT:    -9.186      2.963      6.192
REMARK INTER + INTRA:         -17.139
REMARK INTER:                 -15.356
REMARK INTRA:                  -1.783
REMARK UNBOUND:                -2.046
REMARK SMILES COc1ccc([C@H]2CC(=O)c3c(O)cc(O[C@H]4O[C@@H](CO[C@@H]5O[C@@H](C)[C@@H](O)[C@H](O)[C@@H]5O)[C@H](O)[C@H](O)[C@H]4O)cc3O2)cc1O
REMARK SMILES IDX 19 1 32 2 34 3 36 4 17 5 18 6 20 7 21 8 22 9 25 10 24 11
REMARK SMILES IDX 26 12 23 13 28 14 30 15 27 16 29 18 31 20 33 22 35 24 16 26
REMARK SMILES IDX 15 27 14 28 38 29 12 30 39 31 11 32 40 33 9 34 7 35 10 36
REMARK SMILES IDX 8 37 13 38 6 40 41 41 5 42 42 43 4 44 3 45 43 46 2 48 1 49
REMARK SMILES IDX 37 50
REMARK H PARENT 27 17 29 19 31 21 33 23 35 25 13 39 43 47 37 51
REMARK Flexibility Score: inf
ROOT
ATOM      1  C   UNL     1      -0.953   2.570  -5.169  1.00  0.00     0.180 C 
ATOM      2  C   UNL     1      -2.056   3.445  -5.792  1.00  0.00     0.177 C 
ATOM      3  C   UNL     1      -3.350   2.642  -5.933  1.00  0.00     0.180 C 
ATOM      4  C   UNL     1      -3.751   2.064  -4.570  1.00  0.00     0.214 C 
ATOM      5  C   UNL     1      -2.578   1.322  -3.864  1.00  0.00     0.339 C 
ATOM      6  O   UNL     1      -1.313   1.981  -3.927  1.00  0.00    -0.332 OA
ENDROOT
BRANCH   1   7
ATOM      7  C   UNL     1      -0.274   1.592  -6.148  1.00  0.00     0.198 C 
BRANCH   7   8
ATOM      8  O   UNL     1       0.662   0.753  -5.496  1.00  0.00    -0.347 OA
BRANCH   8   9
ATOM      9  C   UNL     1       1.577   0.131  -6.398  1.00  0.00     0.281 C 
ATOM     10  C   UNL     1      -0.632  -2.633  -7.423  1.00  0.00     0.041 C 
ATOM     11  C   UNL     1       0.221  -1.778  -6.481  1.00  0.00     0.150 C 
ATOM     12  C   UNL     1       1.224  -2.648  -5.680  1.00  0.00     0.174 C 
ATOM     13  O   UNL     1       0.889  -0.781  -7.239  1.00  0.00    -0.344 OA
ATOM     14  C   UNL     1       2.165  -1.771  -4.820  1.00  0.00     0.179 C 
ATOM     15  C   UNL     1       2.720  -0.601  -5.655  1.00  0.00     0.202 C 
BRANCH  12  16
ATOM     16  O   UNL     1       1.965  -3.505  -6.516  1.00  0.00    -0.388 OA
ATOM     17  H   UNL     1       2.863  -3.626  -6.127  1.00  0.00     0.211 HD
ENDBRANCH  12  16
BRANCH  14  18
ATOM     18  O   UNL     1       1.455  -1.283  -3.707  1.00  0.00    -0.387 OA
ATOM     19  H   UNL     1       0.502  -1.520  -3.844  1.00  0.00     0.211 HD
ENDBRANCH  14  18
BRANCH  15  20
ATOM     20  O   UNL     1       3.434   0.285  -4.827  1.00  0.00    -0.385 OA
ATOM     21  H   UNL     1       3.189   1.206  -5.122  1.00  0.00     0.211 HD
ENDBRANCH  15  20
ENDBRANCH   8   9
ENDBRANCH   7   8
ENDBRANCH   1   7
BRANCH   2  22
ATOM     22  O   UNL     1      -2.267   4.556  -4.949  1.00  0.00    -0.387 OA
ATOM     23  H   UNL     1      -3.252   4.692  -4.888  1.00  0.00     0.211 HD
ENDBRANCH   2  22
BRANCH   3  24
ATOM     24  O   UNL     1      -4.377   3.436  -6.479  1.00  0.00    -0.387 OA
ATOM     25  H   UNL     1      -4.061   3.788  -7.352  1.00  0.00     0.211 HD
ENDBRANCH   3  24
BRANCH   5  26
ATOM     26  O   UNL     1      -2.443  -0.043  -4.276  1.00  0.00    -0.462 OA
BRANCH  26  27
ATOM     27  C   UNL     1      -2.706  -1.174  -3.477  1.00  0.00     0.130 A 
ATOM     28  C   UNL     1      -2.152  -2.445  -3.746  1.00  0.00     0.093 A 
ATOM     29  C   UNL     1      -3.555  -1.028  -2.371  1.00  0.00     0.094 A 
ATOM     30  C   UNL     1      -2.406  -3.530  -2.898  1.00  0.00     0.133 A 
ATOM     31  C   UNL     1      -3.812  -2.105  -1.522  1.00  0.00     0.138 A 
ATOM     32  C   UNL     1      -3.235  -3.363  -1.775  1.00  0.00     0.102 A 
ATOM     33  O   UNL     1      -4.658  -1.927  -0.417  1.00  0.00    -0.484 OA
ATOM     34  C   UNL     1      -3.567  -4.479  -0.858  1.00  0.00     0.174 C 
ATOM     35  C   UNL     1      -4.758  -2.891   0.636  1.00  0.00     0.211 C 
ATOM     36  O   UNL     1      -2.887  -5.534  -0.840  1.00  0.00    -0.294 OA
ATOM     37  C   UNL     1      -4.725  -4.325   0.081  1.00  0.00     0.131 C 
BRANCH  30  38
ATOM     38  O   UNL     1      -1.842  -4.775  -3.181  1.00  0.00    -0.507 OA
ATOM     39  H   UNL     1      -1.897  -5.541  -2.526  1.00  0.00     0.293 HD
ENDBRANCH  30  38
BRANCH  35  40
ATOM     40  C   UNL     1      -6.030  -2.681   1.429  1.00  0.00    -0.003 A 
ATOM     41  C   UNL     1      -6.935  -1.681   1.033  1.00  0.00     0.057 A 
ATOM     42  C   UNL     1      -6.248  -3.368   2.634  1.00  0.00     0.011 A 
ATOM     43  C   UNL     1      -8.034  -1.355   1.832  1.00  0.00     0.158 A 
ATOM     44  C   UNL     1      -7.351  -3.059   3.428  1.00  0.00     0.051 A 
ATOM     45  C   UNL     1      -8.245  -2.036   3.046  1.00  0.00     0.160 A 
BRANCH  43  46
ATOM     46  O   UNL     1      -8.894  -0.337   1.413  1.00  0.00    -0.504 OA
ATOM     47  H   UNL     1      -8.718   0.631   1.627  1.00  0.00     0.293 HD
ENDBRANCH  43  46
BRANCH  45  48
ATOM     48  O   UNL     1      -9.330  -1.660   3.855  1.00  0.00    -0.493 OA
ATOM     49  C   UNL     1     -10.348  -2.553   4.303  1.00  0.00     0.278 C 
ENDBRANCH  45  48
ENDBRANCH  35  40
ENDBRANCH  26  27
ENDBRANCH   5  26
BRANCH   4  50
ATOM     50  O   UNL     1      -4.843   1.196  -4.773  1.00  0.00    -0.384 OA
ATOM     51  H   UNL     1      -4.485   0.268  -4.852  1.00  0.00     0.211 HD
ENDBRANCH   4  50
TORSDOF 15
ENDMDL
MODEL 8
REMARK VINA RESULT:    -9.148      2.360      9.030
REMARK INTER + INTRA:         -17.076
REMARK INTER:                 -15.123
REMARK INTRA:                  -1.953
REMARK UNBOUND:                -2.046
REMARK SMILES COc1ccc([C@H]2CC(=O)c3c(O)cc(O[C@H]4O[C@@H](CO[C@@H]5O[C@@H](C)[C@@H](O)[C@H](O)[C@@H]5O)[C@H](O)[C@H](O)[C@H]4O)cc3O2)cc1O
REMARK SMILES IDX 19 1 32 2 34 3 36 4 17 5 18 6 20 7 21 8 22 9 25 10 24 11
REMARK SMILES IDX 26 12 23 13 28 14 30 15 27 16 29 18 31 20 33 22 35 24 16 26
REMARK SMILES IDX 15 27 14 28 38 29 12 30 39 31 11 32 40 33 9 34 7 35 10 36
REMARK SMILES IDX 8 37 13 38 6 40 41 41 5 42 42 43 4 44 3 45 43 46 2 48 1 49
REMARK SMILES IDX 37 50
REMARK H PARENT 27 17 29 19 31 21 33 23 35 25 13 39 43 47 37 51
REMARK Flexibility Score: inf
ROOT
ATOM      1  C   UNL     1      -4.705  -1.627  -4.899  1.00  0.00     0.180 C 
ATOM      2  C   UNL     1      -5.722  -1.105  -3.865  1.00  0.00     0.177 C 
ATOM      3  C   UNL     1      -5.006  -0.720  -2.570  1.00  0.00     0.180 C 
ATOM      4  C   UNL     1      -3.896   0.293  -2.873  1.00  0.00     0.214 C 
ATOM      5  C   UNL     1      -2.968  -0.164  -4.038  1.00  0.00     0.339 C 
ATOM      6  O   UNL     1      -3.637  -0.729  -5.165  1.00  0.00    -0.332 OA
ENDROOT
BRANCH   1   7
ATOM      7  C   UNL     1      -4.253  -3.084  -4.680  1.00  0.00     0.198 C 
BRANCH   7   8
ATOM      8  O   UNL     1      -4.231  -3.433  -3.307  1.00  0.00    -0.347 OA
BRANCH   8   9
ATOM      9  C   UNL     1      -3.075  -4.185  -2.940  1.00  0.00     0.281 C 
ATOM     10  C   UNL     1      -4.754  -7.450  -2.646  1.00  0.00     0.041 C 
ATOM     11  C   UNL     1      -4.429  -5.990  -2.313  1.00  0.00     0.150 C 
ATOM     12  C   UNL     1      -4.150  -5.803  -0.799  1.00  0.00     0.174 C 
ATOM     13  O   UNL     1      -3.324  -5.572  -3.100  1.00  0.00    -0.344 OA
ATOM     14  C   UNL     1      -3.705  -4.355  -0.486  1.00  0.00     0.179 C 
ATOM     15  C   UNL     1      -2.628  -3.895  -1.487  1.00  0.00     0.202 C 
BRANCH  12  16
ATOM     16  O   UNL     1      -3.208  -6.731  -0.317  1.00  0.00    -0.388 OA
ATOM     17  H   UNL     1      -3.635  -7.278   0.383  1.00  0.00     0.211 HD
ENDBRANCH  12  16
BRANCH  14  18
ATOM     18  O   UNL     1      -4.825  -3.503  -0.547  1.00  0.00    -0.387 OA
ATOM     19  H   UNL     1      -5.630  -4.074  -0.446  1.00  0.00     0.211 HD
ENDBRANCH  14  18
BRANCH  15  20
ATOM     20  O   UNL     1      -2.354  -2.527  -1.305  1.00  0.00    -0.385 OA
ATOM     21  H   UNL     1      -1.491  -2.348  -1.772  1.00  0.00     0.211 HD
ENDBRANCH  15  20
ENDBRANCH   8   9
ENDBRANCH   7   8
ENDBRANCH   1   7
BRANCH   2  22
ATOM     22  O   UNL     1      -6.368   0.022  -4.413  1.00  0.00    -0.387 OA
ATOM     23  H   UNL     1      -5.765   0.802  -4.269  1.00  0.00     0.211 HD
ENDBRANCH   2  22
BRANCH   3  24
ATOM     24  O   UNL     1      -5.919  -0.217  -1.623  1.00  0.00    -0.387 OA
ATOM     25  H   UNL     1      -6.809  -0.612  -1.816  1.00  0.00     0.211 HD
ENDBRANCH   3  24
BRANCH   5  26
ATOM     26  O   UNL     1      -1.908  -1.027  -3.611  1.00  0.00    -0.462 OA
BRANCH  26  27
ATOM     27  C   UNL     1      -0.531  -0.798  -3.806  1.00  0.00     0.130 A 
ATOM     28  C   UNL     1       0.281  -1.645  -4.593  1.00  0.00     0.093 A 
ATOM     29  C   UNL     1       0.055   0.318  -3.192  1.00  0.00     0.094 A 
ATOM     30  C   UNL     1       1.635  -1.353  -4.795  1.00  0.00     0.133 A 
ATOM     31  C   UNL     1       1.404   0.616  -3.389  1.00  0.00     0.138 A 
ATOM     32  C   UNL     1       2.203  -0.214  -4.198  1.00  0.00     0.102 A 
ATOM     33  O   UNL     1       1.961   1.744  -2.770  1.00  0.00    -0.484 OA
ATOM     34  C   UNL     1       3.636   0.132  -4.348  1.00  0.00     0.174 C 
ATOM     35  C   UNL     1       3.245   2.262  -3.130  1.00  0.00     0.211 C 
ATOM     36  O   UNL     1       4.339  -0.373  -5.258  1.00  0.00    -0.294 OA
ATOM     37  C   UNL     1       4.244   1.126  -3.405  1.00  0.00     0.131 C 
BRANCH  30  38
ATOM     38  O   UNL     1       2.415  -2.202  -5.582  1.00  0.00    -0.507 OA
ATOM     39  H   UNL     1       2.083  -3.112  -5.865  1.00  0.00     0.293 HD
ENDBRANCH  30  38
BRANCH  35  40
ATOM     40  C   UNL     1       3.782   3.159  -2.036  1.00  0.00    -0.003 A 
ATOM     41  C   UNL     1       3.055   4.301  -1.658  1.00  0.00     0.057 A 
ATOM     42  C   UNL     1       5.061   2.948  -1.496  1.00  0.00     0.011 A 
ATOM     43  C   UNL     1       3.598   5.232  -0.769  1.00  0.00     0.158 A 
ATOM     44  C   UNL     1       5.602   3.864  -0.595  1.00  0.00     0.051 A 
ATOM     45  C   UNL     1       4.885   5.026  -0.238  1.00  0.00     0.160 A 
BRANCH  43  46
ATOM     46  O   UNL     1       2.851   6.366  -0.442  1.00  0.00    -0.504 OA
ATOM     47  H   UNL     1       3.212   7.085   0.165  1.00  0.00     0.293 HD
ENDBRANCH  43  46
BRANCH  45  48
ATOM     48  O   UNL     1       5.429   5.998   0.618  1.00  0.00    -0.493 OA
ATOM     49  C   UNL     1       6.826   6.220   0.800  1.00  0.00     0.278 C 
ENDBRANCH  45  48
ENDBRANCH  35  40
ENDBRANCH  26  27
ENDBRANCH   5  26
BRANCH   4  50
ATOM     50  O   UNL     1      -3.154   0.490  -1.691  1.00  0.00    -0.384 OA
ATOM     51  H   UNL     1      -3.381  -0.249  -1.061  1.00  0.00     0.211 HD
ENDBRANCH   4  50
TORSDOF 15
ENDMDL
MODEL 9
REMARK VINA RESULT:    -9.097      3.295      7.463
REMARK INTER + INTRA:         -16.993
REMARK INTER:                 -15.543
REMARK INTRA:                  -1.449
REMARK UNBOUND:                -2.046
REMARK SMILES COc1ccc([C@H]2CC(=O)c3c(O)cc(O[C@H]4O[C@@H](CO[C@@H]5O[C@@H](C)[C@@H](O)[C@H](O)[C@@H]5O)[C@H](O)[C@H](O)[C@H]4O)cc3O2)cc1O
REMARK SMILES IDX 19 1 32 2 34 3 36 4 17 5 18 6 20 7 21 8 22 9 25 10 24 11
REMARK SMILES IDX 26 12 23 13 28 14 30 15 27 16 29 18 31 20 33 22 35 24 16 26
REMARK SMILES IDX 15 27 14 28 38 29 12 30 39 31 11 32 40 33 9 34 7 35 10 36
REMARK SMILES IDX 8 37 13 38 6 40 41 41 5 42 42 43 4 44 3 45 43 46 2 48 1 49
REMARK SMILES IDX 37 50
REMARK H PARENT 27 17 29 19 31 21 33 23 35 25 13 39 43 47 37 51
REMARK Flexibility Score: inf
ROOT
ATOM      1  C   UNL     1      -0.448  -0.180  -4.647  1.00  0.00     0.180 C 
ATOM      2  C   UNL     1       0.790  -0.698  -5.403  1.00  0.00     0.177 C 
ATOM      3  C   UNL     1       1.156  -2.101  -4.917  1.00  0.00     0.180 C 
ATOM      4  C   UNL     1      -0.056  -3.030  -5.057  1.00  0.00     0.214 C 
ATOM      5  C   UNL     1      -1.350  -2.425  -4.438  1.00  0.00     0.339 C 
ATOM      6  O   UNL     1      -1.574  -1.043  -4.719  1.00  0.00    -0.332 OA
ENDROOT
BRANCH   1   7
ATOM      7  C   UNL     1      -0.162   0.354  -3.230  1.00  0.00     0.198 C 
BRANCH   7   8
ATOM      8  O   UNL     1       1.077   1.036  -3.159  1.00  0.00    -0.347 OA
BRANCH   8   9
ATOM      9  C   UNL     1       0.975   2.418  -3.498  1.00  0.00     0.281 C 
ATOM     10  C   UNL     1       3.658   2.446  -6.022  1.00  0.00     0.041 C 
ATOM     11  C   UNL     1       3.019   2.305  -4.636  1.00  0.00     0.150 C 
ATOM     12  C   UNL     1       3.770   3.153  -3.577  1.00  0.00     0.174 C 
ATOM     13  O   UNL     1       1.650   2.671  -4.719  1.00  0.00    -0.344 OA
ATOM     14  C   UNL     1       3.052   3.104  -2.208  1.00  0.00     0.179 C 
ATOM     15  C   UNL     1       1.539   3.334  -2.386  1.00  0.00     0.202 C 
BRANCH  12  16
ATOM     16  O   UNL     1       3.952   4.485  -3.999  1.00  0.00    -0.388 OA
ATOM     17  H   UNL     1       4.868   4.765  -3.768  1.00  0.00     0.211 HD
ENDBRANCH  12  16
BRANCH  14  18
ATOM     18  O   UNL     1       3.289   1.854  -1.606  1.00  0.00    -0.387 OA
ATOM     19  H   UNL     1       2.425   1.544  -1.230  1.00  0.00     0.211 HD
ENDBRANCH  14  18
BRANCH  15  20
ATOM     20  O   UNL     1       0.873   3.118  -1.166  1.00  0.00    -0.385 OA
ATOM     21  H   UNL     1       0.533   4.008  -0.869  1.00  0.00     0.211 HD
ENDBRANCH  15  20
ENDBRANCH   8   9
ENDBRANCH   7   8
ENDBRANCH   1   7
BRANCH   2  22
ATOM     22  O   UNL     1       0.485  -0.729  -6.780  1.00  0.00    -0.387 OA
ATOM     23  H   UNL     1       1.340  -0.589  -7.271  1.00  0.00     0.211 HD
ENDBRANCH   2  22
BRANCH   3  24
ATOM     24  O   UNL     1       2.271  -2.599  -5.617  1.00  0.00    -0.387 OA
ATOM     25  H   UNL     1       2.262  -3.589  -5.544  1.00  0.00     0.211 HD
ENDBRANCH   3  24
BRANCH   5  26
ATOM     26  O   UNL     1      -1.471  -2.667  -3.031  1.00  0.00    -0.462 OA
BRANCH  26  27
ATOM     27  C   UNL     1      -2.470  -3.445  -2.412  1.00  0.00     0.130 A 
ATOM     28  C   UNL     1      -2.764  -4.768  -2.810  1.00  0.00     0.093 A 
ATOM     29  C   UNL     1      -3.202  -2.878  -1.359  1.00  0.00     0.094 A 
ATOM     30  C   UNL     1      -3.735  -5.519  -2.136  1.00  0.00     0.133 A 
ATOM     31  C   UNL     1      -4.171  -3.621  -0.683  1.00  0.00     0.138 A 
ATOM     32  C   UNL     1      -4.441  -4.949  -1.062  1.00  0.00     0.102 A 
ATOM     33  O   UNL     1      -4.882  -3.031   0.373  1.00  0.00    -0.484 OA
ATOM     34  C   UNL     1      -5.501  -5.680  -0.330  1.00  0.00     0.174 C 
ATOM     35  C   UNL     1      -5.686  -3.795   1.277  1.00  0.00     0.211 C 
ATOM     36  O   UNL     1      -5.607  -6.929  -0.406  1.00  0.00    -0.294 OA
ATOM     37  C   UNL     1      -6.448  -4.907   0.537  1.00  0.00     0.131 C 
BRANCH  30  38
ATOM     38  O   UNL     1      -4.003  -6.826  -2.544  1.00  0.00    -0.507 OA
ATOM     39  H   UNL     1      -3.426  -7.600  -2.250  1.00  0.00     0.293 HD
ENDBRANCH  30  38
BRANCH  35  40
ATOM     40  C   UNL     1      -6.669  -2.898   2.000  1.00  0.00    -0.003 A 
ATOM     41  C   UNL     1      -6.729  -2.927   3.404  1.00  0.00     0.057 A 
ATOM     42  C   UNL     1      -7.617  -2.148   1.286  1.00  0.00     0.011 A 
ATOM     43  C   UNL     1      -7.729  -2.235   4.091  1.00  0.00     0.158 A 
ATOM     44  C   UNL     1      -8.609  -1.442   1.966  1.00  0.00     0.051 A 
ATOM     45  C   UNL     1      -8.688  -1.494   3.374  1.00  0.00     0.160 A 
BRANCH  43  46
ATOM     46  O   UNL     1      -7.767  -2.313   5.485  1.00  0.00    -0.504 OA
ATOM     47  H   UNL     1      -8.633  -2.267   5.998  1.00  0.00     0.293 HD
ENDBRANCH  43  46
BRANCH  45  48
ATOM     48  O   UNL     1      -9.711  -0.844   4.083  1.00  0.00    -0.493 OA
ATOM     49  C   UNL     1     -10.817  -0.179   3.474  1.00  0.00     0.278 C 
ENDBRANCH  45  48
ENDBRANCH  35  40
ENDBRANCH  26  27
ENDBRANCH   5  26
BRANCH   4  50
ATOM     50  O   UNL     1       0.266  -4.257  -4.443  1.00  0.00    -0.384 OA
ATOM     51  H   UNL     1       0.038  -4.988  -5.083  1.00  0.00     0.211 HD
ENDBRANCH   4  50
TORSDOF 15
ENDMDL
