MODEL 1
REMARK VINA RESULT:    -6.312      0.000      0.000
REMARK INTER + INTRA:          -7.687
REMARK INTER:                  -7.604
REMARK INTRA:                  -0.083
REMARK UNBOUND:                -0.083
REMARK SMILES O=c1c(O)c(-c2ccc(O)c(O)c2)oc2cc(O)cc(O)c12
REMARK SMILES IDX 5 1 3 2 2 3 1 4 22 5 20 6 19 7 17 8 16 9 15 10 14 11 6 12
REMARK SMILES IDX 7 13 8 14 9 15 13 16 11 17 10 18 12 20 4 22 21 24 18 26
REMARK H PARENT 10 19 12 21 4 23 21 25 18 27
REMARK Flexibility Score: inf
ROOT
ATOM      1  C   UNL     1      71.194  54.118  17.745  1.00  0.00     0.180 A 
ATOM      2  C   UNL     1      71.990  54.091  18.906  1.00  0.00     0.208 A 
ATOM      3  C   UNL     1      71.645  53.214  19.946  1.00  0.00     0.238 A 
ATOM      4  O   UNL     1      72.343  53.190  20.995  1.00  0.00    -0.285 OA
ATOM      5  C   UNL     1      70.527  52.367  19.801  1.00  0.00     0.111 A 
ATOM      6  C   UNL     1      70.114  51.451  20.799  1.00  0.00     0.134 A 
ATOM      7  C   UNL     1      68.995  50.635  20.574  1.00  0.00     0.093 A 
ATOM      8  C   UNL     1      68.283  50.718  19.372  1.00  0.00     0.123 A 
ATOM      9  C   UNL     1      68.687  51.619  18.385  1.00  0.00     0.094 A 
ATOM     10  C   UNL     1      69.798  52.442  18.590  1.00  0.00     0.146 A 
ATOM     11  O   UNL     1      70.156  53.294  17.636  1.00  0.00    -0.452 OA
ENDROOT
BRANCH   1  12
ATOM     12  C   UNL     1      71.483  55.029  16.613  1.00  0.00     0.025 A 
ATOM     13  C   UNL     1      71.595  56.417  16.802  1.00  0.00     0.016 A 
ATOM     14  C   UNL     1      71.845  57.259  15.715  1.00  0.00     0.051 A 
ATOM     15  C   UNL     1      71.971  56.729  14.424  1.00  0.00     0.157 A 
ATOM     16  C   UNL     1      71.590  54.505  15.315  1.00  0.00     0.062 A 
ATOM     17  C   UNL     1      71.840  55.345  14.224  1.00  0.00     0.158 A 
BRANCH  15  18
ATOM     18  O   UNL     1      72.221  57.572  13.342  1.00  0.00    -0.504 OA
ATOM     19  H   UNL     1      71.504  57.785  12.659  1.00  0.00     0.293 HD
ENDBRANCH  15  18
BRANCH  17  20
ATOM     20  O   UNL     1      71.953  54.787  12.951  1.00  0.00    -0.504 OA
ATOM     21  H   UNL     1      71.991  53.786  12.803  1.00  0.00     0.293 HD
ENDBRANCH  17  20
ENDBRANCH   1  12
BRANCH   2  22
ATOM     22  O   UNL     1      73.121  54.906  19.005  1.00  0.00    -0.502 OA
ATOM     23  H   UNL     1      73.347  55.422  19.848  1.00  0.00     0.293 HD
ENDBRANCH   2  22
BRANCH   6  24
ATOM     24  O   UNL     1      70.804  51.347  22.007  1.00  0.00    -0.507 OA
ATOM     25  H   UNL     1      71.698  50.874  22.072  1.00  0.00     0.293 HD
ENDBRANCH   6  24
BRANCH   8  26
ATOM     26  O   UNL     1      67.173  49.907  19.148  1.00  0.00    -0.508 OA
ATOM     27  H   UNL     1      66.275  50.109  19.572  1.00  0.00     0.293 HD
ENDBRANCH   8  26
TORSDOF 6
ENDMDL
MODEL 2
REMARK VINA RESULT:    -6.162      2.084      4.009
REMARK INTER + INTRA:          -7.506
REMARK INTER:                  -7.174
REMARK INTRA:                  -0.332
REMARK UNBOUND:                -0.083
REMARK SMILES O=c1c(O)c(-c2ccc(O)c(O)c2)oc2cc(O)cc(O)c12
REMARK SMILES IDX 5 1 3 2 2 3 1 4 22 5 20 6 19 7 17 8 16 9 15 10 14 11 6 12
REMARK SMILES IDX 7 13 8 14 9 15 13 16 11 17 10 18 12 20 4 22 21 24 18 26
REMARK H PARENT 10 19 12 21 4 23 21 25 18 27
REMARK Flexibility Score: inf
ROOT
ATOM      1  C   UNL     1      70.429  52.696  19.443  1.00  0.00     0.180 A 
ATOM      2  C   UNL     1      69.336  51.811  19.365  1.00  0.00     0.208 A 
ATOM      3  C   UNL     1      69.077  50.955  20.447  1.00  0.00     0.238 A 
ATOM      4  O   UNL     1      68.108  50.151  20.383  1.00  0.00    -0.285 OA
ATOM      5  C   UNL     1      69.898  51.011  21.592  1.00  0.00     0.111 A 
ATOM      6  C   UNL     1      69.702  50.187  22.726  1.00  0.00     0.134 A 
ATOM      7  C   UNL     1      70.558  50.309  23.831  1.00  0.00     0.093 A 
ATOM      8  C   UNL     1      71.603  51.240  23.823  1.00  0.00     0.123 A 
ATOM      9  C   UNL     1      71.799  52.055  22.707  1.00  0.00     0.094 A 
ATOM     10  C   UNL     1      70.959  51.947  21.596  1.00  0.00     0.146 A 
ATOM     11  O   UNL     1      71.172  52.732  20.545  1.00  0.00    -0.452 OA
ENDROOT
BRANCH   1  12
ATOM     12  C   UNL     1      70.778  53.616  18.336  1.00  0.00     0.025 A 
ATOM     13  C   UNL     1      71.662  53.230  17.315  1.00  0.00     0.016 A 
ATOM     14  C   UNL     1      71.994  54.124  16.294  1.00  0.00     0.051 A 
ATOM     15  C   UNL     1      71.461  55.419  16.286  1.00  0.00     0.157 A 
ATOM     16  C   UNL     1      70.262  54.922  18.335  1.00  0.00     0.062 A 
ATOM     17  C   UNL     1      70.592  55.820  17.314  1.00  0.00     0.158 A 
BRANCH  15  18
ATOM     18  O   UNL     1      71.793  56.309  15.265  1.00  0.00    -0.504 OA
ATOM     19  H   UNL     1      72.636  56.870  15.305  1.00  0.00     0.293 HD
ENDBRANCH  15  18
BRANCH  17  20
ATOM     20  O   UNL     1      70.049  57.105  17.339  1.00  0.00    -0.504 OA
ATOM     21  H   UNL     1      69.334  57.374  18.004  1.00  0.00     0.293 HD
ENDBRANCH  17  20
ENDBRANCH   1  12
BRANCH   2  22
ATOM     22  O   UNL     1      68.509  51.810  18.239  1.00  0.00    -0.502 OA
ATOM     23  H   UNL     1      67.799  52.517  18.086  1.00  0.00     0.293 HD
ENDBRANCH   2  22
BRANCH   6  24
ATOM     24  O   UNL     1      68.669  49.250  22.763  1.00  0.00    -0.507 OA
ATOM     25  H   UNL     1      68.762  48.336  22.335  1.00  0.00     0.293 HD
ENDBRANCH   6  24
BRANCH   8  26
ATOM     26  O   UNL     1      72.452  51.363  24.921  1.00  0.00    -0.508 OA
ATOM     27  H   UNL     1      72.112  51.683  25.820  1.00  0.00     0.293 HD
ENDBRANCH   8  26
TORSDOF 6
ENDMDL
MODEL 3
REMARK VINA RESULT:    -5.719      4.644      6.594
REMARK INTER + INTRA:          -6.973
REMARK INTER:                  -6.701
REMARK INTRA:                  -0.272
REMARK UNBOUND:                -0.083
REMARK SMILES O=c1c(O)c(-c2ccc(O)c(O)c2)oc2cc(O)cc(O)c12
REMARK SMILES IDX 5 1 3 2 2 3 1 4 22 5 20 6 19 7 17 8 16 9 15 10 14 11 6 12
REMARK SMILES IDX 7 13 8 14 9 15 13 16 11 17 10 18 12 20 4 22 21 24 18 26
REMARK H PARENT 10 19 12 21 4 23 21 25 18 27
REMARK Flexibility Score: inf
ROOT
ATOM      1  C   UNL     1      70.778  52.174  21.524  1.00  0.00     0.180 A 
ATOM      2  C   UNL     1      70.887  51.517  22.765  1.00  0.00     0.208 A 
ATOM      3  C   UNL     1      72.079  51.640  23.496  1.00  0.00     0.238 A 
ATOM      4  O   UNL     1      72.192  51.047  24.602  1.00  0.00    -0.285 OA
ATOM      5  C   UNL     1      73.130  52.431  22.988  1.00  0.00     0.111 A 
ATOM      6  C   UNL     1      74.360  52.611  23.663  1.00  0.00     0.134 A 
ATOM      7  C   UNL     1      75.354  53.422  23.096  1.00  0.00     0.093 A 
ATOM      8  C   UNL     1      75.139  54.057  21.867  1.00  0.00     0.123 A 
ATOM      9  C   UNL     1      73.927  53.883  21.197  1.00  0.00     0.094 A 
ATOM     10  C   UNL     1      72.925  53.077  21.745  1.00  0.00     0.146 A 
ATOM     11  O   UNL     1      71.784  52.924  21.083  1.00  0.00    -0.452 OA
ENDROOT
BRANCH   1  12
ATOM     12  C   UNL     1      69.560  52.077  20.686  1.00  0.00     0.025 A 
ATOM     13  C   UNL     1      69.261  50.909  19.964  1.00  0.00     0.016 A 
ATOM     14  C   UNL     1      68.119  50.850  19.161  1.00  0.00     0.051 A 
ATOM     15  C   UNL     1      67.268  51.958  19.057  1.00  0.00     0.157 A 
ATOM     16  C   UNL     1      68.716  53.192  20.562  1.00  0.00     0.062 A 
ATOM     17  C   UNL     1      67.571  53.136  19.759  1.00  0.00     0.158 A 
BRANCH  15  18
ATOM     18  O   UNL     1      66.129  51.895  18.256  1.00  0.00    -0.504 OA
ATOM     19  H   UNL     1      65.332  52.499  18.420  1.00  0.00     0.293 HD
ENDBRANCH  15  18
BRANCH  17  20
ATOM     20  O   UNL     1      66.749  54.259  19.672  1.00  0.00    -0.504 OA
ATOM     21  H   UNL     1      65.950  54.389  20.279  1.00  0.00     0.293 HD
ENDBRANCH  17  20
ENDBRANCH   1  12
BRANCH   2  22
ATOM     22  O   UNL     1      69.813  50.778  23.269  1.00  0.00    -0.502 OA
ATOM     23  H   UNL     1      69.231  50.194  22.679  1.00  0.00     0.293 HD
ENDBRANCH   2  22
BRANCH   6  24
ATOM     24  O   UNL     1      74.603  51.992  24.890  1.00  0.00    -0.507 OA
ATOM     25  H   UNL     1      74.310  52.409  25.766  1.00  0.00     0.293 HD
ENDBRANCH   6  24
BRANCH   8  26
ATOM     26  O   UNL     1      76.125  54.864  21.303  1.00  0.00    -0.508 OA
ATOM     27  H   UNL     1      76.036  55.873  21.282  1.00  0.00     0.293 HD
ENDBRANCH   8  26
TORSDOF 6
ENDMDL
MODEL 4
REMARK VINA RESULT:    -5.693      2.177      3.410
REMARK INTER + INTRA:          -6.941
REMARK INTER:                  -6.682
REMARK INTRA:                  -0.259
REMARK UNBOUND:                -0.083
REMARK SMILES O=c1c(O)c(-c2ccc(O)c(O)c2)oc2cc(O)cc(O)c12
REMARK SMILES IDX 5 1 3 2 2 3 1 4 22 5 20 6 19 7 17 8 16 9 15 10 14 11 6 12
REMARK SMILES IDX 7 13 8 14 9 15 13 16 11 17 10 18 12 20 4 22 21 24 18 26
REMARK H PARENT 10 19 12 21 4 23 21 25 18 27
REMARK Flexibility Score: inf
ROOT
ATOM      1  C   UNL     1      71.575  53.840  18.574  1.00  0.00     0.180 A 
ATOM      2  C   UNL     1      70.593  53.354  17.689  1.00  0.00     0.208 A 
ATOM      3  C   UNL     1      69.715  52.353  18.134  1.00  0.00     0.238 A 
ATOM      4  O   UNL     1      68.839  51.902  17.347  1.00  0.00    -0.285 OA
ATOM      5  C   UNL     1      69.818  51.872  19.455  1.00  0.00     0.111 A 
ATOM      6  C   UNL     1      68.970  50.869  19.982  1.00  0.00     0.134 A 
ATOM      7  C   UNL     1      69.130  50.449  21.311  1.00  0.00     0.093 A 
ATOM      8  C   UNL     1      70.122  51.014  22.121  1.00  0.00     0.123 A 
ATOM      9  C   UNL     1      70.961  52.004  21.605  1.00  0.00     0.094 A 
ATOM     10  C   UNL     1      70.818  52.434  20.283  1.00  0.00     0.146 A 
ATOM     11  O   UNL     1      71.633  53.373  19.817  1.00  0.00    -0.452 OA
ENDROOT
BRANCH   1  12
ATOM     12  C   UNL     1      72.550  54.881  18.172  1.00  0.00     0.025 A 
ATOM     13  C   UNL     1      72.168  56.227  18.039  1.00  0.00     0.016 A 
ATOM     14  C   UNL     1      73.099  57.187  17.635  1.00  0.00     0.051 A 
ATOM     15  C   UNL     1      74.419  56.816  17.347  1.00  0.00     0.157 A 
ATOM     16  C   UNL     1      73.868  54.511  17.862  1.00  0.00     0.062 A 
ATOM     17  C   UNL     1      74.804  55.470  17.458  1.00  0.00     0.158 A 
BRANCH  15  18
ATOM     18  O   UNL     1      75.346  57.777  16.946  1.00  0.00    -0.504 OA
ATOM     19  H   UNL     1      76.219  57.518  16.501  1.00  0.00     0.293 HD
ENDBRANCH  15  18
BRANCH  17  20
ATOM     20  O   UNL     1      76.108  55.067  17.172  1.00  0.00    -0.504 OA
ATOM     21  H   UNL     1      76.412  54.108  17.287  1.00  0.00     0.293 HD
ENDBRANCH  17  20
ENDBRANCH   1  12
BRANCH   2  22
ATOM     22  O   UNL     1      70.480  53.882  16.400  1.00  0.00    -0.502 OA
ATOM     23  H   UNL     1      69.932  54.711  16.199  1.00  0.00     0.293 HD
ENDBRANCH   2  22
BRANCH   6  24
ATOM     24  O   UNL     1      67.972  50.287  19.199  1.00  0.00    -0.507 OA
ATOM     25  H   UNL     1      68.141  50.011  18.238  1.00  0.00     0.293 HD
ENDBRANCH   6  24
BRANCH   8  26
ATOM     26  O   UNL     1      70.281  50.599  23.441  1.00  0.00    -0.508 OA
ATOM     27  H   UNL     1      69.901  51.133  24.214  1.00  0.00     0.293 HD
ENDBRANCH   8  26
TORSDOF 6
ENDMDL
MODEL 5
REMARK VINA RESULT:    -5.654      3.671      7.866
REMARK INTER + INTRA:          -6.894
REMARK INTER:                  -6.666
REMARK INTRA:                  -0.229
REMARK UNBOUND:                -0.083
REMARK SMILES O=c1c(O)c(-c2ccc(O)c(O)c2)oc2cc(O)cc(O)c12
REMARK SMILES IDX 5 1 3 2 2 3 1 4 22 5 20 6 19 7 17 8 16 9 15 10 14 11 6 12
REMARK SMILES IDX 7 13 8 14 9 15 13 16 11 17 10 18 12 20 4 22 21 24 18 26
REMARK H PARENT 10 19 12 21 4 23 21 25 18 27
REMARK Flexibility Score: inf
ROOT
ATOM      1  C   UNL     1      70.902  52.668  22.726  1.00  0.00     0.180 A 
ATOM      2  C   UNL     1      70.182  51.500  22.408  1.00  0.00     0.208 A 
ATOM      3  C   UNL     1      69.941  51.198  21.059  1.00  0.00     0.238 A 
ATOM      4  O   UNL     1      69.288  50.161  20.763  1.00  0.00    -0.285 OA
ATOM      5  C   UNL     1      70.438  52.053  20.054  1.00  0.00     0.111 A 
ATOM      6  C   UNL     1      70.242  51.818  18.672  1.00  0.00     0.134 A 
ATOM      7  C   UNL     1      70.776  52.712  17.732  1.00  0.00     0.093 A 
ATOM      8  C   UNL     1      71.502  53.834  18.148  1.00  0.00     0.123 A 
ATOM      9  C   UNL     1      71.698  54.069  19.511  1.00  0.00     0.094 A 
ATOM     10  C   UNL     1      71.172  53.192  20.462  1.00  0.00     0.146 A 
ATOM     11  O   UNL     1      71.369  53.442  21.752  1.00  0.00    -0.452 OA
ENDROOT
BRANCH   1  12
ATOM     12  C   UNL     1      71.181  53.064  24.127  1.00  0.00     0.025 A 
ATOM     13  C   UNL     1      72.094  52.348  24.920  1.00  0.00     0.016 A 
ATOM     14  C   UNL     1      72.322  52.726  26.246  1.00  0.00     0.051 A 
ATOM     15  C   UNL     1      71.633  53.812  26.802  1.00  0.00     0.157 A 
ATOM     16  C   UNL     1      70.478  54.139  24.694  1.00  0.00     0.062 A 
ATOM     17  C   UNL     1      70.704  54.520  26.021  1.00  0.00     0.158 A 
BRANCH  15  18
ATOM     18  O   UNL     1      71.865  54.187  28.125  1.00  0.00    -0.504 OA
ATOM     19  H   UNL     1      71.221  53.937  28.866  1.00  0.00     0.293 HD
ENDBRANCH  15  18
BRANCH  17  20
ATOM     20  O   UNL     1      69.997  55.601  26.546  1.00  0.00    -0.504 OA
ATOM     21  H   UNL     1      70.301  56.090  27.379  1.00  0.00     0.293 HD
ENDBRANCH  17  20
ENDBRANCH   1  12
BRANCH   2  22
ATOM     22  O   UNL     1      69.743  50.644  23.422  1.00  0.00    -0.502 OA
ATOM     23  H   UNL     1      69.089  50.940  24.137  1.00  0.00     0.293 HD
ENDBRANCH   2  22
BRANCH   6  24
ATOM     24  O   UNL     1      69.523  50.709  18.226  1.00  0.00    -0.507 OA
ATOM     25  H   UNL     1      69.981  49.835  17.991  1.00  0.00     0.293 HD
ENDBRANCH   6  24
BRANCH   8  26
ATOM     26  O   UNL     1      72.034  54.721  17.215  1.00  0.00    -0.508 OA
ATOM     27  H   UNL     1      71.452  55.172  16.519  1.00  0.00     0.293 HD
ENDBRANCH   8  26
TORSDOF 6
ENDMDL
MODEL 6
REMARK VINA RESULT:    -5.641      2.893      6.297
REMARK INTER + INTRA:          -6.878
REMARK INTER:                  -6.583
REMARK INTRA:                  -0.296
REMARK UNBOUND:                -0.083
REMARK SMILES O=c1c(O)c(-c2ccc(O)c(O)c2)oc2cc(O)cc(O)c12
REMARK SMILES IDX 5 1 3 2 2 3 1 4 22 5 20 6 19 7 17 8 16 9 15 10 14 11 6 12
REMARK SMILES IDX 7 13 8 14 9 15 13 16 11 17 10 18 12 20 4 22 21 24 18 26
REMARK H PARENT 10 19 12 21 4 23 21 25 18 27
REMARK Flexibility Score: inf
ROOT
ATOM      1  C   UNL     1      71.184  53.086  19.922  1.00  0.00     0.180 A 
ATOM      2  C   UNL     1      71.766  52.854  21.184  1.00  0.00     0.208 A 
ATOM      3  C   UNL     1      73.099  53.239  21.397  1.00  0.00     0.238 A 
ATOM      4  O   UNL     1      73.634  53.026  22.519  1.00  0.00    -0.285 OA
ATOM      5  C   UNL     1      73.819  53.866  20.359  1.00  0.00     0.111 A 
ATOM      6  C   UNL     1      75.163  54.288  20.494  1.00  0.00     0.134 A 
ATOM      7  C   UNL     1      75.807  54.913  19.416  1.00  0.00     0.093 A 
ATOM      8  C   UNL     1      75.133  55.124  18.208  1.00  0.00     0.123 A 
ATOM      9  C   UNL     1      73.806  54.709  18.071  1.00  0.00     0.094 A 
ATOM     10  C   UNL     1      73.148  54.083  19.132  1.00  0.00     0.146 A 
ATOM     11  O   UNL     1      71.888  53.693  18.972  1.00  0.00    -0.452 OA
ENDROOT
BRANCH   1  12
ATOM     12  C   UNL     1      69.790  52.691  19.615  1.00  0.00     0.025 A 
ATOM     13  C   UNL     1      69.505  51.534  18.870  1.00  0.00     0.016 A 
ATOM     14  C   UNL     1      68.183  51.195  18.571  1.00  0.00     0.051 A 
ATOM     15  C   UNL     1      67.129  52.013  18.999  1.00  0.00     0.157 A 
ATOM     16  C   UNL     1      68.732  53.519  20.023  1.00  0.00     0.062 A 
ATOM     17  C   UNL     1      67.406  53.183  19.725  1.00  0.00     0.158 A 
BRANCH  15  18
ATOM     18  O   UNL     1      65.810  51.672  18.700  1.00  0.00    -0.504 OA
ATOM     19  H   UNL     1      65.565  50.746  18.370  1.00  0.00     0.293 HD
ENDBRANCH  15  18
BRANCH  17  20
ATOM     20  O   UNL     1      66.380  54.022  20.159  1.00  0.00    -0.504 OA
ATOM     21  H   UNL     1      66.246  54.246  21.137  1.00  0.00     0.293 HD
ENDBRANCH  17  20
ENDBRANCH   1  12
BRANCH   2  22
ATOM     22  O   UNL     1      71.016  52.275  22.211  1.00  0.00    -0.502 OA
ATOM     23  H   UNL     1      71.390  52.134  23.143  1.00  0.00     0.293 HD
ENDBRANCH   2  22
BRANCH   6  24
ATOM     24  O   UNL     1      75.861  54.092  21.686  1.00  0.00    -0.507 OA
ATOM     25  H   UNL     1      76.260  54.867  22.204  1.00  0.00     0.293 HD
ENDBRANCH   6  24
BRANCH   8  26
ATOM     26  O   UNL     1      75.771  55.746  17.138  1.00  0.00    -0.508 OA
ATOM     27  H   UNL     1      75.271  56.361  16.506  1.00  0.00     0.293 HD
ENDBRANCH   8  26
TORSDOF 6
ENDMDL
MODEL 7
REMARK VINA RESULT:    -5.619      2.285      6.569
REMARK INTER + INTRA:          -6.852
REMARK INTER:                  -6.528
REMARK INTRA:                  -0.323
REMARK UNBOUND:                -0.083
REMARK SMILES O=c1c(O)c(-c2ccc(O)c(O)c2)oc2cc(O)cc(O)c12
REMARK SMILES IDX 5 1 3 2 2 3 1 4 22 5 20 6 19 7 17 8 16 9 15 10 14 11 6 12
REMARK SMILES IDX 7 13 8 14 9 15 13 16 11 17 10 18 12 20 4 22 21 24 18 26
REMARK H PARENT 10 19 12 21 4 23 21 25 18 27
REMARK Flexibility Score: inf
ROOT
ATOM      1  C   UNL     1      71.148  53.441  18.513  1.00  0.00     0.180 A 
ATOM      2  C   UNL     1      71.427  54.115  17.308  1.00  0.00     0.208 A 
ATOM      3  C   UNL     1      72.618  54.851  17.202  1.00  0.00     0.238 A 
ATOM      4  O   UNL     1      72.872  55.468  16.133  1.00  0.00    -0.285 OA
ATOM      5  C   UNL     1      73.515  54.884  18.289  1.00  0.00     0.111 A 
ATOM      6  C   UNL     1      74.737  55.597  18.262  1.00  0.00     0.134 A 
ATOM      7  C   UNL     1      75.582  55.573  19.382  1.00  0.00     0.093 A 
ATOM      8  C   UNL     1      75.227  54.849  20.526  1.00  0.00     0.123 A 
ATOM      9  C   UNL     1      74.023  54.143  20.557  1.00  0.00     0.094 A 
ATOM     10  C   UNL     1      73.167  54.157  19.452  1.00  0.00     0.146 A 
ATOM     11  O   UNL     1      72.025  53.481  19.511  1.00  0.00    -0.452 OA
ENDROOT
BRANCH   1  12
ATOM     12  C   UNL     1      69.904  52.659  18.707  1.00  0.00     0.025 A 
ATOM     13  C   UNL     1      69.847  51.289  18.402  1.00  0.00     0.016 A 
ATOM     14  C   UNL     1      68.656  50.578  18.571  1.00  0.00     0.051 A 
ATOM     15  C   UNL     1      67.503  51.227  19.033  1.00  0.00     0.157 A 
ATOM     16  C   UNL     1      68.742  53.310  19.150  1.00  0.00     0.062 A 
ATOM     17  C   UNL     1      67.547  52.601  19.321  1.00  0.00     0.158 A 
BRANCH  15  18
ATOM     18  O   UNL     1      66.317  50.515  19.202  1.00  0.00    -0.504 OA
ATOM     19  H   UNL     1      66.247  49.753  19.866  1.00  0.00     0.293 HD
ENDBRANCH  15  18
BRANCH  17  20
ATOM     20  O   UNL     1      66.416  53.279  19.776  1.00  0.00    -0.504 OA
ATOM     21  H   UNL     1      66.444  53.894  20.579  1.00  0.00     0.293 HD
ENDBRANCH  17  20
ENDBRANCH   1  12
BRANCH   2  22
ATOM     22  O   UNL     1      70.543  54.026  16.229  1.00  0.00    -0.502 OA
ATOM     23  H   UNL     1      70.741  53.463  15.410  1.00  0.00     0.293 HD
ENDBRANCH   2  22
BRANCH   6  24
ATOM     24  O   UNL     1      75.118  56.327  17.136  1.00  0.00    -0.507 OA
ATOM     25  H   UNL     1      75.369  55.874  16.265  1.00  0.00     0.293 HD
ENDBRANCH   6  24
BRANCH   8  26
ATOM     26  O   UNL     1      76.066  54.823  21.638  1.00  0.00    -0.508 OA
ATOM     27  H   UNL     1      76.724  54.067  21.789  1.00  0.00     0.293 HD
ENDBRANCH   8  26
TORSDOF 6
ENDMDL
MODEL 8
REMARK VINA RESULT:    -5.612      3.472      7.271
REMARK INTER + INTRA:          -6.843
REMARK INTER:                  -6.533
REMARK INTRA:                  -0.310
REMARK UNBOUND:                -0.083
REMARK SMILES O=c1c(O)c(-c2ccc(O)c(O)c2)oc2cc(O)cc(O)c12
REMARK SMILES IDX 5 1 3 2 2 3 1 4 22 5 20 6 19 7 17 8 16 9 15 10 14 11 6 12
REMARK SMILES IDX 7 13 8 14 9 15 13 16 11 17 10 18 12 20 4 22 21 24 18 26
REMARK H PARENT 10 19 12 21 4 23 21 25 18 27
REMARK Flexibility Score: inf
ROOT
ATOM      1  C   UNL     1      70.958  52.868  22.460  1.00  0.00     0.180 A 
ATOM      2  C   UNL     1      71.751  53.407  21.429  1.00  0.00     0.208 A 
ATOM      3  C   UNL     1      71.447  53.080  20.098  1.00  0.00     0.238 A 
ATOM      4  O   UNL     1      72.158  53.547  19.167  1.00  0.00    -0.285 OA
ATOM      5  C   UNL     1      70.349  52.241  19.819  1.00  0.00     0.111 A 
ATOM      6  C   UNL     1      69.974  51.867  18.507  1.00  0.00     0.134 A 
ATOM      7  C   UNL     1      68.861  51.035  18.312  1.00  0.00     0.093 A 
ATOM      8  C   UNL     1      68.118  50.572  19.403  1.00  0.00     0.123 A 
ATOM      9  C   UNL     1      68.484  50.938  20.700  1.00  0.00     0.094 A 
ATOM     10  C   UNL     1      69.591  51.764  20.915  1.00  0.00     0.146 A 
ATOM     11  O   UNL     1      69.920  52.093  22.159  1.00  0.00    -0.452 OA
ENDROOT
BRANCH   1  12
ATOM     12  C   UNL     1      71.226  53.151  23.889  1.00  0.00     0.025 A 
ATOM     13  C   UNL     1      71.935  52.243  24.694  1.00  0.00     0.016 A 
ATOM     14  C   UNL     1      72.154  52.522  26.046  1.00  0.00     0.051 A 
ATOM     15  C   UNL     1      71.658  53.702  26.615  1.00  0.00     0.157 A 
ATOM     16  C   UNL     1      70.713  54.323  24.470  1.00  0.00     0.062 A 
ATOM     17  C   UNL     1      70.931  54.605  25.823  1.00  0.00     0.158 A 
BRANCH  15  18
ATOM     18  O   UNL     1      71.881  53.977  27.964  1.00  0.00    -0.504 OA
ATOM     19  H   UNL     1      71.159  53.832  28.660  1.00  0.00     0.293 HD
ENDBRANCH  15  18
BRANCH  17  20
ATOM     20  O   UNL     1      70.418  55.784  26.361  1.00  0.00    -0.504 OA
ATOM     21  H   UNL     1      70.918  56.663  26.307  1.00  0.00     0.293 HD
ENDBRANCH  17  20
ENDBRANCH   1  12
BRANCH   2  22
ATOM     22  O   UNL     1      72.804  54.275  21.729  1.00  0.00    -0.502 OA
ATOM     23  H   UNL     1      73.751  54.112  21.406  1.00  0.00     0.293 HD
ENDBRANCH   2  22
BRANCH   6  24
ATOM     24  O   UNL     1      70.695  52.313  17.399  1.00  0.00    -0.507 OA
ATOM     25  H   UNL     1      70.445  53.164  16.907  1.00  0.00     0.293 HD
ENDBRANCH   6  24
BRANCH   8  26
ATOM     26  O   UNL     1      67.012  49.747  19.210  1.00  0.00    -0.508 OA
ATOM     27  H   UNL     1      66.076  50.050  19.452  1.00  0.00     0.293 HD
ENDBRANCH   8  26
TORSDOF 6
ENDMDL
MODEL 9
REMARK VINA RESULT:    -5.580      3.224      7.030
REMARK INTER + INTRA:          -6.805
REMARK INTER:                  -6.474
REMARK INTRA:                  -0.331
REMARK UNBOUND:                -0.083
REMARK SMILES O=c1c(O)c(-c2ccc(O)c(O)c2)oc2cc(O)cc(O)c12
REMARK SMILES IDX 5 1 3 2 2 3 1 4 22 5 20 6 19 7 17 8 16 9 15 10 14 11 6 12
REMARK SMILES IDX 7 13 8 14 9 15 13 16 11 17 10 18 12 20 4 22 21 24 18 26
REMARK H PARENT 10 19 12 21 4 23 21 25 18 27
REMARK Flexibility Score: inf
ROOT
ATOM      1  C   UNL     1      71.481  52.007  22.334  1.00  0.00     0.180 A 
ATOM      2  C   UNL     1      70.538  51.027  22.699  1.00  0.00     0.208 A 
ATOM      3  C   UNL     1      69.551  50.656  21.773  1.00  0.00     0.238 A 
ATOM      4  O   UNL     1      68.694  49.788  22.093  1.00  0.00    -0.285 OA
ATOM      5  C   UNL     1      69.535  51.251  20.495  1.00  0.00     0.111 A 
ATOM      6  C   UNL     1      68.578  50.930  19.503  1.00  0.00     0.134 A 
ATOM      7  C   UNL     1      68.635  51.561  18.251  1.00  0.00     0.093 A 
ATOM      8  C   UNL     1      69.630  52.505  17.974  1.00  0.00     0.123 A 
ATOM      9  C   UNL     1      70.577  52.825  18.950  1.00  0.00     0.094 A 
ATOM     10  C   UNL     1      70.535  52.209  20.203  1.00  0.00     0.146 A 
ATOM     11  O   UNL     1      71.445  52.536  21.114  1.00  0.00    -0.452 OA
ENDROOT
BRANCH   1  12
ATOM     12  C   UNL     1      72.540  52.465  23.262  1.00  0.00     0.025 A 
ATOM     13  C   UNL     1      72.303  53.490  24.194  1.00  0.00     0.016 A 
ATOM     14  C   UNL     1      73.326  53.922  25.043  1.00  0.00     0.051 A 
ATOM     15  C   UNL     1      74.601  53.346  24.965  1.00  0.00     0.157 A 
ATOM     16  C   UNL     1      73.825  51.906  23.174  1.00  0.00     0.062 A 
ATOM     17  C   UNL     1      74.852  52.335  24.023  1.00  0.00     0.158 A 
BRANCH  15  18
ATOM     18  O   UNL     1      75.618  53.778  25.815  1.00  0.00    -0.504 OA
ATOM     19  H   UNL     1      76.486  54.156  25.453  1.00  0.00     0.293 HD
ENDBRANCH  15  18
BRANCH  17  20
ATOM     20  O   UNL     1      76.112  51.747  23.914  1.00  0.00    -0.504 OA
ATOM     21  H   UNL     1      76.238  50.808  23.559  1.00  0.00     0.293 HD
ENDBRANCH  17  20
ENDBRANCH   1  12
BRANCH   2  22
ATOM     22  O   UNL     1      70.605  50.417  23.955  1.00  0.00    -0.502 OA
ATOM     23  H   UNL     1      70.935  50.905  24.779  1.00  0.00     0.293 HD
ENDBRANCH   2  22
BRANCH   6  24
ATOM     24  O   UNL     1      67.574  49.993  19.750  1.00  0.00    -0.507 OA
ATOM     25  H   UNL     1      67.789  49.030  19.983  1.00  0.00     0.293 HD
ENDBRANCH   6  24
BRANCH   8  26
ATOM     26  O   UNL     1      69.688  53.131  16.731  1.00  0.00    -0.508 OA
ATOM     27  H   UNL     1      69.179  52.771  15.932  1.00  0.00     0.293 HD
ENDBRANCH   8  26
TORSDOF 6
ENDMDL
