MODEL 1
REMARK VINA RESULT:    -4.991      0.000      0.000
REMARK INTER + INTRA:          -5.429
REMARK INTER:                  -5.429
REMARK INTRA:                   0.000
REMARK UNBOUND:                 0.000
REMARK SMILES Cc1cc(O)c2c(c1)C(=O)c1cc(O)cc(O)c1C2=O
REMARK SMILES IDX 1 1 2 2 8 3 7 4 6 5 4 6 3 7 19 8 20 9 18 10 11 11 9 12 10 13
REMARK SMILES IDX 12 14 13 15 15 16 16 17 5 18 17 20 14 22
REMARK H PARENT 5 19 17 21 14 23
REMARK Flexibility Score: inf
ROOT
ATOM      1  C   UNL     1       4.523 -34.104   2.041  1.00  0.00     0.044 C 
ATOM      2  C   UNL     1       4.693 -33.814   0.578  1.00  0.00    -0.047 A 
ATOM      3  C   UNL     1       5.836 -33.149   0.122  1.00  0.00     0.016 A 
ATOM      4  C   UNL     1       5.992 -32.847  -1.242  1.00  0.00     0.038 A 
ATOM      5  C   UNL     1       4.988 -33.217  -2.163  1.00  0.00     0.076 A 
ATOM      6  C   UNL     1       3.795 -33.816  -1.682  1.00  0.00     0.127 A 
ATOM      7  C   UNL     1       3.671 -34.125  -0.324  1.00  0.00     0.050 A 
ATOM      8  C   UNL     1       5.254 -33.016  -3.611  1.00  0.00     0.201 C 
ATOM      9  O   UNL     1       4.731 -33.789  -4.458  1.00  0.00    -0.288 OA
ATOM     10  C   UNL     1       6.277 -32.030  -4.044  1.00  0.00     0.076 A 
ATOM     11  C   UNL     1       7.279 -31.659  -3.118  1.00  0.00     0.041 A 
ATOM     12  C   UNL     1       7.203 -32.135  -1.716  1.00  0.00     0.194 C 
ATOM     13  O   UNL     1       8.157 -31.913  -0.920  1.00  0.00    -0.289 OA
ATOM     14  C   UNL     1       8.342 -30.837  -3.530  1.00  0.00     0.059 A 
ATOM     15  C   UNL     1       8.408 -30.370  -4.846  1.00  0.00     0.120 A 
ATOM     16  C   UNL     1       7.399 -30.699  -5.750  1.00  0.00     0.093 A 
ATOM     17  C   UNL     1       6.321 -31.500  -5.359  1.00  0.00     0.131 A 
ENDROOT
BRANCH   6  18
ATOM     18  O   UNL     1       2.700 -34.085  -2.507  1.00  0.00    -0.507 OA
ATOM     19  H   UNL     1       2.581 -33.683  -3.426  1.00  0.00     0.293 HD
ENDBRANCH   6  18
BRANCH  17  20
ATOM     20  O   UNL     1       5.304 -31.712  -6.294  1.00  0.00    -0.507 OA
ATOM     21  H   UNL     1       4.325 -31.757  -6.052  1.00  0.00     0.293 HD
ENDBRANCH  17  20
BRANCH  15  22
ATOM     22  O   UNL     1       9.467 -29.564  -5.261  1.00  0.00    -0.508 OA
ATOM     23  H   UNL     1      10.382 -29.629  -4.833  1.00  0.00     0.293 HD
ENDBRANCH  15  22
TORSDOF 3
ENDMDL
MODEL 2
REMARK VINA RESULT:    -4.945     17.852     18.227
REMARK INTER + INTRA:          -5.378
REMARK INTER:                  -5.378
REMARK INTRA:                   0.000
REMARK UNBOUND:                 0.000
REMARK SMILES Cc1cc(O)c2c(c1)C(=O)c1cc(O)cc(O)c1C2=O
REMARK SMILES IDX 1 1 2 2 8 3 7 4 6 5 4 6 3 7 19 8 20 9 18 10 11 11 9 12 10 13
REMARK SMILES IDX 12 14 13 15 15 16 16 17 5 18 17 20 14 22
REMARK H PARENT 5 19 17 21 14 23
REMARK Flexibility Score: inf
ROOT
ATOM      1  C   UNL     1      -6.761 -23.195   5.577  1.00  0.00     0.044 C 
ATOM      2  C   UNL     1      -6.567 -22.006   4.682  1.00  0.00    -0.047 A 
ATOM      3  C   UNL     1      -5.279 -21.530   4.415  1.00  0.00     0.016 A 
ATOM      4  C   UNL     1      -5.087 -20.401   3.601  1.00  0.00     0.038 A 
ATOM      5  C   UNL     1      -6.204 -19.737   3.045  1.00  0.00     0.076 A 
ATOM      6  C   UNL     1      -7.510 -20.175   3.388  1.00  0.00     0.127 A 
ATOM      7  C   UNL     1      -7.674 -21.313   4.183  1.00  0.00     0.050 A 
ATOM      8  C   UNL     1      -5.957 -18.641   2.073  1.00  0.00     0.201 C 
ATOM      9  O   UNL     1      -6.794 -18.415   1.158  1.00  0.00    -0.288 OA
ATOM     10  C   UNL     1      -4.647 -17.942   2.066  1.00  0.00     0.076 A 
ATOM     11  C   UNL     1      -3.532 -18.607   2.625  1.00  0.00     0.041 A 
ATOM     12  C   UNL     1      -3.720 -19.898   3.329  1.00  0.00     0.194 C 
ATOM     13  O   UNL     1      -2.716 -20.557   3.719  1.00  0.00    -0.289 OA
ATOM     14  C   UNL     1      -2.251 -18.039   2.515  1.00  0.00     0.059 A 
ATOM     15  C   UNL     1      -2.073 -16.813   1.869  1.00  0.00     0.120 A 
ATOM     16  C   UNL     1      -3.175 -16.134   1.352  1.00  0.00     0.093 A 
ATOM     17  C   UNL     1      -4.463 -16.669   1.467  1.00  0.00     0.131 A 
ENDROOT
BRANCH   6  18
ATOM     18  O   UNL     1      -8.662 -19.491   2.994  1.00  0.00    -0.507 OA
ATOM     19  H   UNL     1      -9.393 -19.905   2.433  1.00  0.00     0.293 HD
ENDBRANCH   6  18
BRANCH  17  20
ATOM     20  O   UNL     1      -5.527 -15.889   1.007  1.00  0.00    -0.507 OA
ATOM     21  H   UNL     1      -5.524 -15.409   0.118  1.00  0.00     0.293 HD
ENDBRANCH  17  20
BRANCH  15  22
ATOM     22  O   UNL     1      -0.802 -16.253   1.747  1.00  0.00    -0.508 OA
ATOM     23  H   UNL     1       0.019 -16.715   2.120  1.00  0.00     0.293 HD
ENDBRANCH  15  22
TORSDOF 3
ENDMDL
MODEL 3
REMARK VINA RESULT:    -4.604     18.204     18.663
REMARK INTER + INTRA:          -5.007
REMARK INTER:                  -5.007
REMARK INTRA:                   0.000
REMARK UNBOUND:                 0.000
REMARK SMILES Cc1cc(O)c2c(c1)C(=O)c1cc(O)cc(O)c1C2=O
REMARK SMILES IDX 1 1 2 2 8 3 7 4 6 5 4 6 3 7 19 8 20 9 18 10 11 11 9 12 10 13
REMARK SMILES IDX 12 14 13 15 15 16 16 17 5 18 17 20 14 22
REMARK H PARENT 5 19 17 21 14 23
REMARK Flexibility Score: inf
ROOT
ATOM      1  C   UNL     1      -3.935 -18.862   2.502  1.00  0.00     0.044 C 
ATOM      2  C   UNL     1      -2.852 -17.899   2.895  1.00  0.00    -0.047 A 
ATOM      3  C   UNL     1      -1.818 -17.601   2.000  1.00  0.00     0.016 A 
ATOM      4  C   UNL     1      -0.784 -16.724   2.368  1.00  0.00     0.038 A 
ATOM      5  C   UNL     1      -0.786 -16.133   3.651  1.00  0.00     0.076 A 
ATOM      6  C   UNL     1      -1.791 -16.505   4.582  1.00  0.00     0.127 A 
ATOM      7  C   UNL     1      -2.820 -17.364   4.186  1.00  0.00     0.050 A 
ATOM      8  C   UNL     1       0.238 -15.099   3.951  1.00  0.00     0.201 C 
ATOM      9  O   UNL     1      -0.025 -14.175   4.766  1.00  0.00    -0.288 OA
ATOM     10  C   UNL     1       1.490 -15.048   3.153  1.00  0.00     0.076 A 
ATOM     11  C   UNL     1       1.489 -15.642   1.871  1.00  0.00     0.041 A 
ATOM     12  C   UNL     1       0.311 -16.419   1.417  1.00  0.00     0.194 C 
ATOM     13  O   UNL     1       0.253 -16.843   0.230  1.00  0.00    -0.289 OA
ATOM     14  C   UNL     1       2.607 -15.495   1.032  1.00  0.00     0.059 A 
ATOM     15  C   UNL     1       3.728 -14.779   1.462  1.00  0.00     0.120 A 
ATOM     16  C   UNL     1       3.749 -14.228   2.743  1.00  0.00     0.093 A 
ATOM     17  C   UNL     1       2.656 -14.376   3.603  1.00  0.00     0.131 A 
ENDROOT
BRANCH   6  18
ATOM     18  O   UNL     1      -1.784 -16.076   5.911  1.00  0.00    -0.507 OA
ATOM     19  H   UNL     1      -2.490 -16.336   6.586  1.00  0.00     0.293 HD
ENDBRANCH   6  18
BRANCH  17  20
ATOM     20  O   UNL     1       2.787 -13.875   4.901  1.00  0.00    -0.507 OA
ATOM     21  H   UNL     1       2.100 -13.278   5.341  1.00  0.00     0.293 HD
ENDBRANCH  17  20
BRANCH  15  22
ATOM     22  O   UNL     1       4.833 -14.622   0.628  1.00  0.00    -0.508 OA
ATOM     23  H   UNL     1       5.622 -15.256   0.667  1.00  0.00     0.293 HD
ENDBRANCH  15  22
TORSDOF 3
ENDMDL
MODEL 4
REMARK VINA RESULT:    -4.579     18.741     19.412
REMARK INTER + INTRA:          -4.980
REMARK INTER:                  -4.980
REMARK INTRA:                   0.000
REMARK UNBOUND:                 0.000
REMARK SMILES Cc1cc(O)c2c(c1)C(=O)c1cc(O)cc(O)c1C2=O
REMARK SMILES IDX 1 1 2 2 8 3 7 4 6 5 4 6 3 7 19 8 20 9 18 10 11 11 9 12 10 13
REMARK SMILES IDX 12 14 13 15 15 16 16 17 5 18 17 20 14 22
REMARK H PARENT 5 19 17 21 14 23
REMARK Flexibility Score: inf
ROOT
ATOM      1  C   UNL     1      -4.880 -14.298  -0.905  1.00  0.00     0.044 C 
ATOM      2  C   UNL     1      -3.431 -14.615  -0.684  1.00  0.00    -0.047 A 
ATOM      3  C   UNL     1      -2.849 -14.405   0.571  1.00  0.00     0.016 A 
ATOM      4  C   UNL     1      -1.485 -14.673   0.782  1.00  0.00     0.038 A 
ATOM      5  C   UNL     1      -0.692 -15.160  -0.281  1.00  0.00     0.076 A 
ATOM      6  C   UNL     1      -1.268 -15.290  -1.571  1.00  0.00     0.127 A 
ATOM      7  C   UNL     1      -2.632 -15.037  -1.751  1.00  0.00     0.050 A 
ATOM      8  C   UNL     1       0.705 -15.571   0.016  1.00  0.00     0.201 C 
ATOM      9  O   UNL     1       1.245 -16.488  -0.659  1.00  0.00    -0.288 OA
ATOM     10  C   UNL     1       1.391 -15.038   1.221  1.00  0.00     0.076 A 
ATOM     11  C   UNL     1       0.594 -14.549   2.281  1.00  0.00     0.041 A 
ATOM     12  C   UNL     1      -0.874 -14.441   2.113  1.00  0.00     0.194 C 
ATOM     13  O   UNL     1      -1.602 -14.126   3.095  1.00  0.00    -0.289 OA
ATOM     14  C   UNL     1       1.199 -14.165   3.490  1.00  0.00     0.059 A 
ATOM     15  C   UNL     1       2.585 -14.247   3.647  1.00  0.00     0.120 A 
ATOM     16  C   UNL     1       3.378 -14.689   2.589  1.00  0.00     0.093 A 
ATOM     17  C   UNL     1       2.802 -15.059   1.369  1.00  0.00     0.131 A 
ENDROOT
BRANCH   6  18
ATOM     18  O   UNL     1      -0.521 -15.631  -2.701  1.00  0.00    -0.507 OA
ATOM     19  H   UNL     1       0.459 -15.874  -2.669  1.00  0.00     0.293 HD
ENDBRANCH   6  18
BRANCH  17  20
ATOM     20  O   UNL     1       3.667 -15.404   0.328  1.00  0.00    -0.507 OA
ATOM     21  H   UNL     1       3.412 -16.026  -0.427  1.00  0.00     0.293 HD
ENDBRANCH  17  20
BRANCH  15  22
ATOM     22  O   UNL     1       3.187 -13.878   4.849  1.00  0.00    -0.508 OA
ATOM     23  H   UNL     1       2.655 -13.806   5.708  1.00  0.00     0.293 HD
ENDBRANCH  15  22
TORSDOF 3
ENDMDL
MODEL 5
REMARK VINA RESULT:    -4.558     17.965     19.041
REMARK INTER + INTRA:          -4.958
REMARK INTER:                  -4.958
REMARK INTRA:                   0.000
REMARK UNBOUND:                 0.000
REMARK SMILES Cc1cc(O)c2c(c1)C(=O)c1cc(O)cc(O)c1C2=O
REMARK SMILES IDX 1 1 2 2 8 3 7 4 6 5 4 6 3 7 19 8 20 9 18 10 11 11 9 12 10 13
REMARK SMILES IDX 12 14 13 15 15 16 16 17 5 18 17 20 14 22
REMARK H PARENT 5 19 17 21 14 23
REMARK Flexibility Score: inf
ROOT
ATOM      1  C   UNL     1      -0.465 -16.450   1.198  1.00  0.00     0.044 C 
ATOM      2  C   UNL     1      -1.859 -16.858   1.574  1.00  0.00    -0.047 A 
ATOM      3  C   UNL     1      -2.072 -18.008   2.342  1.00  0.00     0.016 A 
ATOM      4  C   UNL     1      -3.375 -18.414   2.676  1.00  0.00     0.038 A 
ATOM      5  C   UNL     1      -4.483 -17.656   2.237  1.00  0.00     0.076 A 
ATOM      6  C   UNL     1      -4.263 -16.538   1.389  1.00  0.00     0.127 A 
ATOM      7  C   UNL     1      -2.957 -16.142   1.087  1.00  0.00     0.050 A 
ATOM      8  C   UNL     1      -5.832 -18.030   2.733  1.00  0.00     0.201 C 
ATOM      9  O   UNL     1      -6.718 -17.144   2.870  1.00  0.00    -0.288 OA
ATOM     10  C   UNL     1      -6.077 -19.404   3.241  1.00  0.00     0.076 A 
ATOM     11  C   UNL     1      -4.966 -20.161   3.678  1.00  0.00     0.041 A 
ATOM     12  C   UNL     1      -3.593 -19.638   3.483  1.00  0.00     0.194 C 
ATOM     13  O   UNL     1      -2.607 -20.249   3.983  1.00  0.00    -0.289 OA
ATOM     14  C   UNL     1      -5.168 -21.409   4.292  1.00  0.00     0.059 A 
ATOM     15  C   UNL     1      -6.461 -21.915   4.461  1.00  0.00     0.120 A 
ATOM     16  C   UNL     1      -7.556 -21.190   3.994  1.00  0.00     0.093 A 
ATOM     17  C   UNL     1      -7.379 -19.955   3.362  1.00  0.00     0.131 A 
ENDROOT
BRANCH   6  18
ATOM     18  O   UNL     1      -5.308 -15.822   0.800  1.00  0.00    -0.507 OA
ATOM     19  H   UNL     1      -5.853 -15.126   1.289  1.00  0.00     0.293 HD
ENDBRANCH   6  18
BRANCH  17  20
ATOM     20  O   UNL     1      -8.515 -19.330   2.840  1.00  0.00    -0.507 OA
ATOM     21  H   UNL     1      -9.340 -19.126   3.385  1.00  0.00     0.293 HD
ENDBRANCH  17  20
BRANCH  15  22
ATOM     22  O   UNL     1      -6.665 -23.146   5.080  1.00  0.00    -0.508 OA
ATOM     23  H   UNL     1      -7.290 -23.841   4.688  1.00  0.00     0.293 HD
ENDBRANCH  15  22
TORSDOF 3
ENDMDL
MODEL 6
REMARK VINA RESULT:    -4.415     18.149     18.854
REMARK INTER + INTRA:          -4.802
REMARK INTER:                  -4.802
REMARK INTRA:                   0.000
REMARK UNBOUND:                 0.000
REMARK SMILES Cc1cc(O)c2c(c1)C(=O)c1cc(O)cc(O)c1C2=O
REMARK SMILES IDX 1 1 2 2 8 3 7 4 6 5 4 6 3 7 19 8 20 9 18 10 11 11 9 12 10 13
REMARK SMILES IDX 12 14 13 15 15 16 16 17 5 18 17 20 14 22
REMARK H PARENT 5 19 17 21 14 23
REMARK Flexibility Score: inf
ROOT
ATOM      1  C   UNL     1       1.683 -18.938  -3.256  1.00  0.00     0.044 C 
ATOM      2  C   UNL     1       0.744 -17.964  -2.607  1.00  0.00    -0.047 A 
ATOM      3  C   UNL     1       0.876 -17.660  -1.248  1.00  0.00     0.016 A 
ATOM      4  C   UNL     1      -0.015 -16.770  -0.624  1.00  0.00     0.038 A 
ATOM      5  C   UNL     1      -1.054 -16.175  -1.373  1.00  0.00     0.076 A 
ATOM      6  C   UNL     1      -1.233 -16.552  -2.729  1.00  0.00     0.127 A 
ATOM      7  C   UNL     1      -0.322 -17.423  -3.333  1.00  0.00     0.050 A 
ATOM      8  C   UNL     1      -1.882 -15.129  -0.718  1.00  0.00     0.201 C 
ATOM      9  O   UNL     1      -2.386 -14.204  -1.410  1.00  0.00    -0.288 OA
ATOM     10  C   UNL     1      -1.959 -15.069   0.764  1.00  0.00     0.076 A 
ATOM     11  C   UNL     1      -0.918 -15.668   1.511  1.00  0.00     0.041 A 
ATOM     12  C   UNL     1       0.127 -16.458   0.819  1.00  0.00     0.194 C 
ATOM     13  O   UNL     1       1.124 -16.888   1.462  1.00  0.00    -0.289 OA
ATOM     14  C   UNL     1      -0.882 -15.513   2.907  1.00  0.00     0.059 A 
ATOM     15  C   UNL     1      -1.876 -14.785   3.566  1.00  0.00     0.120 A 
ATOM     16  C   UNL     1      -2.926 -14.228   2.838  1.00  0.00     0.093 A 
ATOM     17  C   UNL     1      -2.995 -14.384   1.450  1.00  0.00     0.131 A 
ENDROOT
BRANCH   6  18
ATOM     18  O   UNL     1      -2.316 -16.117  -3.497  1.00  0.00    -0.507 OA
ATOM     19  H   UNL     1      -2.719 -15.194  -3.421  1.00  0.00     0.293 HD
ENDBRANCH   6  18
BRANCH  17  20
ATOM     20  O   UNL     1      -4.124 -13.876   0.800  1.00  0.00    -0.507 OA
ATOM     21  H   UNL     1      -4.119 -13.554  -0.157  1.00  0.00     0.293 HD
ENDBRANCH  17  20
BRANCH  15  22
ATOM     22  O   UNL     1      -1.836 -14.620   4.949  1.00  0.00    -0.508 OA
ATOM     23  H   UNL     1      -2.401 -15.189   5.569  1.00  0.00     0.293 HD
ENDBRANCH  15  22
TORSDOF 3
ENDMDL
MODEL 7
REMARK VINA RESULT:    -4.210     18.714     19.627
REMARK INTER + INTRA:          -4.579
REMARK INTER:                  -4.579
REMARK INTRA:                   0.000
REMARK UNBOUND:                 0.000
REMARK SMILES Cc1cc(O)c2c(c1)C(=O)c1cc(O)cc(O)c1C2=O
REMARK SMILES IDX 1 1 2 2 8 3 7 4 6 5 4 6 3 7 19 8 20 9 18 10 11 11 9 12 10 13
REMARK SMILES IDX 12 14 13 15 15 16 16 17 5 18 17 20 14 22
REMARK H PARENT 5 19 17 21 14 23
REMARK Flexibility Score: inf
ROOT
ATOM      1  C   UNL     1      -2.522 -17.238   4.284  1.00  0.00     0.044 C 
ATOM      2  C   UNL     1      -3.784 -18.025   4.084  1.00  0.00    -0.047 A 
ATOM      3  C   UNL     1      -4.301 -18.801   5.126  1.00  0.00     0.016 A 
ATOM      4  C   UNL     1      -5.467 -19.563   4.941  1.00  0.00     0.038 A 
ATOM      5  C   UNL     1      -6.127 -19.547   3.692  1.00  0.00     0.076 A 
ATOM      6  C   UNL     1      -5.551 -18.824   2.615  1.00  0.00     0.127 A 
ATOM      7  C   UNL     1      -4.401 -18.057   2.830  1.00  0.00     0.050 A 
ATOM      8  C   UNL     1      -7.434 -20.245   3.578  1.00  0.00     0.201 C 
ATOM      9  O   UNL     1      -8.301 -19.823   2.767  1.00  0.00    -0.288 OA
ATOM     10  C   UNL     1      -7.787 -21.314   4.547  1.00  0.00     0.076 A 
ATOM     11  C   UNL     1      -7.123 -21.329   5.795  1.00  0.00     0.041 A 
ATOM     12  C   UNL     1      -6.005 -20.390   6.048  1.00  0.00     0.194 C 
ATOM     13  O   UNL     1      -5.493 -20.312   7.199  1.00  0.00    -0.289 OA
ATOM     14  C   UNL     1      -7.524 -22.237   6.790  1.00  0.00     0.059 A 
ATOM     15  C   UNL     1      -8.566 -23.138   6.548  1.00  0.00     0.120 A 
ATOM     16  C   UNL     1      -9.195 -23.154   5.304  1.00  0.00     0.093 A 
ATOM     17  C   UNL     1      -8.801 -22.273   4.292  1.00  0.00     0.131 A 
ENDROOT
BRANCH   6  18
ATOM     18  O   UNL     1      -6.063 -18.870   1.316  1.00  0.00    -0.507 OA
ATOM     19  H   UNL     1      -6.030 -19.693   0.732  1.00  0.00     0.293 HD
ENDBRANCH   6  18
BRANCH  17  20
ATOM     20  O   UNL     1      -9.415 -22.410   3.044  1.00  0.00    -0.507 OA
ATOM     21  H   UNL     1     -10.344 -22.071   2.839  1.00  0.00     0.293 HD
ENDBRANCH  17  20
BRANCH  15  22
ATOM     22  O   UNL     1      -8.974 -24.031   7.536  1.00  0.00    -0.508 OA
ATOM     23  H   UNL     1      -8.391 -24.238   8.339  1.00  0.00     0.293 HD
ENDBRANCH  15  22
TORSDOF 3
ENDMDL
MODEL 8
REMARK VINA RESULT:    -4.126     18.237     18.986
REMARK INTER + INTRA:          -4.488
REMARK INTER:                  -4.488
REMARK INTRA:                   0.000
REMARK UNBOUND:                 0.000
REMARK SMILES Cc1cc(O)c2c(c1)C(=O)c1cc(O)cc(O)c1C2=O
REMARK SMILES IDX 1 1 2 2 8 3 7 4 6 5 4 6 3 7 19 8 20 9 18 10 11 11 9 12 10 13
REMARK SMILES IDX 12 14 13 15 15 16 16 17 5 18 17 20 14 22
REMARK H PARENT 5 19 17 21 14 23
REMARK Flexibility Score: inf
ROOT
ATOM      1  C   UNL     1       0.826 -17.025  -2.232  1.00  0.00     0.044 C 
ATOM      2  C   UNL     1       0.538 -16.708  -0.794  1.00  0.00    -0.047 A 
ATOM      3  C   UNL     1       1.497 -16.055  -0.012  1.00  0.00     0.016 A 
ATOM      4  C   UNL     1       1.249 -15.779   1.343  1.00  0.00     0.038 A 
ATOM      5  C   UNL     1       0.020 -16.162   1.925  1.00  0.00     0.076 A 
ATOM      6  C   UNL     1      -0.913 -16.898   1.149  1.00  0.00     0.127 A 
ATOM      7  C   UNL     1      -0.652 -17.143  -0.202  1.00  0.00     0.050 A 
ATOM      8  C   UNL     1      -0.266 -15.723   3.315  1.00  0.00     0.201 C 
ATOM      9  O   UNL     1      -1.456 -15.517   3.675  1.00  0.00    -0.288 OA
ATOM     10  C   UNL     1       0.854 -15.349   4.217  1.00  0.00     0.076 A 
ATOM     11  C   UNL     1       2.083 -14.968   3.631  1.00  0.00     0.041 A 
ATOM     12  C   UNL     1       2.273 -15.093   2.166  1.00  0.00     0.194 C 
ATOM     13  O   UNL     1       3.318 -14.638   1.624  1.00  0.00    -0.289 OA
ATOM     14  C   UNL     1       3.121 -14.476   4.441  1.00  0.00     0.059 A 
ATOM     15  C   UNL     1       2.952 -14.375   5.825  1.00  0.00     0.120 A 
ATOM     16  C   UNL     1       1.757 -14.788   6.411  1.00  0.00     0.093 A 
ATOM     17  C   UNL     1       0.716 -15.299   5.628  1.00  0.00     0.131 A 
ENDROOT
BRANCH   6  18
ATOM     18  O   UNL     1      -2.086 -17.433   1.687  1.00  0.00    -0.507 OA
ATOM     19  H   UNL     1      -2.692 -18.067   1.185  1.00  0.00     0.293 HD
ENDBRANCH   6  18
BRANCH  17  20
ATOM     20  O   UNL     1      -0.415 -15.778   6.294  1.00  0.00    -0.507 OA
ATOM     21  H   UNL     1      -0.988 -16.535   5.949  1.00  0.00     0.293 HD
ENDBRANCH  17  20
BRANCH  15  22
ATOM     22  O   UNL     1       3.975 -13.876   6.630  1.00  0.00    -0.508 OA
ATOM     23  H   UNL     1       4.675 -14.485   7.036  1.00  0.00     0.293 HD
ENDBRANCH  15  22
TORSDOF 3
ENDMDL
MODEL 9
REMARK VINA RESULT:    -4.015     18.911     19.296
REMARK INTER + INTRA:          -4.367
REMARK INTER:                  -4.367
REMARK INTRA:                   0.000
REMARK UNBOUND:                 0.000
REMARK SMILES Cc1cc(O)c2c(c1)C(=O)c1cc(O)cc(O)c1C2=O
REMARK SMILES IDX 1 1 2 2 8 3 7 4 6 5 4 6 3 7 19 8 20 9 18 10 11 11 9 12 10 13
REMARK SMILES IDX 12 14 13 15 15 16 16 17 5 18 17 20 14 22
REMARK H PARENT 5 19 17 21 14 23
REMARK Flexibility Score: inf
ROOT
ATOM      1  C   UNL     1      -6.955 -14.070   1.036  1.00  0.00     0.044 C 
ATOM      2  C   UNL     1      -5.499 -14.429   1.096  1.00  0.00    -0.047 A 
ATOM      3  C   UNL     1      -4.774 -14.626  -0.085  1.00  0.00     0.016 A 
ATOM      4  C   UNL     1      -3.418 -14.990  -0.040  1.00  0.00     0.038 A 
ATOM      5  C   UNL     1      -2.775 -15.157   1.207  1.00  0.00     0.076 A 
ATOM      6  C   UNL     1      -3.537 -15.037   2.399  1.00  0.00     0.127 A 
ATOM      7  C   UNL     1      -4.880 -14.655   2.329  1.00  0.00     0.050 A 
ATOM      8  C   UNL     1      -1.309 -15.395   1.216  1.00  0.00     0.201 C 
ATOM      9  O   UNL     1      -0.615 -14.995   2.189  1.00  0.00    -0.288 OA
ATOM     10  C   UNL     1      -0.640 -15.930   0.002  1.00  0.00     0.076 A 
ATOM     11  C   UNL     1      -1.287 -15.763  -1.244  1.00  0.00     0.041 A 
ATOM     12  C   UNL     1      -2.659 -15.205  -1.295  1.00  0.00     0.194 C 
ATOM     13  O   UNL     1      -3.192 -14.937  -2.408  1.00  0.00    -0.289 OA
ATOM     14  C   UNL     1      -0.627 -16.131  -2.429  1.00  0.00     0.059 A 
ATOM     15  C   UNL     1       0.659 -16.676  -2.384  1.00  0.00     0.120 A 
ATOM     16  C   UNL     1       1.284 -16.880  -1.155  1.00  0.00     0.093 A 
ATOM     17  C   UNL     1       0.640 -16.540   0.040  1.00  0.00     0.131 A 
ENDROOT
BRANCH   6  18
ATOM     18  O   UNL     1      -3.012 -15.322   3.662  1.00  0.00    -0.507 OA
ATOM     19  H   UNL     1      -3.401 -16.016   4.284  1.00  0.00     0.293 HD
ENDBRANCH   6  18
BRANCH  17  20
ATOM     20  O   UNL     1       1.291 -16.858   1.235  1.00  0.00    -0.507 OA
ATOM     21  H   UNL     1       1.453 -16.192   1.976  1.00  0.00     0.293 HD
ENDBRANCH  17  20
BRANCH  15  22
ATOM     22  O   UNL     1       1.321 -17.031  -3.558  1.00  0.00    -0.508 OA
ATOM     23  H   UNL     1       1.869 -16.359  -4.082  1.00  0.00     0.293 HD
ENDBRANCH  15  22
TORSDOF 3
ENDMDL
