MODEL 1
REMARK VINA RESULT:    -6.172      0.000      0.000
REMARK INTER + INTRA:          -7.431
REMARK INTER:                  -7.255
REMARK INTRA:                  -0.176
REMARK UNBOUND:                -0.176
REMARK SMILES Oc1ccc(-c2[o+]c3cc(O)cc(O)c3cc2O)cc1
REMARK SMILES IDX 6 1 7 2 8 3 9 4 10 5 12 6 13 7 15 8 16 9 17 10 5 11 4 12
REMARK SMILES IDX 3 13 2 14 19 15 20 16 1 17 18 19 11 21 14 23
REMARK H PARENT 1 18 18 20 11 22 14 24
REMARK Flexibility Score: inf
ROOT
ATOM      1  C   UNL     1      47.799 108.853  53.632  1.00  0.00     0.401 A 
ATOM      2  O   UNL     1      47.204 107.745  53.197  1.00  0.00    -0.202 OA
ATOM      3  C   UNL     1      47.868 106.647  52.852  1.00  0.00     0.368 A 
ATOM      4  C   UNL     1      47.154 105.531  52.408  1.00  0.00     0.162 A 
ATOM      5  C   UNL     1      47.827 104.362  52.043  1.00  0.00     0.128 A 
ATOM      6  C   UNL     1      49.220 104.309  52.123  1.00  0.00     0.093 A 
ATOM      7  C   UNL     1      49.960 105.414  52.564  1.00  0.00     0.136 A 
ATOM      8  C   UNL     1      49.281 106.603  52.933  1.00  0.00     0.125 A 
ATOM      9  C   UNL     1      49.940 107.763  53.374  1.00  0.00     0.078 A 
ATOM     10  C   UNL     1      49.203 108.900  53.717  1.00  0.00     0.223 A 
ENDROOT
BRANCH   1  11
ATOM     11  C   UNL     1      46.948 110.009  53.994  1.00  0.00     0.084 A 
ATOM     12  C   UNL     1      46.922 110.459  55.324  1.00  0.00     0.022 A 
ATOM     13  C   UNL     1      46.142 111.562  55.685  1.00  0.00     0.047 A 
ATOM     14  C   UNL     1      45.391 112.239  54.719  1.00  0.00     0.115 A 
ATOM     15  C   UNL     1      46.206 110.706  53.023  1.00  0.00     0.022 A 
ATOM     16  C   UNL     1      45.428 111.810  53.386  1.00  0.00     0.047 A 
BRANCH  14  17
ATOM     17  O   UNL     1      44.617 113.335  55.091  1.00  0.00    -0.508 OA
ATOM     18  H   UNL     1      43.858 113.246  55.756  1.00  0.00     0.293 HD
ENDBRANCH  14  17
ENDBRANCH   1  11
BRANCH  10  19
ATOM     19  O   UNL     1      49.859 110.068  54.107  1.00  0.00    -0.500 OA
ATOM     20  H   UNL     1      49.508 110.651  54.858  1.00  0.00     0.294 HD
ENDBRANCH  10  19
BRANCH   5  21
ATOM     21  O   UNL     1      47.122 103.246  51.599  1.00  0.00    -0.507 OA
ATOM     22  H   UNL     1      47.517 102.314  51.652  1.00  0.00     0.293 HD
ENDBRANCH   5  21
BRANCH   7  23
ATOM     23  O   UNL     1      51.351 105.277  52.618  1.00  0.00    -0.507 OA
ATOM     24  H   UNL     1      51.830 104.428  52.881  1.00  0.00     0.293 HD
ENDBRANCH   7  23
TORSDOF 5
ENDMDL
MODEL 2
REMARK VINA RESULT:    -5.710      2.861      6.683
REMARK INTER + INTRA:          -6.887
REMARK INTER:                  -6.794
REMARK INTRA:                  -0.094
REMARK UNBOUND:                -0.176
REMARK SMILES Oc1ccc(-c2[o+]c3cc(O)cc(O)c3cc2O)cc1
REMARK SMILES IDX 6 1 7 2 8 3 9 4 10 5 12 6 13 7 15 8 16 9 17 10 5 11 4 12
REMARK SMILES IDX 3 13 2 14 19 15 20 16 1 17 18 19 11 21 14 23
REMARK H PARENT 1 18 18 20 11 22 14 24
REMARK Flexibility Score: inf
ROOT
ATOM      1  C   UNL     1      48.942 108.315  54.244  1.00  0.00     0.401 A 
ATOM      2  O   UNL     1      49.542 109.278  53.547  1.00  0.00    -0.202 OA
ATOM      3  C   UNL     1      49.989 110.403  54.094  1.00  0.00     0.368 A 
ATOM      4  C   UNL     1      50.608 111.356  53.281  1.00  0.00     0.162 A 
ATOM      5  C   UNL     1      51.091 112.546  53.831  1.00  0.00     0.128 A 
ATOM      6  C   UNL     1      50.955 112.785  55.200  1.00  0.00     0.093 A 
ATOM      7  C   UNL     1      50.338 111.847  56.037  1.00  0.00     0.136 A 
ATOM      8  C   UNL     1      49.844 110.638  55.483  1.00  0.00     0.125 A 
ATOM      9  C   UNL     1      49.200 109.647  56.243  1.00  0.00     0.078 A 
ATOM     10  C   UNL     1      48.735 108.483  55.625  1.00  0.00     0.223 A 
ENDROOT
BRANCH   1  11
ATOM     11  C   UNL     1      48.496 107.103  53.520  1.00  0.00     0.084 A 
ATOM     12  C   UNL     1      49.444 106.299  52.866  1.00  0.00     0.022 A 
ATOM     13  C   UNL     1      49.048 105.138  52.195  1.00  0.00     0.047 A 
ATOM     14  C   UNL     1      47.703 104.757  52.182  1.00  0.00     0.115 A 
ATOM     15  C   UNL     1      47.147 106.704  53.520  1.00  0.00     0.022 A 
ATOM     16  C   UNL     1      46.753 105.541  52.850  1.00  0.00     0.047 A 
BRANCH  14  17
ATOM     17  O   UNL     1      47.321 103.599  51.509  1.00  0.00    -0.508 OA
ATOM     18  H   UNL     1      46.502 103.072  51.785  1.00  0.00     0.293 HD
ENDBRANCH  14  17
ENDBRANCH   1  11
BRANCH  10  19
ATOM     19  O   UNL     1      48.052 107.521  56.370  1.00  0.00    -0.500 OA
ATOM     20  H   UNL     1      47.403 107.778  57.105  1.00  0.00     0.294 HD
ENDBRANCH  10  19
BRANCH   5  21
ATOM     21  O   UNL     1      51.710 113.500  53.026  1.00  0.00    -0.507 OA
ATOM     22  H   UNL     1      52.219 114.281  53.425  1.00  0.00     0.293 HD
ENDBRANCH   5  21
BRANCH   7  23
ATOM     23  O   UNL     1      50.244 112.161  57.397  1.00  0.00    -0.507 OA
ATOM     24  H   UNL     1      49.602 112.838  57.782  1.00  0.00     0.293 HD
ENDBRANCH   7  23
TORSDOF 5
ENDMDL
MODEL 3
REMARK VINA RESULT:    -5.578      8.554     10.803
REMARK INTER + INTRA:          -6.731
REMARK INTER:                  -6.695
REMARK INTRA:                  -0.036
REMARK UNBOUND:                -0.176
REMARK SMILES Oc1ccc(-c2[o+]c3cc(O)cc(O)c3cc2O)cc1
REMARK SMILES IDX 6 1 7 2 8 3 9 4 10 5 12 6 13 7 15 8 16 9 17 10 5 11 4 12
REMARK SMILES IDX 3 13 2 14 19 15 20 16 1 17 18 19 11 21 14 23
REMARK H PARENT 1 18 18 20 11 22 14 24
REMARK Flexibility Score: inf
ROOT
ATOM      1  C   UNL     1      54.649 112.745  48.158  1.00  0.00     0.401 A 
ATOM      2  O   UNL     1      53.477 112.422  48.698  1.00  0.00    -0.202 OA
ATOM      3  C   UNL     1      53.171 112.654  49.970  1.00  0.00     0.368 A 
ATOM      4  C   UNL     1      51.911 112.280  50.446  1.00  0.00     0.162 A 
ATOM      5  C   UNL     1      51.562 112.516  51.779  1.00  0.00     0.128 A 
ATOM      6  C   UNL     1      52.476 113.129  52.639  1.00  0.00     0.093 A 
ATOM      7  C   UNL     1      53.745 113.513  52.187  1.00  0.00     0.136 A 
ATOM      8  C   UNL     1      54.105 113.274  50.836  1.00  0.00     0.125 A 
ATOM      9  C   UNL     1      55.358 113.613  50.299  1.00  0.00     0.078 A 
ATOM     10  C   UNL     1      55.642 113.341  48.957  1.00  0.00     0.223 A 
ENDROOT
BRANCH   1  11
ATOM     11  C   UNL     1      54.866 112.443  46.725  1.00  0.00     0.084 A 
ATOM     12  C   UNL     1      54.521 111.176  46.225  1.00  0.00     0.022 A 
ATOM     13  C   UNL     1      54.697 110.876  44.871  1.00  0.00     0.047 A 
ATOM     14  C   UNL     1      55.206 111.841  43.997  1.00  0.00     0.115 A 
ATOM     15  C   UNL     1      55.359 113.416  45.837  1.00  0.00     0.022 A 
ATOM     16  C   UNL     1      55.533 113.113  44.482  1.00  0.00     0.047 A 
BRANCH  14  17
ATOM     17  O   UNL     1      55.378 111.527  42.650  1.00  0.00    -0.508 OA
ATOM     18  H   UNL     1      55.707 110.616  42.357  1.00  0.00     0.293 HD
ENDBRANCH  14  17
ENDBRANCH   1  11
BRANCH  10  19
ATOM     19  O   UNL     1      56.903 113.632  48.437  1.00  0.00    -0.500 OA
ATOM     20  H   UNL     1      57.096 113.574  47.443  1.00  0.00     0.294 HD
ENDBRANCH  10  19
BRANCH   5  21
ATOM     21  O   UNL     1      50.309 112.146  52.260  1.00  0.00    -0.507 OA
ATOM     22  H   UNL     1      50.133 112.039  53.253  1.00  0.00     0.293 HD
ENDBRANCH   5  21
BRANCH   7  23
ATOM     23  O   UNL     1      54.599 114.125  53.110  1.00  0.00    -0.507 OA
ATOM     24  H   UNL     1      55.386 113.668  53.547  1.00  0.00     0.293 HD
ENDBRANCH   7  23
TORSDOF 5
ENDMDL
MODEL 4
REMARK VINA RESULT:    -5.549      2.299      3.530
REMARK INTER + INTRA:          -6.697
REMARK INTER:                  -6.479
REMARK INTRA:                  -0.219
REMARK UNBOUND:                -0.176
REMARK SMILES Oc1ccc(-c2[o+]c3cc(O)cc(O)c3cc2O)cc1
REMARK SMILES IDX 6 1 7 2 8 3 9 4 10 5 12 6 13 7 15 8 16 9 17 10 5 11 4 12
REMARK SMILES IDX 3 13 2 14 19 15 20 16 1 17 18 19 11 21 14 23
REMARK H PARENT 1 18 18 20 11 22 14 24
REMARK Flexibility Score: inf
ROOT
ATOM      1  C   UNL     1      47.379 107.966  55.253  1.00  0.00     0.401 A 
ATOM      2  O   UNL     1      48.460 107.720  54.517  1.00  0.00    -0.202 OA
ATOM      3  C   UNL     1      48.496 106.800  53.559  1.00  0.00     0.368 A 
ATOM      4  C   UNL     1      49.678 106.616  52.837  1.00  0.00     0.162 A 
ATOM      5  C   UNL     1      49.743 105.658  51.822  1.00  0.00     0.128 A 
ATOM      6  C   UNL     1      48.620 104.881  51.526  1.00  0.00     0.093 A 
ATOM      7  C   UNL     1      47.424 105.045  52.235  1.00  0.00     0.136 A 
ATOM      8  C   UNL     1      47.354 106.015  53.268  1.00  0.00     0.125 A 
ATOM      9  C   UNL     1      46.201 106.240  54.039  1.00  0.00     0.078 A 
ATOM     10  C   UNL     1      46.210 107.211  55.045  1.00  0.00     0.223 A 
ENDROOT
BRANCH   1  11
ATOM     11  C   UNL     1      47.461 109.024  56.285  1.00  0.00     0.084 A 
ATOM     12  C   UNL     1      47.509 108.665  57.642  1.00  0.00     0.022 A 
ATOM     13  C   UNL     1      47.609 109.647  58.633  1.00  0.00     0.047 A 
ATOM     14  C   UNL     1      47.678 110.998  58.280  1.00  0.00     0.115 A 
ATOM     15  C   UNL     1      47.551 110.384  55.936  1.00  0.00     0.022 A 
ATOM     16  C   UNL     1      47.653 111.364  56.928  1.00  0.00     0.047 A 
BRANCH  14  17
ATOM     17  O   UNL     1      47.776 111.966  59.277  1.00  0.00    -0.508 OA
ATOM     18  H   UNL     1      46.953 112.350  59.724  1.00  0.00     0.293 HD
ENDBRANCH  14  17
ENDBRANCH   1  11
BRANCH  10  19
ATOM     19  O   UNL     1      45.082 107.401  55.844  1.00  0.00    -0.500 OA
ATOM     20  H   UNL     1      44.650 108.311  55.949  1.00  0.00     0.294 HD
ENDBRANCH  10  19
BRANCH   5  21
ATOM     21  O   UNL     1      50.918 105.468  51.098  1.00  0.00    -0.507 OA
ATOM     22  H   UNL     1      51.827 105.501  51.545  1.00  0.00     0.293 HD
ENDBRANCH   5  21
BRANCH   7  23
ATOM     23  O   UNL     1      46.345 104.231  51.876  1.00  0.00    -0.507 OA
ATOM     24  H   UNL     1      45.468 104.195  52.373  1.00  0.00     0.293 HD
ENDBRANCH   7  23
TORSDOF 5
ENDMDL
MODEL 5
REMARK VINA RESULT:    -5.513      2.485      6.593
REMARK INTER + INTRA:          -6.656
REMARK INTER:                  -6.859
REMARK INTRA:                   0.204
REMARK UNBOUND:                -0.176
REMARK SMILES Oc1ccc(-c2[o+]c3cc(O)cc(O)c3cc2O)cc1
REMARK SMILES IDX 6 1 7 2 8 3 9 4 10 5 12 6 13 7 15 8 16 9 17 10 5 11 4 12
REMARK SMILES IDX 3 13 2 14 19 15 20 16 1 17 18 19 11 21 14 23
REMARK H PARENT 1 18 18 20 11 22 14 24
REMARK Flexibility Score: inf
ROOT
ATOM      1  C   UNL     1      49.308 108.139  53.649  1.00  0.00     0.401 A 
ATOM      2  O   UNL     1      50.590 108.129  54.007  1.00  0.00    -0.202 OA
ATOM      3  C   UNL     1      51.214 109.185  54.518  1.00  0.00     0.368 A 
ATOM      4  C   UNL     1      52.562 109.076  54.867  1.00  0.00     0.162 A 
ATOM      5  C   UNL     1      53.241 110.170  55.409  1.00  0.00     0.128 A 
ATOM      6  C   UNL     1      52.569 111.379  55.604  1.00  0.00     0.093 A 
ATOM      7  C   UNL     1      51.217 111.514  55.263  1.00  0.00     0.136 A 
ATOM      8  C   UNL     1      50.524 110.407  54.710  1.00  0.00     0.125 A 
ATOM      9  C   UNL     1      49.174 110.454  54.326  1.00  0.00     0.078 A 
ATOM     10  C   UNL     1      48.559 109.323  53.783  1.00  0.00     0.223 A 
ENDROOT
BRANCH   1  11
ATOM     11  C   UNL     1      48.725 106.894  53.100  1.00  0.00     0.084 A 
ATOM     12  C   UNL     1      49.552 105.980  52.427  1.00  0.00     0.022 A 
ATOM     13  C   UNL     1      49.027 104.788  51.919  1.00  0.00     0.047 A 
ATOM     14  C   UNL     1      47.673 104.486  52.092  1.00  0.00     0.115 A 
ATOM     15  C   UNL     1      47.368 106.576  53.288  1.00  0.00     0.022 A 
ATOM     16  C   UNL     1      46.845 105.382  52.780  1.00  0.00     0.047 A 
BRANCH  14  17
ATOM     17  O   UNL     1      47.163 103.296  51.580  1.00  0.00    -0.508 OA
ATOM     18  H   UNL     1      46.175 103.077  51.634  1.00  0.00     0.293 HD
ENDBRANCH  14  17
ENDBRANCH   1  11
BRANCH  10  19
ATOM     19  O   UNL     1      47.232 109.384  53.356  1.00  0.00    -0.500 OA
ATOM     20  H   UNL     1      46.841 110.228  52.954  1.00  0.00     0.294 HD
ENDBRANCH  10  19
BRANCH   5  21
ATOM     21  O   UNL     1      54.586 110.069  55.759  1.00  0.00    -0.507 OA
ATOM     22  H   UNL     1      55.324 110.259  55.090  1.00  0.00     0.293 HD
ENDBRANCH   5  21
BRANCH   7  23
ATOM     23  O   UNL     1      50.617 112.756  55.493  1.00  0.00    -0.507 OA
ATOM     24  H   UNL     1      49.944 113.187  54.876  1.00  0.00     0.293 HD
ENDBRANCH   7  23
TORSDOF 5
ENDMDL
MODEL 6
REMARK VINA RESULT:    -5.475      2.640      4.767
REMARK INTER + INTRA:          -6.611
REMARK INTER:                  -6.289
REMARK INTRA:                  -0.322
REMARK UNBOUND:                -0.176
REMARK SMILES Oc1ccc(-c2[o+]c3cc(O)cc(O)c3cc2O)cc1
REMARK SMILES IDX 6 1 7 2 8 3 9 4 10 5 12 6 13 7 15 8 16 9 17 10 5 11 4 12
REMARK SMILES IDX 3 13 2 14 19 15 20 16 1 17 18 19 11 21 14 23
REMARK H PARENT 1 18 18 20 11 22 14 24
REMARK Flexibility Score: inf
ROOT
ATOM      1  C   UNL     1      50.055 108.767  53.935  1.00  0.00     0.401 A 
ATOM      2  O   UNL     1      50.058 107.686  53.160  1.00  0.00    -0.202 OA
ATOM      3  C   UNL     1      49.015 106.871  53.039  1.00  0.00     0.368 A 
ATOM      4  C   UNL     1      49.113 105.760  52.197  1.00  0.00     0.162 A 
ATOM      5  C   UNL     1      48.030 104.890  52.049  1.00  0.00     0.128 A 
ATOM      6  C   UNL     1      46.843 105.132  52.744  1.00  0.00     0.093 A 
ATOM      7  C   UNL     1      46.719 106.238  53.594  1.00  0.00     0.136 A 
ATOM      8  C   UNL     1      47.816 107.123  53.750  1.00  0.00     0.125 A 
ATOM      9  C   UNL     1      47.787 108.249  54.590  1.00  0.00     0.078 A 
ATOM     10  C   UNL     1      48.911 109.073  54.696  1.00  0.00     0.223 A 
ENDROOT
BRANCH   1  11
ATOM     11  C   UNL     1      51.277 109.601  53.979  1.00  0.00     0.084 A 
ATOM     12  C   UNL     1      52.340 109.228  54.818  1.00  0.00     0.022 A 
ATOM     13  C   UNL     1      53.513 109.988  54.859  1.00  0.00     0.047 A 
ATOM     14  C   UNL     1      53.645 111.121  54.051  1.00  0.00     0.115 A 
ATOM     15  C   UNL     1      51.424 110.730  53.153  1.00  0.00     0.022 A 
ATOM     16  C   UNL     1      52.599 111.488  53.195  1.00  0.00     0.047 A 
BRANCH  14  17
ATOM     17  O   UNL     1      54.818 111.870  54.102  1.00  0.00    -0.508 OA
ATOM     18  H   UNL     1      55.621 111.560  54.636  1.00  0.00     0.293 HD
ENDBRANCH  14  17
ENDBRANCH   1  11
BRANCH  10  19
ATOM     19  O   UNL     1      48.899 110.163  55.567  1.00  0.00    -0.500 OA
ATOM     20  H   UNL     1      48.667 110.058  56.548  1.00  0.00     0.294 HD
ENDBRANCH  10  19
BRANCH   5  21
ATOM     21  O   UNL     1      48.121 103.781  51.212  1.00  0.00    -0.507 OA
ATOM     22  H   UNL     1      48.661 103.806  50.354  1.00  0.00     0.293 HD
ENDBRANCH   5  21
BRANCH   7  23
ATOM     23  O   UNL     1      45.496 106.411  54.251  1.00  0.00    -0.507 OA
ATOM     24  H   UNL     1      45.196 107.275  54.677  1.00  0.00     0.293 HD
ENDBRANCH   7  23
TORSDOF 5
ENDMDL
MODEL 7
REMARK VINA RESULT:    -5.228      2.643      3.690
REMARK INTER + INTRA:          -6.320
REMARK INTER:                  -6.072
REMARK INTRA:                  -0.248
REMARK UNBOUND:                -0.176
REMARK SMILES Oc1ccc(-c2[o+]c3cc(O)cc(O)c3cc2O)cc1
REMARK SMILES IDX 6 1 7 2 8 3 9 4 10 5 12 6 13 7 15 8 16 9 17 10 5 11 4 12
REMARK SMILES IDX 3 13 2 14 19 15 20 16 1 17 18 19 11 21 14 23
REMARK H PARENT 1 18 18 20 11 22 14 24
REMARK Flexibility Score: inf
ROOT
ATOM      1  C   UNL     1      48.888 109.466  54.449  1.00  0.00     0.401 A 
ATOM      2  O   UNL     1      49.569 108.558  53.754  1.00  0.00    -0.202 OA
ATOM      3  C   UNL     1      49.034 107.423  53.315  1.00  0.00     0.368 A 
ATOM      4  C   UNL     1      49.830 106.532  52.591  1.00  0.00     0.162 A 
ATOM      5  C   UNL     1      49.293 105.333  52.115  1.00  0.00     0.128 A 
ATOM      6  C   UNL     1      47.953 105.024  52.364  1.00  0.00     0.093 A 
ATOM      7  C   UNL     1      47.135 105.900  53.089  1.00  0.00     0.136 A 
ATOM      8  C   UNL     1      47.676 107.117  53.576  1.00  0.00     0.125 A 
ATOM      9  C   UNL     1      46.935 108.048  54.322  1.00  0.00     0.078 A 
ATOM     10  C   UNL     1      47.540 109.225  54.772  1.00  0.00     0.223 A 
ENDROOT
BRANCH   1  11
ATOM     11  C   UNL     1      49.593 110.696  54.873  1.00  0.00     0.084 A 
ATOM     12  C   UNL     1      50.003 110.833  56.210  1.00  0.00     0.022 A 
ATOM     13  C   UNL     1      50.690 111.976  56.628  1.00  0.00     0.047 A 
ATOM     14  C   UNL     1      50.991 112.990  55.714  1.00  0.00     0.115 A 
ATOM     15  C   UNL     1      49.916 111.711  53.954  1.00  0.00     0.022 A 
ATOM     16  C   UNL     1      50.605 112.853  54.374  1.00  0.00     0.047 A 
BRANCH  14  17
ATOM     17  O   UNL     1      51.674 114.125  56.144  1.00  0.00    -0.508 OA
ATOM     18  H   UNL     1      52.674 114.112  56.303  1.00  0.00     0.293 HD
ENDBRANCH  14  17
ENDBRANCH   1  11
BRANCH  10  19
ATOM     19  O   UNL     1      46.818 110.127  55.555  1.00  0.00    -0.500 OA
ATOM     20  H   UNL     1      46.258 109.820  56.342  1.00  0.00     0.294 HD
ENDBRANCH  10  19
BRANCH   5  21
ATOM     21  O   UNL     1      50.079 104.440  51.392  1.00  0.00    -0.507 OA
ATOM     22  H   UNL     1      49.677 103.630  50.933  1.00  0.00     0.293 HD
ENDBRANCH   5  21
BRANCH   7  23
ATOM     23  O   UNL     1      45.805 105.517  53.293  1.00  0.00    -0.507 OA
ATOM     24  H   UNL     1      45.460 105.084  54.136  1.00  0.00     0.293 HD
ENDBRANCH   7  23
TORSDOF 5
ENDMDL
MODEL 8
REMARK VINA RESULT:    -5.125     13.169     14.924
REMARK INTER + INTRA:          -6.199
REMARK INTER:                  -5.931
REMARK INTRA:                  -0.268
REMARK UNBOUND:                -0.176
REMARK SMILES Oc1ccc(-c2[o+]c3cc(O)cc(O)c3cc2O)cc1
REMARK SMILES IDX 6 1 7 2 8 3 9 4 10 5 12 6 13 7 15 8 16 9 17 10 5 11 4 12
REMARK SMILES IDX 3 13 2 14 19 15 20 16 1 17 18 19 11 21 14 23
REMARK H PARENT 1 18 18 20 11 22 14 24
REMARK Flexibility Score: inf
ROOT
ATOM      1  C   UNL     1      56.781  97.267  55.908  1.00  0.00     0.401 A 
ATOM      2  O   UNL     1      57.024  98.274  55.072  1.00  0.00    -0.202 OA
ATOM      3  C   UNL     1      58.209  98.487  54.510  1.00  0.00     0.368 A 
ATOM      4  C   UNL     1      58.366  99.571  53.642  1.00  0.00     0.162 A 
ATOM      5  C   UNL     1      59.600  99.815  53.035  1.00  0.00     0.128 A 
ATOM      6  C   UNL     1      60.682  98.972  53.295  1.00  0.00     0.093 A 
ATOM      7  C   UNL     1      60.552  97.879  54.161  1.00  0.00     0.136 A 
ATOM      8  C   UNL     1      59.302  97.628  54.782  1.00  0.00     0.125 A 
ATOM      9  C   UNL     1      59.081  96.565  55.674  1.00  0.00     0.078 A 
ATOM     10  C   UNL     1      57.821  96.384  56.251  1.00  0.00     0.223 A 
ENDROOT
BRANCH   1  11
ATOM     11  C   UNL     1      55.415  97.131  56.462  1.00  0.00     0.084 A 
ATOM     12  C   UNL     1      54.953  98.067  57.402  1.00  0.00     0.022 A 
ATOM     13  C   UNL     1      53.659  97.970  57.922  1.00  0.00     0.047 A 
ATOM     14  C   UNL     1      52.805  96.948  57.499  1.00  0.00     0.115 A 
ATOM     15  C   UNL     1      54.545  96.116  56.025  1.00  0.00     0.022 A 
ATOM     16  C   UNL     1      53.250  96.023  56.545  1.00  0.00     0.047 A 
BRANCH  14  17
ATOM     17  O   UNL     1      51.519  96.863  58.026  1.00  0.00    -0.508 OA
ATOM     18  H   UNL     1      50.976  97.692  58.235  1.00  0.00     0.293 HD
ENDBRANCH  14  17
ENDBRANCH   1  11
BRANCH  10  19
ATOM     19  O   UNL     1      57.616  95.358  57.175  1.00  0.00    -0.500 OA
ATOM     20  H   UNL     1      58.272  95.178  57.926  1.00  0.00     0.294 HD
ENDBRANCH  10  19
BRANCH   5  21
ATOM     21  O   UNL     1      59.764 100.894  52.169  1.00  0.00    -0.507 OA
ATOM     22  H   UNL     1      59.201 100.991  51.331  1.00  0.00     0.293 HD
ENDBRANCH   5  21
BRANCH   7  23
ATOM     23  O   UNL     1      61.682  97.082  54.366  1.00  0.00    -0.507 OA
ATOM     24  H   UNL     1      62.168  96.997  55.247  1.00  0.00     0.293 HD
ENDBRANCH   7  23
TORSDOF 5
ENDMDL
MODEL 9
REMARK VINA RESULT:    -4.956      6.517      8.786
REMARK INTER + INTRA:          -6.001
REMARK INTER:                  -5.698
REMARK INTRA:                  -0.303
REMARK UNBOUND:                -0.176
REMARK SMILES Oc1ccc(-c2[o+]c3cc(O)cc(O)c3cc2O)cc1
REMARK SMILES IDX 6 1 7 2 8 3 9 4 10 5 12 6 13 7 15 8 16 9 17 10 5 11 4 12
REMARK SMILES IDX 3 13 2 14 19 15 20 16 1 17 18 19 11 21 14 23
REMARK H PARENT 1 18 18 20 11 22 14 24
REMARK Flexibility Score: inf
ROOT
ATOM      1  C   UNL     1      52.873 112.765  50.362  1.00  0.00     0.401 A 
ATOM      2  O   UNL     1      51.752 112.257  50.870  1.00  0.00    -0.202 OA
ATOM      3  C   UNL     1      51.462 112.282  52.167  1.00  0.00     0.368 A 
ATOM      4  C   UNL     1      50.258 111.726  52.605  1.00  0.00     0.162 A 
ATOM      5  C   UNL     1      49.927 111.741  53.962  1.00  0.00     0.128 A 
ATOM      6  C   UNL     1      50.803 112.317  54.886  1.00  0.00     0.093 A 
ATOM      7  C   UNL     1      52.016 112.881  54.472  1.00  0.00     0.136 A 
ATOM      8  C   UNL     1      52.358 112.865  53.095  1.00  0.00     0.125 A 
ATOM      9  C   UNL     1      53.558 113.395  52.591  1.00  0.00     0.078 A 
ATOM     10  C   UNL     1      53.828 113.338  51.221  1.00  0.00     0.223 A 
ENDROOT
BRANCH   1  11
ATOM     11  C   UNL     1      53.076 112.684  48.898  1.00  0.00     0.084 A 
ATOM     12  C   UNL     1      53.803 111.609  48.358  1.00  0.00     0.022 A 
ATOM     13  C   UNL     1      53.989 111.501  46.977  1.00  0.00     0.047 A 
ATOM     14  C   UNL     1      53.439 112.456  46.116  1.00  0.00     0.115 A 
ATOM     15  C   UNL     1      52.509 113.630  48.025  1.00  0.00     0.022 A 
ATOM     16  C   UNL     1      52.695 113.519  46.643  1.00  0.00     0.047 A 
BRANCH  14  17
ATOM     17  O   UNL     1      53.633 112.337  44.742  1.00  0.00    -0.508 OA
ATOM     18  H   UNL     1      52.930 111.924  44.142  1.00  0.00     0.293 HD
ENDBRANCH  14  17
ENDBRANCH   1  11
BRANCH  10  19
ATOM     19  O   UNL     1      55.041 113.819  50.727  1.00  0.00    -0.500 OA
ATOM     20  H   UNL     1      55.824 113.203  50.545  1.00  0.00     0.294 HD
ENDBRANCH  10  19
BRANCH   5  21
ATOM     21  O   UNL     1      48.728 111.189  54.407  1.00  0.00    -0.507 OA
ATOM     22  H   UNL     1      48.580 110.186  54.422  1.00  0.00     0.293 HD
ENDBRANCH   5  21
BRANCH   7  23
ATOM     23  O   UNL     1      52.836 113.439  55.458  1.00  0.00    -0.507 OA
ATOM     24  H   UNL     1      53.669 113.977  55.269  1.00  0.00     0.293 HD
ENDBRANCH   7  23
TORSDOF 5
ENDMDL
