MODEL 1
REMARK VINA RESULT:    -4.937      0.000      0.000
REMARK INTER + INTRA:          -7.020
REMARK INTER:                  -6.380
REMARK INTRA:                  -0.640
REMARK UNBOUND:                -0.640
REMARK SMILES CO[C@]1(CO)O[C@H](CO)[C@@H](O)[C@@H]1O
REMARK SMILES IDX 3 1 12 2 10 3 7 4 6 5 2 6 1 7 4 8 5 9 13 11 11 13 8 15 9 16
REMARK H PARENT 5 10 13 12 11 14 9 17
REMARK Flexibility Score: inf
ROOT
ATOM      1  C   UNL     1       7.109   5.506  18.210  1.00  0.00     0.221 C 
ATOM      2  C   UNL     1       6.605   6.506  19.257  1.00  0.00     0.207 C 
ATOM      3  C   UNL     1       6.879   5.775  20.546  1.00  0.00     0.180 C 
ATOM      4  C   UNL     1       8.122   4.956  20.192  1.00  0.00     0.179 C 
ATOM      5  O   UNL     1       8.228   4.855  18.785  1.00  0.00    -0.337 OA
ENDROOT
BRANCH   1   6
ATOM      6  O   UNL     1       6.059   4.571  17.958  1.00  0.00    -0.349 OA
ATOM      7  C   UNL     1       6.470   3.456  17.193  1.00  0.00     0.198 C 
ENDBRANCH   1   6
BRANCH   1   8
ATOM      8  C   UNL     1       7.527   6.266  16.923  1.00  0.00     0.224 C 
BRANCH   8   9
ATOM      9  O   UNL     1       7.346   7.650  17.057  1.00  0.00    -0.391 OA
ATOM     10  H   UNL     1       7.575   8.057  16.180  1.00  0.00     0.210 HD
ENDBRANCH   8   9
ENDBRANCH   1   8
BRANCH   2  11
ATOM     11  O   UNL     1       5.235   6.778  19.097  1.00  0.00    -0.385 OA
ATOM     12  H   UNL     1       5.174   7.650  18.626  1.00  0.00     0.211 HD
ENDBRANCH   2  11
BRANCH   3  13
ATOM     13  O   UNL     1       7.151   6.667  21.594  1.00  0.00    -0.387 OA
ATOM     14  H   UNL     1       6.300   6.789  22.089  1.00  0.00     0.211 HD
ENDBRANCH   3  13
BRANCH   4  15
ATOM     15  C   UNL     1       8.081   3.557  20.812  1.00  0.00     0.191 C 
BRANCH  15  16
ATOM     16  O   UNL     1       6.825   2.978  20.590  1.00  0.00    -0.394 OA
ATOM     17  H   UNL     1       6.986   2.004  20.486  1.00  0.00     0.210 HD
ENDBRANCH  15  16
ENDBRANCH   4  15
TORSDOF 7
ENDMDL
MODEL 2
REMARK VINA RESULT:    -4.377      1.212      3.872
REMARK INTER + INTRA:          -6.295
REMARK INTER:                  -5.893
REMARK INTRA:                  -0.402
REMARK UNBOUND:                -0.640
REMARK SMILES CO[C@]1(CO)O[C@H](CO)[C@@H](O)[C@@H]1O
REMARK SMILES IDX 3 1 12 2 10 3 7 4 6 5 2 6 1 7 4 8 5 9 13 11 11 13 8 15 9 16
REMARK H PARENT 5 10 13 12 11 14 9 17
REMARK Flexibility Score: inf
ROOT
ATOM      1  C   UNL     1       7.662   4.768  19.403  1.00  0.00     0.221 C 
ATOM      2  C   UNL     1       6.369   5.560  19.634  1.00  0.00     0.207 C 
ATOM      3  C   UNL     1       6.446   6.606  18.552  1.00  0.00     0.180 C 
ATOM      4  C   UNL     1       7.202   5.869  17.445  1.00  0.00     0.179 C 
ATOM      5  O   UNL     1       7.883   4.762  18.004  1.00  0.00    -0.337 OA
ENDROOT
BRANCH   1   6
ATOM      6  O   UNL     1       8.719   5.454  20.076  1.00  0.00    -0.349 OA
ATOM      7  C   UNL     1       9.231   4.745  21.186  1.00  0.00     0.198 C 
ENDBRANCH   1   6
BRANCH   1   8
ATOM      8  C   UNL     1       7.486   3.319  19.931  1.00  0.00     0.224 C 
BRANCH   8   9
ATOM      9  O   UNL     1       6.136   3.009  20.152  1.00  0.00    -0.391 OA
ATOM     10  H   UNL     1       5.880   2.333  19.471  1.00  0.00     0.210 HD
ENDBRANCH   8   9
ENDBRANCH   1   8
BRANCH   2  11
ATOM     11  O   UNL     1       6.338   6.139  20.914  1.00  0.00    -0.385 OA
ATOM     12  H   UNL     1       5.485   5.852  21.332  1.00  0.00     0.211 HD
ENDBRANCH   2  11
BRANCH   3  13
ATOM     13  O   UNL     1       5.168   6.987  18.115  1.00  0.00    -0.387 OA
ATOM     14  H   UNL     1       4.855   7.692  18.739  1.00  0.00     0.211 HD
ENDBRANCH   3  13
BRANCH   4  15
ATOM     15  C   UNL     1       8.197   6.782  16.725  1.00  0.00     0.191 C 
BRANCH  15  16
ATOM     16  O   UNL     1       7.874   8.122  16.974  1.00  0.00    -0.394 OA
ATOM     17  H   UNL     1       6.971   8.115  17.384  1.00  0.00     0.210 HD
ENDBRANCH  15  16
ENDBRANCH   4  15
TORSDOF 7
ENDMDL
MODEL 3
REMARK VINA RESULT:    -4.266     13.886     15.562
REMARK INTER + INTRA:          -6.153
REMARK INTER:                  -5.728
REMARK INTRA:                  -0.425
REMARK UNBOUND:                -0.640
REMARK SMILES CO[C@]1(CO)O[C@H](CO)[C@@H](O)[C@@H]1O
REMARK SMILES IDX 3 1 12 2 10 3 7 4 6 5 2 6 1 7 4 8 5 9 13 11 11 13 8 15 9 16
REMARK H PARENT 5 10 13 12 11 14 9 17
REMARK Flexibility Score: inf
ROOT
ATOM      1  C   UNL     1      19.177  -3.849  24.170  1.00  0.00     0.221 C 
ATOM      2  C   UNL     1      19.220  -2.345  23.876  1.00  0.00     0.207 C 
ATOM      3  C   UNL     1      17.825  -1.914  24.245  1.00  0.00     0.180 C 
ATOM      4  C   UNL     1      17.472  -2.892  25.367  1.00  0.00     0.179 C 
ATOM      5  O   UNL     1      18.332  -4.012  25.295  1.00  0.00    -0.337 OA
ENDROOT
BRANCH   1   6
ATOM      6  O   UNL     1      18.623  -4.501  23.026  1.00  0.00    -0.349 OA
ATOM      7  C   UNL     1      19.371  -5.623  22.602  1.00  0.00     0.198 C 
ENDBRANCH   1   6
BRANCH   1   8
ATOM      8  C   UNL     1      20.609  -4.358  24.488  1.00  0.00     0.224 C 
BRANCH   8   9
ATOM      9  O   UNL     1      21.538  -3.309  24.518  1.00  0.00    -0.391 OA
ATOM     10  H   UNL     1      22.014  -3.320  23.647  1.00  0.00     0.210 HD
ENDBRANCH   8   9
ENDBRANCH   1   8
BRANCH   2  11
ATOM     11  O   UNL     1      19.501  -2.088  22.523  1.00  0.00    -0.385 OA
ATOM     12  H   UNL     1      19.340  -2.938  22.036  1.00  0.00     0.211 HD
ENDBRANCH   2  11
BRANCH   3  13
ATOM     13  O   UNL     1      17.802  -0.590  24.711  1.00  0.00    -0.387 OA
ATOM     14  H   UNL     1      17.268  -0.069  24.057  1.00  0.00     0.211 HD
ENDBRANCH   3  13
BRANCH   4  15
ATOM     15  C   UNL     1      16.013  -3.349  25.291  1.00  0.00     0.191 C 
BRANCH  15  16
ATOM     16  O   UNL     1      15.944  -4.736  25.475  1.00  0.00    -0.394 OA
ATOM     17  H   UNL     1      14.993  -4.985  25.334  1.00  0.00     0.210 HD
ENDBRANCH  15  16
ENDBRANCH   4  15
TORSDOF 7
ENDMDL
MODEL 4
REMARK VINA RESULT:    -4.193     14.154     16.037
REMARK INTER + INTRA:          -6.058
REMARK INTER:                  -5.479
REMARK INTRA:                  -0.579
REMARK UNBOUND:                -0.640
REMARK SMILES CO[C@]1(CO)O[C@H](CO)[C@@H](O)[C@@H]1O
REMARK SMILES IDX 3 1 12 2 10 3 7 4 6 5 2 6 1 7 4 8 5 9 13 11 11 13 8 15 9 16
REMARK H PARENT 5 10 13 12 11 14 9 17
REMARK Flexibility Score: inf
ROOT
ATOM      1  C   UNL     1      20.147  -3.719  22.449  1.00  0.00     0.221 C 
ATOM      2  C   UNL     1      20.145  -3.430  23.955  1.00  0.00     0.207 C 
ATOM      3  C   UNL     1      18.672  -3.339  24.254  1.00  0.00     0.180 C 
ATOM      4  C   UNL     1      18.076  -4.310  23.232  1.00  0.00     0.179 C 
ATOM      5  O   UNL     1      19.012  -4.527  22.195  1.00  0.00    -0.337 OA
ENDROOT
BRANCH   1   6
ATOM      6  O   UNL     1      20.038  -2.469  21.765  1.00  0.00    -0.349 OA
ATOM      7  C   UNL     1      20.740  -2.437  20.539  1.00  0.00     0.198 C 
ENDBRANCH   1   6
BRANCH   1   8
ATOM      8  C   UNL     1      21.448  -4.475  22.066  1.00  0.00     0.224 C 
BRANCH   8   9
ATOM      9  O   UNL     1      22.391  -4.444  23.103  1.00  0.00    -0.391 OA
ATOM     10  H   UNL     1      22.201  -3.631  23.641  1.00  0.00     0.210 HD
ENDBRANCH   8   9
ENDBRANCH   1   8
BRANCH   2  11
ATOM     11  O   UNL     1      20.810  -2.229  24.254  1.00  0.00    -0.385 OA
ATOM     12  H   UNL     1      21.578  -2.168  23.628  1.00  0.00     0.211 HD
ENDBRANCH   2  11
BRANCH   3  13
ATOM     13  O   UNL     1      18.387  -3.755  25.564  1.00  0.00    -0.387 OA
ATOM     14  H   UNL     1      18.632  -4.715  25.615  1.00  0.00     0.211 HD
ENDBRANCH   3  13
BRANCH   4  15
ATOM     15  C   UNL     1      16.761  -3.791  22.647  1.00  0.00     0.191 C 
BRANCH  15  16
ATOM     16  O   UNL     1      15.885  -3.447  23.685  1.00  0.00    -0.394 OA
ATOM     17  H   UNL     1      15.167  -2.902  23.270  1.00  0.00     0.210 HD
ENDBRANCH  15  16
ENDBRANCH   4  15
TORSDOF 7
ENDMDL
MODEL 5
REMARK VINA RESULT:    -4.174      8.390     10.747
REMARK INTER + INTRA:          -6.033
REMARK INTER:                  -5.377
REMARK INTRA:                  -0.656
REMARK UNBOUND:                -0.640
REMARK SMILES CO[C@]1(CO)O[C@H](CO)[C@@H](O)[C@@H]1O
REMARK SMILES IDX 3 1 12 2 10 3 7 4 6 5 2 6 1 7 4 8 5 9 13 11 11 13 8 15 9 16
REMARK H PARENT 5 10 13 12 11 14 9 17
REMARK Flexibility Score: inf
ROOT
ATOM      1  C   UNL     1       7.164  -0.710  12.151  1.00  0.00     0.221 C 
ATOM      2  C   UNL     1       6.118  -1.766  11.776  1.00  0.00     0.207 C 
ATOM      3  C   UNL     1       6.669  -2.305  10.481  1.00  0.00     0.180 C 
ATOM      4  C   UNL     1       8.177  -2.150  10.683  1.00  0.00     0.179 C 
ATOM      5  O   UNL     1       8.414  -1.212  11.714  1.00  0.00    -0.337 OA
ENDROOT
BRANCH   1   6
ATOM      6  O   UNL     1       6.836   0.495  11.456  1.00  0.00    -0.349 OA
ATOM      7  C   UNL     1       7.825   1.497  11.571  1.00  0.00     0.198 C 
ENDBRANCH   1   6
BRANCH   1   8
ATOM      8  C   UNL     1       7.169  -0.505  13.690  1.00  0.00     0.224 C 
BRANCH   8   9
ATOM      9  O   UNL     1       6.020  -1.042  14.288  1.00  0.00    -0.391 OA
ATOM     10  H   UNL     1       6.172  -2.020  14.378  1.00  0.00     0.210 HD
ENDBRANCH   8   9
ENDBRANCH   1   8
BRANCH   2  11
ATOM     11  O   UNL     1       4.845  -1.198  11.602  1.00  0.00    -0.385 OA
ATOM     12  H   UNL     1       4.653  -0.679  12.426  1.00  0.00     0.211 HD
ENDBRANCH   2  11
BRANCH   3  13
ATOM     13  O   UNL     1       6.325  -3.654  10.298  1.00  0.00    -0.387 OA
ATOM     14  H   UNL     1       7.025  -4.188  10.755  1.00  0.00     0.211 HD
ENDBRANCH   3  13
BRANCH   4  15
ATOM     15  C   UNL     1       8.885  -1.706   9.401  1.00  0.00     0.191 C 
BRANCH  15  16
ATOM     16  O   UNL     1       8.113  -0.736   8.748  1.00  0.00    -0.394 OA
ATOM     17  H   UNL     1       7.221  -0.758   9.181  1.00  0.00     0.210 HD
ENDBRANCH  15  16
ENDBRANCH   4  15
TORSDOF 7
ENDMDL
MODEL 6
REMARK VINA RESULT:    -4.148      1.869      4.103
REMARK INTER + INTRA:          -6.000
REMARK INTER:                  -5.587
REMARK INTRA:                  -0.414
REMARK UNBOUND:                -0.640
REMARK SMILES CO[C@]1(CO)O[C@H](CO)[C@@H](O)[C@@H]1O
REMARK SMILES IDX 3 1 12 2 10 3 7 4 6 5 2 6 1 7 4 8 5 9 13 11 11 13 8 15 9 16
REMARK H PARENT 5 10 13 12 11 14 9 17
REMARK Flexibility Score: inf
ROOT
ATOM      1  C   UNL     1       7.903   4.470  21.478  1.00  0.00     0.221 C 
ATOM      2  C   UNL     1       7.009   5.463  20.724  1.00  0.00     0.207 C 
ATOM      3  C   UNL     1       7.049   4.916  19.321  1.00  0.00     0.180 C 
ATOM      4  C   UNL     1       7.208   3.415  19.565  1.00  0.00     0.179 C 
ATOM      5  O   UNL     1       7.689   3.205  20.878  1.00  0.00    -0.337 OA
ENDROOT
BRANCH   1   6
ATOM      6  O   UNL     1       9.259   4.886  21.304  1.00  0.00    -0.349 OA
ATOM      7  C   UNL     1       9.893   5.253  22.513  1.00  0.00     0.198 C 
ENDBRANCH   1   6
BRANCH   1   8
ATOM      8  C   UNL     1       7.496   4.437  22.976  1.00  0.00     0.224 C 
BRANCH   8   9
ATOM      9  O   UNL     1       6.192   4.914  23.169  1.00  0.00    -0.391 OA
ATOM     10  H   UNL     1       6.089   5.715  22.592  1.00  0.00     0.210 HD
ENDBRANCH   8   9
ENDBRANCH   1   8
BRANCH   2  11
ATOM     11  O   UNL     1       7.519   6.771  20.786  1.00  0.00    -0.385 OA
ATOM     12  H   UNL     1       6.939   7.270  21.418  1.00  0.00     0.211 HD
ENDBRANCH   2  11
BRANCH   3  13
ATOM     13  O   UNL     1       5.857   5.186  18.631  1.00  0.00    -0.387 OA
ATOM     14  H   UNL     1       6.064   5.906  17.980  1.00  0.00     0.211 HD
ENDBRANCH   3  13
BRANCH   4  15
ATOM     15  C   UNL     1       8.157   2.767  18.554  1.00  0.00     0.191 C 
BRANCH  15  16
ATOM     16  O   UNL     1       8.110   3.472  17.344  1.00  0.00    -0.394 OA
ATOM     17  H   UNL     1       8.698   2.979  16.715  1.00  0.00     0.210 HD
ENDBRANCH  15  16
ENDBRANCH   4  15
TORSDOF 7
ENDMDL
MODEL 7
REMARK VINA RESULT:    -4.122      6.779      8.667
REMARK INTER + INTRA:          -5.966
REMARK INTER:                  -5.303
REMARK INTRA:                  -0.663
REMARK UNBOUND:                -0.640
REMARK SMILES CO[C@]1(CO)O[C@H](CO)[C@@H](O)[C@@H]1O
REMARK SMILES IDX 3 1 12 2 10 3 7 4 6 5 2 6 1 7 4 8 5 9 13 11 11 13 8 15 9 16
REMARK H PARENT 5 10 13 12 11 14 9 17
REMARK Flexibility Score: inf
ROOT
ATOM      1  C   UNL     1      11.161   4.884  11.336  1.00  0.00     0.221 C 
ATOM      2  C   UNL     1      11.405   6.352  10.966  1.00  0.00     0.207 C 
ATOM      3  C   UNL     1      10.464   7.069  11.899  1.00  0.00     0.180 C 
ATOM      4  C   UNL     1      10.446   6.141  13.114  1.00  0.00     0.179 C 
ATOM      5  O   UNL     1      10.903   4.860  12.728  1.00  0.00    -0.337 OA
ENDROOT
BRANCH   1   6
ATOM      6  O   UNL     1      10.019   4.434  10.605  1.00  0.00    -0.349 OA
ATOM      7  C   UNL     1       9.569   3.153  10.997  1.00  0.00     0.198 C 
ENDBRANCH   1   6
BRANCH   1   8
ATOM      8  C   UNL     1      12.425   4.047  11.004  1.00  0.00     0.224 C 
BRANCH   8   9
ATOM      9  O   UNL     1      13.349   4.781  10.246  1.00  0.00    -0.391 OA
ATOM     10  H   UNL     1      14.124   4.968  10.838  1.00  0.00     0.210 HD
ENDBRANCH   8   9
ENDBRANCH   1   8
BRANCH   2  11
ATOM     11  O   UNL     1      11.094   6.606   9.620  1.00  0.00    -0.385 OA
ATOM     12  H   UNL     1      10.520   7.416   9.611  1.00  0.00     0.211 HD
ENDBRANCH   2  11
BRANCH   3  13
ATOM     13  O   UNL     1      10.954   8.338  12.246  1.00  0.00    -0.387 OA
ATOM     14  H   UNL     1      10.822   8.919  11.453  1.00  0.00     0.211 HD
ENDBRANCH   3  13
BRANCH   4  15
ATOM     15  C   UNL     1       9.049   6.032  13.731  1.00  0.00     0.191 C 
BRANCH  15  16
ATOM     16  O   UNL     1       8.094   5.899  12.716  1.00  0.00    -0.394 OA
ATOM     17  H   UNL     1       7.224   6.152  13.122  1.00  0.00     0.210 HD
ENDBRANCH  15  16
ENDBRANCH   4  15
TORSDOF 7
ENDMDL
MODEL 8
REMARK VINA RESULT:    -4.089     13.952     15.648
REMARK INTER + INTRA:          -5.924
REMARK INTER:                  -5.325
REMARK INTRA:                  -0.599
REMARK UNBOUND:                -0.640
REMARK SMILES CO[C@]1(CO)O[C@H](CO)[C@@H](O)[C@@H]1O
REMARK SMILES IDX 3 1 12 2 10 3 7 4 6 5 2 6 1 7 4 8 5 9 13 11 11 13 8 15 9 16
REMARK H PARENT 5 10 13 12 11 14 9 17
REMARK Flexibility Score: inf
ROOT
ATOM      1  C   UNL     1      19.485  -3.533  23.322  1.00  0.00     0.221 C 
ATOM      2  C   UNL     1      18.415  -3.944  22.304  1.00  0.00     0.207 C 
ATOM      3  C   UNL     1      17.183  -4.037  23.166  1.00  0.00     0.180 C 
ATOM      4  C   UNL     1      17.457  -2.977  24.234  1.00  0.00     0.179 C 
ATOM      5  O   UNL     1      18.842  -2.691  24.261  1.00  0.00    -0.337 OA
ENDROOT
BRANCH   1   6
ATOM      6  O   UNL     1      19.962  -4.721  23.956  1.00  0.00    -0.349 OA
ATOM      7  C   UNL     1      21.198  -4.547  24.619  1.00  0.00     0.198 C 
ENDBRANCH   1   6
BRANCH   1   8
ATOM      8  C   UNL     1      20.625  -2.768  22.598  1.00  0.00     0.224 C 
BRANCH   8   9
ATOM      9  O   UNL     1      20.826  -3.246  21.295  1.00  0.00    -0.391 OA
ATOM     10  H   UNL     1      21.435  -2.606  20.843  1.00  0.00     0.210 HD
ENDBRANCH   8   9
ENDBRANCH   1   8
BRANCH   2  11
ATOM     11  O   UNL     1      18.719  -5.175  21.699  1.00  0.00    -0.385 OA
ATOM     12  H   UNL     1      18.087  -5.840  22.079  1.00  0.00     0.211 HD
ENDBRANCH   2  11
BRANCH   3  13
ATOM     13  O   UNL     1      16.023  -3.726  22.440  1.00  0.00    -0.387 OA
ATOM     14  H   UNL     1      15.745  -2.818  22.727  1.00  0.00     0.211 HD
ENDBRANCH   3  13
BRANCH   4  15
ATOM     15  C   UNL     1      16.992  -3.428  25.621  1.00  0.00     0.191 C 
BRANCH  15  16
ATOM     16  O   UNL     1      16.016  -4.424  25.491  1.00  0.00    -0.394 OA
ATOM     17  H   UNL     1      16.417  -5.130  24.921  1.00  0.00     0.210 HD
ENDBRANCH  15  16
ENDBRANCH   4  15
TORSDOF 7
ENDMDL
