MODEL 1
REMARK VINA RESULT:    12.897      0.000      0.000
REMARK INTER + INTRA:          34.184
REMARK INTER:                  32.501
REMARK INTRA:                   1.683
REMARK UNBOUND:                 1.683
REMARK SMILES CCCCCCCCCCCCCCCCCCCCCCCCCCCC(=O)[O-]
REMARK SMILES IDX 15 1 16 2 17 3 18 4 19 5 20 6 21 7 22 8 23 9 24 10 25 11
REMARK SMILES IDX 26 12 27 13 28 14 29 15 30 16 14 17 13 18 12 19 11 20 10 21
REMARK SMILES IDX 9 22 8 23 7 24 6 25 5 26 4 27 3 28 2 29 1 30
REMARK H PARENT
REMARK Flexibility Score: inf
ROOT
ATOM      1  C   UNL     1     -28.143 -19.306 -19.625  1.00  0.00     0.000 C 
ENDROOT
BRANCH   1   2
ATOM      2  C   UNL     1     -29.102 -20.445 -20.017  1.00  0.00     0.000 C 
BRANCH   2   3
ATOM      3  C   UNL     1     -29.035 -20.790 -21.509  1.00  0.00     0.000 C 
BRANCH   3   4
ATOM      4  C   UNL     1     -27.747 -21.561 -21.838  1.00  0.00     0.000 C 
BRANCH   4   5
ATOM      5  C   UNL     1     -27.420 -21.541 -23.344  1.00  0.00     0.000 C 
BRANCH   5   6
ATOM      6  C   UNL     1     -28.653 -21.352 -24.254  1.00  0.00     0.000 C 
BRANCH   6   7
ATOM      7  C   UNL     1     -28.980 -19.892 -24.628  1.00  0.00     0.000 C 
BRANCH   7   8
ATOM      8  C   UNL     1     -29.698 -19.745 -25.982  1.00  0.00     0.000 C 
BRANCH   8   9
ATOM      9  C   UNL     1     -30.285 -21.081 -26.495  1.00  0.00     0.000 C 
BRANCH   9  10
ATOM     10  C   UNL     1     -31.198 -21.759 -25.460  1.00  0.00     0.000 C 
BRANCH  10  11
ATOM     11  C   UNL     1     -31.496 -20.827 -24.271  1.00  0.00     0.000 C 
BRANCH  11  12
ATOM     12  C   UNL     1     -31.951 -21.583 -23.009  1.00  0.00     0.006 C 
BRANCH  12  13
ATOM     13  C   UNL     1     -32.670 -20.708 -21.966  1.00  0.00     0.053 C 
BRANCH  13  14
ATOM     14  C   UNL     1     -32.589 -19.242 -22.280  1.00  0.00     0.041 C 
ATOM     15  O   UNL     1     -32.280 -18.413 -21.380  1.00  0.00    -0.550 OA
ATOM     16  O   UNL     1     -32.859 -18.792 -23.568  1.00  0.00    -0.550 OA
ENDBRANCH  13  14
ENDBRANCH  12  13
ENDBRANCH  11  12
ENDBRANCH  10  11
ENDBRANCH   9  10
ENDBRANCH   8   9
ENDBRANCH   7   8
ENDBRANCH   6   7
ENDBRANCH   5   6
ENDBRANCH   4   5
ENDBRANCH   3   4
ENDBRANCH   2   3
ENDBRANCH   1   2
BRANCH   1  17
ATOM     17  C   UNL     1     -26.926 -19.735 -18.776  1.00  0.00     0.000 C 
BRANCH  17  18
ATOM     18  C   UNL     1     -26.528 -21.223 -18.889  1.00  0.00     0.000 C 
BRANCH  18  19
ATOM     19  C   UNL     1     -26.760 -22.055 -17.613  1.00  0.00     0.000 C 
BRANCH  19  20
ATOM     20  C   UNL     1     -28.242 -22.123 -17.206  1.00  0.00     0.000 C 
BRANCH  20  21
ATOM     21  C   UNL     1     -28.449 -22.035 -15.684  1.00  0.00     0.000 C 
BRANCH  21  22
ATOM     22  C   UNL     1     -29.411 -20.907 -15.272  1.00  0.00    -0.000 C 
BRANCH  22  23
ATOM     23  C   UNL     1     -30.704 -21.435 -14.626  1.00  0.00    -0.000 C 
BRANCH  23  24
ATOM     24  C   UNL     1     -31.521 -20.387 -13.842  1.00  0.00    -0.000 C 
BRANCH  24  25
ATOM     25  C   UNL     1     -30.730 -19.141 -13.403  1.00  0.00    -0.000 C 
BRANCH  25  26
ATOM     26  C   UNL     1     -30.167 -19.263 -11.976  1.00  0.00    -0.000 C 
BRANCH  26  27
ATOM     27  C   UNL     1     -28.819 -18.540 -11.800  1.00  0.00    -0.000 C 
BRANCH  27  28
ATOM     28  C   UNL     1     -28.797 -17.084 -12.299  1.00  0.00    -0.000 C 
BRANCH  28  29
ATOM     29  C   UNL     1     -30.157 -16.382 -12.165  1.00  0.00    -0.003 C 
ATOM     30  C   UNL     1     -29.990 -14.955 -11.650  1.00  0.00     0.004 C 
ENDBRANCH  28  29
ENDBRANCH  27  28
ENDBRANCH  26  27
ENDBRANCH  25  26
ENDBRANCH  24  25
ENDBRANCH  23  24
ENDBRANCH  22  23
ENDBRANCH  21  22
ENDBRANCH  20  21
ENDBRANCH  19  20
ENDBRANCH  18  19
ENDBRANCH  17  18
ENDBRANCH   1  17
TORSDOF 26
ENDMDL
MODEL 2
REMARK VINA RESULT:    14.389      3.489     10.584
REMARK INTER + INTRA:          37.942
REMARK INTER:                  38.469
REMARK INTRA:                  -0.528
REMARK UNBOUND:                 1.683
REMARK SMILES CCCCCCCCCCCCCCCCCCCCCCCCCCCC(=O)[O-]
REMARK SMILES IDX 15 1 16 2 17 3 18 4 19 5 20 6 21 7 22 8 23 9 24 10 25 11
REMARK SMILES IDX 26 12 27 13 28 14 29 15 30 16 14 17 13 18 12 19 11 20 10 21
REMARK SMILES IDX 9 22 8 23 7 24 6 25 5 26 4 27 3 28 2 29 1 30
REMARK H PARENT
REMARK Flexibility Score: inf
ROOT
ATOM      1  C   UNL     1     -28.288 -20.640 -19.613  1.00  0.00     0.000 C 
ENDROOT
BRANCH   1   2
ATOM      2  C   UNL     1     -28.336 -20.710 -18.076  1.00  0.00     0.000 C 
BRANCH   2   3
ATOM      3  C   UNL     1     -28.695 -22.107 -17.555  1.00  0.00     0.000 C 
BRANCH   3   4
ATOM      4  C   UNL     1     -30.112 -22.124 -16.962  1.00  0.00     0.000 C 
BRANCH   4   5
ATOM      5  C   UNL     1     -30.111 -21.900 -15.436  1.00  0.00     0.000 C 
BRANCH   5   6
ATOM      6  C   UNL     1     -31.439 -21.344 -14.881  1.00  0.00     0.000 C 
BRANCH   6   7
ATOM      7  C   UNL     1     -31.301 -20.353 -13.707  1.00  0.00     0.000 C 
BRANCH   7   8
ATOM      8  C   UNL     1     -29.860 -20.203 -13.189  1.00  0.00     0.000 C 
BRANCH   8   9
ATOM      9  C   UNL     1     -29.742 -19.178 -12.037  1.00  0.00     0.000 C 
BRANCH   9  10
ATOM     10  C   UNL     1     -29.126 -17.846 -12.494  1.00  0.00     0.000 C 
BRANCH  10  11
ATOM     11  C   UNL     1     -29.173 -16.787 -11.378  1.00  0.00     0.000 C 
BRANCH  11  12
ATOM     12  C   UNL     1     -29.111 -15.343 -11.910  1.00  0.00     0.006 C 
BRANCH  12  13
ATOM     13  C   UNL     1     -28.808 -14.281 -10.837  1.00  0.00     0.053 C 
BRANCH  13  14
ATOM     14  C   UNL     1     -27.464 -13.637 -11.018  1.00  0.00     0.041 C 
ATOM     15  O   UNL     1     -27.118 -13.189 -12.147  1.00  0.00    -0.550 OA
ATOM     16  O   UNL     1     -26.592 -13.535  -9.940  1.00  0.00    -0.550 OA
ENDBRANCH  13  14
ENDBRANCH  12  13
ENDBRANCH  11  12
ENDBRANCH  10  11
ENDBRANCH   9  10
ENDBRANCH   8   9
ENDBRANCH   7   8
ENDBRANCH   6   7
ENDBRANCH   5   6
ENDBRANCH   4   5
ENDBRANCH   3   4
ENDBRANCH   2   3
ENDBRANCH   1   2
BRANCH   1  17
ATOM     17  C   UNL     1     -28.126 -22.000 -20.327  1.00  0.00     0.000 C 
BRANCH  17  18
ATOM     18  C   UNL     1     -28.608 -22.044 -21.793  1.00  0.00     0.000 C 
BRANCH  18  19
ATOM     19  C   UNL     1     -27.717 -21.282 -22.792  1.00  0.00     0.000 C 
BRANCH  19  20
ATOM     20  C   UNL     1     -28.264 -21.320 -24.230  1.00  0.00     0.000 C 
BRANCH  20  21
ATOM     21  C   UNL     1     -29.195 -20.137 -24.545  1.00  0.00     0.000 C 
BRANCH  21  22
ATOM     22  C   UNL     1     -29.644 -20.101 -26.016  1.00  0.00    -0.000 C 
BRANCH  22  23
ATOM     23  C   UNL     1     -30.121 -21.473 -26.526  1.00  0.00    -0.000 C 
BRANCH  23  24
ATOM     24  C   UNL     1     -31.252 -22.122 -25.702  1.00  0.00    -0.000 C 
BRANCH  24  25
ATOM     25  C   UNL     1     -31.816 -21.245 -24.568  1.00  0.00    -0.000 C 
BRANCH  25  26
ATOM     26  C   UNL     1     -31.497 -21.800 -23.169  1.00  0.00    -0.000 C 
BRANCH  26  27
ATOM     27  C   UNL     1     -32.069 -20.929 -22.035  1.00  0.00    -0.000 C 
BRANCH  27  28
ATOM     28  C   UNL     1     -32.988 -19.784 -22.498  1.00  0.00    -0.000 C 
BRANCH  28  29
ATOM     29  C   UNL     1     -32.723 -18.464 -21.757  1.00  0.00    -0.003 C 
ATOM     30  C   UNL     1     -32.822 -17.273 -22.707  1.00  0.00     0.004 C 
ENDBRANCH  28  29
ENDBRANCH  27  28
ENDBRANCH  26  27
ENDBRANCH  25  26
ENDBRANCH  24  25
ENDBRANCH  23  24
ENDBRANCH  22  23
ENDBRANCH  21  22
ENDBRANCH  20  21
ENDBRANCH  19  20
ENDBRANCH  18  19
ENDBRANCH  17  18
ENDBRANCH   1  17
TORSDOF 26
ENDMDL
