MODEL 1
REMARK VINA RESULT:    -3.620      0.000      0.000
REMARK INTER + INTRA:          -4.324
REMARK INTER:                  -4.255
REMARK INTRA:                  -0.069
REMARK UNBOUND:                -0.069
REMARK SMILES O=C([O-])CCC(=O)[O-]
REMARK SMILES IDX 4 1 2 2 1 3 3 4 5 5 6 6 7 7 8 8
REMARK H PARENT
REMARK Flexibility Score: inf
ROOT
ATOM      1  C   UNL     1      23.196   6.157  15.142  1.00  0.00     0.059 C 
ENDROOT
BRANCH   1   2
ATOM      2  C   UNL     1      22.098   7.118  15.469  1.00  0.00     0.042 C 
ATOM      3  O   UNL     1      20.967   6.692  15.825  1.00  0.00    -0.550 OA
ATOM      4  O   UNL     1      22.336   8.486  15.429  1.00  0.00    -0.550 OA
ENDBRANCH   1   2
BRANCH   1   5
ATOM      5  C   UNL     1      24.483   6.910  14.805  1.00  0.00     0.059 C 
BRANCH   5   6
ATOM      6  C   UNL     1      25.627   6.378  15.609  1.00  0.00     0.042 C 
ATOM      7  O   UNL     1      25.459   5.392  16.375  1.00  0.00    -0.550 OA
ATOM      8  O   UNL     1      26.867   7.002  15.552  1.00  0.00    -0.550 OA
ENDBRANCH   5   6
ENDBRANCH   1   5
TORSDOF 3
ENDMDL
MODEL 2
REMARK VINA RESULT:    -3.619      0.332      3.984
REMARK INTER + INTRA:          -4.322
REMARK INTER:                  -4.248
REMARK INTRA:                  -0.074
REMARK UNBOUND:                -0.069
REMARK SMILES O=C([O-])CCC(=O)[O-]
REMARK SMILES IDX 4 1 2 2 1 3 3 4 5 5 6 6 7 7 8 8
REMARK H PARENT
REMARK Flexibility Score: inf
ROOT
ATOM      1  C   UNL     1      24.559   7.201  14.795  1.00  0.00     0.059 C 
ENDROOT
BRANCH   1   2
ATOM      2  C   UNL     1      25.533   6.352  15.548  1.00  0.00     0.042 C 
ATOM      3  O   UNL     1      26.751   6.670  15.590  1.00  0.00    -0.550 OA
ATOM      4  O   UNL     1      25.089   5.236  16.246  1.00  0.00    -0.550 OA
ENDBRANCH   1   2
BRANCH   1   5
ATOM      5  C   UNL     1      23.197   6.511  14.715  1.00  0.00     0.059 C 
BRANCH   5   6
ATOM      6  C   UNL     1      22.162   7.311  15.440  1.00  0.00     0.042 C 
ATOM      7  O   UNL     1      21.182   6.735  15.983  1.00  0.00    -0.550 OA
ATOM      8  O   UNL     1      22.250   8.697  15.472  1.00  0.00    -0.550 OA
ENDBRANCH   5   6
ENDBRANCH   1   5
TORSDOF 3
ENDMDL
MODEL 3
REMARK VINA RESULT:    -3.595      0.330      1.186
REMARK INTER + INTRA:          -4.294
REMARK INTER:                  -4.216
REMARK INTRA:                  -0.078
REMARK UNBOUND:                -0.069
REMARK SMILES O=C([O-])CCC(=O)[O-]
REMARK SMILES IDX 4 1 2 2 1 3 3 4 5 5 6 6 7 7 8 8
REMARK H PARENT
REMARK Flexibility Score: inf
ROOT
ATOM      1  C   UNL     1      23.235   6.477  14.741  1.00  0.00     0.059 C 
ENDROOT
BRANCH   1   2
ATOM      2  C   UNL     1      22.203   7.293  15.452  1.00  0.00     0.042 C 
ATOM      3  O   UNL     1      21.271   6.726  16.083  1.00  0.00    -0.550 OA
ATOM      4  O   UNL     1      22.297   8.678  15.462  1.00  0.00    -0.550 OA
ENDBRANCH   1   2
BRANCH   1   5
ATOM      5  C   UNL     1      24.597   7.168  14.798  1.00  0.00     0.059 C 
BRANCH   5   6
ATOM      6  C   UNL     1      25.565   6.352  15.594  1.00  0.00     0.042 C 
ATOM      7  O   UNL     1      26.791   6.642  15.590  1.00  0.00    -0.550 OA
ATOM      8  O   UNL     1      25.123   5.241  16.300  1.00  0.00    -0.550 OA
ENDBRANCH   5   6
ENDBRANCH   1   5
TORSDOF 3
ENDMDL
MODEL 4
REMARK VINA RESULT:    -2.888      2.136      4.264
REMARK INTER + INTRA:          -3.463
REMARK INTER:                  -3.428
REMARK INTRA:                  -0.035
REMARK UNBOUND:                -0.069
REMARK SMILES O=C([O-])CCC(=O)[O-]
REMARK SMILES IDX 4 1 2 2 1 3 3 4 5 5 6 6 7 7 8 8
REMARK H PARENT
REMARK Flexibility Score: inf
ROOT
ATOM      1  C   UNL     1      23.046   7.717  15.302  1.00  0.00     0.059 C 
ENDROOT
BRANCH   1   2
ATOM      2  C   UNL     1      24.074   6.658  15.062  1.00  0.00     0.042 C 
ATOM      3  O   UNL     1      25.295   6.963  14.999  1.00  0.00    -0.550 OA
ATOM      4  O   UNL     1      23.691   5.327  14.959  1.00  0.00    -0.550 OA
ENDBRANCH   1   2
BRANCH   1   5
ATOM      5  C   UNL     1      23.625   9.101  15.012  1.00  0.00     0.059 C 
BRANCH   5   6
ATOM      6  C   UNL     1      22.683  10.170  15.469  1.00  0.00     0.042 C 
ATOM      7  O   UNL     1      23.090  11.093  16.223  1.00  0.00    -0.550 OA
ATOM      8  O   UNL     1      21.344  10.119  15.103  1.00  0.00    -0.550 OA
ENDBRANCH   5   6
ENDBRANCH   1   5
TORSDOF 3
ENDMDL
MODEL 5
REMARK VINA RESULT:    -2.829      1.687      2.379
REMARK INTER + INTRA:          -3.394
REMARK INTER:                  -3.363
REMARK INTRA:                  -0.031
REMARK UNBOUND:                -0.069
REMARK SMILES O=C([O-])CCC(=O)[O-]
REMARK SMILES IDX 4 1 2 2 1 3 3 4 5 5 6 6 7 7 8 8
REMARK H PARENT
REMARK Flexibility Score: inf
ROOT
ATOM      1  C   UNL     1      21.716   6.926  15.743  1.00  0.00     0.059 C 
ENDROOT
BRANCH   1   2
ATOM      2  C   UNL     1      20.699   6.472  16.741  1.00  0.00     0.042 C 
ATOM      3  O   UNL     1      19.517   6.233  16.377  1.00  0.00    -0.550 OA
ATOM      4  O   UNL     1      21.068   6.262  18.063  1.00  0.00    -0.550 OA
ENDBRANCH   1   2
BRANCH   1   5
ATOM      5  C   UNL     1      22.953   6.030  15.793  1.00  0.00     0.059 C 
BRANCH   5   6
ATOM      6  C   UNL     1      24.025   6.566  14.898  1.00  0.00     0.042 C 
ATOM      7  O   UNL     1      23.748   6.926  13.723  1.00  0.00    -0.550 OA
ATOM      8  O   UNL     1      25.340   6.620  15.343  1.00  0.00    -0.550 OA
ENDBRANCH   5   6
ENDBRANCH   1   5
TORSDOF 3
ENDMDL
MODEL 6
REMARK VINA RESULT:    -2.805      1.942      3.481
REMARK INTER + INTRA:          -3.366
REMARK INTER:                  -3.307
REMARK INTRA:                  -0.059
REMARK UNBOUND:                -0.069
REMARK SMILES O=C([O-])CCC(=O)[O-]
REMARK SMILES IDX 4 1 2 2 1 3 3 4 5 5 6 6 7 7 8 8
REMARK H PARENT
REMARK Flexibility Score: inf
ROOT
ATOM      1  C   UNL     1      25.414   6.663  15.024  1.00  0.00     0.059 C 
ENDROOT
BRANCH   1   2
ATOM      2  C   UNL     1      25.190   5.681  16.130  1.00  0.00     0.042 C 
ATOM      3  O   UNL     1      24.138   4.989  16.160  1.00  0.00    -0.550 OA
ATOM      4  O   UNL     1      26.166   5.493  17.101  1.00  0.00    -0.550 OA
ENDBRANCH   1   2
BRANCH   1   5
ATOM      5  C   UNL     1      24.140   7.463  14.752  1.00  0.00     0.059 C 
BRANCH   5   6
ATOM      6  C   UNL     1      24.354   8.910  15.066  1.00  0.00     0.042 C 
ATOM      7  O   UNL     1      23.369   9.660  15.301  1.00  0.00    -0.550 OA
ATOM      8  O   UNL     1      25.636   9.443  15.049  1.00  0.00    -0.550 OA
ENDBRANCH   5   6
ENDBRANCH   1   5
TORSDOF 3
ENDMDL
MODEL 7
REMARK VINA RESULT:    -2.654      1.663      4.260
REMARK INTER + INTRA:          -3.188
REMARK INTER:                  -3.145
REMARK INTRA:                  -0.044
REMARK UNBOUND:                -0.069
REMARK SMILES O=C([O-])CCC(=O)[O-]
REMARK SMILES IDX 4 1 2 2 1 3 3 4 5 5 6 6 7 7 8 8
REMARK H PARENT
REMARK Flexibility Score: inf
ROOT
ATOM      1  C   UNL     1      26.555   6.720  15.545  1.00  0.00     0.059 C 
ENDROOT
BRANCH   1   2
ATOM      2  C   UNL     1      27.465   7.906  15.593  1.00  0.00     0.042 C 
ATOM      3  O   UNL     1      28.715   7.745  15.597  1.00  0.00    -0.550 OA
ATOM      4  O   UNL     1      26.936   9.190  15.584  1.00  0.00    -0.550 OA
ENDBRANCH   1   2
BRANCH   1   5
ATOM      5  C   UNL     1      25.167   7.131  15.052  1.00  0.00     0.059 C 
BRANCH   5   6
ATOM      6  C   UNL     1      24.144   6.122  15.468  1.00  0.00     0.042 C 
ATOM      7  O   UNL     1      24.498   5.064  16.053  1.00  0.00    -0.550 OA
ATOM      8  O   UNL     1      22.804   6.326  15.164  1.00  0.00    -0.550 OA
ENDBRANCH   5   6
ENDBRANCH   1   5
TORSDOF 3
ENDMDL
MODEL 8
REMARK VINA RESULT:    -2.582      1.841      3.876
REMARK INTER + INTRA:          -3.104
REMARK INTER:                  -3.023
REMARK INTRA:                  -0.081
REMARK UNBOUND:                -0.069
REMARK SMILES O=C([O-])CCC(=O)[O-]
REMARK SMILES IDX 4 1 2 2 1 3 3 4 5 5 6 6 7 7 8 8
REMARK H PARENT
REMARK Flexibility Score: inf
ROOT
ATOM      1  C   UNL     1      25.272   5.592  16.270  1.00  0.00     0.059 C 
ENDROOT
BRANCH   1   2
ATOM      2  C   UNL     1      25.049   5.226  17.703  1.00  0.00     0.042 C 
ATOM      3  O   UNL     1      26.006   5.256  18.521  1.00  0.00    -0.550 OA
ATOM      4  O   UNL     1      23.773   4.902  18.147  1.00  0.00    -0.550 OA
ENDBRANCH   1   2
BRANCH   1   5
ATOM      5  C   UNL     1      23.970   5.474  15.478  1.00  0.00     0.059 C 
BRANCH   5   6
ATOM      6  C   UNL     1      23.488   6.825  15.057  1.00  0.00     0.042 C 
ATOM      7  O   UNL     1      24.308   7.695  14.657  1.00  0.00    -0.550 OA
ATOM      8  O   UNL     1      22.140   7.144  15.152  1.00  0.00    -0.550 OA
ENDBRANCH   5   6
ENDBRANCH   1   5
TORSDOF 3
ENDMDL
MODEL 9
REMARK VINA RESULT:    -2.558      2.622      4.679
REMARK INTER + INTRA:          -3.076
REMARK INTER:                  -3.043
REMARK INTRA:                  -0.033
REMARK UNBOUND:                -0.069
REMARK SMILES O=C([O-])CCC(=O)[O-]
REMARK SMILES IDX 4 1 2 2 1 3 3 4 5 5 6 6 7 7 8 8
REMARK H PARENT
REMARK Flexibility Score: inf
ROOT
ATOM      1  C   UNL     1      20.962   6.748  15.971  1.00  0.00     0.059 C 
ENDROOT
BRANCH   1   2
ATOM      2  C   UNL     1      22.112   7.533  15.425  1.00  0.00     0.042 C 
ATOM      3  O   UNL     1      23.042   6.950  14.808  1.00  0.00    -0.550 OA
ATOM      4  O   UNL     1      22.132   8.916  15.552  1.00  0.00    -0.550 OA
ENDBRANCH   1   2
BRANCH   1   5
ATOM      5  C   UNL     1      21.246   6.313  17.409  1.00  0.00     0.059 C 
BRANCH   5   6
ATOM      6  C   UNL     1      19.987   5.860  18.077  1.00  0.00     0.042 C 
ATOM      7  O   UNL     1      20.039   5.220  19.162  1.00  0.00    -0.550 OA
ATOM      8  O   UNL     1      18.757   6.098  17.478  1.00  0.00    -0.550 OA
ENDBRANCH   5   6
ENDBRANCH   1   5
TORSDOF 3
ENDMDL
