MODEL 1
REMARK VINA RESULT:    -4.453      0.000      0.000
REMARK INTER + INTRA:          -8.044
REMARK INTER:                  -6.796
REMARK INTRA:                  -1.248
REMARK UNBOUND:                -1.248
REMARK SMILES OC[C@@H]1O[C@@](CO)(O[C@H]2O[C@H](CO)[C@@H](O)[C@H](O)[C@@H]2O)[C@H](O)[C@H]1O
REMARK SMILES IDX 8 1 9 2 11 3 14 4 10 5 16 6 18 7 12 8 13 9 15 11 17 13 19 15
REMARK SMILES IDX 5 17 20 18 4 19 22 20 3 21 6 22 7 23 21 25 23 27 2 29 1 30
REMARK H PARENT 13 10 15 12 17 14 19 16 7 24 21 26 23 28 1 31
REMARK Flexibility Score: inf
ROOT
ATOM      1  O   UNL     1      30.507  28.199  24.304  1.00  0.00    -0.313 OA
ENDROOT
BRANCH   1   2
ATOM      2  C   UNL     1      29.424  27.672  23.538  1.00  0.00     0.285 C 
ATOM      3  C   UNL     1      28.689  25.961  22.078  1.00  0.00     0.178 C 
ATOM      4  C   UNL     1      27.229  26.261  22.541  1.00  0.00     0.177 C 
ATOM      5  O   UNL     1      29.676  26.375  23.015  1.00  0.00    -0.341 OA
ATOM      6  C   UNL     1      27.205  26.514  24.054  1.00  0.00     0.179 C 
ATOM      7  C   UNL     1      28.143  27.693  24.407  1.00  0.00     0.202 C 
BRANCH   3   8
ATOM      8  C   UNL     1      29.000  26.525  20.677  1.00  0.00     0.191 C 
BRANCH   8   9
ATOM      9  O   UNL     1      27.929  26.283  19.803  1.00  0.00    -0.394 OA
ATOM     10  H   UNL     1      27.469  27.153  19.668  1.00  0.00     0.210 HD
ENDBRANCH   8   9
ENDBRANCH   3   8
BRANCH   4  11
ATOM     11  O   UNL     1      26.387  25.180  22.240  1.00  0.00    -0.387 OA
ATOM     12  H   UNL     1      25.512  25.367  22.667  1.00  0.00     0.211 HD
ENDBRANCH   4  11
BRANCH   6  13
ATOM     13  O   UNL     1      25.889  26.782  24.463  1.00  0.00    -0.387 OA
ATOM     14  H   UNL     1      25.894  26.770  25.455  1.00  0.00     0.211 HD
ENDBRANCH   6  13
BRANCH   7  15
ATOM     15  O   UNL     1      27.486  28.923  24.212  1.00  0.00    -0.385 OA
ATOM     16  H   UNL     1      26.696  28.748  23.636  1.00  0.00     0.211 HD
ENDBRANCH   7  15
ENDBRANCH   1   2
BRANCH   1  17
ATOM     17  C   UNL     1      30.829  29.580  24.137  1.00  0.00     0.224 C 
ATOM     18  C   UNL     1      30.941  29.991  22.651  1.00  0.00     0.208 C 
ATOM     19  O   UNL     1      29.858  30.410  24.750  1.00  0.00    -0.337 OA
ATOM     20  C   UNL     1      30.584  31.452  22.698  1.00  0.00     0.180 C 
ATOM     21  C   UNL     1      29.657  31.538  23.918  1.00  0.00     0.179 C 
BRANCH  17  22
ATOM     22  C   UNL     1      32.161  29.812  24.886  1.00  0.00     0.225 C 
BRANCH  22  23
ATOM     23  O   UNL     1      33.020  28.714  24.713  1.00  0.00    -0.391 OA
ATOM     24  H   UNL     1      33.824  29.047  24.236  1.00  0.00     0.210 HD
ENDBRANCH  22  23
ENDBRANCH  17  22
BRANCH  18  25
ATOM     25  O   UNL     1      32.228  29.807  22.119  1.00  0.00    -0.385 OA
ATOM     26  H   UNL     1      32.771  30.578  22.427  1.00  0.00     0.211 HD
ENDBRANCH  18  25
BRANCH  20  27
ATOM     27  O   UNL     1      29.924  31.839  21.520  1.00  0.00    -0.387 OA
ATOM     28  H   UNL     1      29.473  31.029  21.170  1.00  0.00     0.211 HD
ENDBRANCH  20  27
BRANCH  21  29
ATOM     29  C   UNL     1      29.887  32.821  24.720  1.00  0.00     0.191 C 
BRANCH  29  30
ATOM     30  O   UNL     1      31.257  32.982  24.974  1.00  0.00    -0.394 OA
ATOM     31  H   UNL     1      31.435  33.957  24.911  1.00  0.00     0.210 HD
ENDBRANCH  29  30
ENDBRANCH  21  29
ENDBRANCH   1  17
TORSDOF 13
ENDMDL
MODEL 2
REMARK VINA RESULT:    -4.287      1.796      6.491
REMARK INTER + INTRA:          -7.790
REMARK INTER:                  -6.459
REMARK INTRA:                  -1.331
REMARK UNBOUND:                -1.248
REMARK SMILES OC[C@@H]1O[C@@](CO)(O[C@H]2O[C@H](CO)[C@@H](O)[C@H](O)[C@@H]2O)[C@H](O)[C@H]1O
REMARK SMILES IDX 8 1 9 2 11 3 14 4 10 5 16 6 18 7 12 8 13 9 15 11 17 13 19 15
REMARK SMILES IDX 5 17 20 18 4 19 22 20 3 21 6 22 7 23 21 25 23 27 2 29 1 30
REMARK H PARENT 13 10 15 12 17 14 19 16 7 24 21 26 23 28 1 31
REMARK Flexibility Score: inf
ROOT
ATOM      1  O   UNL     1      28.381  26.620  24.346  1.00  0.00    -0.313 OA
ENDROOT
BRANCH   1   2
ATOM      2  C   UNL     1      29.041  27.799  23.887  1.00  0.00     0.285 C 
ATOM      3  C   UNL     1      30.117  29.820  24.486  1.00  0.00     0.178 C 
ATOM      4  C   UNL     1      30.856  29.776  23.113  1.00  0.00     0.177 C 
ATOM      5  O   UNL     1      29.661  28.546  24.924  1.00  0.00    -0.341 OA
ATOM      6  C   UNL     1      31.291  28.338  22.802  1.00  0.00     0.179 C 
ATOM      7  C   UNL     1      30.057  27.405  22.787  1.00  0.00     0.202 C 
BRANCH   3   8
ATOM      8  C   UNL     1      28.966  30.846  24.512  1.00  0.00     0.191 C 
BRANCH   8   9
ATOM      9  O   UNL     1      28.973  31.621  23.341  1.00  0.00    -0.394 OA
ATOM     10  H   UNL     1      28.397  32.410  23.519  1.00  0.00     0.210 HD
ENDBRANCH   8   9
ENDBRANCH   3   8
BRANCH   4  11
ATOM     11  O   UNL     1      31.987  30.605  23.138  1.00  0.00    -0.387 OA
ATOM     12  H   UNL     1      32.744  30.075  22.777  1.00  0.00     0.211 HD
ENDBRANCH   4  11
BRANCH   6  13
ATOM     13  O   UNL     1      31.957  28.306  21.566  1.00  0.00    -0.387 OA
ATOM     14  H   UNL     1      32.063  27.348  21.328  1.00  0.00     0.211 HD
ENDBRANCH   6  13
BRANCH   7  15
ATOM     15  O   UNL     1      29.413  27.457  21.537  1.00  0.00    -0.385 OA
ATOM     16  H   UNL     1      29.827  28.198  21.021  1.00  0.00     0.211 HD
ENDBRANCH   7  15
ENDBRANCH   1   2
BRANCH   1  17
ATOM     17  C   UNL     1      26.994  26.472  24.042  1.00  0.00     0.224 C 
ATOM     18  C   UNL     1      26.749  25.603  22.786  1.00  0.00     0.208 C 
ATOM     19  O   UNL     1      26.291  25.887  25.124  1.00  0.00    -0.337 OA
ATOM     20  C   UNL     1      25.384  25.031  23.058  1.00  0.00     0.180 C 
ATOM     21  C   UNL     1      25.327  24.997  24.591  1.00  0.00     0.179 C 
BRANCH  17  22
ATOM     22  C   UNL     1      26.432  27.900  23.855  1.00  0.00     0.225 C 
BRANCH  22  23
ATOM     23  O   UNL     1      25.707  28.294  24.992  1.00  0.00    -0.391 OA
ATOM     24  H   UNL     1      24.761  28.040  24.836  1.00  0.00     0.210 HD
ENDBRANCH  22  23
ENDBRANCH  17  22
BRANCH  18  25
ATOM     25  O   UNL     1      26.754  26.340  21.590  1.00  0.00    -0.385 OA
ATOM     26  H   UNL     1      26.832  27.295  21.851  1.00  0.00     0.211 HD
ENDBRANCH  18  25
BRANCH  20  27
ATOM     27  O   UNL     1      25.269  23.743  22.509  1.00  0.00    -0.387 OA
ATOM     28  H   UNL     1      25.310  23.107  23.268  1.00  0.00     0.211 HD
ENDBRANCH  20  27
BRANCH  21  29
ATOM     29  C   UNL     1      23.938  25.363  25.118  1.00  0.00     0.191 C 
BRANCH  29  30
ATOM     30  O   UNL     1      22.996  24.433  24.656  1.00  0.00    -0.394 OA
ATOM     31  H   UNL     1      23.103  23.627  25.226  1.00  0.00     0.210 HD
ENDBRANCH  29  30
ENDBRANCH  21  29
ENDBRANCH   1  17
TORSDOF 13
ENDMDL
MODEL 3
REMARK VINA RESULT:    -4.232      2.233      4.960
REMARK INTER + INTRA:          -7.706
REMARK INTER:                  -6.578
REMARK INTRA:                  -1.128
REMARK UNBOUND:                -1.248
REMARK SMILES OC[C@@H]1O[C@@](CO)(O[C@H]2O[C@H](CO)[C@@H](O)[C@H](O)[C@@H]2O)[C@H](O)[C@H]1O
REMARK SMILES IDX 8 1 9 2 11 3 14 4 10 5 16 6 18 7 12 8 13 9 15 11 17 13 19 15
REMARK SMILES IDX 5 17 20 18 4 19 22 20 3 21 6 22 7 23 21 25 23 27 2 29 1 30
REMARK H PARENT 13 10 15 12 17 14 19 16 7 24 21 26 23 28 1 31
REMARK Flexibility Score: inf
ROOT
ATOM      1  O   UNL     1      29.682  29.006  24.477  1.00  0.00    -0.313 OA
ENDROOT
BRANCH   1   2
ATOM      2  C   UNL     1      28.404  29.614  24.298  1.00  0.00     0.285 C 
ATOM      3  C   UNL     1      26.089  29.521  24.778  1.00  0.00     0.178 C 
ATOM      4  C   UNL     1      26.022  31.057  24.514  1.00  0.00     0.177 C 
ATOM      5  O   UNL     1      27.390  29.062  25.125  1.00  0.00    -0.341 OA
ATOM      6  C   UNL     1      27.253  31.743  25.120  1.00  0.00     0.179 C 
ATOM      7  C   UNL     1      28.544  31.141  24.515  1.00  0.00     0.202 C 
BRANCH   3   8
ATOM      8  C   UNL     1      25.513  28.689  23.614  1.00  0.00     0.191 C 
BRANCH   8   9
ATOM      9  O   UNL     1      24.746  29.501  22.763  1.00  0.00    -0.394 OA
ATOM     10  H   UNL     1      24.370  30.227  23.327  1.00  0.00     0.210 HD
ENDBRANCH   8   9
ENDBRANCH   3   8
BRANCH   4  11
ATOM     11  O   UNL     1      24.862  31.603  25.084  1.00  0.00    -0.387 OA
ATOM     12  H   UNL     1      24.690  32.464  24.622  1.00  0.00     0.211 HD
ENDBRANCH   4  11
BRANCH   6  13
ATOM     13  O   UNL     1      27.186  33.124  24.879  1.00  0.00    -0.387 OA
ATOM     14  H   UNL     1      26.573  33.500  25.563  1.00  0.00     0.211 HD
ENDBRANCH   6  13
BRANCH   7  15
ATOM     15  O   UNL     1      28.841  31.747  23.280  1.00  0.00    -0.385 OA
ATOM     16  H   UNL     1      28.350  31.245  22.578  1.00  0.00     0.211 HD
ENDBRANCH   7  15
ENDBRANCH   1   2
BRANCH   1  17
ATOM     17  C   UNL     1      30.217  28.248  23.392  1.00  0.00     0.224 C 
ATOM     18  C   UNL     1      31.426  27.379  23.809  1.00  0.00     0.208 C 
ATOM     19  O   UNL     1      29.236  27.392  22.832  1.00  0.00    -0.337 OA
ATOM     20  C   UNL     1      31.359  26.246  22.822  1.00  0.00     0.180 C 
ATOM     21  C   UNL     1      29.862  26.169  22.492  1.00  0.00     0.179 C 
BRANCH  17  22
ATOM     22  C   UNL     1      30.608  29.266  22.297  1.00  0.00     0.225 C 
BRANCH  22  23
ATOM     23  O   UNL     1      31.381  30.303  22.844  1.00  0.00    -0.391 OA
ATOM     24  H   UNL     1      31.214  31.111  22.294  1.00  0.00     0.210 HD
ENDBRANCH  22  23
ENDBRANCH  17  22
BRANCH  18  25
ATOM     25  O   UNL     1      32.654  28.055  23.714  1.00  0.00    -0.385 OA
ATOM     26  H   UNL     1      32.449  28.961  23.366  1.00  0.00     0.211 HD
ENDBRANCH  18  25
BRANCH  20  27
ATOM     27  O   UNL     1      31.821  25.054  23.405  1.00  0.00    -0.387 OA
ATOM     28  H   UNL     1      32.609  25.295  23.956  1.00  0.00     0.211 HD
ENDBRANCH  20  27
BRANCH  21  29
ATOM     29  C   UNL     1      29.620  25.856  21.014  1.00  0.00     0.191 C 
BRANCH  29  30
ATOM     30  O   UNL     1      28.713  26.780  20.477  1.00  0.00    -0.394 OA
ATOM     31  H   UNL     1      29.243  27.370  19.880  1.00  0.00     0.210 HD
ENDBRANCH  29  30
ENDBRANCH  21  29
ENDBRANCH   1  17
TORSDOF 13
ENDMDL
MODEL 4
REMARK VINA RESULT:    -4.212      1.902      2.981
REMARK INTER + INTRA:          -7.676
REMARK INTER:                  -6.627
REMARK INTRA:                  -1.049
REMARK UNBOUND:                -1.248
REMARK SMILES OC[C@@H]1O[C@@](CO)(O[C@H]2O[C@H](CO)[C@@H](O)[C@H](O)[C@@H]2O)[C@H](O)[C@H]1O
REMARK SMILES IDX 8 1 9 2 11 3 14 4 10 5 16 6 18 7 12 8 13 9 15 11 17 13 19 15
REMARK SMILES IDX 5 17 20 18 4 19 22 20 3 21 6 22 7 23 21 25 23 27 2 29 1 30
REMARK H PARENT 13 10 15 12 17 14 19 16 7 24 21 26 23 28 1 31
REMARK Flexibility Score: inf
ROOT
ATOM      1  O   UNL     1      29.262  28.220  24.663  1.00  0.00    -0.313 OA
ENDROOT
BRANCH   1   2
ATOM      2  C   UNL     1      28.206  27.674  23.874  1.00  0.00     0.285 C 
ATOM      3  C   UNL     1      27.393  25.790  22.695  1.00  0.00     0.178 C 
ATOM      4  C   UNL     1      25.952  26.356  22.880  1.00  0.00     0.177 C 
ATOM      5  O   UNL     1      28.320  26.274  23.659  1.00  0.00    -0.341 OA
ATOM      6  C   UNL     1      25.796  26.932  24.294  1.00  0.00     0.179 C 
ATOM      7  C   UNL     1      26.852  28.037  24.533  1.00  0.00     0.202 C 
BRANCH   3   8
ATOM      8  C   UNL     1      27.938  25.996  21.267  1.00  0.00     0.191 C 
BRANCH   8   9
ATOM      9  O   UNL     1      29.289  25.621  21.199  1.00  0.00    -0.394 OA
ATOM     10  H   UNL     1      29.318  24.637  21.327  1.00  0.00     0.210 HD
ENDBRANCH   8   9
ENDBRANCH   3   8
BRANCH   4  11
ATOM     11  O   UNL     1      24.998  25.346  22.685  1.00  0.00    -0.387 OA
ATOM     12  H   UNL     1      24.840  25.282  21.708  1.00  0.00     0.211 HD
ENDBRANCH   4  11
BRANCH   6  13
ATOM     13  O   UNL     1      24.497  27.439  24.454  1.00  0.00    -0.387 OA
ATOM     14  H   UNL     1      24.156  27.633  23.542  1.00  0.00     0.211 HD
ENDBRANCH   6  13
BRANCH   7  15
ATOM     15  O   UNL     1      26.410  29.266  24.008  1.00  0.00    -0.385 OA
ATOM     16  H   UNL     1      27.193  29.877  23.984  1.00  0.00     0.211 HD
ENDBRANCH   7  15
ENDBRANCH   1   2
BRANCH   1  17
ATOM     17  C   UNL     1      30.562  28.290  24.078  1.00  0.00     0.224 C 
ATOM     18  C   UNL     1      31.245  26.907  23.975  1.00  0.00     0.208 C 
ATOM     19  O   UNL     1      30.509  28.851  22.778  1.00  0.00    -0.337 OA
ATOM     20  C   UNL     1      32.162  27.092  22.796  1.00  0.00     0.180 C 
ATOM     21  C   UNL     1      31.434  28.155  21.962  1.00  0.00     0.179 C 
BRANCH  17  22
ATOM     22  C   UNL     1      31.386  29.259  24.956  1.00  0.00     0.225 C 
BRANCH  22  23
ATOM     23  O   UNL     1      31.292  30.570  24.461  1.00  0.00    -0.391 OA
ATOM     24  H   UNL     1      31.629  30.553  23.528  1.00  0.00     0.210 HD
ENDBRANCH  22  23
ENDBRANCH  17  22
BRANCH  18  25
ATOM     25  O   UNL     1      31.973  26.559  25.125  1.00  0.00    -0.385 OA
ATOM     26  H   UNL     1      32.929  26.708  24.906  1.00  0.00     0.211 HD
ENDBRANCH  18  25
BRANCH  20  27
ATOM     27  O   UNL     1      32.305  25.888  22.086  1.00  0.00    -0.387 OA
ATOM     28  H   UNL     1      33.085  26.006  21.485  1.00  0.00     0.211 HD
ENDBRANCH  20  27
BRANCH  21  29
ATOM     29  C   UNL     1      32.410  29.146  21.324  1.00  0.00     0.191 C 
BRANCH  29  30
ATOM     30  O   UNL     1      31.892  30.445  21.414  1.00  0.00    -0.394 OA
ATOM     31  H   UNL     1      32.422  30.997  20.780  1.00  0.00     0.210 HD
ENDBRANCH  29  30
ENDBRANCH  21  29
ENDBRANCH   1  17
TORSDOF 13
ENDMDL
MODEL 5
REMARK VINA RESULT:    -4.041      2.200      4.566
REMARK INTER + INTRA:          -7.415
REMARK INTER:                  -6.464
REMARK INTRA:                  -0.951
REMARK UNBOUND:                -1.248
REMARK SMILES OC[C@@H]1O[C@@](CO)(O[C@H]2O[C@H](CO)[C@@H](O)[C@H](O)[C@@H]2O)[C@H](O)[C@H]1O
REMARK SMILES IDX 8 1 9 2 11 3 14 4 10 5 16 6 18 7 12 8 13 9 15 11 17 13 19 15
REMARK SMILES IDX 5 17 20 18 4 19 22 20 3 21 6 22 7 23 21 25 23 27 2 29 1 30
REMARK H PARENT 13 10 15 12 17 14 19 16 7 24 21 26 23 28 1 31
REMARK Flexibility Score: inf
ROOT
ATOM      1  O   UNL     1      28.388  27.945  24.047  1.00  0.00    -0.313 OA
ENDROOT
BRANCH   1   2
ATOM      2  C   UNL     1      27.105  27.326  23.972  1.00  0.00     0.285 C 
ATOM      3  C   UNL     1      25.812  25.401  24.443  1.00  0.00     0.178 C 
ATOM      4  C   UNL     1      24.543  26.308  24.424  1.00  0.00     0.177 C 
ATOM      5  O   UNL     1      27.014  26.114  24.707  1.00  0.00    -0.341 OA
ATOM      6  C   UNL     1      24.845  27.640  25.124  1.00  0.00     0.179 C 
ATOM      7  C   UNL     1      26.032  28.345  24.425  1.00  0.00     0.202 C 
BRANCH   3   8
ATOM      8  C   UNL     1      25.956  24.549  23.165  1.00  0.00     0.191 C 
BRANCH   8   9
ATOM      9  O   UNL     1      24.717  24.000  22.800  1.00  0.00    -0.394 OA
ATOM     10  H   UNL     1      24.341  23.577  23.616  1.00  0.00     0.210 HD
ENDBRANCH   8   9
ENDBRANCH   3   8
BRANCH   4  11
ATOM     11  O   UNL     1      23.476  25.674  25.078  1.00  0.00    -0.387 OA
ATOM     12  H   UNL     1      23.379  26.111  25.964  1.00  0.00     0.211 HD
ENDBRANCH   4  11
BRANCH   6  13
ATOM     13  O   UNL     1      23.700  28.450  25.104  1.00  0.00    -0.387 OA
ATOM     14  H   UNL     1      23.293  28.343  24.205  1.00  0.00     0.211 HD
ENDBRANCH   6  13
BRANCH   7  15
ATOM     15  O   UNL     1      25.586  29.064  23.300  1.00  0.00    -0.385 OA
ATOM     16  H   UNL     1      25.783  30.024  23.465  1.00  0.00     0.211 HD
ENDBRANCH   7  15
ENDBRANCH   1   2
BRANCH   1  17
ATOM     17  C   UNL     1      29.327  27.659  23.011  1.00  0.00     0.224 C 
ATOM     18  C   UNL     1      30.150  26.380  23.288  1.00  0.00     0.208 C 
ATOM     19  O   UNL     1      28.678  27.501  21.761  1.00  0.00    -0.337 OA
ATOM     20  C   UNL     1      30.492  25.915  21.898  1.00  0.00     0.180 C 
ATOM     21  C   UNL     1      29.324  26.453  21.061  1.00  0.00     0.179 C 
BRANCH  17  22
ATOM     22  C   UNL     1      30.241  28.901  22.893  1.00  0.00     0.225 C 
BRANCH  22  23
ATOM     23  O   UNL     1      29.531  30.066  23.226  1.00  0.00    -0.391 OA
ATOM     24  H   UNL     1      28.961  30.292  22.446  1.00  0.00     0.210 HD
ENDBRANCH  22  23
ENDBRANCH  17  22
BRANCH  18  25
ATOM     25  O   UNL     1      31.314  26.619  24.036  1.00  0.00    -0.385 OA
ATOM     26  H   UNL     1      31.974  25.934  23.754  1.00  0.00     0.211 HD
ENDBRANCH  18  25
BRANCH  20  27
ATOM     27  O   UNL     1      30.561  24.513  21.847  1.00  0.00    -0.387 OA
ATOM     28  H   UNL     1      30.679  24.270  20.893  1.00  0.00     0.211 HD
ENDBRANCH  20  27
BRANCH  21  29
ATOM     29  C   UNL     1      29.786  26.953  19.691  1.00  0.00     0.191 C 
BRANCH  29  30
ATOM     30  O   UNL     1      29.117  26.251  18.679  1.00  0.00    -0.394 OA
ATOM     31  H   UNL     1      28.162  26.221  18.952  1.00  0.00     0.210 HD
ENDBRANCH  29  30
ENDBRANCH  21  29
ENDBRANCH   1  17
TORSDOF 13
ENDMDL
MODEL 6
REMARK VINA RESULT:    -3.902      2.577      3.715
REMARK INTER + INTRA:          -7.203
REMARK INTER:                  -6.206
REMARK INTRA:                  -0.998
REMARK UNBOUND:                -1.248
REMARK SMILES OC[C@@H]1O[C@@](CO)(O[C@H]2O[C@H](CO)[C@@H](O)[C@H](O)[C@@H]2O)[C@H](O)[C@H]1O
REMARK SMILES IDX 8 1 9 2 11 3 14 4 10 5 16 6 18 7 12 8 13 9 15 11 17 13 19 15
REMARK SMILES IDX 5 17 20 18 4 19 22 20 3 21 6 22 7 23 21 25 23 27 2 29 1 30
REMARK H PARENT 13 10 15 12 17 14 19 16 7 24 21 26 23 28 1 31
REMARK Flexibility Score: inf
ROOT
ATOM      1  O   UNL     1      28.564  27.705  24.277  1.00  0.00    -0.313 OA
ENDROOT
BRANCH   1   2
ATOM      2  C   UNL     1      27.268  27.145  24.071  1.00  0.00     0.285 C 
ATOM      3  C   UNL     1      25.887  25.234  24.277  1.00  0.00     0.178 C 
ATOM      4  C   UNL     1      24.652  26.187  24.280  1.00  0.00     0.177 C 
ATOM      5  O   UNL     1      27.095  25.871  24.675  1.00  0.00    -0.341 OA
ATOM      6  C   UNL     1      24.957  27.431  25.125  1.00  0.00     0.179 C 
ATOM      7  C   UNL     1      26.204  28.156  24.566  1.00  0.00     0.202 C 
BRANCH   3   8
ATOM      8  C   UNL     1      26.077  24.507  22.930  1.00  0.00     0.191 C 
BRANCH   8   9
ATOM      9  O   UNL     1      24.890  23.859  22.551  1.00  0.00    -0.394 OA
ATOM     10  H   UNL     1      24.436  23.585  23.391  1.00  0.00     0.210 HD
ENDBRANCH   8   9
ENDBRANCH   3   8
BRANCH   4  11
ATOM     11  O   UNL     1      23.529  25.533  24.809  1.00  0.00    -0.387 OA
ATOM     12  H   UNL     1      23.736  25.322  25.756  1.00  0.00     0.211 HD
ENDBRANCH   4  11
BRANCH   6  13
ATOM     13  O   UNL     1      23.841  28.283  25.125  1.00  0.00    -0.387 OA
ATOM     14  H   UNL     1      24.150  29.153  25.489  1.00  0.00     0.211 HD
ENDBRANCH   6  13
BRANCH   7  15
ATOM     15  O   UNL     1      25.848  28.997  23.495  1.00  0.00    -0.385 OA
ATOM     16  H   UNL     1      26.646  29.547  23.273  1.00  0.00     0.211 HD
ENDBRANCH   7  15
ENDBRANCH   1   2
BRANCH   1  17
ATOM     17  C   UNL     1      29.578  27.403  23.320  1.00  0.00     0.224 C 
ATOM     18  C   UNL     1      29.025  26.675  22.073  1.00  0.00     0.208 C 
ATOM     19  O   UNL     1      30.237  28.579  22.883  1.00  0.00    -0.337 OA
ATOM     20  C   UNL     1      30.006  27.080  21.006  1.00  0.00     0.180 C 
ATOM     21  C   UNL     1      30.498  28.448  21.497  1.00  0.00     0.179 C 
BRANCH  17  22
ATOM     22  C   UNL     1      30.631  26.541  24.053  1.00  0.00     0.225 C 
BRANCH  22  23
ATOM     23  O   UNL     1      31.653  27.352  24.575  1.00  0.00    -0.391 OA
ATOM     24  H   UNL     1      32.248  27.592  23.818  1.00  0.00     0.210 HD
ENDBRANCH  22  23
ENDBRANCH  17  22
BRANCH  18  25
ATOM     25  O   UNL     1      28.990  25.277  22.216  1.00  0.00    -0.385 OA
ATOM     26  H   UNL     1      29.020  24.902  21.298  1.00  0.00     0.211 HD
ENDBRANCH  18  25
BRANCH  20  27
ATOM     27  O   UNL     1      29.367  27.178  19.759  1.00  0.00    -0.387 OA
ATOM     28  H   UNL     1      28.393  27.211  19.941  1.00  0.00     0.211 HD
ENDBRANCH  20  27
BRANCH  21  29
ATOM     29  C   UNL     1      31.991  28.646  21.230  1.00  0.00     0.191 C 
BRANCH  29  30
ATOM     30  O   UNL     1      32.640  29.013  22.417  1.00  0.00    -0.394 OA
ATOM     31  H   UNL     1      32.627  30.006  22.441  1.00  0.00     0.210 HD
ENDBRANCH  29  30
ENDBRANCH  21  29
ENDBRANCH   1  17
TORSDOF 13
ENDMDL
MODEL 7
REMARK VINA RESULT:    -3.800      1.708      5.673
REMARK INTER + INTRA:          -7.047
REMARK INTER:                  -6.036
REMARK INTRA:                  -1.011
REMARK UNBOUND:                -1.248
REMARK SMILES OC[C@@H]1O[C@@](CO)(O[C@H]2O[C@H](CO)[C@@H](O)[C@H](O)[C@@H]2O)[C@H](O)[C@H]1O
REMARK SMILES IDX 8 1 9 2 11 3 14 4 10 5 16 6 18 7 12 8 13 9 15 11 17 13 19 15
REMARK SMILES IDX 5 17 20 18 4 19 22 20 3 21 6 22 7 23 21 25 23 27 2 29 1 30
REMARK H PARENT 13 10 15 12 17 14 19 16 7 24 21 26 23 28 1 31
REMARK Flexibility Score: inf
ROOT
ATOM      1  O   UNL     1      30.579  28.304  23.426  1.00  0.00    -0.313 OA
ENDROOT
BRANCH   1   2
ATOM      2  C   UNL     1      29.702  29.411  23.626  1.00  0.00     0.285 C 
ATOM      3  C   UNL     1      28.173  30.480  25.082  1.00  0.00     0.178 C 
ATOM      4  C   UNL     1      28.473  31.818  24.337  1.00  0.00     0.177 C 
ATOM      5  O   UNL     1      29.210  29.516  24.955  1.00  0.00    -0.341 OA
ATOM      6  C   UNL     1      29.975  31.919  24.037  1.00  0.00     0.179 C 
ATOM      7  C   UNL     1      30.426  30.707  23.187  1.00  0.00     0.202 C 
BRANCH   3   8
ATOM      8  C   UNL     1      26.813  29.869  24.688  1.00  0.00     0.191 C 
BRANCH   8   9
ATOM      9  O   UNL     1      25.950  30.865  24.203  1.00  0.00    -0.394 OA
ATOM     10  H   UNL     1      25.222  30.398  23.716  1.00  0.00     0.210 HD
ENDBRANCH   8   9
ENDBRANCH   3   8
BRANCH   4  11
ATOM     11  O   UNL     1      28.084  32.914  25.121  1.00  0.00    -0.387 OA
ATOM     12  H   UNL     1      28.714  33.654  24.918  1.00  0.00     0.211 HD
ENDBRANCH   4  11
BRANCH   6  13
ATOM     13  O   UNL     1      30.239  33.125  23.368  1.00  0.00    -0.387 OA
ATOM     14  H   UNL     1      29.635  33.149  22.580  1.00  0.00     0.211 HD
ENDBRANCH   6  13
BRANCH   7  15
ATOM     15  O   UNL     1      30.160  30.934  21.823  1.00  0.00    -0.385 OA
ATOM     16  H   UNL     1      30.992  30.727  21.321  1.00  0.00     0.211 HD
ENDBRANCH   7  15
ENDBRANCH   1   2
BRANCH   1  17
ATOM     17  C   UNL     1      30.071  27.171  22.723  1.00  0.00     0.224 C 
ATOM     18  C   UNL     1      28.579  26.902  23.024  1.00  0.00     0.208 C 
ATOM     19  O   UNL     1      30.214  27.330  21.322  1.00  0.00    -0.337 OA
ATOM     20  C   UNL     1      28.119  26.218  21.765  1.00  0.00     0.180 C 
ATOM     21  C   UNL     1      29.060  26.795  20.699  1.00  0.00     0.179 C 
BRANCH  17  22
ATOM     22  C   UNL     1      30.953  25.969  23.134  1.00  0.00     0.225 C 
BRANCH  22  23
ATOM     23  O   UNL     1      31.749  26.301  24.242  1.00  0.00    -0.391 OA
ATOM     24  H   UNL     1      32.197  27.161  24.030  1.00  0.00     0.210 HD
ENDBRANCH  22  23
ENDBRANCH  17  22
BRANCH  18  25
ATOM     25  O   UNL     1      28.377  26.078  24.144  1.00  0.00    -0.385 OA
ATOM     26  H   UNL     1      27.929  25.258  23.810  1.00  0.00     0.211 HD
ENDBRANCH  18  25
BRANCH  20  27
ATOM     27  O   UNL     1      26.777  26.532  21.492  1.00  0.00    -0.387 OA
ATOM     28  H   UNL     1      26.564  26.123  20.614  1.00  0.00     0.211 HD
ENDBRANCH  20  27
BRANCH  21  29
ATOM     29  C   UNL     1      29.471  25.740  19.669  1.00  0.00     0.191 C 
BRANCH  29  30
ATOM     30  O   UNL     1      29.202  26.211  18.377  1.00  0.00    -0.394 OA
ATOM     31  H   UNL     1      29.184  27.202  18.444  1.00  0.00     0.210 HD
ENDBRANCH  29  30
ENDBRANCH  21  29
ENDBRANCH   1  17
TORSDOF 13
ENDMDL
MODEL 8
REMARK VINA RESULT:    -3.777      2.341      5.969
REMARK INTER + INTRA:          -7.011
REMARK INTER:                  -6.623
REMARK INTRA:                  -0.388
REMARK UNBOUND:                -1.248
REMARK SMILES OC[C@@H]1O[C@@](CO)(O[C@H]2O[C@H](CO)[C@@H](O)[C@H](O)[C@@H]2O)[C@H](O)[C@H]1O
REMARK SMILES IDX 8 1 9 2 11 3 14 4 10 5 16 6 18 7 12 8 13 9 15 11 17 13 19 15
REMARK SMILES IDX 5 17 20 18 4 19 22 20 3 21 6 22 7 23 21 25 23 27 2 29 1 30
REMARK H PARENT 13 10 15 12 17 14 19 16 7 24 21 26 23 28 1 31
REMARK Flexibility Score: inf
ROOT
ATOM      1  O   UNL     1      28.101  27.721  24.476  1.00  0.00    -0.313 OA
ENDROOT
BRANCH   1   2
ATOM      2  C   UNL     1      29.255  27.555  23.653  1.00  0.00     0.285 C 
ATOM      3  C   UNL     1      30.234  27.922  21.530  1.00  0.00     0.178 C 
ATOM      4  C   UNL     1      31.633  27.824  22.212  1.00  0.00     0.177 C 
ATOM      5  O   UNL     1      29.188  28.272  22.428  1.00  0.00    -0.341 OA
ATOM      6  C   UNL     1      31.605  28.554  23.562  1.00  0.00     0.179 C 
ATOM      7  C   UNL     1      30.511  27.943  24.469  1.00  0.00     0.202 C 
BRANCH   3   8
ATOM      8  C   UNL     1      29.865  26.650  20.738  1.00  0.00     0.191 C 
BRANCH   8   9
ATOM      9  O   UNL     1      29.186  26.988  19.557  1.00  0.00    -0.394 OA
ATOM     10  H   UNL     1      29.880  27.234  18.891  1.00  0.00     0.210 HD
ENDBRANCH   8   9
ENDBRANCH   3   8
BRANCH   4  11
ATOM     11  O   UNL     1      32.618  28.400  21.396  1.00  0.00    -0.387 OA
ATOM     12  H   UNL     1      33.260  28.859  21.997  1.00  0.00     0.211 HD
ENDBRANCH   4  11
BRANCH   6  13
ATOM     13  O   UNL     1      32.867  28.463  24.170  1.00  0.00    -0.387 OA
ATOM     14  H   UNL     1      33.030  27.499  24.339  1.00  0.00     0.211 HD
ENDBRANCH   6  13
BRANCH   7  15
ATOM     15  O   UNL     1      30.996  26.795  25.124  1.00  0.00    -0.385 OA
ATOM     16  H   UNL     1      31.985  26.882  25.181  1.00  0.00     0.211 HD
ENDBRANCH   7  15
ENDBRANCH   1   2
BRANCH   1  17
ATOM     17  C   UNL     1      26.875  27.145  24.029  1.00  0.00     0.224 C 
ATOM     18  C   UNL     1      27.083  26.086  22.921  1.00  0.00     0.208 C 
ATOM     19  O   UNL     1      26.177  26.530  25.098  1.00  0.00    -0.337 OA
ATOM     20  C   UNL     1      25.891  25.188  23.113  1.00  0.00     0.180 C 
ATOM     21  C   UNL     1      25.585  25.340  24.609  1.00  0.00     0.179 C 
BRANCH  17  22
ATOM     22  C   UNL     1      25.997  28.315  23.529  1.00  0.00     0.225 C 
BRANCH  22  23
ATOM     23  O   UNL     1      26.235  29.468  24.295  1.00  0.00    -0.391 OA
ATOM     24  H   UNL     1      25.841  29.307  25.191  1.00  0.00     0.210 HD
ENDBRANCH  22  23
ENDBRANCH  17  22
BRANCH  18  25
ATOM     25  O   UNL     1      27.097  26.631  21.627  1.00  0.00    -0.385 OA
ATOM     26  H   UNL     1      26.162  26.590  21.296  1.00  0.00     0.211 HD
ENDBRANCH  18  25
BRANCH  20  27
ATOM     27  O   UNL     1      26.213  23.860  22.784  1.00  0.00    -0.387 OA
ATOM     28  H   UNL     1      25.715  23.646  21.954  1.00  0.00     0.211 HD
ENDBRANCH  20  27
BRANCH  21  29
ATOM     29  C   UNL     1      24.080  25.359  24.885  1.00  0.00     0.191 C 
BRANCH  29  30
ATOM     30  O   UNL     1      23.489  24.200  24.365  1.00  0.00    -0.394 OA
ATOM     31  H   UNL     1      23.939  24.027  23.497  1.00  0.00     0.210 HD
ENDBRANCH  29  30
ENDBRANCH  21  29
ENDBRANCH   1  17
TORSDOF 13
ENDMDL
MODEL 9
REMARK VINA RESULT:    -3.752      2.390      4.724
REMARK INTER + INTRA:          -6.974
REMARK INTER:                  -6.093
REMARK INTRA:                  -0.881
REMARK UNBOUND:                -1.248
REMARK SMILES OC[C@@H]1O[C@@](CO)(O[C@H]2O[C@H](CO)[C@@H](O)[C@H](O)[C@@H]2O)[C@H](O)[C@H]1O
REMARK SMILES IDX 8 1 9 2 11 3 14 4 10 5 16 6 18 7 12 8 13 9 15 11 17 13 19 15
REMARK SMILES IDX 5 17 20 18 4 19 22 20 3 21 6 22 7 23 21 25 23 27 2 29 1 30
REMARK H PARENT 13 10 15 12 17 14 19 16 7 24 21 26 23 28 1 31
REMARK Flexibility Score: inf
ROOT
ATOM      1  O   UNL     1      28.123  26.850  21.787  1.00  0.00    -0.313 OA
ENDROOT
BRANCH   1   2
ATOM      2  C   UNL     1      27.208  26.888  22.881  1.00  0.00     0.285 C 
ATOM      3  C   UNL     1      25.589  28.150  24.058  1.00  0.00     0.178 C 
ATOM      4  C   UNL     1      24.993  26.807  24.582  1.00  0.00     0.177 C 
ATOM      5  O   UNL     1      26.335  28.008  22.855  1.00  0.00    -0.341 OA
ATOM      6  C   UNL     1      24.984  25.766  23.454  1.00  0.00     0.179 C 
ATOM      7  C   UNL     1      26.421  25.555  22.919  1.00  0.00     0.202 C 
BRANCH   3   8
ATOM      8  C   UNL     1      26.417  28.893  25.125  1.00  0.00     0.191 C 
BRANCH   8   9
ATOM      9  O   UNL     1      26.784  30.167  24.661  1.00  0.00    -0.394 OA
ATOM     10  H   UNL     1      27.362  30.568  25.362  1.00  0.00     0.210 HD
ENDBRANCH   8   9
ENDBRANCH   3   8
BRANCH   4  11
ATOM     11  O   UNL     1      23.683  26.998  25.045  1.00  0.00    -0.387 OA
ATOM     12  H   UNL     1      23.111  26.338  24.574  1.00  0.00     0.211 HD
ENDBRANCH   4  11
BRANCH   6  13
ATOM     13  O   UNL     1      24.447  24.561  23.932  1.00  0.00    -0.387 OA
ATOM     14  H   UNL     1      24.137  24.738  24.858  1.00  0.00     0.211 HD
ENDBRANCH   6  13
BRANCH   7  15
ATOM     15  O   UNL     1      27.120  24.640  23.728  1.00  0.00    -0.385 OA
ATOM     16  H   UNL     1      26.975  24.910  24.673  1.00  0.00     0.211 HD
ENDBRANCH   7  15
ENDBRANCH   1   2
BRANCH   1  17
ATOM     17  C   UNL     1      29.506  27.064  22.068  1.00  0.00     0.224 C 
ATOM     18  C   UNL     1      29.735  28.148  23.146  1.00  0.00     0.208 C 
ATOM     19  O   UNL     1      30.131  25.870  22.507  1.00  0.00    -0.337 OA
ATOM     20  C   UNL     1      31.048  27.726  23.748  1.00  0.00     0.180 C 
ATOM     21  C   UNL     1      31.050  26.207  23.530  1.00  0.00     0.179 C 
BRANCH  17  22
ATOM     22  C   UNL     1      30.170  27.455  20.727  1.00  0.00     0.225 C 
BRANCH  22  23
ATOM     23  O   UNL     1      29.359  27.069  19.647  1.00  0.00    -0.391 OA
ATOM     24  H   UNL     1      29.573  26.121  19.449  1.00  0.00     0.210 HD
ENDBRANCH  22  23
ENDBRANCH  17  22
BRANCH  18  25
ATOM     25  O   UNL     1      29.821  29.447  22.618  1.00  0.00    -0.385 OA
ATOM     26  H   UNL     1      29.100  29.522  21.941  1.00  0.00     0.211 HD
ENDBRANCH  18  25
BRANCH  20  27
ATOM     27  O   UNL     1      31.095  28.052  25.113  1.00  0.00    -0.387 OA
ATOM     28  H   UNL     1      30.175  28.316  25.372  1.00  0.00     0.211 HD
ENDBRANCH  20  27
BRANCH  21  29
ATOM     29  C   UNL     1      32.442  25.685  23.167  1.00  0.00     0.191 C 
BRANCH  29  30
ATOM     30  O   UNL     1      32.983  24.985  24.254  1.00  0.00    -0.394 OA
ATOM     31  H   UNL     1      32.418  25.214  25.038  1.00  0.00     0.210 HD
ENDBRANCH  29  30
ENDBRANCH  21  29
ENDBRANCH   1  17
TORSDOF 13
ENDMDL
