MODEL 1
REMARK VINA RESULT:    -3.894      0.000      0.000
REMARK INTER + INTRA:          -4.556
REMARK INTER:                  -4.463
REMARK INTRA:                  -0.093
REMARK UNBOUND:                -0.093
REMARK SMILES COc1cc(C(=O)[O-])ccc1O
REMARK SMILES IDX 5 1 9 2 4 3 10 4 3 5 11 6 6 7 7 8 8 9 2 10 1 11 12 12
REMARK H PARENT 12 13
REMARK Flexibility Score: inf
ROOT
ATOM      1  C   UNL     1      18.724  -8.309  24.878  1.00  0.00     0.001 A 
ATOM      2  C   UNL     1      17.909  -9.443  25.027  1.00  0.00     0.014 A 
ATOM      3  C   UNL     1      18.145  -7.104  24.438  1.00  0.00     0.060 A 
ATOM      4  C   UNL     1      16.544  -9.375  24.742  1.00  0.00     0.051 A 
ATOM      5  C   UNL     1      16.767  -7.031  24.149  1.00  0.00     0.161 A 
ATOM      6  C   UNL     1      15.970  -8.178  24.305  1.00  0.00     0.157 A 
ENDROOT
BRANCH   1   7
ATOM      7  C   UNL     1      20.171  -8.387  25.180  1.00  0.00     0.072 C 
ATOM      8  O   UNL     1      20.646  -7.807  26.193  1.00  0.00    -0.545 OA
ATOM      9  O   UNL     1      21.026  -9.103  24.351  1.00  0.00    -0.545 OA
ENDBRANCH   1   7
BRANCH   5  10
ATOM     10  O   UNL     1      16.162  -5.842  23.709  1.00  0.00    -0.493 OA
ATOM     11  C   UNL     1      15.676  -4.816  24.568  1.00  0.00     0.278 C 
ENDBRANCH   5  10
BRANCH   6  12
ATOM     12  O   UNL     1      14.603  -8.149  24.032  1.00  0.00    -0.504 OA
ATOM     13  H   UNL     1      13.924  -8.620  24.618  1.00  0.00     0.293 HD
ENDBRANCH   6  12
TORSDOF 3
ENDMDL
MODEL 2
REMARK VINA RESULT:    -3.803      4.283      6.071
REMARK INTER + INTRA:          -4.452
REMARK INTER:                  -4.360
REMARK INTRA:                  -0.092
REMARK UNBOUND:                -0.093
REMARK SMILES COc1cc(C(=O)[O-])ccc1O
REMARK SMILES IDX 5 1 9 2 4 3 10 4 3 5 11 6 6 7 7 8 8 9 2 10 1 11 12 12
REMARK H PARENT 12 13
REMARK Flexibility Score: inf
ROOT
ATOM      1  C   UNL     1      21.411  -8.312  21.077  1.00  0.00     0.001 A 
ATOM      2  C   UNL     1      22.092  -9.536  20.975  1.00  0.00     0.014 A 
ATOM      3  C   UNL     1      21.309  -7.689  22.335  1.00  0.00     0.060 A 
ATOM      4  C   UNL     1      22.659 -10.125  22.106  1.00  0.00     0.051 A 
ATOM      5  C   UNL     1      21.880  -8.280  23.480  1.00  0.00     0.161 A 
ATOM      6  C   UNL     1      22.558  -9.506  23.355  1.00  0.00     0.157 A 
ENDROOT
BRANCH   1   7
ATOM      7  C   UNL     1      20.810  -7.692  19.875  1.00  0.00     0.072 C 
ATOM      8  O   UNL     1      20.794  -6.439  19.740  1.00  0.00    -0.545 OA
ATOM      9  O   UNL     1      20.256  -8.484  18.877  1.00  0.00    -0.545 OA
ENDBRANCH   1   7
BRANCH   5  10
ATOM     10  O   UNL     1      21.795  -7.681  24.747  1.00  0.00    -0.493 OA
ATOM     11  C   UNL     1      20.729  -7.887  25.669  1.00  0.00     0.278 C 
ENDBRANCH   5  10
BRANCH   6  12
ATOM     12  O   UNL     1      23.139 -10.125  24.462  1.00  0.00    -0.504 OA
ATOM     13  H   UNL     1      22.625 -10.766  25.054  1.00  0.00     0.293 HD
ENDBRANCH   6  12
TORSDOF 3
ENDMDL
MODEL 3
REMARK VINA RESULT:    -3.785      2.636      5.244
REMARK INTER + INTRA:          -4.432
REMARK INTER:                  -4.336
REMARK INTRA:                  -0.096
REMARK UNBOUND:                -0.093
REMARK SMILES COc1cc(C(=O)[O-])ccc1O
REMARK SMILES IDX 5 1 9 2 4 3 10 4 3 5 11 6 6 7 7 8 8 9 2 10 1 11 12 12
REMARK H PARENT 12 13
REMARK Flexibility Score: inf
ROOT
ATOM      1  C   UNL     1      19.516  -8.633  24.594  1.00  0.00     0.001 A 
ATOM      2  C   UNL     1      20.591  -8.262  25.417  1.00  0.00     0.014 A 
ATOM      3  C   UNL     1      19.774  -9.047  23.274  1.00  0.00     0.060 A 
ATOM      4  C   UNL     1      21.899  -8.304  24.931  1.00  0.00     0.051 A 
ATOM      5  C   UNL     1      21.093  -9.091  22.779  1.00  0.00     0.161 A 
ATOM      6  C   UNL     1      22.156  -8.715  23.620  1.00  0.00     0.157 A 
ENDROOT
BRANCH   1   7
ATOM      7  C   UNL     1      18.130  -8.587  25.114  1.00  0.00     0.072 C 
ATOM      8  O   UNL     1      17.496  -7.499  25.153  1.00  0.00    -0.545 OA
ATOM      9  O   UNL     1      17.508  -9.746  25.565  1.00  0.00    -0.545 OA
ENDBRANCH   1   7
BRANCH   5  10
ATOM     10  O   UNL     1      21.382  -9.500  21.467  1.00  0.00    -0.493 OA
ATOM     11  C   UNL     1      21.227  -8.682  20.312  1.00  0.00     0.278 C 
ENDBRANCH   5  10
BRANCH   6  12
ATOM     12  O   UNL     1      23.476  -8.744  23.171  1.00  0.00    -0.504 OA
ATOM     13  H   UNL     1      23.718  -8.997  22.221  1.00  0.00     0.293 HD
ENDBRANCH   6  12
TORSDOF 3
ENDMDL
MODEL 4
REMARK VINA RESULT:    -3.759      1.826      4.452
REMARK INTER + INTRA:          -4.401
REMARK INTER:                  -4.301
REMARK INTRA:                  -0.101
REMARK UNBOUND:                -0.093
REMARK SMILES COc1cc(C(=O)[O-])ccc1O
REMARK SMILES IDX 5 1 9 2 4 3 10 4 3 5 11 6 6 7 7 8 8 9 2 10 1 11 12 12
REMARK H PARENT 12 13
REMARK Flexibility Score: inf
ROOT
ATOM      1  C   UNL     1      17.551  -7.323  24.482  1.00  0.00     0.001 A 
ATOM      2  C   UNL     1      18.091  -8.201  25.435  1.00  0.00     0.014 A 
ATOM      3  C   UNL     1      18.419  -6.512  23.728  1.00  0.00     0.060 A 
ATOM      4  C   UNL     1      19.471  -8.268  25.631  1.00  0.00     0.051 A 
ATOM      5  C   UNL     1      19.814  -6.576  23.923  1.00  0.00     0.161 A 
ATOM      6  C   UNL     1      20.334  -7.463  24.882  1.00  0.00     0.157 A 
ENDROOT
BRANCH   1   7
ATOM      7  C   UNL     1      16.086  -7.255  24.278  1.00  0.00     0.072 C 
ATOM      8  O   UNL     1      15.375  -8.290  24.384  1.00  0.00    -0.545 OA
ATOM      9  O   UNL     1      15.474  -6.045  23.969  1.00  0.00    -0.545 OA
ENDBRANCH   1   7
BRANCH   5  10
ATOM     10  O   UNL     1      20.705  -5.780  23.186  1.00  0.00    -0.493 OA
ATOM     11  C   UNL     1      20.957  -4.401  23.438  1.00  0.00     0.278 C 
ENDBRANCH   5  10
BRANCH   6  12
ATOM     12  O   UNL     1      21.707  -7.559  25.107  1.00  0.00    -0.504 OA
ATOM     13  H   UNL     1      22.149  -7.165  25.928  1.00  0.00     0.293 HD
ENDBRANCH   6  12
TORSDOF 3
ENDMDL
MODEL 5
REMARK VINA RESULT:    -3.731     12.998     13.792
REMARK INTER + INTRA:          -4.370
REMARK INTER:                  -4.271
REMARK INTRA:                  -0.098
REMARK UNBOUND:                -0.093
REMARK SMILES COc1cc(C(=O)[O-])ccc1O
REMARK SMILES IDX 5 1 9 2 4 3 10 4 3 5 11 6 6 7 7 8 8 9 2 10 1 11 12 12
REMARK H PARENT 12 13
REMARK Flexibility Score: inf
ROOT
ATOM      1  C   UNL     1      22.917  -1.868  14.279  1.00  0.00     0.001 A 
ATOM      2  C   UNL     1      23.708  -3.029  14.287  1.00  0.00     0.014 A 
ATOM      3  C   UNL     1      23.338  -0.748  15.018  1.00  0.00     0.060 A 
ATOM      4  C   UNL     1      24.896  -3.068  15.018  1.00  0.00     0.051 A 
ATOM      5  C   UNL     1      24.537  -0.784  15.759  1.00  0.00     0.161 A 
ATOM      6  C   UNL     1      25.314  -1.955  15.752  1.00  0.00     0.157 A 
ENDROOT
BRANCH   1   7
ATOM      7  C   UNL     1      21.657  -1.831  13.502  1.00  0.00     0.072 C 
ATOM      8  O   UNL     1      21.355  -2.776  12.725  1.00  0.00    -0.545 OA
ATOM      9  O   UNL     1      20.788  -0.752  13.621  1.00  0.00    -0.545 OA
ENDBRANCH   1   7
BRANCH   5  10
ATOM     10  O   UNL     1      24.983   0.319  16.505  1.00  0.00    -0.493 OA
ATOM     11  C   UNL     1      25.778   1.380  15.985  1.00  0.00     0.278 C 
ENDBRANCH   5  10
BRANCH   6  12
ATOM     12  O   UNL     1      26.507  -2.034  16.470  1.00  0.00    -0.504 OA
ATOM     13  H   UNL     1      26.657  -1.515  17.327  1.00  0.00     0.293 HD
ENDBRANCH   6  12
TORSDOF 3
ENDMDL
MODEL 6
REMARK VINA RESULT:    -3.711      2.964      4.184
REMARK INTER + INTRA:          -4.347
REMARK INTER:                  -4.251
REMARK INTRA:                  -0.096
REMARK UNBOUND:                -0.093
REMARK SMILES COc1cc(C(=O)[O-])ccc1O
REMARK SMILES IDX 5 1 9 2 4 3 10 4 3 5 11 6 6 7 7 8 8 9 2 10 1 11 12 12
REMARK H PARENT 12 13
REMARK Flexibility Score: inf
ROOT
ATOM      1  C   UNL     1      15.271  -7.037  23.860  1.00  0.00     0.001 A 
ATOM      2  C   UNL     1      13.910  -6.890  23.552  1.00  0.00     0.014 A 
ATOM      3  C   UNL     1      15.982  -5.932  24.366  1.00  0.00     0.060 A 
ATOM      4  C   UNL     1      13.270  -5.665  23.745  1.00  0.00     0.051 A 
ATOM      5  C   UNL     1      15.339  -4.693  24.563  1.00  0.00     0.161 A 
ATOM      6  C   UNL     1      13.975  -4.568  24.248  1.00  0.00     0.157 A 
ENDROOT
BRANCH   1   7
ATOM      7  C   UNL     1      15.946  -8.339  23.653  1.00  0.00     0.072 C 
ATOM      8  O   UNL     1      16.281  -8.710  22.497  1.00  0.00    -0.545 OA
ATOM      9  O   UNL     1      16.221  -9.168  24.734  1.00  0.00    -0.545 OA
ENDBRANCH   1   7
BRANCH   5  10
ATOM     10  O   UNL     1      16.022  -3.574  25.067  1.00  0.00    -0.493 OA
ATOM     11  C   UNL     1      16.903  -2.753  24.306  1.00  0.00     0.278 C 
ENDBRANCH   5  10
BRANCH   6  12
ATOM     12  O   UNL     1      13.300  -3.361  24.427  1.00  0.00    -0.504 OA
ATOM     13  H   UNL     1      13.059  -2.756  23.651  1.00  0.00     0.293 HD
ENDBRANCH   6  12
TORSDOF 3
ENDMDL
MODEL 7
REMARK VINA RESULT:    -3.709      2.588      4.319
REMARK INTER + INTRA:          -4.344
REMARK INTER:                  -4.247
REMARK INTRA:                  -0.097
REMARK UNBOUND:                -0.093
REMARK SMILES COc1cc(C(=O)[O-])ccc1O
REMARK SMILES IDX 5 1 9 2 4 3 10 4 3 5 11 6 6 7 7 8 8 9 2 10 1 11 12 12
REMARK H PARENT 12 13
REMARK Flexibility Score: inf
ROOT
ATOM      1  C   UNL     1      15.678  -6.667  24.089  1.00  0.00     0.001 A 
ATOM      2  C   UNL     1      16.094  -5.425  24.592  1.00  0.00     0.014 A 
ATOM      3  C   UNL     1      14.345  -6.822  23.663  1.00  0.00     0.060 A 
ATOM      4  C   UNL     1      15.197  -4.358  24.668  1.00  0.00     0.051 A 
ATOM      5  C   UNL     1      13.436  -5.747  23.738  1.00  0.00     0.161 A 
ATOM      6  C   UNL     1      13.875  -4.511  24.245  1.00  0.00     0.157 A 
ENDROOT
BRANCH   1   7
ATOM      7  C   UNL     1      16.632  -7.797  24.010  1.00  0.00     0.072 C 
ATOM      8  O   UNL     1      17.679  -7.704  23.316  1.00  0.00    -0.545 OA
ATOM      9  O   UNL     1      16.386  -8.976  24.704  1.00  0.00    -0.545 OA
ENDBRANCH   1   7
BRANCH   5  10
ATOM     10  O   UNL     1      12.101  -5.872  23.321  1.00  0.00    -0.493 OA
ATOM     11  C   UNL     1      11.050  -6.404  24.120  1.00  0.00     0.278 C 
ENDBRANCH   5  10
BRANCH   6  12
ATOM     12  O   UNL     1      13.009  -3.421  24.337  1.00  0.00    -0.504 OA
ATOM     13  H   UNL     1      12.691  -2.914  23.520  1.00  0.00     0.293 HD
ENDBRANCH   6  12
TORSDOF 3
ENDMDL
MODEL 8
REMARK VINA RESULT:    -3.621     13.396     15.178
REMARK INTER + INTRA:          -4.244
REMARK INTER:                  -4.147
REMARK INTRA:                  -0.097
REMARK UNBOUND:                -0.093
REMARK SMILES COc1cc(C(=O)[O-])ccc1O
REMARK SMILES IDX 5 1 9 2 4 3 10 4 3 5 11 6 6 7 7 8 8 9 2 10 1 11 12 12
REMARK H PARENT 12 13
REMARK Flexibility Score: inf
ROOT
ATOM      1  C   UNL     1      22.965   5.877  24.199  1.00  0.00     0.001 A 
ATOM      2  C   UNL     1      22.489   4.662  24.718  1.00  0.00     0.014 A 
ATOM      3  C   UNL     1      24.305   5.962  23.776  1.00  0.00     0.060 A 
ATOM      4  C   UNL     1      23.333   3.555  24.812  1.00  0.00     0.051 A 
ATOM      5  C   UNL     1      25.161   4.846  23.869  1.00  0.00     0.161 A 
ATOM      6  C   UNL     1      24.663   3.639  24.391  1.00  0.00     0.157 A 
ENDROOT
BRANCH   1   7
ATOM      7  C   UNL     1      22.066   7.049  24.102  1.00  0.00     0.072 C 
ATOM      8  O   UNL     1      20.881   6.916  23.698  1.00  0.00    -0.545 OA
ATOM      9  O   UNL     1      22.519   8.314  24.459  1.00  0.00    -0.545 OA
ENDBRANCH   1   7
BRANCH   5  10
ATOM     10  O   UNL     1      26.502   4.901  23.455  1.00  0.00    -0.493 OA
ATOM     11  C   UNL     1      27.529   5.619  24.131  1.00  0.00     0.278 C 
ENDBRANCH   5  10
BRANCH   6  12
ATOM     12  O   UNL     1      25.475   2.510  24.501  1.00  0.00    -0.504 OA
ATOM     13  H   UNL     1      26.486   2.571  24.510  1.00  0.00     0.293 HD
ENDBRANCH   6  12
TORSDOF 3
ENDMDL
MODEL 9
REMARK VINA RESULT:    -3.608      2.276      2.714
REMARK INTER + INTRA:          -4.229
REMARK INTER:                  -4.127
REMARK INTRA:                  -0.101
REMARK UNBOUND:                -0.093
REMARK SMILES COc1cc(C(=O)[O-])ccc1O
REMARK SMILES IDX 5 1 9 2 4 3 10 4 3 5 11 6 6 7 7 8 8 9 2 10 1 11 12 12
REMARK H PARENT 12 13
REMARK Flexibility Score: inf
ROOT
ATOM      1  C   UNL     1      20.006  -8.298  24.573  1.00  0.00     0.001 A 
ATOM      2  C   UNL     1      19.190  -8.285  25.715  1.00  0.00     0.014 A 
ATOM      3  C   UNL     1      19.483  -8.791  23.363  1.00  0.00     0.060 A 
ATOM      4  C   UNL     1      17.877  -8.754  25.650  1.00  0.00     0.051 A 
ATOM      5  C   UNL     1      18.157  -9.266  23.293  1.00  0.00     0.161 A 
ATOM      6  C   UNL     1      17.357  -9.243  24.449  1.00  0.00     0.157 A 
ENDROOT
BRANCH   1   7
ATOM      7  C   UNL     1      21.399  -7.800  24.646  1.00  0.00     0.072 C 
ATOM      8  O   UNL     1      21.696  -6.839  25.404  1.00  0.00    -0.545 OA
ATOM      9  O   UNL     1      22.398  -8.389  23.880  1.00  0.00    -0.545 OA
ENDBRANCH   1   7
BRANCH   5  10
ATOM     10  O   UNL     1      17.607  -9.763  22.100  1.00  0.00    -0.493 OA
ATOM     11  C   UNL     1      17.099  -8.953  21.045  1.00  0.00     0.278 C 
ENDBRANCH   5  10
BRANCH   6  12
ATOM     12  O   UNL     1      16.040  -9.702  24.424  1.00  0.00    -0.504 OA
ATOM     13  H   UNL     1      15.790 -10.606  24.041  1.00  0.00     0.293 HD
ENDBRANCH   6  12
TORSDOF 3
ENDMDL
