MODEL 1
REMARK VINA RESULT:    -5.225      0.000      0.000
REMARK INTER + INTRA:          -9.628
REMARK INTER:                  -7.974
REMARK INTRA:                  -1.654
REMARK UNBOUND:                -1.654
REMARK SMILES CCCCCCCCCC=CC(=O)[O-]
REMARK SMILES IDX 7 1 8 2 9 3 10 4 11 5 12 6 13 7 14 8 6 9 5 10 4 11 3 12 2 13
REMARK SMILES IDX 1 14
REMARK H PARENT
REMARK Flexibility Score: inf
ROOT
ATOM      1  C   UNL     1     -30.030  -1.465  21.759  1.00  0.00     0.000 C 
ENDROOT
BRANCH   1   2
ATOM      2  C   UNL     1     -30.946  -1.210  22.968  1.00  0.00     0.004 C 
BRANCH   2   3
ATOM      3  C   UNL     1     -31.037   0.284  23.319  1.00  0.00     0.027 C 
BRANCH   3   4
ATOM      4  C   UNL     1     -30.291   0.624  24.579  1.00  0.00    -0.025 C 
ATOM      5  C   UNL     1     -30.506  -0.040  25.720  1.00  0.00     0.020 C 
BRANCH   5   6
ATOM      6  C   UNL     1     -29.782   0.271  26.962  1.00  0.00     0.064 C 
ATOM      7  O   UNL     1     -30.173   1.191  27.730  1.00  0.00    -0.545 OA
ATOM      8  O   UNL     1     -28.650  -0.461  27.295  1.00  0.00    -0.545 OA
ENDBRANCH   5   6
ENDBRANCH   3   4
ENDBRANCH   2   3
ENDBRANCH   1   2
BRANCH   1   9
ATOM      9  C   UNL     1     -28.725  -2.190  22.138  1.00  0.00     0.000 C 
BRANCH   9  10
ATOM     10  C   UNL     1     -28.629  -2.643  23.606  1.00  0.00     0.000 C 
BRANCH  10  11
ATOM     11  C   UNL     1     -27.505  -1.935  24.381  1.00  0.00    -0.000 C 
BRANCH  11  12
ATOM     12  C   UNL     1     -26.602  -1.090  23.467  1.00  0.00    -0.000 C 
BRANCH  12  13
ATOM     13  C   UNL     1     -26.637   0.404  23.817  1.00  0.00    -0.003 C 
ATOM     14  C   UNL     1     -27.265   1.217  22.690  1.00  0.00     0.004 C 
ENDBRANCH  12  13
ENDBRANCH  11  12
ENDBRANCH  10  11
ENDBRANCH   9  10
ENDBRANCH   1   9
TORSDOF 9
ENDMDL
MODEL 2
REMARK VINA RESULT:    -5.205      3.305      5.159
REMARK INTER + INTRA:          -9.597
REMARK INTER:                  -7.941
REMARK INTRA:                  -1.657
REMARK UNBOUND:                -1.654
REMARK SMILES CCCCCCCCCC=CC(=O)[O-]
REMARK SMILES IDX 7 1 8 2 9 3 10 4 11 5 12 6 13 7 14 8 6 9 5 10 4 11 3 12 2 13
REMARK SMILES IDX 1 14
REMARK H PARENT
REMARK Flexibility Score: inf
ROOT
ATOM      1  C   UNL     1     -26.851  -1.088  24.270  1.00  0.00     0.000 C 
ENDROOT
BRANCH   1   2
ATOM      2  C   UNL     1     -27.145   0.418  24.164  1.00  0.00     0.004 C 
BRANCH   2   3
ATOM      3  C   UNL     1     -27.478   0.842  22.725  1.00  0.00     0.027 C 
BRANCH   3   4
ATOM      4  C   UNL     1     -27.441  -0.313  21.764  1.00  0.00    -0.025 C 
ATOM      5  C   UNL     1     -28.411  -0.506  20.864  1.00  0.00     0.020 C 
BRANCH   5   6
ATOM      6  C   UNL     1     -28.391  -1.625  19.909  1.00  0.00     0.064 C 
ATOM      7  O   UNL     1     -28.702  -2.793  20.267  1.00  0.00    -0.545 OA
ATOM      8  O   UNL     1     -28.024  -1.391  18.590  1.00  0.00    -0.545 OA
ENDBRANCH   5   6
ENDBRANCH   3   4
ENDBRANCH   2   3
ENDBRANCH   1   2
BRANCH   1   9
ATOM      9  C   UNL     1     -27.990  -1.876  24.944  1.00  0.00     0.000 C 
BRANCH   9  10
ATOM     10  C   UNL     1     -28.786  -2.806  24.010  1.00  0.00     0.000 C 
BRANCH  10  11
ATOM     11  C   UNL     1     -30.157  -2.230  23.616  1.00  0.00    -0.000 C 
BRANCH  11  12
ATOM     12  C   UNL     1     -30.666  -1.182  24.619  1.00  0.00    -0.000 C 
BRANCH  12  13
ATOM     13  C   UNL     1     -30.897   0.192  23.973  1.00  0.00    -0.003 C 
ATOM     14  C   UNL     1     -31.647   0.057  22.651  1.00  0.00     0.004 C 
ENDBRANCH  12  13
ENDBRANCH  11  12
ENDBRANCH  10  11
ENDBRANCH   9  10
ENDBRANCH   1   9
TORSDOF 9
ENDMDL
MODEL 3
REMARK VINA RESULT:    -5.181      1.399      3.580
REMARK INTER + INTRA:          -9.561
REMARK INTER:                  -7.842
REMARK INTRA:                  -1.719
REMARK UNBOUND:                -1.654
REMARK SMILES CCCCCCCCCC=CC(=O)[O-]
REMARK SMILES IDX 7 1 8 2 9 3 10 4 11 5 12 6 13 7 14 8 6 9 5 10 4 11 3 12 2 13
REMARK SMILES IDX 1 14
REMARK H PARENT
REMARK Flexibility Score: inf
ROOT
ATOM      1  C   UNL     1     -27.633  -0.886  21.693  1.00  0.00     0.000 C 
ENDROOT
BRANCH   1   2
ATOM      2  C   UNL     1     -26.834  -0.340  22.889  1.00  0.00     0.004 C 
BRANCH   2   3
ATOM      3  C   UNL     1     -26.705  -1.374  24.018  1.00  0.00     0.027 C 
BRANCH   3   4
ATOM      4  C   UNL     1     -27.639  -1.095  25.161  1.00  0.00    -0.025 C 
ATOM      5  C   UNL     1     -27.800   0.140  25.648  1.00  0.00     0.020 C 
BRANCH   5   6
ATOM      6  C   UNL     1     -28.714   0.437  26.761  1.00  0.00     0.064 C 
ATOM      7  O   UNL     1     -29.694   1.215  26.610  1.00  0.00    -0.545 OA
ATOM      8  O   UNL     1     -28.496  -0.152  28.000  1.00  0.00    -0.545 OA
ENDBRANCH   5   6
ENDBRANCH   3   4
ENDBRANCH   2   3
ENDBRANCH   1   2
BRANCH   1   9
ATOM      9  C   UNL     1     -28.911  -0.077  21.405  1.00  0.00     0.000 C 
BRANCH   9  10
ATOM     10  C   UNL     1     -29.146   1.128  22.334  1.00  0.00     0.000 C 
BRANCH  10  11
ATOM     11  C   UNL     1     -30.431   0.999  23.169  1.00  0.00    -0.000 C 
BRANCH  11  12
ATOM     12  C   UNL     1     -31.204  -0.295  22.866  1.00  0.00    -0.000 C 
BRANCH  12  13
ATOM     13  C   UNL     1     -31.218  -1.268  24.054  1.00  0.00    -0.003 C 
ATOM     14  C   UNL     1     -30.619  -2.617  23.666  1.00  0.00     0.004 C 
ENDBRANCH  12  13
ENDBRANCH  11  12
ENDBRANCH  10  11
ENDBRANCH   9  10
ENDBRANCH   1   9
TORSDOF 9
ENDMDL
MODEL 4
REMARK VINA RESULT:    -5.168      3.234      5.375
REMARK INTER + INTRA:          -9.541
REMARK INTER:                  -8.004
REMARK INTRA:                  -1.537
REMARK UNBOUND:                -1.654
REMARK SMILES CCCCCCCCCC=CC(=O)[O-]
REMARK SMILES IDX 7 1 8 2 9 3 10 4 11 5 12 6 13 7 14 8 6 9 5 10 4 11 3 12 2 13
REMARK SMILES IDX 1 14
REMARK H PARENT
REMARK Flexibility Score: inf
ROOT
ATOM      1  C   UNL     1     -27.845  -1.063  25.291  1.00  0.00     0.000 C 
ENDROOT
BRANCH   1   2
ATOM      2  C   UNL     1     -26.721  -0.897  24.254  1.00  0.00     0.004 C 
BRANCH   2   3
ATOM      3  C   UNL     1     -26.951   0.319  23.342  1.00  0.00     0.027 C 
BRANCH   3   4
ATOM      4  C   UNL     1     -27.615  -0.053  22.047  1.00  0.00    -0.025 C 
ATOM      5  C   UNL     1     -27.622  -1.313  21.599  1.00  0.00     0.020 C 
BRANCH   5   6
ATOM      6  C   UNL     1     -28.272  -1.700  20.338  1.00  0.00     0.064 C 
ATOM      7  O   UNL     1     -28.875  -2.801  20.228  1.00  0.00    -0.545 OA
ATOM      8  O   UNL     1     -28.222  -0.838  19.251  1.00  0.00    -0.545 OA
ENDBRANCH   5   6
ENDBRANCH   3   4
ENDBRANCH   2   3
ENDBRANCH   1   2
BRANCH   1   9
ATOM      9  C   UNL     1     -28.104   0.217  26.105  1.00  0.00     0.000 C 
BRANCH   9  10
ATOM     10  C   UNL     1     -29.551   0.742  26.059  1.00  0.00     0.000 C 
BRANCH  10  11
ATOM     11  C   UNL     1     -30.505  -0.196  25.302  1.00  0.00    -0.000 C 
BRANCH  11  12
ATOM     12  C   UNL     1     -30.813   0.301  23.879  1.00  0.00    -0.000 C 
BRANCH  12  13
ATOM     13  C   UNL     1     -31.204  -0.838  22.926  1.00  0.00    -0.003 C 
ATOM     14  C   UNL     1     -30.790  -2.192  23.492  1.00  0.00     0.004 C 
ENDBRANCH  12  13
ENDBRANCH  11  12
ENDBRANCH  10  11
ENDBRANCH   9  10
ENDBRANCH   1   9
TORSDOF 9
ENDMDL
MODEL 5
REMARK VINA RESULT:    -5.149      0.900      1.719
REMARK INTER + INTRA:          -9.511
REMARK INTER:                  -7.946
REMARK INTRA:                  -1.566
REMARK UNBOUND:                -1.654
REMARK SMILES CCCCCCCCCC=CC(=O)[O-]
REMARK SMILES IDX 7 1 8 2 9 3 10 4 11 5 12 6 13 7 14 8 6 9 5 10 4 11 3 12 2 13
REMARK SMILES IDX 1 14
REMARK H PARENT
REMARK Flexibility Score: inf
ROOT
ATOM      1  C   UNL     1     -30.035  -2.125  22.268  1.00  0.00     0.000 C 
ENDROOT
BRANCH   1   2
ATOM      2  C   UNL     1     -30.939  -1.657  23.421  1.00  0.00     0.004 C 
BRANCH   2   3
ATOM      3  C   UNL     1     -31.086  -0.128  23.456  1.00  0.00     0.027 C 
BRANCH   3   4
ATOM      4  C   UNL     1     -30.389   0.489  24.635  1.00  0.00    -0.025 C 
ATOM      5  C   UNL     1     -30.304  -0.145  25.809  1.00  0.00     0.020 C 
BRANCH   5   6
ATOM      6  C   UNL     1     -29.620   0.437  26.974  1.00  0.00     0.064 C 
ATOM      7  O   UNL     1     -30.203   1.262  27.726  1.00  0.00    -0.545 OA
ATOM      8  O   UNL     1     -28.309   0.070  27.250  1.00  0.00    -0.545 OA
ENDBRANCH   5   6
ENDBRANCH   3   4
ENDBRANCH   2   3
ENDBRANCH   1   2
BRANCH   1   9
ATOM      9  C   UNL     1     -30.091  -1.191  21.045  1.00  0.00     0.000 C 
BRANCH   9  10
ATOM     10  C   UNL     1     -28.723  -0.768  20.480  1.00  0.00     0.000 C 
BRANCH  10  11
ATOM     11  C   UNL     1     -27.590  -0.865  21.517  1.00  0.00    -0.000 C 
BRANCH  11  12
ATOM     12  C   UNL     1     -27.484   0.395  22.392  1.00  0.00    -0.000 C 
BRANCH  12  13
ATOM     13  C   UNL     1     -26.725   0.142  23.703  1.00  0.00    -0.003 C 
ATOM     14  C   UNL     1     -26.975  -1.272  24.218  1.00  0.00     0.004 C 
ENDBRANCH  12  13
ENDBRANCH  11  12
ENDBRANCH  10  11
ENDBRANCH   9  10
ENDBRANCH   1   9
TORSDOF 9
ENDMDL
MODEL 6
REMARK VINA RESULT:    -5.104      3.432      4.826
REMARK INTER + INTRA:          -9.443
REMARK INTER:                  -7.853
REMARK INTRA:                  -1.590
REMARK UNBOUND:                -1.654
REMARK SMILES CCCCCCCCCC=CC(=O)[O-]
REMARK SMILES IDX 7 1 8 2 9 3 10 4 11 5 12 6 13 7 14 8 6 9 5 10 4 11 3 12 2 13
REMARK SMILES IDX 1 14
REMARK H PARENT
REMARK Flexibility Score: inf
ROOT
ATOM      1  C   UNL     1     -31.147   0.190  23.190  1.00  0.00     0.000 C 
ENDROOT
BRANCH   1   2
ATOM      2  C   UNL     1     -31.157  -1.094  24.038  1.00  0.00     0.004 C 
BRANCH   2   3
ATOM      3  C   UNL     1     -30.301  -2.206  23.412  1.00  0.00     0.027 C 
BRANCH   3   4
ATOM      4  C   UNL     1     -30.095  -2.010  21.936  1.00  0.00    -0.025 C 
ATOM      5  C   UNL     1     -28.926  -2.289  21.349  1.00  0.00     0.020 C 
BRANCH   5   6
ATOM      6  C   UNL     1     -28.705  -2.111  19.906  1.00  0.00     0.064 C 
ATOM      7  O   UNL     1     -29.052  -2.998  19.080  1.00  0.00    -0.545 OA
ATOM      8  O   UNL     1     -28.105  -0.947  19.444  1.00  0.00    -0.545 OA
ENDBRANCH   5   6
ENDBRANCH   3   4
ENDBRANCH   2   3
ENDBRANCH   1   2
BRANCH   1   9
ATOM      9  C   UNL     1     -30.021   1.163  23.588  1.00  0.00     0.000 C 
BRANCH   9  10
ATOM     10  C   UNL     1     -28.906   1.338  22.542  1.00  0.00     0.000 C 
BRANCH  10  11
ATOM     11  C   UNL     1     -27.540   0.827  23.031  1.00  0.00    -0.000 C 
BRANCH  11  12
ATOM     12  C   UNL     1     -27.539   0.490  24.531  1.00  0.00    -0.000 C 
BRANCH  12  13
ATOM     13  C   UNL     1     -27.207  -0.984  24.806  1.00  0.00    -0.003 C 
ATOM     14  C   UNL     1     -26.219  -1.524  23.777  1.00  0.00     0.004 C 
ENDBRANCH  12  13
ENDBRANCH  11  12
ENDBRANCH  10  11
ENDBRANCH   9  10
ENDBRANCH   1   9
TORSDOF 9
ENDMDL
MODEL 7
REMARK VINA RESULT:    -5.094      1.207      3.315
REMARK INTER + INTRA:          -9.429
REMARK INTER:                  -7.968
REMARK INTRA:                  -1.461
REMARK UNBOUND:                -1.654
REMARK SMILES CCCCCCCCCC=CC(=O)[O-]
REMARK SMILES IDX 7 1 8 2 9 3 10 4 11 5 12 6 13 7 14 8 6 9 5 10 4 11 3 12 2 13
REMARK SMILES IDX 1 14
REMARK H PARENT
REMARK Flexibility Score: inf
ROOT
ATOM      1  C   UNL     1     -27.657   0.005  22.119  1.00  0.00     0.000 C 
ENDROOT
BRANCH   1   2
ATOM      2  C   UNL     1     -26.672  -0.075  23.299  1.00  0.00     0.004 C 
BRANCH   2   3
ATOM      3  C   UNL     1     -26.884  -1.341  24.142  1.00  0.00     0.027 C 
BRANCH   3   4
ATOM      4  C   UNL     1     -27.874  -1.133  25.253  1.00  0.00    -0.025 C 
ATOM      5  C   UNL     1     -27.972   0.037  25.893  1.00  0.00     0.020 C 
BRANCH   5   6
ATOM      6  C   UNL     1     -28.939   0.266  26.977  1.00  0.00     0.064 C 
ATOM      7  O   UNL     1     -28.594   0.181  28.187  1.00  0.00    -0.545 OA
ATOM      8  O   UNL     1     -30.255   0.581  26.664  1.00  0.00    -0.545 OA
ENDBRANCH   5   6
ENDBRANCH   3   4
ENDBRANCH   2   3
ENDBRANCH   1   2
BRANCH   1   9
ATOM      9  C   UNL     1     -27.486  -1.150  21.115  1.00  0.00     0.000 C 
BRANCH   9  10
ATOM     10  C   UNL     1     -28.648  -2.159  21.071  1.00  0.00     0.000 C 
BRANCH  10  11
ATOM     11  C   UNL     1     -29.982  -1.557  21.546  1.00  0.00    -0.000 C 
BRANCH  11  12
ATOM     12  C   UNL     1     -30.463  -2.166  22.874  1.00  0.00    -0.000 C 
BRANCH  12  13
ATOM     13  C   UNL     1     -31.271  -1.172  23.721  1.00  0.00    -0.003 C 
ATOM     14  C   UNL     1     -31.166   0.241  23.157  1.00  0.00     0.004 C 
ENDBRANCH  12  13
ENDBRANCH  11  12
ENDBRANCH  10  11
ENDBRANCH   9  10
ENDBRANCH   1   9
TORSDOF 9
ENDMDL
MODEL 8
REMARK VINA RESULT:    -5.091      3.167      4.591
REMARK INTER + INTRA:          -9.424
REMARK INTER:                  -7.880
REMARK INTRA:                  -1.544
REMARK UNBOUND:                -1.654
REMARK SMILES CCCCCCCCCC=CC(=O)[O-]
REMARK SMILES IDX 7 1 8 2 9 3 10 4 11 5 12 6 13 7 14 8 6 9 5 10 4 11 3 12 2 13
REMARK SMILES IDX 1 14
REMARK H PARENT
REMARK Flexibility Score: inf
ROOT
ATOM      1  C   UNL     1     -30.462   0.616  24.584  1.00  0.00     0.000 C 
ENDROOT
BRANCH   1   2
ATOM      2  C   UNL     1     -31.047   0.028  23.288  1.00  0.00     0.004 C 
BRANCH   2   3
ATOM      3  C   UNL     1     -30.918  -1.502  23.240  1.00  0.00     0.027 C 
BRANCH   3   4
ATOM      4  C   UNL     1     -29.836  -1.958  22.302  1.00  0.00    -0.025 C 
ATOM      5  C   UNL     1     -29.825  -1.594  21.016  1.00  0.00     0.020 C 
BRANCH   5   6
ATOM      6  C   UNL     1     -28.771  -2.022  20.083  1.00  0.00     0.064 C 
ATOM      7  O   UNL     1     -27.574  -1.662  20.243  1.00  0.00    -0.545 OA
ATOM      8  O   UNL     1     -29.100  -2.839  19.009  1.00  0.00    -0.545 OA
ENDBRANCH   5   6
ENDBRANCH   3   4
ENDBRANCH   2   3
ENDBRANCH   1   2
BRANCH   1   9
ATOM      9  C   UNL     1     -30.340  -0.424  25.713  1.00  0.00     0.000 C 
BRANCH   9  10
ATOM     10  C   UNL     1     -29.018  -0.385  26.501  1.00  0.00     0.000 C 
BRANCH  10  11
ATOM     11  C   UNL     1     -27.823   0.063  25.643  1.00  0.00    -0.000 C 
BRANCH  11  12
ATOM     12  C   UNL     1     -27.230  -1.087  24.812  1.00  0.00    -0.000 C 
BRANCH  12  13
ATOM     13  C   UNL     1     -26.556  -0.599  23.522  1.00  0.00    -0.003 C 
ATOM     14  C   UNL     1     -27.156   0.724  23.056  1.00  0.00     0.004 C 
ENDBRANCH  12  13
ENDBRANCH  11  12
ENDBRANCH  10  11
ENDBRANCH   9  10
ENDBRANCH   1   9
TORSDOF 9
ENDMDL
MODEL 9
REMARK VINA RESULT:    -4.922      3.515      4.950
REMARK INTER + INTRA:          -9.166
REMARK INTER:                  -7.784
REMARK INTRA:                  -1.382
REMARK UNBOUND:                -1.654
REMARK SMILES CCCCCCCCCC=CC(=O)[O-]
REMARK SMILES IDX 7 1 8 2 9 3 10 4 11 5 12 6 13 7 14 8 6 9 5 10 4 11 3 12 2 13
REMARK SMILES IDX 1 14
REMARK H PARENT
REMARK Flexibility Score: inf
ROOT
ATOM      1  C   UNL     1     -30.960   0.414  22.852  1.00  0.00     0.000 C 
ENDROOT
BRANCH   1   2
ATOM      2  C   UNL     1     -31.159  -0.898  23.631  1.00  0.00     0.004 C 
BRANCH   2   3
ATOM      3  C   UNL     1     -30.422  -2.076  22.976  1.00  0.00     0.027 C 
BRANCH   3   4
ATOM      4  C   UNL     1     -30.148  -1.842  21.517  1.00  0.00    -0.025 C 
ATOM      5  C   UNL     1     -28.997  -2.221  20.951  1.00  0.00     0.020 C 
BRANCH   5   6
ATOM      6  C   UNL     1     -28.712  -2.009  19.524  1.00  0.00     0.064 C 
ATOM      7  O   UNL     1     -28.104  -0.979  19.127  1.00  0.00    -0.545 OA
ATOM      8  O   UNL     1     -29.117  -2.961  18.597  1.00  0.00    -0.545 OA
ENDBRANCH   5   6
ENDBRANCH   3   4
ENDBRANCH   2   3
ENDBRANCH   1   2
BRANCH   1   9
ATOM      9  C   UNL     1     -29.803   1.268  23.402  1.00  0.00     0.000 C 
BRANCH   9  10
ATOM     10  C   UNL     1     -28.454   1.087  22.681  1.00  0.00     0.000 C 
BRANCH  10  11
ATOM     11  C   UNL     1     -27.288   0.825  23.649  1.00  0.00    -0.000 C 
BRANCH  11  12
ATOM     12  C   UNL     1     -27.192  -0.651  24.070  1.00  0.00    -0.000 C 
BRANCH  12  13
ATOM     13  C   UNL     1     -27.875  -0.927  25.417  1.00  0.00    -0.003 C 
ATOM     14  C   UNL     1     -27.839   0.306  26.314  1.00  0.00     0.004 C 
ENDBRANCH  12  13
ENDBRANCH  11  12
ENDBRANCH  10  11
ENDBRANCH   9  10
ENDBRANCH   1   9
TORSDOF 9
ENDMDL
