MODEL 1
REMARK VINA RESULT:    -3.749      0.000      0.000
REMARK INTER + INTRA:          -6.298
REMARK INTER:                  -5.721
REMARK INTRA:                  -0.577
REMARK UNBOUND:                -0.577
REMARK SMILES O=C([O-])CCCCCCCCC(=O)[O-]
REMARK SMILES IDX 7 1 6 2 5 3 4 4 2 5 1 6 3 7 8 8 9 9 10 10 11 11 12 12 13 13
REMARK SMILES IDX 14 14
REMARK H PARENT
REMARK Flexibility Score: inf
ROOT
ATOM      1  C   UNL     1       4.418  44.113  11.917  1.00  0.00     0.000 C 
ENDROOT
BRANCH   1   2
ATOM      2  C   UNL     1       4.377  44.164  10.385  1.00  0.00     0.000 C 
BRANCH   2   3
ATOM      3  C   UNL     1       2.929  44.227   9.876  1.00  0.00     0.006 C 
BRANCH   3   4
ATOM      4  C   UNL     1       2.229  42.863   9.944  1.00  0.00     0.053 C 
BRANCH   4   5
ATOM      5  C   UNL     1       1.133  42.850  10.966  1.00  0.00     0.041 C 
ATOM      6  O   UNL     1       0.116  42.130  10.795  1.00  0.00    -0.550 OA
ATOM      7  O   UNL     1       1.221  43.660  12.092  1.00  0.00    -0.550 OA
ENDBRANCH   4   5
ENDBRANCH   3   4
ENDBRANCH   2   3
ENDBRANCH   1   2
BRANCH   1   8
ATOM      8  C   UNL     1       5.687  44.784  12.455  1.00  0.00     0.000 C 
BRANCH   8   9
ATOM      9  C   UNL     1       6.656  45.125  11.317  1.00  0.00     0.000 C 
BRANCH   9  10
ATOM     10  C   UNL     1       8.029  44.484  11.551  1.00  0.00     0.006 C 
BRANCH  10  11
ATOM     11  C   UNL     1       8.260  43.313  10.591  1.00  0.00     0.053 C 
BRANCH  11  12
ATOM     12  C   UNL     1       7.730  42.042  11.179  1.00  0.00     0.041 C 
ATOM     13  O   UNL     1       7.211  41.169  10.435  1.00  0.00    -0.550 OA
ATOM     14  O   UNL     1       7.765  41.845  12.553  1.00  0.00    -0.550 OA
ENDBRANCH  11  12
ENDBRANCH  10  11
ENDBRANCH   9  10
ENDBRANCH   8   9
ENDBRANCH   1   8
TORSDOF 9
ENDMDL
MODEL 2
REMARK VINA RESULT:    -3.632      0.596      5.668
REMARK INTER + INTRA:          -6.120
REMARK INTER:                  -5.868
REMARK INTRA:                  -0.253
REMARK UNBOUND:                -0.577
REMARK SMILES O=C([O-])CCCCCCCCC(=O)[O-]
REMARK SMILES IDX 7 1 6 2 5 3 4 4 2 5 1 6 3 7 8 8 9 9 10 10 11 11 12 12 13 13
REMARK SMILES IDX 14 14
REMARK H PARENT
REMARK Flexibility Score: inf
ROOT
ATOM      1  C   UNL     1       5.966  44.574  12.146  1.00  0.00     0.000 C 
ENDROOT
BRANCH   1   2
ATOM      2  C   UNL     1       6.776  45.122  10.965  1.00  0.00     0.000 C 
BRANCH   2   3
ATOM      3  C   UNL     1       7.870  44.130  10.543  1.00  0.00     0.006 C 
BRANCH   3   4
ATOM      4  C   UNL     1       8.530  43.444  11.747  1.00  0.00     0.053 C 
BRANCH   4   5
ATOM      5  C   UNL     1       7.919  42.105  12.029  1.00  0.00     0.041 C 
ATOM      6  O   UNL     1       7.706  41.744  13.215  1.00  0.00    -0.550 OA
ATOM      7  O   UNL     1       7.618  41.243  10.982  1.00  0.00    -0.550 OA
ENDBRANCH   4   5
ENDBRANCH   3   4
ENDBRANCH   2   3
ENDBRANCH   1   2
BRANCH   1   8
ATOM      8  C   UNL     1       4.513  44.305  11.738  1.00  0.00     0.000 C 
BRANCH   8   9
ATOM      9  C   UNL     1       4.247  44.776  10.302  1.00  0.00     0.000 C 
BRANCH   9  10
ATOM     10  C   UNL     1       2.807  44.466   9.878  1.00  0.00     0.006 C 
BRANCH  10  11
ATOM     11  C   UNL     1       2.464  42.995  10.133  1.00  0.00     0.053 C 
BRANCH  11  12
ATOM     12  C   UNL     1       1.234  42.883  10.977  1.00  0.00     0.041 C 
ATOM     13  O   UNL     1       0.284  42.139  10.618  1.00  0.00    -0.550 OA
ATOM     14  O   UNL     1       1.116  43.638  12.137  1.00  0.00    -0.550 OA
ENDBRANCH  11  12
ENDBRANCH  10  11
ENDBRANCH   9  10
ENDBRANCH   8   9
ENDBRANCH   1   8
TORSDOF 9
ENDMDL
MODEL 3
REMARK VINA RESULT:    -3.413      1.354      1.650
REMARK INTER + INTRA:          -5.786
REMARK INTER:                  -5.748
REMARK INTRA:                  -0.038
REMARK UNBOUND:                -0.577
REMARK SMILES O=C([O-])CCCCCCCCC(=O)[O-]
REMARK SMILES IDX 7 1 6 2 5 3 4 4 2 5 1 6 3 7 8 8 9 9 10 10 11 11 12 12 13 13
REMARK SMILES IDX 14 14
REMARK H PARENT
REMARK Flexibility Score: inf
ROOT
ATOM      1  C   UNL     1       5.091  45.123  10.868  1.00  0.00     0.000 C 
ENDROOT
BRANCH   1   2
ATOM      2  C   UNL     1       3.597  44.917  11.145  1.00  0.00     0.000 C 
BRANCH   2   3
ATOM      3  C   UNL     1       2.875  44.388   9.897  1.00  0.00     0.006 C 
BRANCH   3   4
ATOM      4  C   UNL     1       2.357  42.956  10.088  1.00  0.00     0.053 C 
BRANCH   4   5
ATOM      5  C   UNL     1       1.176  42.909  11.009  1.00  0.00     0.041 C 
ATOM      6  O   UNL     1       0.167  42.219  10.709  1.00  0.00    -0.550 OA
ATOM      7  O   UNL     1       1.176  43.654  12.182  1.00  0.00    -0.550 OA
ENDBRANCH   4   5
ENDBRANCH   3   4
ENDBRANCH   2   3
ENDBRANCH   1   2
BRANCH   1   8
ATOM      8  C   UNL     1       5.649  43.993   9.996  1.00  0.00     0.000 C 
BRANCH   8   9
ATOM      9  C   UNL     1       7.180  44.053   9.929  1.00  0.00     0.000 C 
BRANCH   9  10
ATOM     10  C   UNL     1       7.790  44.157  11.331  1.00  0.00     0.006 C 
BRANCH  10  11
ATOM     11  C   UNL     1       8.112  42.769  11.895  1.00  0.00     0.053 C 
BRANCH  11  12
ATOM     12  C   UNL     1       7.281  42.490  13.108  1.00  0.00     0.041 C 
ATOM     13  O   UNL     1       7.570  41.528  13.866  1.00  0.00    -0.550 OA
ATOM     14  O   UNL     1       6.159  43.263  13.374  1.00  0.00    -0.550 OA
ENDBRANCH  11  12
ENDBRANCH  10  11
ENDBRANCH   9  10
ENDBRANCH   8   9
ENDBRANCH   1   8
TORSDOF 9
ENDMDL
MODEL 4
REMARK VINA RESULT:    -2.818      1.465      5.549
REMARK INTER + INTRA:          -4.877
REMARK INTER:                  -4.248
REMARK INTRA:                  -0.629
REMARK UNBOUND:                -0.577
REMARK SMILES O=C([O-])CCCCCCCCC(=O)[O-]
REMARK SMILES IDX 7 1 6 2 5 3 4 4 2 5 1 6 3 7 8 8 9 9 10 10 11 11 12 12 13 13
REMARK SMILES IDX 14 14
REMARK H PARENT
REMARK Flexibility Score: inf
ROOT
ATOM      1  C   UNL     1       6.683  44.030   9.897  1.00  0.00     0.000 C 
ENDROOT
BRANCH   1   2
ATOM      2  C   UNL     1       8.095  44.373  10.386  1.00  0.00     0.000 C 
BRANCH   2   3
ATOM      3  C   UNL     1       8.636  43.277  11.316  1.00  0.00     0.006 C 
BRANCH   3   4
ATOM      4  C   UNL     1       7.572  42.224  11.655  1.00  0.00     0.053 C 
BRANCH   4   5
ATOM      5  C   UNL     1       7.049  42.390  13.049  1.00  0.00     0.041 C 
ATOM      6  O   UNL     1       6.166  43.253  13.295  1.00  0.00    -0.550 OA
ATOM      7  O   UNL     1       7.560  41.616  14.083  1.00  0.00    -0.550 OA
ENDBRANCH   4   5
ENDBRANCH   3   4
ENDBRANCH   2   3
ENDBRANCH   1   2
BRANCH   1   8
ATOM      8  C   UNL     1       5.684  45.125  10.288  1.00  0.00     0.000 C 
BRANCH   8   9
ATOM      9  C   UNL     1       4.247  44.703   9.959  1.00  0.00     0.000 C 
BRANCH   9  10
ATOM     10  C   UNL     1       3.812  43.511  10.818  1.00  0.00     0.006 C 
BRANCH  10  11
ATOM     11  C   UNL     1       2.642  42.764  10.170  1.00  0.00     0.053 C 
BRANCH  11  12
ATOM     12  C   UNL     1       1.391  42.958  10.968  1.00  0.00     0.041 C 
ATOM     13  O   UNL     1       1.415  43.630  12.032  1.00  0.00    -0.550 OA
ATOM     14  O   UNL     1       0.208  42.355  10.562  1.00  0.00    -0.550 OA
ENDBRANCH  11  12
ENDBRANCH  10  11
ENDBRANCH   9  10
ENDBRANCH   8   9
ENDBRANCH   1   8
TORSDOF 9
ENDMDL
MODEL 5
REMARK VINA RESULT:    -2.473      1.226      5.221
REMARK INTER + INTRA:          -4.351
REMARK INTER:                  -4.342
REMARK INTRA:                  -0.009
REMARK UNBOUND:                -0.577
REMARK SMILES O=C([O-])CCCCCCCCC(=O)[O-]
REMARK SMILES IDX 7 1 6 2 5 3 4 4 2 5 1 6 3 7 8 8 9 9 10 10 11 11 12 12 13 13
REMARK SMILES IDX 14 14
REMARK H PARENT
REMARK Flexibility Score: inf
ROOT
ATOM      1  C   UNL     1       6.121  43.219  13.684  1.00  0.00     0.000 C 
ENDROOT
BRANCH   1   2
ATOM      2  C   UNL     1       7.216  42.439  12.946  1.00  0.00     0.000 C 
BRANCH   2   3
ATOM      3  C   UNL     1       8.131  43.388  12.159  1.00  0.00     0.006 C 
BRANCH   3   4
ATOM      4  C   UNL     1       8.014  43.184  10.642  1.00  0.00     0.053 C 
BRANCH   4   5
ATOM      5  C   UNL     1       7.155  42.003  10.304  1.00  0.00     0.041 C 
ATOM      6  O   UNL     1       5.985  42.175   9.875  1.00  0.00    -0.550 OA
ATOM      7  O   UNL     1       7.636  40.714  10.495  1.00  0.00    -0.550 OA
ENDBRANCH   4   5
ENDBRANCH   3   4
ENDBRANCH   2   3
ENDBRANCH   1   2
BRANCH   1   8
ATOM      8  C   UNL     1       4.905  43.448  12.780  1.00  0.00     0.000 C 
BRANCH   8   9
ATOM      9  C   UNL     1       4.930  44.854  12.167  1.00  0.00     0.000 C 
BRANCH   9  10
ATOM     10  C   UNL     1       3.862  45.000  11.078  1.00  0.00     0.006 C 
BRANCH  10  11
ATOM     11  C   UNL     1       3.352  43.630  10.620  1.00  0.00     0.053 C 
BRANCH  11  12
ATOM     12  C   UNL     1       1.977  43.377  11.154  1.00  0.00     0.041 C 
ATOM     13  O   UNL     1       1.190  42.611  10.539  1.00  0.00    -0.550 OA
ATOM     14  O   UNL     1       1.548  44.027  12.303  1.00  0.00    -0.550 OA
ENDBRANCH  11  12
ENDBRANCH  10  11
ENDBRANCH   9  10
ENDBRANCH   8   9
ENDBRANCH   1   8
TORSDOF 9
ENDMDL
MODEL 6
REMARK VINA RESULT:    -2.387      2.657      3.595
REMARK INTER + INTRA:          -4.220
REMARK INTER:                  -3.897
REMARK INTRA:                  -0.323
REMARK UNBOUND:                -0.577
REMARK SMILES O=C([O-])CCCCCCCCC(=O)[O-]
REMARK SMILES IDX 7 1 6 2 5 3 4 4 2 5 1 6 3 7 8 8 9 9 10 10 11 11 12 12 13 13
REMARK SMILES IDX 14 14
REMARK H PARENT
REMARK Flexibility Score: inf
ROOT
ATOM      1  C   UNL     1       2.052  43.190  11.229  1.00  0.00     0.000 C 
ENDROOT
BRANCH   1   2
ATOM      2  C   UNL     1       1.651  43.982  12.479  1.00  0.00     0.000 C 
BRANCH   2   3
ATOM      3  C   UNL     1       0.175  43.741  12.832  1.00  0.00     0.006 C 
BRANCH   3   4
ATOM      4  C   UNL     1      -0.292  44.612  14.006  1.00  0.00     0.053 C 
BRANCH   4   5
ATOM      5  C   UNL     1      -1.665  44.233  14.469  1.00  0.00     0.041 C 
ATOM      6  O   UNL     1      -2.501  45.125  14.768  1.00  0.00    -0.550 OA
ATOM      7  O   UNL     1      -2.011  42.894  14.603  1.00  0.00    -0.550 OA
ENDBRANCH   4   5
ENDBRANCH   3   4
ENDBRANCH   2   3
ENDBRANCH   1   2
BRANCH   1   8
ATOM      8  C   UNL     1       2.965  44.022  10.321  1.00  0.00     0.000 C 
BRANCH   8   9
ATOM      9  C   UNL     1       3.998  44.802  11.143  1.00  0.00     0.000 C 
BRANCH   9  10
ATOM     10  C   UNL     1       5.421  44.317  10.844  1.00  0.00     0.006 C 
BRANCH  10  11
ATOM     11  C   UNL     1       6.221  44.126  12.136  1.00  0.00     0.053 C 
BRANCH  11  12
ATOM     12  C   UNL     1       7.422  43.270  11.887  1.00  0.00     0.041 C 
ATOM     13  O   UNL     1       7.645  42.265  12.612  1.00  0.00    -0.550 OA
ATOM     14  O   UNL     1       8.322  43.610  10.886  1.00  0.00    -0.550 OA
ENDBRANCH  11  12
ENDBRANCH  10  11
ENDBRANCH   9  10
ENDBRANCH   8   9
ENDBRANCH   1   8
TORSDOF 9
ENDMDL
MODEL 7
REMARK VINA RESULT:    -2.088      2.543      3.489
REMARK INTER + INTRA:          -3.763
REMARK INTER:                  -3.577
REMARK INTRA:                  -0.186
REMARK UNBOUND:                -0.577
REMARK SMILES O=C([O-])CCCCCCCCC(=O)[O-]
REMARK SMILES IDX 7 1 6 2 5 3 4 4 2 5 1 6 3 7 8 8 9 9 10 10 11 11 12 12 13 13
REMARK SMILES IDX 14 14
REMARK H PARENT
REMARK Flexibility Score: inf
ROOT
ATOM      1  C   UNL     1       1.935  43.369  10.640  1.00  0.00     0.000 C 
ENDROOT
BRANCH   1   2
ATOM      2  C   UNL     1       1.739  43.660  12.132  1.00  0.00     0.000 C 
BRANCH   2   3
ATOM      3  C   UNL     1       0.250  43.624  12.507  1.00  0.00     0.006 C 
BRANCH   3   4
ATOM      4  C   UNL     1      -0.067  44.512  13.719  1.00  0.00     0.053 C 
BRANCH   4   5
ATOM      5  C   UNL     1      -1.408  44.195  14.306  1.00  0.00     0.041 C 
ATOM      6  O   UNL     1      -2.186  45.125  14.645  1.00  0.00    -0.550 OA
ATOM      7  O   UNL     1      -1.784  42.874  14.512  1.00  0.00    -0.550 OA
ENDBRANCH   4   5
ENDBRANCH   3   4
ENDBRANCH   2   3
ENDBRANCH   1   2
BRANCH   1   8
ATOM      8  C   UNL     1       3.136  44.143  10.082  1.00  0.00     0.000 C 
BRANCH   8   9
ATOM      9  C   UNL     1       4.400  43.276  10.084  1.00  0.00     0.000 C 
BRANCH   9  10
ATOM     10  C   UNL     1       5.662  44.140  10.181  1.00  0.00     0.006 C 
BRANCH  10  11
ATOM     11  C   UNL     1       6.851  43.323  10.695  1.00  0.00     0.053 C 
BRANCH  11  12
ATOM     12  C   UNL     1       6.823  43.240  12.189  1.00  0.00     0.041 C 
ATOM     13  O   UNL     1       7.633  42.493  12.797  1.00  0.00    -0.550 OA
ATOM     14  O   UNL     1       5.871  43.951  12.906  1.00  0.00    -0.550 OA
ENDBRANCH  11  12
ENDBRANCH  10  11
ENDBRANCH   9  10
ENDBRANCH   8   9
ENDBRANCH   1   8
TORSDOF 9
ENDMDL
MODEL 8
REMARK VINA RESULT:    -1.016      1.860      2.883
REMARK INTER + INTRA:          -2.127
REMARK INTER:                  -2.621
REMARK INTRA:                   0.494
REMARK UNBOUND:                -0.577
REMARK SMILES O=C([O-])CCCCCCCCC(=O)[O-]
REMARK SMILES IDX 7 1 6 2 5 3 4 4 2 5 1 6 3 7 8 8 9 9 10 10 11 11 12 12 13 13
REMARK SMILES IDX 14 14
REMARK H PARENT
REMARK Flexibility Score: inf
ROOT
ATOM      1  C   UNL     1       7.182  44.621  10.477  1.00  0.00     0.000 C 
ENDROOT
BRANCH   1   2
ATOM      2  C   UNL     1       5.851  45.124  11.048  1.00  0.00     0.000 C 
BRANCH   2   3
ATOM      3  C   UNL     1       4.723  44.990  10.013  1.00  0.00     0.006 C 
BRANCH   3   4
ATOM      4  C   UNL     1       4.161  43.564   9.947  1.00  0.00     0.053 C 
BRANCH   4   5
ATOM      5  C   UNL     1       2.809  43.468  10.587  1.00  0.00     0.041 C 
ATOM      6  O   UNL     1       2.611  43.966  11.725  1.00  0.00    -0.550 OA
ATOM      7  O   UNL     1       1.777  42.800   9.939  1.00  0.00    -0.550 OA
ENDBRANCH   4   5
ENDBRANCH   3   4
ENDBRANCH   2   3
ENDBRANCH   1   2
BRANCH   1   8
ATOM      8  C   UNL     1       7.188  43.093  10.358  1.00  0.00     0.000 C 
BRANCH   8   9
ATOM      9  C   UNL     1       8.439  42.494  11.011  1.00  0.00     0.000 C 
BRANCH   9  10
ATOM     10  C   UNL     1       8.156  42.063  12.454  1.00  0.00     0.006 C 
BRANCH  10  11
ATOM     11  C   UNL     1       7.005  42.876  13.055  1.00  0.00     0.053 C 
BRANCH  11  12
ATOM     12  C   UNL     1       6.438  42.178  14.251  1.00  0.00     0.041 C 
ATOM     13  O   UNL     1       5.319  42.521  14.713  1.00  0.00    -0.550 OA
ATOM     14  O   UNL     1       7.169  41.182  14.884  1.00  0.00    -0.550 OA
ENDBRANCH  11  12
ENDBRANCH  10  11
ENDBRANCH   9  10
ENDBRANCH   8   9
ENDBRANCH   1   8
TORSDOF 9
ENDMDL
