MODEL 1
REMARK VINA RESULT:    -4.652      0.000      0.000
REMARK INTER + INTRA:          -5.864
REMARK INTER:                  -5.740
REMARK INTRA:                  -0.124
REMARK UNBOUND:                -0.124
REMARK SMILES CCCCCC(=O)[O-]
REMARK SMILES IDX 4 1 5 2 6 3 7 4 8 5 3 6 2 7 1 8
REMARK H PARENT
REMARK Flexibility Score: inf
ROOT
ATOM      1  C   UNL     1      52.530  50.490   5.212  1.00  0.00     0.006 C 
ENDROOT
BRANCH   1   2
ATOM      2  C   UNL     1      53.604  49.787   4.370  1.00  0.00     0.053 C 
BRANCH   2   3
ATOM      3  C   UNL     1      54.782  50.677   4.117  1.00  0.00     0.041 C 
ATOM      4  O   UNL     1      54.772  51.871   4.516  1.00  0.00    -0.550 OA
ATOM      5  O   UNL     1      55.903  50.177   3.465  1.00  0.00    -0.550 OA
ENDBRANCH   2   3
ENDBRANCH   1   2
BRANCH   1   6
ATOM      6  C   UNL     1      51.107  50.157   4.734  1.00  0.00     0.000 C 
BRANCH   6   7
ATOM      7  C   UNL     1      51.081  49.017   3.706  1.00  0.00    -0.003 C 
ATOM      8  C   UNL     1      49.887  49.103   2.755  1.00  0.00     0.004 C 
ENDBRANCH   6   7
ENDBRANCH   1   6
TORSDOF 4
ENDMDL
MODEL 2
REMARK VINA RESULT:    -4.588      2.834      3.933
REMARK INTER + INTRA:          -5.785
REMARK INTER:                  -5.544
REMARK INTRA:                  -0.241
REMARK UNBOUND:                -0.124
REMARK SMILES CCCCCC(=O)[O-]
REMARK SMILES IDX 4 1 5 2 6 3 7 4 8 5 3 6 2 7 1 8
REMARK H PARENT
REMARK Flexibility Score: inf
ROOT
ATOM      1  C   UNL     1      52.891  51.057   4.976  1.00  0.00     0.006 C 
ENDROOT
BRANCH   1   2
ATOM      2  C   UNL     1      52.451  50.845   6.431  1.00  0.00     0.053 C 
BRANCH   2   3
ATOM      3  C   UNL     1      53.591  51.024   7.387  1.00  0.00     0.041 C 
ATOM      4  O   UNL     1      54.045  50.038   8.025  1.00  0.00    -0.550 OA
ATOM      5  O   UNL     1      54.169  52.277   7.552  1.00  0.00    -0.550 OA
ENDBRANCH   2   3
ENDBRANCH   1   2
BRANCH   1   6
ATOM      6  C   UNL     1      53.666  49.849   4.422  1.00  0.00     0.000 C 
BRANCH   6   7
ATOM      7  C   UNL     1      55.040  50.239   3.857  1.00  0.00    -0.003 C 
ATOM      8  C   UNL     1      55.479  51.641   4.280  1.00  0.00     0.004 C 
ENDBRANCH   6   7
ENDBRANCH   1   6
TORSDOF 4
ENDMDL
MODEL 3
REMARK VINA RESULT:    -4.583      0.661      1.304
REMARK INTER + INTRA:          -5.778
REMARK INTER:                  -5.671
REMARK INTRA:                  -0.108
REMARK UNBOUND:                -0.124
REMARK SMILES CCCCCC(=O)[O-]
REMARK SMILES IDX 4 1 5 2 6 3 7 4 8 5 3 6 2 7 1 8
REMARK H PARENT
REMARK Flexibility Score: inf
ROOT
ATOM      1  C   UNL     1      53.022  50.299   5.267  1.00  0.00     0.006 C 
ENDROOT
BRANCH   1   2
ATOM      2  C   UNL     1      54.143  50.146   4.230  1.00  0.00     0.053 C 
BRANCH   2   3
ATOM      3  C   UNL     1      55.085  51.311   4.253  1.00  0.00     0.041 C 
ATOM      4  O   UNL     1      56.270  51.177   3.850  1.00  0.00    -0.550 OA
ATOM      5  O   UNL     1      54.644  52.551   4.697  1.00  0.00    -0.550 OA
ENDBRANCH   2   3
ENDBRANCH   1   2
BRANCH   1   6
ATOM      6  C   UNL     1      51.627  50.303   4.620  1.00  0.00     0.000 C 
BRANCH   6   7
ATOM      7  C   UNL     1      51.370  49.052   3.767  1.00  0.00    -0.003 C 
ATOM      8  C   UNL     1      50.070  49.138   2.966  1.00  0.00     0.004 C 
ENDBRANCH   6   7
ENDBRANCH   1   6
TORSDOF 4
ENDMDL
MODEL 4
REMARK VINA RESULT:    -4.572      1.924      2.866
REMARK INTER + INTRA:          -5.765
REMARK INTER:                  -5.638
REMARK INTRA:                  -0.127
REMARK UNBOUND:                -0.124
REMARK SMILES CCCCCC(=O)[O-]
REMARK SMILES IDX 4 1 5 2 6 3 7 4 8 5 3 6 2 7 1 8
REMARK H PARENT
REMARK Flexibility Score: inf
ROOT
ATOM      1  C   UNL     1      54.453  51.002   4.303  1.00  0.00     0.006 C 
ENDROOT
BRANCH   1   2
ATOM      2  C   UNL     1      53.788  52.180   5.028  1.00  0.00     0.053 C 
BRANCH   2   3
ATOM      3  C   UNL     1      54.209  52.257   6.464  1.00  0.00     0.041 C 
ATOM      4  O   UNL     1      55.381  51.941   6.799  1.00  0.00    -0.550 OA
ATOM      5  O   UNL     1      53.314  52.706   7.427  1.00  0.00    -0.550 OA
ENDBRANCH   2   3
ENDBRANCH   1   2
BRANCH   1   6
ATOM      6  C   UNL     1      53.599  49.725   4.364  1.00  0.00     0.000 C 
BRANCH   6   7
ATOM      7  C   UNL     1      52.103  50.023   4.537  1.00  0.00    -0.003 C 
ATOM      8  C   UNL     1      51.211  49.061   3.752  1.00  0.00     0.004 C 
ENDBRANCH   6   7
ENDBRANCH   1   6
TORSDOF 4
ENDMDL
MODEL 5
REMARK VINA RESULT:    -4.477      2.565      3.566
REMARK INTER + INTRA:          -5.648
REMARK INTER:                  -5.400
REMARK INTRA:                  -0.249
REMARK UNBOUND:                -0.124
REMARK SMILES CCCCCC(=O)[O-]
REMARK SMILES IDX 4 1 5 2 6 3 7 4 8 5 3 6 2 7 1 8
REMARK H PARENT
REMARK Flexibility Score: inf
ROOT
ATOM      1  C   UNL     1      54.040  52.166   5.053  1.00  0.00     0.006 C 
ENDROOT
BRANCH   1   2
ATOM      2  C   UNL     1      54.865  52.486   6.307  1.00  0.00     0.053 C 
BRANCH   2   3
ATOM      3  C   UNL     1      54.188  52.007   7.554  1.00  0.00     0.041 C 
ATOM      4  O   UNL     1      53.728  52.835   8.384  1.00  0.00    -0.550 OA
ATOM      5  O   UNL     1      54.041  50.645   7.786  1.00  0.00    -0.550 OA
ENDBRANCH   2   3
ENDBRANCH   1   2
BRANCH   1   6
ATOM      6  C   UNL     1      54.597  50.955   4.285  1.00  0.00     0.000 C 
BRANCH   6   7
ATOM      7  C   UNL     1      53.655  49.742   4.334  1.00  0.00    -0.003 C 
ATOM      8  C   UNL     1      52.215  50.123   4.679  1.00  0.00     0.004 C 
ENDBRANCH   6   7
ENDBRANCH   1   6
TORSDOF 4
ENDMDL
MODEL 6
REMARK VINA RESULT:    -4.469      2.732      4.346
REMARK INTER + INTRA:          -5.639
REMARK INTER:                  -5.497
REMARK INTRA:                  -0.141
REMARK UNBOUND:                -0.124
REMARK SMILES CCCCCC(=O)[O-]
REMARK SMILES IDX 4 1 5 2 6 3 7 4 8 5 3 6 2 7 1 8
REMARK H PARENT
REMARK Flexibility Score: inf
ROOT
ATOM      1  C   UNL     1      52.519  50.112   4.645  1.00  0.00     0.006 C 
ENDROOT
BRANCH   1   2
ATOM      2  C   UNL     1      52.326  50.653   6.068  1.00  0.00     0.053 C 
BRANCH   2   3
ATOM      3  C   UNL     1      51.546  51.932   6.074  1.00  0.00     0.041 C 
ATOM      4  O   UNL     1      51.375  52.577   5.006  1.00  0.00    -0.550 OA
ATOM      5  O   UNL     1      50.983  52.397   7.257  1.00  0.00    -0.550 OA
ENDBRANCH   2   3
ENDBRANCH   1   2
BRANCH   1   6
ATOM      6  C   UNL     1      54.005  49.977   4.271  1.00  0.00     0.000 C 
BRANCH   6   7
ATOM      7  C   UNL     1      54.770  51.301   4.411  1.00  0.00    -0.003 C 
ATOM      8  C   UNL     1      56.212  51.209   3.910  1.00  0.00     0.004 C 
ENDBRANCH   6   7
ENDBRANCH   1   6
TORSDOF 4
ENDMDL
MODEL 7
REMARK VINA RESULT:    -4.456      3.162      4.742
REMARK INTER + INTRA:          -5.622
REMARK INTER:                  -5.579
REMARK INTRA:                  -0.042
REMARK UNBOUND:                -0.124
REMARK SMILES CCCCCC(=O)[O-]
REMARK SMILES IDX 4 1 5 2 6 3 7 4 8 5 3 6 2 7 1 8
REMARK H PARENT
REMARK Flexibility Score: inf
ROOT
ATOM      1  C   UNL     1      52.462  50.241   4.686  1.00  0.00     0.006 C 
ENDROOT
BRANCH   1   2
ATOM      2  C   UNL     1      51.535  49.249   3.971  1.00  0.00     0.053 C 
BRANCH   2   3
ATOM      3  C   UNL     1      50.094  49.508   4.287  1.00  0.00     0.041 C 
ATOM      4  O   UNL     1      49.408  50.264   3.549  1.00  0.00    -0.550 OA
ATOM      5  O   UNL     1      49.502  48.893   5.383  1.00  0.00    -0.550 OA
ENDBRANCH   2   3
ENDBRANCH   1   2
BRANCH   1   6
ATOM      6  C   UNL     1      53.940  50.027   4.314  1.00  0.00     0.000 C 
BRANCH   6   7
ATOM      7  C   UNL     1      54.766  51.317   4.419  1.00  0.00    -0.003 C 
ATOM      8  C   UNL     1      56.192  51.153   3.890  1.00  0.00     0.004 C 
ENDBRANCH   6   7
ENDBRANCH   1   6
TORSDOF 4
ENDMDL
MODEL 8
REMARK VINA RESULT:    -4.447      1.759      2.089
REMARK INTER + INTRA:          -5.611
REMARK INTER:                  -5.574
REMARK INTRA:                  -0.036
REMARK UNBOUND:                -0.124
REMARK SMILES CCCCCC(=O)[O-]
REMARK SMILES IDX 4 1 5 2 6 3 7 4 8 5 3 6 2 7 1 8
REMARK H PARENT
REMARK Flexibility Score: inf
ROOT
ATOM      1  C   UNL     1      52.911  49.726   4.360  1.00  0.00     0.006 C 
ENDROOT
BRANCH   1   2
ATOM      2  C   UNL     1      53.602  51.045   4.735  1.00  0.00     0.053 C 
BRANCH   2   3
ATOM      3  C   UNL     1      53.941  51.099   6.193  1.00  0.00     0.041 C 
ATOM      4  O   UNL     1      53.524  50.204   6.975  1.00  0.00    -0.550 OA
ATOM      5  O   UNL     1      54.741  52.124   6.683  1.00  0.00    -0.550 OA
ENDBRANCH   2   3
ENDBRANCH   1   2
BRANCH   1   6
ATOM      6  C   UNL     1      51.378  49.845   4.386  1.00  0.00     0.000 C 
BRANCH   6   7
ATOM      7  C   UNL     1      50.687  48.752   3.558  1.00  0.00    -0.003 C 
ATOM      8  C   UNL     1      49.680  49.315   2.555  1.00  0.00     0.004 C 
ENDBRANCH   6   7
ENDBRANCH   1   6
TORSDOF 4
ENDMDL
MODEL 9
REMARK VINA RESULT:    -4.413      3.283      4.563
REMARK INTER + INTRA:          -5.569
REMARK INTER:                  -5.473
REMARK INTRA:                  -0.097
REMARK UNBOUND:                -0.124
REMARK SMILES CCCCCC(=O)[O-]
REMARK SMILES IDX 4 1 5 2 6 3 7 4 8 5 3 6 2 7 1 8
REMARK H PARENT
REMARK Flexibility Score: inf
ROOT
ATOM      1  C   UNL     1      52.456  50.124   4.702  1.00  0.00     0.006 C 
ENDROOT
BRANCH   1   2
ATOM      2  C   UNL     1      52.144  51.538   5.210  1.00  0.00     0.053 C 
BRANCH   2   3
ATOM      3  C   UNL     1      50.709  51.678   5.617  1.00  0.00     0.041 C 
ATOM      4  O   UNL     1      50.321  51.241   6.733  1.00  0.00    -0.550 OA
ATOM      5  O   UNL     1      49.806  52.316   4.775  1.00  0.00    -0.550 OA
ENDBRANCH   2   3
ENDBRANCH   1   2
BRANCH   1   6
ATOM      6  C   UNL     1      53.934  49.961   4.308  1.00  0.00     0.000 C 
BRANCH   6   7
ATOM      7  C   UNL     1      54.714  51.281   4.387  1.00  0.00    -0.003 C 
ATOM      8  C   UNL     1      56.160  51.145   3.907  1.00  0.00     0.004 C 
ENDBRANCH   6   7
ENDBRANCH   1   6
TORSDOF 4
ENDMDL
