MODEL 1
REMARK VINA RESULT:    -6.543      0.000      0.000
REMARK INTER + INTRA:          -7.849
REMARK INTER:                  -7.690
REMARK INTRA:                  -0.159
REMARK UNBOUND:                -0.159
REMARK SMILES O=c1c(O)c(-c2ccc(O)cc2)oc2cc(O)cc(O)c12
REMARK SMILES IDX 5 1 3 2 2 3 1 4 21 5 19 6 18 7 16 8 15 9 14 10 13 11 6 12
REMARK SMILES IDX 7 13 8 14 9 15 12 16 11 17 10 18 4 20 20 22 17 24
REMARK H PARENT 10 19 4 21 20 23 17 25
REMARK Flexibility Score: inf
ROOT
ATOM      1  C   UNL     1      28.504  33.445 125.625  1.00  0.00     0.180 A 
ATOM      2  C   UNL     1      28.941  32.425 124.758  1.00  0.00     0.208 A 
ATOM      3  C   UNL     1      28.293  32.261 123.524  1.00  0.00     0.238 A 
ATOM      4  O   UNL     1      28.668  31.344 122.743  1.00  0.00    -0.285 OA
ATOM      5  C   UNL     1      27.238  33.127 123.171  1.00  0.00     0.111 A 
ATOM      6  C   UNL     1      26.536  33.032 121.945  1.00  0.00     0.134 A 
ATOM      7  C   UNL     1      25.502  33.938 121.662  1.00  0.00     0.093 A 
ATOM      8  C   UNL     1      25.160  34.935 122.578  1.00  0.00     0.123 A 
ATOM      9  C   UNL     1      25.850  35.034 123.791  1.00  0.00     0.094 A 
ATOM     10  C   UNL     1      26.881  34.139 124.091  1.00  0.00     0.146 A 
ATOM     11  O   UNL     1      27.515  34.252 125.252  1.00  0.00    -0.452 OA
ENDROOT
BRANCH   1  12
ATOM     12  C   UNL     1      29.124  33.668 126.952  1.00  0.00     0.021 A 
ATOM     13  C   UNL     1      30.436  34.167 127.026  1.00  0.00     0.016 A 
ATOM     14  C   UNL     1      31.033  34.407 128.268  1.00  0.00     0.047 A 
ATOM     15  C   UNL     1      30.321  34.164 129.450  1.00  0.00     0.115 A 
ATOM     16  C   UNL     1      28.409  33.447 128.143  1.00  0.00     0.016 A 
ATOM     17  C   UNL     1      29.008  33.688 129.382  1.00  0.00     0.047 A 
BRANCH  15  18
ATOM     18  O   UNL     1      30.906  34.398 130.692  1.00  0.00    -0.508 OA
ATOM     19  H   UNL     1      30.762  35.269 131.190  1.00  0.00     0.293 HD
ENDBRANCH  15  18
ENDBRANCH   1  12
BRANCH   2  20
ATOM     20  O   UNL     1      30.022  31.612 125.111  1.00  0.00    -0.502 OA
ATOM     21  H   UNL     1      30.683  31.872 125.832  1.00  0.00     0.293 HD
ENDBRANCH   2  20
BRANCH   6  22
ATOM     22  O   UNL     1      26.855  32.047 121.008  1.00  0.00    -0.507 OA
ATOM     23  H   UNL     1      27.717  32.076 120.477  1.00  0.00     0.293 HD
ENDBRANCH   6  22
BRANCH   8  24
ATOM     24  O   UNL     1      24.130  35.823 122.273  1.00  0.00    -0.508 OA
ATOM     25  H   UNL     1      23.337  35.949 122.891  1.00  0.00     0.293 HD
ENDBRANCH   8  24
TORSDOF 5
ENDMDL
MODEL 2
REMARK VINA RESULT:    -6.383      2.156      3.715
REMARK INTER + INTRA:          -7.661
REMARK INTER:                  -7.477
REMARK INTRA:                  -0.184
REMARK UNBOUND:                -0.159
REMARK SMILES O=c1c(O)c(-c2ccc(O)cc2)oc2cc(O)cc(O)c12
REMARK SMILES IDX 5 1 3 2 2 3 1 4 21 5 19 6 18 7 16 8 15 9 14 10 13 11 6 12
REMARK SMILES IDX 7 13 8 14 9 15 12 16 11 17 10 18 4 20 20 22 17 24
REMARK H PARENT 10 19 4 21 20 23 17 25
REMARK Flexibility Score: inf
ROOT
ATOM      1  C   UNL     1      29.303  34.154 125.632  1.00  0.00     0.180 A 
ATOM      2  C   UNL     1      28.492  35.142 125.041  1.00  0.00     0.208 A 
ATOM      3  C   UNL     1      28.376  35.176 123.642  1.00  0.00     0.238 A 
ATOM      4  O   UNL     1      27.661  36.063 123.101  1.00  0.00    -0.285 OA
ATOM      5  C   UNL     1      29.052  34.214 122.864  1.00  0.00     0.111 A 
ATOM      6  C   UNL     1      28.983  34.177 121.450  1.00  0.00     0.134 A 
ATOM      7  C   UNL     1      29.678  33.181 120.746  1.00  0.00     0.093 A 
ATOM      8  C   UNL     1      30.436  32.226 121.426  1.00  0.00     0.123 A 
ATOM      9  C   UNL     1      30.508  32.258 122.823  1.00  0.00     0.094 A 
ATOM     10  C   UNL     1      29.824  33.243 123.541  1.00  0.00     0.146 A 
ATOM     11  O   UNL     1      29.914  33.255 124.866  1.00  0.00    -0.452 OA
ENDROOT
BRANCH   1  12
ATOM     12  C   UNL     1      29.492  34.065 127.098  1.00  0.00     0.021 A 
ATOM     13  C   UNL     1      28.432  33.617 127.906  1.00  0.00     0.016 A 
ATOM     14  C   UNL     1      28.596  33.504 129.290  1.00  0.00     0.047 A 
ATOM     15  C   UNL     1      29.824  33.825 129.882  1.00  0.00     0.115 A 
ATOM     16  C   UNL     1      30.728  34.365 127.698  1.00  0.00     0.016 A 
ATOM     17  C   UNL     1      30.888  34.251 129.083  1.00  0.00     0.047 A 
BRANCH  15  18
ATOM     18  O   UNL     1      29.997  33.716 131.260  1.00  0.00    -0.508 OA
ATOM     19  H   UNL     1      29.222  33.833 131.902  1.00  0.00     0.293 HD
ENDBRANCH  15  18
ENDBRANCH   1  12
BRANCH   2  20
ATOM     20  O   UNL     1      27.793  36.053 125.838  1.00  0.00    -0.502 OA
ATOM     21  H   UNL     1      27.667  35.917 126.833  1.00  0.00     0.293 HD
ENDBRANCH   2  20
BRANCH   6  22
ATOM     22  O   UNL     1      28.233  35.117 120.741  1.00  0.00    -0.507 OA
ATOM     23  H   UNL     1      27.920  35.980 121.168  1.00  0.00     0.293 HD
ENDBRANCH   6  22
BRANCH   8  24
ATOM     24  O   UNL     1      31.117  31.247 120.703  1.00  0.00    -0.508 OA
ATOM     25  H   UNL     1      30.623  30.525 120.194  1.00  0.00     0.293 HD
ENDBRANCH   8  24
TORSDOF 5
ENDMDL
MODEL 3
REMARK VINA RESULT:    -5.909      0.903      0.955
REMARK INTER + INTRA:          -7.104
REMARK INTER:                  -6.806
REMARK INTRA:                  -0.297
REMARK UNBOUND:                -0.159
REMARK SMILES O=c1c(O)c(-c2ccc(O)cc2)oc2cc(O)cc(O)c12
REMARK SMILES IDX 5 1 3 2 2 3 1 4 21 5 19 6 18 7 16 8 15 9 14 10 13 11 6 12
REMARK SMILES IDX 7 13 8 14 9 15 12 16 11 17 10 18 4 20 20 22 17 24
REMARK H PARENT 10 19 4 21 20 23 17 25
REMARK Flexibility Score: inf
ROOT
ATOM      1  C   UNL     1      28.111  33.513 124.897  1.00  0.00     0.180 A 
ATOM      2  C   UNL     1      28.595  32.681 123.869  1.00  0.00     0.208 A 
ATOM      3  C   UNL     1      27.880  32.608 122.662  1.00  0.00     0.238 A 
ATOM      4  O   UNL     1      28.299  31.859 121.738  1.00  0.00    -0.285 OA
ATOM      5  C   UNL     1      26.712  33.380 122.497  1.00  0.00     0.111 A 
ATOM      6  C   UNL     1      25.937  33.366 121.312  1.00  0.00     0.134 A 
ATOM      7  C   UNL     1      24.790  34.170 121.221  1.00  0.00     0.093 A 
ATOM      8  C   UNL     1      24.405  34.984 122.289  1.00  0.00     0.123 A 
ATOM      9  C   UNL     1      25.166  35.000 123.462  1.00  0.00     0.094 A 
ATOM     10  C   UNL     1      26.311  34.206 123.572  1.00  0.00     0.146 A 
ATOM     11  O   UNL     1      27.012  34.237 124.700  1.00  0.00    -0.452 OA
ENDROOT
BRANCH   1  12
ATOM     12  C   UNL     1      28.797  33.628 126.204  1.00  0.00     0.021 A 
ATOM     13  C   UNL     1      29.718  34.669 126.412  1.00  0.00     0.016 A 
ATOM     14  C   UNL     1      30.361  34.810 127.646  1.00  0.00     0.047 A 
ATOM     15  C   UNL     1      30.079  33.921 128.691  1.00  0.00     0.115 A 
ATOM     16  C   UNL     1      28.504  32.752 127.266  1.00  0.00     0.016 A 
ATOM     17  C   UNL     1      29.148  32.897 128.498  1.00  0.00     0.047 A 
BRANCH  15  18
ATOM     18  O   UNL     1      30.714  34.052 129.924  1.00  0.00    -0.508 OA
ATOM     19  H   UNL     1      30.391  33.549 130.743  1.00  0.00     0.293 HD
ENDBRANCH  15  18
ENDBRANCH   1  12
BRANCH   2  20
ATOM     20  O   UNL     1      29.783  31.966 124.039  1.00  0.00    -0.502 OA
ATOM     21  H   UNL     1      29.795  30.982 124.278  1.00  0.00     0.293 HD
ENDBRANCH   2  20
BRANCH   6  22
ATOM     22  O   UNL     1      26.296  32.564 120.227  1.00  0.00    -0.507 OA
ATOM     23  H   UNL     1      26.619  31.612 120.352  1.00  0.00     0.293 HD
ENDBRANCH   6  22
BRANCH   8  24
ATOM     24  O   UNL     1      23.262  35.773 122.173  1.00  0.00    -0.508 OA
ATOM     25  H   UNL     1      22.363  35.373 121.933  1.00  0.00     0.293 HD
ENDBRANCH   8  24
TORSDOF 5
ENDMDL
MODEL 4
REMARK VINA RESULT:    -5.905      2.559      6.738
REMARK INTER + INTRA:          -7.099
REMARK INTER:                  -6.914
REMARK INTRA:                  -0.186
REMARK UNBOUND:                -0.159
REMARK SMILES O=c1c(O)c(-c2ccc(O)cc2)oc2cc(O)cc(O)c12
REMARK SMILES IDX 5 1 3 2 2 3 1 4 21 5 19 6 18 7 16 8 15 9 14 10 13 11 6 12
REMARK SMILES IDX 7 13 8 14 9 15 12 16 11 17 10 18 4 20 20 22 17 24
REMARK H PARENT 10 19 4 21 20 23 17 25
REMARK Flexibility Score: inf
ROOT
ATOM      1  C   UNL     1      28.720  32.896 122.131  1.00  0.00     0.180 A 
ATOM      2  C   UNL     1      29.683  32.196 122.883  1.00  0.00     0.208 A 
ATOM      3  C   UNL     1      29.776  32.442 124.262  1.00  0.00     0.238 A 
ATOM      4  O   UNL     1      30.642  31.829 124.945  1.00  0.00    -0.285 OA
ATOM      5  C   UNL     1      28.896  33.364 124.866  1.00  0.00     0.111 A 
ATOM      6  C   UNL     1      28.922  33.665 126.249  1.00  0.00     0.134 A 
ATOM      7  C   UNL     1      28.006  34.588 126.777  1.00  0.00     0.093 A 
ATOM      8  C   UNL     1      27.069  35.212 125.952  1.00  0.00     0.123 A 
ATOM      9  C   UNL     1      27.039  34.919 124.584  1.00  0.00     0.094 A 
ATOM     10  C   UNL     1      27.944  34.003 124.039  1.00  0.00     0.146 A 
ATOM     11  O   UNL     1      27.898  33.747 122.737  1.00  0.00    -0.452 OA
ENDROOT
BRANCH   1  12
ATOM     12  C   UNL     1      28.574  32.706 120.669  1.00  0.00     0.021 A 
ATOM     13  C   UNL     1      27.385  32.156 120.159  1.00  0.00     0.016 A 
ATOM     14  C   UNL     1      27.217  31.988 118.781  1.00  0.00     0.047 A 
ATOM     15  C   UNL     1      28.228  32.381 117.896  1.00  0.00     0.115 A 
ATOM     16  C   UNL     1      29.577  33.117 119.772  1.00  0.00     0.016 A 
ATOM     17  C   UNL     1      29.404  32.949 118.395  1.00  0.00     0.047 A 
BRANCH  15  18
ATOM     18  O   UNL     1      28.071  32.218 116.521  1.00  0.00    -0.508 OA
ATOM     19  H   UNL     1      27.502  31.473 116.138  1.00  0.00     0.293 HD
ENDBRANCH  15  18
ENDBRANCH   1  12
BRANCH   2  20
ATOM     20  O   UNL     1      30.510  31.251 122.269  1.00  0.00    -0.502 OA
ATOM     21  H   UNL     1      30.449  31.037 121.282  1.00  0.00     0.293 HD
ENDBRANCH   2  20
BRANCH   6  22
ATOM     22  O   UNL     1      29.846  33.058 127.101  1.00  0.00    -0.507 OA
ATOM     23  H   UNL     1      29.684  32.138 127.495  1.00  0.00     0.293 HD
ENDBRANCH   6  22
BRANCH   8  24
ATOM     24  O   UNL     1      26.169  36.125 126.500  1.00  0.00    -0.508 OA
ATOM     25  H   UNL     1      25.752  36.860 125.942  1.00  0.00     0.293 HD
ENDBRANCH   8  24
TORSDOF 5
ENDMDL
MODEL 5
REMARK VINA RESULT:    -5.873      2.267      3.969
REMARK INTER + INTRA:          -7.061
REMARK INTER:                  -6.775
REMARK INTRA:                  -0.286
REMARK UNBOUND:                -0.159
REMARK SMILES O=c1c(O)c(-c2ccc(O)cc2)oc2cc(O)cc(O)c12
REMARK SMILES IDX 5 1 3 2 2 3 1 4 21 5 19 6 18 7 16 8 15 9 14 10 13 11 6 12
REMARK SMILES IDX 7 13 8 14 9 15 12 16 11 17 10 18 4 20 20 22 17 24
REMARK H PARENT 10 19 4 21 20 23 17 25
REMARK Flexibility Score: inf
ROOT
ATOM      1  C   UNL     1      27.573  33.649 123.311  1.00  0.00     0.180 A 
ATOM      2  C   UNL     1      26.220  33.866 122.986  1.00  0.00     0.208 A 
ATOM      3  C   UNL     1      25.805  33.691 121.657  1.00  0.00     0.238 A 
ATOM      4  O   UNL     1      24.598  33.892 121.352  1.00  0.00    -0.285 OA
ATOM      5  C   UNL     1      26.740  33.283 120.683  1.00  0.00     0.111 A 
ATOM      6  C   UNL     1      26.403  33.080 119.323  1.00  0.00     0.134 A 
ATOM      7  C   UNL     1      27.389  32.665 118.416  1.00  0.00     0.093 A 
ATOM      8  C   UNL     1      28.702  32.450 118.841  1.00  0.00     0.123 A 
ATOM      9  C   UNL     1      29.042  32.650 120.183  1.00  0.00     0.094 A 
ATOM     10  C   UNL     1      28.073  33.064 121.102  1.00  0.00     0.146 A 
ATOM     11  O   UNL     1      28.424  33.252 122.369  1.00  0.00    -0.452 OA
ENDROOT
BRANCH   1  12
ATOM     12  C   UNL     1      28.091  33.834 124.686  1.00  0.00     0.021 A 
ATOM     13  C   UNL     1      28.295  32.709 125.504  1.00  0.00     0.016 A 
ATOM     14  C   UNL     1      28.804  32.857 126.798  1.00  0.00     0.047 A 
ATOM     15  C   UNL     1      29.129  34.130 127.284  1.00  0.00     0.115 A 
ATOM     16  C   UNL     1      28.440  35.106 125.175  1.00  0.00     0.016 A 
ATOM     17  C   UNL     1      28.950  35.250 126.468  1.00  0.00     0.047 A 
BRANCH  15  18
ATOM     18  O   UNL     1      29.637  34.289 128.572  1.00  0.00    -0.508 OA
ATOM     19  H   UNL     1      29.214  33.828 129.369  1.00  0.00     0.293 HD
ENDBRANCH  15  18
ENDBRANCH   1  12
BRANCH   2  20
ATOM     20  O   UNL     1      25.303  34.221 123.979  1.00  0.00    -0.502 OA
ATOM     21  H   UNL     1      25.185  33.680 124.827  1.00  0.00     0.293 HD
ENDBRANCH   2  20
BRANCH   6  22
ATOM     22  O   UNL     1      25.100  33.285 118.867  1.00  0.00    -0.507 OA
ATOM     23  H   UNL     1      24.736  34.215 118.692  1.00  0.00     0.293 HD
ENDBRANCH   6  22
BRANCH   8  24
ATOM     24  O   UNL     1      29.664  32.037 117.920  1.00  0.00    -0.508 OA
ATOM     25  H   UNL     1      30.271  32.701 117.455  1.00  0.00     0.293 HD
ENDBRANCH   8  24
TORSDOF 5
ENDMDL
MODEL 6
REMARK VINA RESULT:    -5.825      2.024      2.536
REMARK INTER + INTRA:          -7.005
REMARK INTER:                  -6.941
REMARK INTRA:                  -0.064
REMARK UNBOUND:                -0.159
REMARK SMILES O=c1c(O)c(-c2ccc(O)cc2)oc2cc(O)cc(O)c12
REMARK SMILES IDX 5 1 3 2 2 3 1 4 21 5 19 6 18 7 16 8 15 9 14 10 13 11 6 12
REMARK SMILES IDX 7 13 8 14 9 15 12 16 11 17 10 18 4 20 20 22 17 24
REMARK H PARENT 10 19 4 21 20 23 17 25
REMARK Flexibility Score: inf
ROOT
ATOM      1  C   UNL     1      28.700  33.179 124.392  1.00  0.00     0.180 A 
ATOM      2  C   UNL     1      29.940  32.986 123.753  1.00  0.00     0.208 A 
ATOM      3  C   UNL     1      29.965  32.819 122.359  1.00  0.00     0.238 A 
ATOM      4  O   UNL     1      31.068  32.634 121.776  1.00  0.00    -0.285 OA
ATOM      5  C   UNL     1      28.759  32.870 121.630  1.00  0.00     0.111 A 
ATOM      6  C   UNL     1      28.699  32.715 120.223  1.00  0.00     0.134 A 
ATOM      7  C   UNL     1      27.461  32.787 119.568  1.00  0.00     0.093 A 
ATOM      8  C   UNL     1      26.286  33.010 120.289  1.00  0.00     0.123 A 
ATOM      9  C   UNL     1      26.339  33.163 121.678  1.00  0.00     0.094 A 
ATOM     10  C   UNL     1      27.563  33.093 122.350  1.00  0.00     0.146 A 
ATOM     11  O   UNL     1      27.585  33.235 123.670  1.00  0.00    -0.452 OA
ENDROOT
BRANCH   1  12
ATOM     12  C   UNL     1      28.589  33.342 125.860  1.00  0.00     0.021 A 
ATOM     13  C   UNL     1      27.910  34.457 126.382  1.00  0.00     0.016 A 
ATOM     14  C   UNL     1      27.774  34.619 127.764  1.00  0.00     0.047 A 
ATOM     15  C   UNL     1      28.302  33.662 128.641  1.00  0.00     0.115 A 
ATOM     16  C   UNL     1      29.099  32.376 126.746  1.00  0.00     0.016 A 
ATOM     17  C   UNL     1      28.960  32.541 128.128  1.00  0.00     0.047 A 
BRANCH  15  18
ATOM     18  O   UNL     1      28.173  33.815 130.019  1.00  0.00    -0.508 OA
ATOM     19  H   UNL     1      27.295  33.634 130.492  1.00  0.00     0.293 HD
ENDBRANCH  15  18
ENDBRANCH   1  12
BRANCH   2  20
ATOM     20  O   UNL     1      31.125  32.990 124.493  1.00  0.00    -0.502 OA
ATOM     21  H   UNL     1      31.925  33.553 124.233  1.00  0.00     0.293 HD
ENDBRANCH   2  20
BRANCH   6  22
ATOM     22  O   UNL     1      29.856  32.492 119.474  1.00  0.00    -0.507 OA
ATOM     23  H   UNL     1      29.815  32.207 118.503  1.00  0.00     0.293 HD
ENDBRANCH   6  22
BRANCH   8  24
ATOM     24  O   UNL     1      25.068  33.078 119.614  1.00  0.00    -0.508 OA
ATOM     25  H   UNL     1      24.394  32.324 119.660  1.00  0.00     0.293 HD
ENDBRANCH   8  24
TORSDOF 5
ENDMDL
MODEL 7
REMARK VINA RESULT:    -5.747      1.316      3.162
REMARK INTER + INTRA:          -6.914
REMARK INTER:                  -6.806
REMARK INTRA:                  -0.108
REMARK UNBOUND:                -0.159
REMARK SMILES O=c1c(O)c(-c2ccc(O)cc2)oc2cc(O)cc(O)c12
REMARK SMILES IDX 5 1 3 2 2 3 1 4 21 5 19 6 18 7 16 8 15 9 14 10 13 11 6 12
REMARK SMILES IDX 7 13 8 14 9 15 12 16 11 17 10 18 4 20 20 22 17 24
REMARK H PARENT 10 19 4 21 20 23 17 25
REMARK Flexibility Score: inf
ROOT
ATOM      1  C   UNL     1      27.889  34.444 125.527  1.00  0.00     0.180 A 
ATOM      2  C   UNL     1      26.782  35.305 125.405  1.00  0.00     0.208 A 
ATOM      3  C   UNL     1      26.089  35.350 124.184  1.00  0.00     0.238 A 
ATOM      4  O   UNL     1      25.102  36.125 124.059  1.00  0.00    -0.285 OA
ATOM      5  C   UNL     1      26.501  34.522 123.120  1.00  0.00     0.111 A 
ATOM      6  C   UNL     1      25.854  34.504 121.860  1.00  0.00     0.134 A 
ATOM      7  C   UNL     1      26.318  33.644 120.852  1.00  0.00     0.093 A 
ATOM      8  C   UNL     1      27.411  32.806 121.080  1.00  0.00     0.123 A 
ATOM      9  C   UNL     1      28.054  32.820 122.322  1.00  0.00     0.094 A 
ATOM     10  C   UNL     1      27.608  33.670 123.338  1.00  0.00     0.146 A 
ATOM     11  O   UNL     1      28.240  33.668 124.506  1.00  0.00    -0.452 OA
ENDROOT
BRANCH   1  12
ATOM     12  C   UNL     1      28.683  34.356 126.775  1.00  0.00     0.021 A 
ATOM     13  C   UNL     1      28.076  33.873 127.947  1.00  0.00     0.016 A 
ATOM     14  C   UNL     1      28.812  33.760 129.131  1.00  0.00     0.047 A 
ATOM     15  C   UNL     1      30.167  34.115 129.153  1.00  0.00     0.115 A 
ATOM     16  C   UNL     1      30.049  34.691 126.801  1.00  0.00     0.016 A 
ATOM     17  C   UNL     1      30.782  34.575 127.986  1.00  0.00     0.047 A 
BRANCH  15  18
ATOM     18  O   UNL     1      30.909  34.007 130.327  1.00  0.00    -0.508 OA
ATOM     19  H   UNL     1      30.594  34.427 131.194  1.00  0.00     0.293 HD
ENDBRANCH  15  18
ENDBRANCH   1  12
BRANCH   2  20
ATOM     20  O   UNL     1      26.364  36.078 126.491  1.00  0.00    -0.502 OA
ATOM     21  H   UNL     1      26.223  35.686 127.414  1.00  0.00     0.293 HD
ENDBRANCH   2  20
BRANCH   6  22
ATOM     22  O   UNL     1      24.758  35.329 121.602  1.00  0.00    -0.507 OA
ATOM     23  H   UNL     1      23.979  35.019 121.033  1.00  0.00     0.293 HD
ENDBRANCH   6  22
BRANCH   8  24
ATOM     24  O   UNL     1      27.853  31.961 120.063  1.00  0.00    -0.508 OA
ATOM     25  H   UNL     1      28.734  31.467 120.129  1.00  0.00     0.293 HD
ENDBRANCH   8  24
TORSDOF 5
ENDMDL
MODEL 8
REMARK VINA RESULT:    -5.694      2.491      7.222
REMARK INTER + INTRA:          -6.851
REMARK INTER:                  -6.891
REMARK INTRA:                   0.040
REMARK UNBOUND:                -0.159
REMARK SMILES O=c1c(O)c(-c2ccc(O)cc2)oc2cc(O)cc(O)c12
REMARK SMILES IDX 5 1 3 2 2 3 1 4 21 5 19 6 18 7 16 8 15 9 14 10 13 11 6 12
REMARK SMILES IDX 7 13 8 14 9 15 12 16 11 17 10 18 4 20 20 22 17 24
REMARK H PARENT 10 19 4 21 20 23 17 25
REMARK Flexibility Score: inf
ROOT
ATOM      1  C   UNL     1      28.107  33.553 122.210  1.00  0.00     0.180 A 
ATOM      2  C   UNL     1      26.999  34.323 122.614  1.00  0.00     0.208 A 
ATOM      3  C   UNL     1      26.915  34.740 123.952  1.00  0.00     0.238 A 
ATOM      4  O   UNL     1      25.922  35.421 124.329  1.00  0.00    -0.285 OA
ATOM      5  C   UNL     1      27.945  34.401 124.853  1.00  0.00     0.111 A 
ATOM      6  C   UNL     1      27.939  34.786 126.216  1.00  0.00     0.134 A 
ATOM      7  C   UNL     1      29.006  34.417 127.048  1.00  0.00     0.093 A 
ATOM      8  C   UNL     1      30.076  33.673 126.546  1.00  0.00     0.123 A 
ATOM      9  C   UNL     1      30.088  33.290 125.201  1.00  0.00     0.094 A 
ATOM     10  C   UNL     1      29.033  33.647 124.356  1.00  0.00     0.146 A 
ATOM     11  O   UNL     1      29.066  33.264 123.085  1.00  0.00    -0.452 OA
ENDROOT
BRANCH   1  12
ATOM     12  C   UNL     1      28.256  33.059 120.822  1.00  0.00     0.021 A 
ATOM     13  C   UNL     1      27.189  32.376 120.213  1.00  0.00     0.016 A 
ATOM     14  C   UNL     1      27.300  31.920 118.896  1.00  0.00     0.047 A 
ATOM     15  C   UNL     1      28.473  32.153 118.167  1.00  0.00     0.115 A 
ATOM     16  C   UNL     1      29.423  33.306 120.077  1.00  0.00     0.016 A 
ATOM     17  C   UNL     1      29.530  32.850 118.759  1.00  0.00     0.047 A 
BRANCH  15  18
ATOM     18  O   UNL     1      28.595  31.702 116.855  1.00  0.00    -0.508 OA
ATOM     19  H   UNL     1      27.781  31.546 116.271  1.00  0.00     0.293 HD
ENDBRANCH  15  18
ENDBRANCH   1  12
BRANCH   2  20
ATOM     20  O   UNL     1      26.017  34.688 121.690  1.00  0.00    -0.502 OA
ATOM     21  H   UNL     1      26.242  35.108 120.797  1.00  0.00     0.293 HD
ENDBRANCH   2  20
BRANCH   6  22
ATOM     22  O   UNL     1      26.884  35.530 126.748  1.00  0.00    -0.507 OA
ATOM     23  H   UNL     1      26.731  35.600 127.747  1.00  0.00     0.293 HD
ENDBRANCH   6  22
BRANCH   8  24
ATOM     24  O   UNL     1      31.125  33.320 127.394  1.00  0.00    -0.508 OA
ATOM     25  H   UNL     1      31.999  33.831 127.398  1.00  0.00     0.293 HD
ENDBRANCH   8  24
TORSDOF 5
ENDMDL
MODEL 9
REMARK VINA RESULT:    -5.681      2.934      7.528
REMARK INTER + INTRA:          -6.836
REMARK INTER:                  -6.595
REMARK INTRA:                  -0.242
REMARK UNBOUND:                -0.159
REMARK SMILES O=c1c(O)c(-c2ccc(O)cc2)oc2cc(O)cc(O)c12
REMARK SMILES IDX 5 1 3 2 2 3 1 4 21 5 19 6 18 7 16 8 15 9 14 10 13 11 6 12
REMARK SMILES IDX 7 13 8 14 9 15 12 16 11 17 10 18 4 20 20 22 17 24
REMARK H PARENT 10 19 4 21 20 23 17 25
REMARK Flexibility Score: inf
ROOT
ATOM      1  C   UNL     1      27.495  33.131 120.850  1.00  0.00     0.180 A 
ATOM      2  C   UNL     1      26.673  34.271 120.936  1.00  0.00     0.208 A 
ATOM      3  C   UNL     1      26.384  34.805 122.202  1.00  0.00     0.238 A 
ATOM      4  O   UNL     1      25.640  35.819 122.292  1.00  0.00    -0.285 OA
ATOM      5  C   UNL     1      26.935  34.205 123.353  1.00  0.00     0.111 A 
ATOM      6  C   UNL     1      26.696  34.683 124.664  1.00  0.00     0.134 A 
ATOM      7  C   UNL     1      27.290  34.037 125.759  1.00  0.00     0.093 A 
ATOM      8  C   UNL     1      28.114  32.926 125.569  1.00  0.00     0.123 A 
ATOM      9  C   UNL     1      28.353  32.449 124.276  1.00  0.00     0.094 A 
ATOM     10  C   UNL     1      27.770  33.078 123.172  1.00  0.00     0.146 A 
ATOM     11  O   UNL     1      28.009  32.601 121.956  1.00  0.00    -0.452 OA
ENDROOT
BRANCH   1  12
ATOM     12  C   UNL     1      27.829  32.499 119.553  1.00  0.00     0.021 A 
ATOM     13  C   UNL     1      29.134  32.617 119.042  1.00  0.00     0.016 A 
ATOM     14  C   UNL     1      29.477  32.009 117.831  1.00  0.00     0.047 A 
ATOM     15  C   UNL     1      28.526  31.264 117.123  1.00  0.00     0.115 A 
ATOM     16  C   UNL     1      26.886  31.731 118.846  1.00  0.00     0.016 A 
ATOM     17  C   UNL     1      27.233  31.124 117.636  1.00  0.00     0.047 A 
BRANCH  15  18
ATOM     18  O   UNL     1      28.857  30.654 115.914  1.00  0.00    -0.508 OA
ATOM     19  H   UNL     1      29.743  30.179 115.786  1.00  0.00     0.293 HD
ENDBRANCH  15  18
ENDBRANCH   1  12
BRANCH   2  20
ATOM     20  O   UNL     1      26.180  34.876 119.777  1.00  0.00    -0.502 OA
ATOM     21  H   UNL     1      25.969  34.350 118.938  1.00  0.00     0.293 HD
ENDBRANCH   2  20
BRANCH   6  22
ATOM     22  O   UNL     1      25.878  35.792 124.887  1.00  0.00    -0.507 OA
ATOM     23  H   UNL     1      25.225  35.825 125.661  1.00  0.00     0.293 HD
ENDBRANCH   6  22
BRANCH   8  24
ATOM     24  O   UNL     1      28.692  32.302 126.673  1.00  0.00    -0.508 OA
ATOM     25  H   UNL     1      29.073  31.366 126.613  1.00  0.00     0.293 HD
ENDBRANCH   8  24
TORSDOF 5
ENDMDL
