MODEL 1
REMARK VINA RESULT:    -5.175      0.000      0.000
REMARK INTER + INTRA:         -10.123
REMARK INTER:                  -8.048
REMARK INTRA:                  -2.075
REMARK UNBOUND:                -2.075
REMARK SMILES COc1cc(CNC(=O)CCCCC=CC(C)C)ccc1O
REMARK SMILES IDX 11 1 12 2 13 3 14 4 15 5 16 6 17 7 18 8 10 9 8 10 9 11 7 12
REMARK SMILES IDX 6 14 5 15 4 16 19 17 3 18 20 19 21 20 2 21 1 22 22 23
REMARK H PARENT 7 13 22 24
REMARK Flexibility Score: inf
ROOT
ATOM      1  C   UNL     1      30.837   8.192  36.965  1.00  0.00     0.010 C 
ENDROOT
BRANCH   1   2
ATOM      2  C   UNL     1      31.738   9.430  36.817  1.00  0.00     0.005 C 
BRANCH   2   3
ATOM      3  C   UNL     1      30.979  10.720  36.455  1.00  0.00     0.027 C 
BRANCH   3   4
ATOM      4  C   UNL     1      29.809  10.468  35.543  1.00  0.00    -0.031 C 
ATOM      5  C   UNL     1      29.757  10.981  34.302  1.00  0.00    -0.028 C 
BRANCH   5   6
ATOM      6  C   UNL     1      28.577  10.774  33.383  1.00  0.00     0.005 C 
ATOM      7  C   UNL     1      28.612  11.755  32.207  1.00  0.00     0.012 C 
ATOM      8  C   UNL     1      27.250  10.865  34.143  1.00  0.00     0.012 C 
ENDBRANCH   5   6
ENDBRANCH   3   4
ENDBRANCH   2   3
ENDBRANCH   1   2
BRANCH   1   9
ATOM      9  C   UNL     1      31.309   7.012  36.108  1.00  0.00     0.100 C 
BRANCH   9  10
ATOM     10  C   UNL     1      30.926   7.229  34.676  1.00  0.00     0.220 C 
ATOM     11  O   UNL     1      29.711   7.176  34.343  1.00  0.00    -0.275 OA
ATOM     12  N   UNL     1      31.932   7.546  33.703  1.00  0.00    -0.352 N 
ATOM     13  H   UNL     1      32.930   7.611  34.006  1.00  0.00     0.163 HD
BRANCH  12  14
ATOM     14  C   UNL     1      31.607   7.847  32.311  1.00  0.00     0.151 C 
BRANCH  14  15
ATOM     15  C   UNL     1      31.982   9.265  31.977  1.00  0.00    -0.025 A 
ATOM     16  C   UNL     1      31.554   9.840  30.770  1.00  0.00     0.056 A 
ATOM     17  C   UNL     1      32.746  10.028  32.873  1.00  0.00     0.009 A 
ATOM     18  C   UNL     1      31.890  11.172  30.452  1.00  0.00     0.160 A 
ATOM     19  C   UNL     1      33.082  11.346  32.564  1.00  0.00     0.050 A 
ATOM     20  C   UNL     1      32.659  11.922  31.362  1.00  0.00     0.157 A 
BRANCH  18  21
ATOM     21  O   UNL     1      31.479  11.776  29.253  1.00  0.00    -0.493 OA
ATOM     22  C   UNL     1      30.270  11.469  28.565  1.00  0.00     0.278 C 
ENDBRANCH  18  21
BRANCH  20  23
ATOM     23  O   UNL     1      33.012  13.243  31.089  1.00  0.00    -0.504 OA
ATOM     24  H   UNL     1      33.879  13.484  30.625  1.00  0.00     0.293 HD
ENDBRANCH  20  23
ENDBRANCH  14  15
ENDBRANCH  12  14
ENDBRANCH   9  10
ENDBRANCH   1   9
TORSDOF 10
ENDMDL
MODEL 2
REMARK VINA RESULT:    -4.932      3.456      5.420
REMARK INTER + INTRA:          -9.746
REMARK INTER:                  -8.555
REMARK INTRA:                  -1.191
REMARK UNBOUND:                -2.075
REMARK SMILES COc1cc(CNC(=O)CCCCC=CC(C)C)ccc1O
REMARK SMILES IDX 11 1 12 2 13 3 14 4 15 5 16 6 17 7 18 8 10 9 8 10 9 11 7 12
REMARK SMILES IDX 6 14 5 15 4 16 19 17 3 18 20 19 21 20 2 21 1 22 22 23
REMARK H PARENT 7 13 22 24
REMARK Flexibility Score: inf
ROOT
ATOM      1  C   UNL     1      29.524   6.656  30.473  1.00  0.00     0.010 C 
ENDROOT
BRANCH   1   2
ATOM      2  C   UNL     1      30.740   7.501  30.891  1.00  0.00     0.005 C 
BRANCH   2   3
ATOM      3  C   UNL     1      31.092   7.400  32.387  1.00  0.00     0.027 C 
BRANCH   3   4
ATOM      4  C   UNL     1      31.998   8.511  32.845  1.00  0.00    -0.031 C 
ATOM      5  C   UNL     1      32.190   9.616  32.106  1.00  0.00    -0.028 C 
BRANCH   5   6
ATOM      6  C   UNL     1      33.123  10.727  32.526  1.00  0.00     0.005 C 
ATOM      7  C   UNL     1      32.784  11.233  33.932  1.00  0.00     0.012 C 
ATOM      8  C   UNL     1      33.125  11.873  31.509  1.00  0.00     0.012 C 
ENDBRANCH   5   6
ENDBRANCH   3   4
ENDBRANCH   2   3
ENDBRANCH   1   2
BRANCH   1   9
ATOM      9  C   UNL     1      29.700   6.008  29.096  1.00  0.00     0.100 C 
BRANCH   9  10
ATOM     10  C   UNL     1      29.645   7.053  28.023  1.00  0.00     0.220 C 
ATOM     11  O   UNL     1      30.374   6.932  27.001  1.00  0.00    -0.275 OA
ATOM     12  N   UNL     1      28.733   8.154  28.138  1.00  0.00    -0.352 N 
ATOM     13  H   UNL     1      28.119   8.220  28.982  1.00  0.00     0.163 HD
BRANCH  12  14
ATOM     14  C   UNL     1      28.581   9.157  27.086  1.00  0.00     0.151 C 
BRANCH  14  15
ATOM     15  C   UNL     1      29.572  10.273  27.277  1.00  0.00    -0.025 A 
ATOM     16  C   UNL     1      30.304  10.757  26.182  1.00  0.00     0.056 A 
ATOM     17  C   UNL     1      29.759  10.849  28.542  1.00  0.00     0.009 A 
ATOM     18  C   UNL     1      31.227  11.811  26.347  1.00  0.00     0.160 A 
ATOM     19  C   UNL     1      30.671  11.891  28.712  1.00  0.00     0.050 A 
ATOM     20  C   UNL     1      31.404  12.376  27.624  1.00  0.00     0.157 A 
BRANCH  18  21
ATOM     21  O   UNL     1      31.976  12.317  25.272  1.00  0.00    -0.493 OA
ATOM     22  C   UNL     1      31.597  12.217  23.903  1.00  0.00     0.278 C 
ENDBRANCH  18  21
BRANCH  20  23
ATOM     23  O   UNL     1      32.303  13.420  27.831  1.00  0.00    -0.504 OA
ATOM     24  H   UNL     1      32.112  14.366  27.522  1.00  0.00     0.293 HD
ENDBRANCH  20  23
ENDBRANCH  14  15
ENDBRANCH  12  14
ENDBRANCH   9  10
ENDBRANCH   1   9
TORSDOF 10
ENDMDL
MODEL 3
REMARK VINA RESULT:    -4.931      2.166      4.004
REMARK INTER + INTRA:          -9.743
REMARK INTER:                  -8.070
REMARK INTRA:                  -1.673
REMARK UNBOUND:                -2.075
REMARK SMILES COc1cc(CNC(=O)CCCCC=CC(C)C)ccc1O
REMARK SMILES IDX 11 1 12 2 13 3 14 4 15 5 16 6 17 7 18 8 10 9 8 10 9 11 7 12
REMARK SMILES IDX 6 14 5 15 4 16 19 17 3 18 20 19 21 20 2 21 1 22 22 23
REMARK H PARENT 7 13 22 24
REMARK Flexibility Score: inf
ROOT
ATOM      1  C   UNL     1      30.247   8.078  34.800  1.00  0.00     0.010 C 
ENDROOT
BRANCH   1   2
ATOM      2  C   UNL     1      30.793   6.991  33.858  1.00  0.00     0.005 C 
BRANCH   2   3
ATOM      3  C   UNL     1      31.988   7.445  33.000  1.00  0.00     0.027 C 
BRANCH   3   4
ATOM      4  C   UNL     1      32.393   8.868  33.277  1.00  0.00    -0.031 C 
ATOM      5  C   UNL     1      32.610   9.746  32.285  1.00  0.00    -0.028 C 
BRANCH   5   6
ATOM      6  C   UNL     1      33.055  11.168  32.536  1.00  0.00     0.005 C 
ATOM      7  C   UNL     1      32.154  11.856  33.567  1.00  0.00     0.012 C 
ATOM      8  C   UNL     1      33.125  11.973  31.234  1.00  0.00     0.012 C 
ENDBRANCH   5   6
ENDBRANCH   3   4
ENDBRANCH   2   3
ENDBRANCH   1   2
BRANCH   1   9
ATOM      9  C   UNL     1      28.817   8.502  34.449  1.00  0.00     0.100 C 
BRANCH   9  10
ATOM     10  C   UNL     1      28.841   9.649  33.484  1.00  0.00     0.220 C 
ATOM     11  O   UNL     1      28.766  10.829  33.922  1.00  0.00    -0.275 OA
ATOM     12  N   UNL     1      29.002   9.404  32.080  1.00  0.00    -0.352 N 
ATOM     13  H   UNL     1      29.089   8.418  31.742  1.00  0.00     0.163 HD
BRANCH  12  14
ATOM     14  C   UNL     1      29.113  10.486  31.105  1.00  0.00     0.151 C 
BRANCH  14  15
ATOM     15  C   UNL     1      30.018  10.082  29.973  1.00  0.00    -0.025 A 
ATOM     16  C   UNL     1      30.784  11.052  29.306  1.00  0.00     0.056 A 
ATOM     17  C   UNL     1      30.118   8.738  29.586  1.00  0.00     0.009 A 
ATOM     18  C   UNL     1      31.645  10.684  28.252  1.00  0.00     0.160 A 
ATOM     19  C   UNL     1      30.968   8.368  28.543  1.00  0.00     0.050 A 
ATOM     20  C   UNL     1      31.731   9.330  27.876  1.00  0.00     0.157 A 
BRANCH  18  21
ATOM     21  O   UNL     1      32.423  11.629  27.564  1.00  0.00    -0.493 OA
ATOM     22  C   UNL     1      31.959  12.908  27.143  1.00  0.00     0.278 C 
ENDBRANCH  18  21
BRANCH  20  23
ATOM     23  O   UNL     1      32.571   8.922  26.840  1.00  0.00    -0.504 OA
ATOM     24  H   UNL     1      32.717   9.485  26.011  1.00  0.00     0.293 HD
ENDBRANCH  20  23
ENDBRANCH  14  15
ENDBRANCH  12  14
ENDBRANCH   9  10
ENDBRANCH   1   9
TORSDOF 10
ENDMDL
MODEL 4
REMARK VINA RESULT:    -4.864      3.531      6.041
REMARK INTER + INTRA:          -9.640
REMARK INTER:                  -8.165
REMARK INTRA:                  -1.474
REMARK UNBOUND:                -2.075
REMARK SMILES COc1cc(CNC(=O)CCCCC=CC(C)C)ccc1O
REMARK SMILES IDX 11 1 12 2 13 3 14 4 15 5 16 6 17 7 18 8 10 9 8 10 9 11 7 12
REMARK SMILES IDX 6 14 5 15 4 16 19 17 3 18 20 19 21 20 2 21 1 22 22 23
REMARK H PARENT 7 13 22 24
REMARK Flexibility Score: inf
ROOT
ATOM      1  C   UNL     1      32.161  11.427  31.991  1.00  0.00     0.010 C 
ENDROOT
BRANCH   1   2
ATOM      2  C   UNL     1      32.723  10.409  32.999  1.00  0.00     0.005 C 
BRANCH   2   3
ATOM      3  C   UNL     1      32.052   9.025  32.935  1.00  0.00     0.027 C 
BRANCH   3   4
ATOM      4  C   UNL     1      31.077   8.906  31.794  1.00  0.00    -0.031 C 
ATOM      5  C   UNL     1      30.926   7.759  31.111  1.00  0.00    -0.028 C 
BRANCH   5   6
ATOM      6  C   UNL     1      29.983   7.626  29.938  1.00  0.00     0.005 C 
ATOM      7  C   UNL     1      29.250   8.943  29.665  1.00  0.00     0.012 C 
ATOM      8  C   UNL     1      28.996   6.472  30.140  1.00  0.00     0.012 C 
ENDBRANCH   5   6
ENDBRANCH   3   4
ENDBRANCH   2   3
ENDBRANCH   1   2
BRANCH   1   9
ATOM      9  C   UNL     1      33.123  11.704  30.831  1.00  0.00     0.100 C 
BRANCH   9  10
ATOM     10  C   UNL     1      32.362  11.810  29.545  1.00  0.00     0.220 C 
ATOM     11  O   UNL     1      31.171  12.224  29.561  1.00  0.00    -0.275 OA
ATOM     12  N   UNL     1      33.004  11.493  28.302  1.00  0.00    -0.352 N 
ATOM     13  H   UNL     1      34.000  11.177  28.310  1.00  0.00     0.163 HD
BRANCH  12  14
ATOM     14  C   UNL     1      32.336  11.655  27.012  1.00  0.00     0.151 C 
BRANCH  14  15
ATOM     15  C   UNL     1      31.564  10.412  26.660  1.00  0.00    -0.025 A 
ATOM     16  C   UNL     1      30.430  10.499  25.837  1.00  0.00     0.056 A 
ATOM     17  C   UNL     1      31.979   9.159  27.134  1.00  0.00     0.009 A 
ATOM     18  C   UNL     1      29.707   9.339  25.491  1.00  0.00     0.160 A 
ATOM     19  C   UNL     1      31.267   8.008  26.795  1.00  0.00     0.050 A 
ATOM     20  C   UNL     1      30.136   8.090  25.976  1.00  0.00     0.157 A 
BRANCH  18  21
ATOM     21  O   UNL     1      28.567   9.392  24.671  1.00  0.00    -0.493 OA
ATOM     22  C   UNL     1      28.581   9.244  23.255  1.00  0.00     0.278 C 
ENDBRANCH  18  21
BRANCH  20  23
ATOM     23  O   UNL     1      29.452   6.918  25.657  1.00  0.00    -0.504 OA
ATOM     24  H   UNL     1      28.476   6.921  25.388  1.00  0.00     0.293 HD
ENDBRANCH  20  23
ENDBRANCH  14  15
ENDBRANCH  12  14
ENDBRANCH   9  10
ENDBRANCH   1   9
TORSDOF 10
ENDMDL
MODEL 5
REMARK VINA RESULT:    -4.856      2.527      4.011
REMARK INTER + INTRA:          -9.627
REMARK INTER:                  -8.657
REMARK INTRA:                  -0.970
REMARK UNBOUND:                -2.075
REMARK SMILES COc1cc(CNC(=O)CCCCC=CC(C)C)ccc1O
REMARK SMILES IDX 11 1 12 2 13 3 14 4 15 5 16 6 17 7 18 8 10 9 8 10 9 11 7 12
REMARK SMILES IDX 6 14 5 15 4 16 19 17 3 18 20 19 21 20 2 21 1 22 22 23
REMARK H PARENT 7 13 22 24
REMARK Flexibility Score: inf
ROOT
ATOM      1  C   UNL     1      31.694   7.477  32.942  1.00  0.00     0.010 C 
ENDROOT
BRANCH   1   2
ATOM      2  C   UNL     1      32.275   8.868  32.634  1.00  0.00     0.005 C 
BRANCH   2   3
ATOM      3  C   UNL     1      31.577  10.021  33.379  1.00  0.00     0.027 C 
BRANCH   3   4
ATOM      4  C   UNL     1      31.351   9.716  34.835  1.00  0.00    -0.031 C 
ATOM      5  C   UNL     1      31.754  10.556  35.803  1.00  0.00    -0.028 C 
BRANCH   5   6
ATOM      6  C   UNL     1      31.574  10.255  37.272  1.00  0.00     0.005 C 
ATOM      7  C   UNL     1      30.943   8.874  37.481  1.00  0.00     0.012 C 
ATOM      8  C   UNL     1      30.762  11.348  37.974  1.00  0.00     0.012 C 
ENDBRANCH   5   6
ENDBRANCH   3   4
ENDBRANCH   2   3
ENDBRANCH   1   2
BRANCH   1   9
ATOM      9  C   UNL     1      30.279   7.290  32.382  1.00  0.00     0.100 C 
BRANCH   9  10
ATOM     10  C   UNL     1      30.255   7.621  30.921  1.00  0.00     0.220 C 
ATOM     11  O   UNL     1      30.891   6.896  30.110  1.00  0.00    -0.275 OA
ATOM     12  N   UNL     1      29.471   8.725  30.448  1.00  0.00    -0.352 N 
ATOM     13  H   UNL     1      28.930   9.298  31.136  1.00  0.00     0.163 HD
BRANCH  12  14
ATOM     14  C   UNL     1      29.347   9.045  29.028  1.00  0.00     0.151 C 
BRANCH  14  15
ATOM     15  C   UNL     1      30.166  10.261  28.689  1.00  0.00    -0.025 A 
ATOM     16  C   UNL     1      29.534  11.427  28.228  1.00  0.00     0.056 A 
ATOM     17  C   UNL     1      31.559  10.246  28.846  1.00  0.00     0.009 A 
ATOM     18  C   UNL     1      30.290  12.576  27.919  1.00  0.00     0.160 A 
ATOM     19  C   UNL     1      32.313  11.381  28.542  1.00  0.00     0.050 A 
ATOM     20  C   UNL     1      31.688  12.544  28.081  1.00  0.00     0.157 A 
BRANCH  18  21
ATOM     21  O   UNL     1      29.689  13.758  27.454  1.00  0.00    -0.493 OA
ATOM     22  C   UNL     1      29.215  13.957  26.126  1.00  0.00     0.278 C 
ENDBRANCH  18  21
BRANCH  20  23
ATOM     23  O   UNL     1      32.474  13.658  27.789  1.00  0.00    -0.504 OA
ATOM     24  H   UNL     1      32.330  14.215  26.956  1.00  0.00     0.293 HD
ENDBRANCH  20  23
ENDBRANCH  14  15
ENDBRANCH  12  14
ENDBRANCH   9  10
ENDBRANCH   1   9
TORSDOF 10
ENDMDL
MODEL 6
REMARK VINA RESULT:    -4.837      3.092      6.009
REMARK INTER + INTRA:          -9.598
REMARK INTER:                  -8.626
REMARK INTRA:                  -0.971
REMARK UNBOUND:                -2.075
REMARK SMILES COc1cc(CNC(=O)CCCCC=CC(C)C)ccc1O
REMARK SMILES IDX 11 1 12 2 13 3 14 4 15 5 16 6 17 7 18 8 10 9 8 10 9 11 7 12
REMARK SMILES IDX 6 14 5 15 4 16 19 17 3 18 20 19 21 20 2 21 1 22 22 23
REMARK H PARENT 7 13 22 24
REMARK Flexibility Score: inf
ROOT
ATOM      1  C   UNL     1      32.002  10.474  32.154  1.00  0.00     0.010 C 
ENDROOT
BRANCH   1   2
ATOM      2  C   UNL     1      31.533   9.206  31.420  1.00  0.00     0.005 C 
BRANCH   2   3
ATOM      3  C   UNL     1      31.599   7.925  32.272  1.00  0.00     0.027 C 
BRANCH   3   4
ATOM      4  C   UNL     1      31.534   8.208  33.749  1.00  0.00    -0.031 C 
ATOM      5  C   UNL     1      31.550   7.220  34.658  1.00  0.00    -0.028 C 
BRANCH   5   6
ATOM      6  C   UNL     1      31.448   7.476  36.144  1.00  0.00     0.005 C 
ATOM      7  C   UNL     1      30.390   6.575  36.790  1.00  0.00     0.012 C 
ATOM      8  C   UNL     1      31.175   8.954  36.441  1.00  0.00     0.012 C 
ENDBRANCH   5   6
ENDBRANCH   3   4
ENDBRANCH   2   3
ENDBRANCH   1   2
BRANCH   1   9
ATOM      9  C   UNL     1      32.918  11.351  31.293  1.00  0.00     0.100 C 
BRANCH   9  10
ATOM     10  C   UNL     1      32.289  11.593  29.954  1.00  0.00     0.220 C 
ATOM     11  O   UNL     1      31.214  12.248  29.883  1.00  0.00    -0.275 OA
ATOM     12  N   UNL     1      32.936  11.129  28.761  1.00  0.00    -0.352 N 
ATOM     13  H   UNL     1      33.841  10.611  28.842  1.00  0.00     0.163 HD
BRANCH  12  14
ATOM     14  C   UNL     1      32.410  11.406  27.427  1.00  0.00     0.151 C 
BRANCH  14  15
ATOM     15  C   UNL     1      31.623  10.230  26.917  1.00  0.00    -0.025 A 
ATOM     16  C   UNL     1      31.610   9.026  27.640  1.00  0.00     0.056 A 
ATOM     17  C   UNL     1      30.885  10.330  25.728  1.00  0.00     0.009 A 
ATOM     18  C   UNL     1      30.866   7.921  27.177  1.00  0.00     0.160 A 
ATOM     19  C   UNL     1      30.148   9.239  25.266  1.00  0.00     0.050 A 
ATOM     20  C   UNL     1      30.133   8.038  25.982  1.00  0.00     0.157 A 
BRANCH  18  21
ATOM     21  O   UNL     1      30.833   6.704  27.876  1.00  0.00    -0.493 OA
ATOM     22  C   UNL     1      30.124   6.486  29.092  1.00  0.00     0.278 C 
ENDBRANCH  18  21
BRANCH  20  23
ATOM     23  O   UNL     1      29.382   6.972  25.490  1.00  0.00    -0.504 OA
ATOM     24  H   UNL     1      28.438   6.786  25.807  1.00  0.00     0.293 HD
ENDBRANCH  20  23
ENDBRANCH  14  15
ENDBRANCH  12  14
ENDBRANCH   9  10
ENDBRANCH   1   9
TORSDOF 10
ENDMDL
MODEL 7
REMARK VINA RESULT:    -4.836      3.096      7.691
REMARK INTER + INTRA:          -9.597
REMARK INTER:                  -8.180
REMARK INTRA:                  -1.416
REMARK UNBOUND:                -2.075
REMARK SMILES COc1cc(CNC(=O)CCCCC=CC(C)C)ccc1O
REMARK SMILES IDX 11 1 12 2 13 3 14 4 15 5 16 6 17 7 18 8 10 9 8 10 9 11 7 12
REMARK SMILES IDX 6 14 5 15 4 16 19 17 3 18 20 19 21 20 2 21 1 22 22 23
REMARK H PARENT 7 13 22 24
REMARK Flexibility Score: inf
ROOT
ATOM      1  C   UNL     1      31.162  12.281  25.105  1.00  0.00     0.010 C 
ENDROOT
BRANCH   1   2
ATOM      2  C   UNL     1      31.010  11.169  24.052  1.00  0.00     0.005 C 
BRANCH   2   3
ATOM      3  C   UNL     1      30.912   9.751  24.644  1.00  0.00     0.027 C 
BRANCH   3   4
ATOM      4  C   UNL     1      29.994   9.682  25.835  1.00  0.00    -0.031 C 
ATOM      5  C   UNL     1      28.689   9.392  25.704  1.00  0.00    -0.028 C 
BRANCH   5   6
ATOM      6  C   UNL     1      27.740   9.355  26.879  1.00  0.00     0.005 C 
ATOM      7  C   UNL     1      28.031  10.493  27.863  1.00  0.00     0.012 C 
ATOM      8  C   UNL     1      27.767   7.994  27.581  1.00  0.00     0.012 C 
ENDBRANCH   5   6
ENDBRANCH   3   4
ENDBRANCH   2   3
ENDBRANCH   1   2
BRANCH   1   9
ATOM      9  C   UNL     1      32.413  12.107  25.972  1.00  0.00     0.100 C 
BRANCH   9  10
ATOM     10  C   UNL     1      32.069  12.299  27.418  1.00  0.00     0.220 C 
ATOM     11  O   UNL     1      31.078  13.013  27.731  1.00  0.00    -0.275 OA
ATOM     12  N   UNL     1      32.833  11.632  28.434  1.00  0.00    -0.352 N 
ATOM     13  H   UNL     1      33.635  11.024  28.150  1.00  0.00     0.163 HD
BRANCH  12  14
ATOM     14  C   UNL     1      32.494  11.720  29.852  1.00  0.00     0.151 C 
BRANCH  14  15
ATOM     15  C   UNL     1      31.972  10.399  30.350  1.00  0.00    -0.025 A 
ATOM     16  C   UNL     1      32.171  10.025  31.689  1.00  0.00     0.056 A 
ATOM     17  C   UNL     1      31.270   9.542  29.490  1.00  0.00     0.009 A 
ATOM     18  C   UNL     1      31.676   8.795  32.169  1.00  0.00     0.160 A 
ATOM     19  C   UNL     1      30.778   8.324  29.960  1.00  0.00     0.050 A 
ATOM     20  C   UNL     1      30.975   7.946  31.292  1.00  0.00     0.157 A 
BRANCH  18  21
ATOM     21  O   UNL     1      31.859   8.391  33.501  1.00  0.00    -0.493 OA
ATOM     22  C   UNL     1      31.011   8.760  34.584  1.00  0.00     0.278 C 
ENDBRANCH  18  21
BRANCH  20  23
ATOM     23  O   UNL     1      30.466   6.723  31.726  1.00  0.00    -0.504 OA
ATOM     24  H   UNL     1      29.790   6.198  31.184  1.00  0.00     0.293 HD
ENDBRANCH  20  23
ENDBRANCH  14  15
ENDBRANCH  12  14
ENDBRANCH   9  10
ENDBRANCH   1   9
TORSDOF 10
ENDMDL
MODEL 8
REMARK VINA RESULT:    -4.818      3.781      5.943
REMARK INTER + INTRA:          -9.568
REMARK INTER:                  -8.088
REMARK INTRA:                  -1.480
REMARK UNBOUND:                -2.075
REMARK SMILES COc1cc(CNC(=O)CCCCC=CC(C)C)ccc1O
REMARK SMILES IDX 11 1 12 2 13 3 14 4 15 5 16 6 17 7 18 8 10 9 8 10 9 11 7 12
REMARK SMILES IDX 6 14 5 15 4 16 19 17 3 18 20 19 21 20 2 21 1 22 22 23
REMARK H PARENT 7 13 22 24
REMARK Flexibility Score: inf
ROOT
ATOM      1  C   UNL     1      30.291   6.943  28.753  1.00  0.00     0.010 C 
ENDROOT
BRANCH   1   2
ATOM      2  C   UNL     1      29.864   8.009  29.777  1.00  0.00     0.005 C 
BRANCH   2   3
ATOM      3  C   UNL     1      30.651   7.963  31.099  1.00  0.00     0.027 C 
BRANCH   3   4
ATOM      4  C   UNL     1      31.486   9.196  31.320  1.00  0.00    -0.031 C 
ATOM      5  C   UNL     1      32.307   9.312  32.377  1.00  0.00    -0.028 C 
BRANCH   5   6
ATOM      6  C   UNL     1      33.125  10.554  32.641  1.00  0.00     0.005 C 
ATOM      7  C   UNL     1      32.739  11.198  33.977  1.00  0.00     0.012 C 
ATOM      8  C   UNL     1      33.012  11.557  31.488  1.00  0.00     0.012 C 
ENDBRANCH   5   6
ENDBRANCH   3   4
ENDBRANCH   2   3
ENDBRANCH   1   2
BRANCH   1   9
ATOM      9  C   UNL     1      31.621   7.279  28.070  1.00  0.00     0.100 C 
BRANCH   9  10
ATOM     10  C   UNL     1      31.472   8.508  27.226  1.00  0.00     0.220 C 
ATOM     11  O   UNL     1      30.677   8.496  26.247  1.00  0.00    -0.275 OA
ATOM     12  N   UNL     1      32.188   9.704  27.565  1.00  0.00    -0.352 N 
ATOM     13  H   UNL     1      32.821   9.700  28.397  1.00  0.00     0.163 HD
BRANCH  12  14
ATOM     14  C   UNL     1      32.019  10.953  26.826  1.00  0.00     0.151 C 
BRANCH  14  15
ATOM     15  C   UNL     1      30.955  11.803  27.466  1.00  0.00    -0.025 A 
ATOM     16  C   UNL     1      30.442  12.918  26.784  1.00  0.00     0.056 A 
ATOM     17  C   UNL     1      30.455  11.479  28.736  1.00  0.00     0.009 A 
ATOM     18  C   UNL     1      29.435  13.713  27.369  1.00  0.00     0.160 A 
ATOM     19  C   UNL     1      29.460  12.264  29.320  1.00  0.00     0.050 A 
ATOM     20  C   UNL     1      28.947  13.376  28.645  1.00  0.00     0.157 A 
BRANCH  18  21
ATOM     21  O   UNL     1      28.902  14.836  26.715  1.00  0.00    -0.493 OA
ATOM     22  C   UNL     1      27.890  14.785  25.714  1.00  0.00     0.278 C 
ENDBRANCH  18  21
BRANCH  20  23
ATOM     23  O   UNL     1      27.951  14.134  29.260  1.00  0.00    -0.504 OA
ATOM     24  H   UNL     1      27.319  14.723  28.731  1.00  0.00     0.293 HD
ENDBRANCH  20  23
ENDBRANCH  14  15
ENDBRANCH  12  14
ENDBRANCH   9  10
ENDBRANCH   1   9
TORSDOF 10
ENDMDL
MODEL 9
REMARK VINA RESULT:    -4.792      3.226      6.091
REMARK INTER + INTRA:          -9.528
REMARK INTER:                  -8.895
REMARK INTRA:                  -0.633
REMARK UNBOUND:                -2.075
REMARK SMILES COc1cc(CNC(=O)CCCCC=CC(C)C)ccc1O
REMARK SMILES IDX 11 1 12 2 13 3 14 4 15 5 16 6 17 7 18 8 10 9 8 10 9 11 7 12
REMARK SMILES IDX 6 14 5 15 4 16 19 17 3 18 20 19 21 20 2 21 1 22 22 23
REMARK H PARENT 7 13 22 24
REMARK Flexibility Score: inf
ROOT
ATOM      1  C   UNL     1      32.423  11.407  32.145  1.00  0.00     0.010 C 
ENDROOT
BRANCH   1   2
ATOM      2  C   UNL     1      32.961  10.070  32.684  1.00  0.00     0.005 C 
BRANCH   2   3
ATOM      3  C   UNL     1      32.007   8.879  32.477  1.00  0.00     0.027 C 
BRANCH   3   4
ATOM      4  C   UNL     1      31.667   8.178  33.765  1.00  0.00    -0.031 C 
ATOM      5  C   UNL     1      31.174   8.845  34.822  1.00  0.00    -0.028 C 
BRANCH   5   6
ATOM      6  C   UNL     1      30.863   8.171  36.138  1.00  0.00     0.005 C 
ATOM      7  C   UNL     1      31.110   9.118  37.317  1.00  0.00     0.012 C 
ATOM      8  C   UNL     1      31.647   6.865  36.300  1.00  0.00     0.012 C 
ENDBRANCH   5   6
ENDBRANCH   3   4
ENDBRANCH   2   3
ENDBRANCH   1   2
BRANCH   1   9
ATOM      9  C   UNL     1      32.894  11.702  30.717  1.00  0.00     0.100 C 
BRANCH   9  10
ATOM     10  C   UNL     1      31.749  11.572  29.759  1.00  0.00     0.220 C 
ATOM     11  O   UNL     1      30.983  10.573  29.840  1.00  0.00    -0.275 OA
ATOM     12  N   UNL     1      31.498  12.603  28.794  1.00  0.00    -0.352 N 
ATOM     13  H   UNL     1      32.130  13.435  28.763  1.00  0.00     0.163 HD
BRANCH  12  14
ATOM     14  C   UNL     1      30.350  12.567  27.891  1.00  0.00     0.151 C 
BRANCH  14  15
ATOM     15  C   UNL     1      30.694  11.814  26.634  1.00  0.00    -0.025 A 
ATOM     16  C   UNL     1      30.326  10.465  26.501  1.00  0.00     0.056 A 
ATOM     17  C   UNL     1      31.366  12.454  25.583  1.00  0.00     0.009 A 
ATOM     18  C   UNL     1      30.633   9.753  25.323  1.00  0.00     0.160 A 
ATOM     19  C   UNL     1      31.673  11.754  24.415  1.00  0.00     0.050 A 
ATOM     20  C   UNL     1      31.310  10.411  24.278  1.00  0.00     0.157 A 
BRANCH  18  21
ATOM     21  O   UNL     1      30.281   8.404  25.158  1.00  0.00    -0.493 OA
ATOM     22  C   UNL     1      29.595   7.621  26.130  1.00  0.00     0.278 C 
ENDBRANCH  18  21
BRANCH  20  23
ATOM     23  O   UNL     1      31.630   9.746  23.096  1.00  0.00    -0.504 OA
ATOM     24  H   UNL     1      32.393  10.044  22.500  1.00  0.00     0.293 HD
ENDBRANCH  20  23
ENDBRANCH  14  15
ENDBRANCH  12  14
ENDBRANCH   9  10
ENDBRANCH   1   9
TORSDOF 10
ENDMDL
