MODEL 1
REMARK VINA RESULT:    -2.359      0.000      0.000
REMARK INTER + INTRA:          -4.943
REMARK INTER:                  -3.462
REMARK INTRA:                  -1.481
REMARK UNBOUND:                -1.481
REMARK SMILES CCCCCC(=O)CCCCC
REMARK SMILES IDX 6 1 7 2 5 3 4 4 3 5 2 6 1 7 8 8 9 9 10 10 11 11 12 12
REMARK H PARENT
REMARK Flexibility Score: inf
ROOT
ATOM      1  C   UNL     1     236.322 228.688 233.341  1.00  0.00     0.132 C 
ATOM      2  O   UNL     1     235.613 229.082 232.427  1.00  0.00    -0.300 OA
ENDROOT
BRANCH   1   3
ATOM      3  C   UNL     1     237.285 229.645 233.994  1.00  0.00     0.075 C 
BRANCH   3   4
ATOM      4  C   UNL     1     236.843 229.962 235.426  1.00  0.00     0.008 C 
BRANCH   4   5
ATOM      5  C   UNL     1     238.048 230.031 236.372  1.00  0.00     0.000 C 
BRANCH   5   6
ATOM      6  C   UNL     1     239.283 229.380 235.738  1.00  0.00    -0.003 C 
ATOM      7  C   UNL     1     240.133 228.672 236.788  1.00  0.00     0.004 C 
ENDBRANCH   5   6
ENDBRANCH   4   5
ENDBRANCH   3   4
ENDBRANCH   1   3
BRANCH   1   8
ATOM      8  C   UNL     1     236.228 227.250 233.782  1.00  0.00     0.075 C 
BRANCH   8   9
ATOM      9  C   UNL     1     237.622 226.621 233.872  1.00  0.00     0.008 C 
BRANCH   9  10
ATOM     10  C   UNL     1     237.882 226.057 235.277  1.00  0.00     0.000 C 
BRANCH  10  11
ATOM     11  C   UNL     1     236.699 226.282 236.231  1.00  0.00    -0.003 C 
ATOM     12  C   UNL     1     237.143 226.593 237.661  1.00  0.00     0.004 C 
ENDBRANCH  10  11
ENDBRANCH   9  10
ENDBRANCH   8   9
ENDBRANCH   1   8
TORSDOF 8
ENDMDL
MODEL 2
REMARK VINA RESULT:    -2.286      1.944      3.947
REMARK INTER + INTRA:          -4.836
REMARK INTER:                  -3.826
REMARK INTRA:                  -1.010
REMARK UNBOUND:                -1.481
REMARK SMILES CCCCCC(=O)CCCCC
REMARK SMILES IDX 6 1 7 2 5 3 4 4 3 5 2 6 1 7 8 8 9 9 10 10 11 11 12 12
REMARK H PARENT
REMARK Flexibility Score: inf
ROOT
ATOM      1  C   UNL     1     238.579 226.157 234.037  1.00  0.00     0.132 C 
ATOM      2  O   UNL     1     238.644 225.355 233.117  1.00  0.00    -0.300 OA
ENDROOT
BRANCH   1   3
ATOM      3  C   UNL     1     237.235 226.493 234.630  1.00  0.00     0.075 C 
BRANCH   3   4
ATOM      4  C   UNL     1     236.432 227.382 233.676  1.00  0.00     0.008 C 
BRANCH   4   5
ATOM      5  C   UNL     1     236.193 228.769 234.286  1.00  0.00     0.000 C 
BRANCH   5   6
ATOM      6  C   UNL     1     236.815 229.867 233.415  1.00  0.00    -0.003 C 
ATOM      7  C   UNL     1     235.846 230.324 232.329  1.00  0.00     0.004 C 
ENDBRANCH   5   6
ENDBRANCH   4   5
ENDBRANCH   3   4
ENDBRANCH   1   3
BRANCH   1   8
ATOM      8  C   UNL     1     239.842 226.803 234.544  1.00  0.00     0.075 C 
BRANCH   8   9
ATOM      9  C   UNL     1     239.555 227.640 235.796  1.00  0.00     0.008 C 
BRANCH   9  10
ATOM     10  C   UNL     1     239.776 229.135 235.521  1.00  0.00     0.000 C 
BRANCH  10  11
ATOM     11  C   UNL     1     239.506 230.008 236.756  1.00  0.00    -0.003 C 
ATOM     12  C   UNL     1     238.082 229.853 237.291  1.00  0.00     0.004 C 
ENDBRANCH  10  11
ENDBRANCH   9  10
ENDBRANCH   8   9
ENDBRANCH   1   8
TORSDOF 8
ENDMDL
MODEL 3
REMARK VINA RESULT:    -2.285      9.030     10.791
REMARK INTER + INTRA:          -4.834
REMARK INTER:                  -3.892
REMARK INTRA:                  -0.942
REMARK UNBOUND:                -1.481
REMARK SMILES CCCCCC(=O)CCCCC
REMARK SMILES IDX 6 1 7 2 5 3 4 4 3 5 2 6 1 7 8 8 9 9 10 10 11 11 12 12
REMARK H PARENT
REMARK Flexibility Score: inf
ROOT
ATOM      1  C   UNL     1     241.942 238.358 234.225  1.00  0.00     0.132 C 
ATOM      2  O   UNL     1     242.387 239.164 233.423  1.00  0.00    -0.300 OA
ENDROOT
BRANCH   1   3
ATOM      3  C   UNL     1     241.861 238.735 235.682  1.00  0.00     0.075 C 
BRANCH   3   4
ATOM      4  C   UNL     1     240.962 239.960 235.873  1.00  0.00     0.008 C 
BRANCH   4   5
ATOM      5  C   UNL     1     239.532 239.674 235.398  1.00  0.00     0.000 C 
BRANCH   5   6
ATOM      6  C   UNL     1     238.604 239.393 236.585  1.00  0.00    -0.003 C 
ATOM      7  C   UNL     1     238.477 240.617 237.487  1.00  0.00     0.004 C 
ENDBRANCH   5   6
ENDBRANCH   4   5
ENDBRANCH   3   4
ENDBRANCH   1   3
BRANCH   1   8
ATOM      8  C   UNL     1     241.500 237.001 233.742  1.00  0.00     0.075 C 
BRANCH   8   9
ATOM      9  C   UNL     1     240.905 236.185 234.895  1.00  0.00     0.008 C 
BRANCH   9  10
ATOM     10  C   UNL     1     239.403 235.944 234.682  1.00  0.00     0.000 C 
BRANCH  10  11
ATOM     11  C   UNL     1     238.878 236.597 233.394  1.00  0.00    -0.003 C 
ATOM     12  C   UNL     1     238.359 235.576 232.381  1.00  0.00     0.004 C 
ENDBRANCH  10  11
ENDBRANCH   9  10
ENDBRANCH   8   9
ENDBRANCH   1   8
TORSDOF 8
ENDMDL
MODEL 4
REMARK VINA RESULT:    -2.257      8.876     10.895
REMARK INTER + INTRA:          -4.793
REMARK INTER:                  -3.519
REMARK INTRA:                  -1.274
REMARK UNBOUND:                -1.481
REMARK SMILES CCCCCC(=O)CCCCC
REMARK SMILES IDX 6 1 7 2 5 3 4 4 3 5 2 6 1 7 8 8 9 9 10 10 11 11 12 12
REMARK H PARENT
REMARK Flexibility Score: inf
ROOT
ATOM      1  C   UNL     1     241.978 238.204 233.890  1.00  0.00     0.132 C 
ATOM      2  O   UNL     1     242.971 238.516 233.250  1.00  0.00    -0.300 OA
ENDROOT
BRANCH   1   3
ATOM      3  C   UNL     1     241.457 236.793 233.803  1.00  0.00     0.075 C 
BRANCH   3   4
ATOM      4  C   UNL     1     239.930 236.788 233.682  1.00  0.00     0.008 C 
BRANCH   4   5
ATOM      5  C   UNL     1     239.288 236.005 234.833  1.00  0.00     0.000 C 
BRANCH   5   6
ATOM      6  C   UNL     1     240.350 235.518 235.827  1.00  0.00    -0.003 C 
ATOM      7  C   UNL     1     239.903 235.748 237.267  1.00  0.00     0.004 C 
ENDBRANCH   5   6
ENDBRANCH   4   5
ENDBRANCH   3   4
ENDBRANCH   1   3
BRANCH   1   8
ATOM      8  C   UNL     1     241.288 239.242 234.736  1.00  0.00     0.075 C 
BRANCH   8   9
ATOM      9  C   UNL     1     241.619 239.036 236.219  1.00  0.00     0.008 C 
BRANCH   9  10
ATOM     10  C   UNL     1     240.436 239.446 237.109  1.00  0.00     0.000 C 
BRANCH  10  11
ATOM     11  C   UNL     1     239.098 239.437 236.353  1.00  0.00    -0.003 C 
ATOM     12  C   UNL     1     238.011 240.244 237.065  1.00  0.00     0.004 C 
ENDBRANCH  10  11
ENDBRANCH   9  10
ENDBRANCH   8   9
ENDBRANCH   1   8
TORSDOF 8
ENDMDL
MODEL 5
REMARK VINA RESULT:    -2.253      9.541     10.878
REMARK INTER + INTRA:          -4.788
REMARK INTER:                  -4.375
REMARK INTRA:                  -0.413
REMARK UNBOUND:                -1.481
REMARK SMILES CCCCCC(=O)CCCCC
REMARK SMILES IDX 6 1 7 2 5 3 4 4 3 5 2 6 1 7 8 8 9 9 10 10 11 11 12 12
REMARK H PARENT
REMARK Flexibility Score: inf
ROOT
ATOM      1  C   UNL     1     226.920 230.326 234.694  1.00  0.00     0.132 C 
ATOM      2  O   UNL     1     227.246 230.455 235.864  1.00  0.00    -0.300 OA
ENDROOT
BRANCH   1   3
ATOM      3  C   UNL     1     227.003 231.513 233.769  1.00  0.00     0.075 C 
BRANCH   3   4
ATOM      4  C   UNL     1     228.327 232.258 233.966  1.00  0.00     0.008 C 
BRANCH   4   5
ATOM      5  C   UNL     1     229.518 231.379 233.569  1.00  0.00     0.000 C 
BRANCH   5   6
ATOM      6  C   UNL     1     230.542 232.176 232.751  1.00  0.00    -0.003 C 
ATOM      7  C   UNL     1     229.854 233.220 231.876  1.00  0.00     0.004 C 
ENDBRANCH   5   6
ENDBRANCH   4   5
ENDBRANCH   3   4
ENDBRANCH   1   3
BRANCH   1   8
ATOM      8  C   UNL     1     226.426 228.989 234.208  1.00  0.00     0.075 C 
BRANCH   8   9
ATOM      9  C   UNL     1     225.437 229.166 233.050  1.00  0.00     0.008 C 
BRANCH   9  10
ATOM     10  C   UNL     1     225.417 227.923 232.148  1.00  0.00     0.000 C 
BRANCH  10  11
ATOM     11  C   UNL     1     224.903 226.672 232.878  1.00  0.00    -0.003 C 
ATOM     12  C   UNL     1     225.820 225.462 232.695  1.00  0.00     0.004 C 
ENDBRANCH  10  11
ENDBRANCH   9  10
ENDBRANCH   8   9
ENDBRANCH   1   8
TORSDOF 8
ENDMDL
MODEL 6
REMARK VINA RESULT:    -2.235      8.256      9.355
REMARK INTER + INTRA:          -4.761
REMARK INTER:                  -3.653
REMARK INTRA:                  -1.108
REMARK UNBOUND:                -1.481
REMARK SMILES CCCCCC(=O)CCCCC
REMARK SMILES IDX 6 1 7 2 5 3 4 4 3 5 2 6 1 7 8 8 9 9 10 10 11 11 12 12
REMARK H PARENT
REMARK Flexibility Score: inf
ROOT
ATOM      1  C   UNL     1     226.709 230.739 234.153  1.00  0.00     0.132 C 
ATOM      2  O   UNL     1     225.992 230.104 233.394  1.00  0.00    -0.300 OA
ENDROOT
BRANCH   1   3
ATOM      3  C   UNL     1     227.204 232.099 233.734  1.00  0.00     0.075 C 
BRANCH   3   4
ATOM      4  C   UNL     1     228.631 232.333 234.241  1.00  0.00     0.008 C 
BRANCH   4   5
ATOM      5  C   UNL     1     229.655 231.607 233.360  1.00  0.00     0.000 C 
BRANCH   5   6
ATOM      6  C   UNL     1     230.903 232.470 233.142  1.00  0.00    -0.003 C 
ATOM      7  C   UNL     1     231.224 233.299 234.382  1.00  0.00     0.004 C 
ENDBRANCH   5   6
ENDBRANCH   4   5
ENDBRANCH   3   4
ENDBRANCH   1   3
BRANCH   1   8
ATOM      8  C   UNL     1     227.094 230.141 235.480  1.00  0.00     0.075 C 
BRANCH   8   9
ATOM      9  C   UNL     1     227.746 228.768 235.285  1.00  0.00     0.008 C 
BRANCH   9  10
ATOM     10  C   UNL     1     229.200 228.772 235.781  1.00  0.00     0.000 C 
BRANCH  10  11
ATOM     11  C   UNL     1     229.469 229.884 236.807  1.00  0.00    -0.003 C 
ATOM     12  C   UNL     1     230.918 230.373 236.782  1.00  0.00     0.004 C 
ENDBRANCH  10  11
ENDBRANCH   9  10
ENDBRANCH   8   9
ENDBRANCH   1   8
TORSDOF 8
ENDMDL
MODEL 7
REMARK VINA RESULT:    -2.231     12.123     14.064
REMARK INTER + INTRA:          -4.754
REMARK INTER:                  -3.827
REMARK INTRA:                  -0.927
REMARK UNBOUND:                -1.481
REMARK SMILES CCCCCC(=O)CCCCC
REMARK SMILES IDX 6 1 7 2 5 3 4 4 3 5 2 6 1 7 8 8 9 9 10 10 11 11 12 12
REMARK H PARENT
REMARK Flexibility Score: inf
ROOT
ATOM      1  C   UNL     1     232.070 241.220 234.423  1.00  0.00     0.132 C 
ATOM      2  O   UNL     1     232.492 241.500 233.311  1.00  0.00    -0.300 OA
ENDROOT
BRANCH   1   3
ATOM      3  C   UNL     1     230.980 242.063 235.032  1.00  0.00     0.075 C 
BRANCH   3   4
ATOM      4  C   UNL     1     229.777 242.154 234.088  1.00  0.00     0.008 C 
BRANCH   4   5
ATOM      5  C   UNL     1     228.535 241.509 234.714  1.00  0.00     0.000 C 
BRANCH   5   6
ATOM      6  C   UNL     1     228.811 241.071 236.158  1.00  0.00    -0.003 C 
ATOM      7  C   UNL     1     228.383 239.624 236.386  1.00  0.00     0.004 C 
ENDBRANCH   5   6
ENDBRANCH   4   5
ENDBRANCH   3   4
ENDBRANCH   1   3
BRANCH   1   8
ATOM      8  C   UNL     1     232.660 240.048 235.163  1.00  0.00     0.075 C 
BRANCH   8   9
ATOM      9  C   UNL     1     231.720 238.839 235.098  1.00  0.00     0.008 C 
BRANCH   9  10
ATOM     10  C   UNL     1     231.381 238.483 233.642  1.00  0.00     0.000 C 
BRANCH  10  11
ATOM     11  C   UNL     1     232.463 237.614 232.981  1.00  0.00    -0.003 C 
ATOM     12  C   UNL     1     233.220 238.352 231.876  1.00  0.00     0.004 C 
ENDBRANCH  10  11
ENDBRANCH   9  10
ENDBRANCH   8   9
ENDBRANCH   1   8
TORSDOF 8
ENDMDL
MODEL 8
REMARK VINA RESULT:    -2.229      8.476      9.990
REMARK INTER + INTRA:          -4.752
REMARK INTER:                  -3.550
REMARK INTRA:                  -1.202
REMARK UNBOUND:                -1.481
REMARK SMILES CCCCCC(=O)CCCCC
REMARK SMILES IDX 6 1 7 2 5 3 4 4 3 5 2 6 1 7 8 8 9 9 10 10 11 11 12 12
REMARK H PARENT
REMARK Flexibility Score: inf
ROOT
ATOM      1  C   UNL     1     226.595 230.408 234.314  1.00  0.00     0.132 C 
ATOM      2  O   UNL     1     225.620 229.942 233.743  1.00  0.00    -0.300 OA
ENDROOT
BRANCH   1   3
ATOM      3  C   UNL     1     227.122 229.727 235.550  1.00  0.00     0.075 C 
BRANCH   3   4
ATOM      4  C   UNL     1     228.153 228.657 235.179  1.00  0.00     0.008 C 
BRANCH   4   5
ATOM      5  C   UNL     1     229.381 228.733 236.093  1.00  0.00     0.000 C 
BRANCH   5   6
ATOM      6  C   UNL     1     229.185 229.787 237.190  1.00  0.00    -0.003 C 
ATOM      7  C   UNL     1     230.496 230.499 237.510  1.00  0.00     0.004 C 
ENDBRANCH   5   6
ENDBRANCH   4   5
ENDBRANCH   3   4
ENDBRANCH   1   3
BRANCH   1   8
ATOM      8  C   UNL     1     227.236 231.661 233.776  1.00  0.00     0.075 C 
BRANCH   8   9
ATOM      9  C   UNL     1     227.917 232.445 234.903  1.00  0.00     0.008 C 
BRANCH   9  10
ATOM     10  C   UNL     1     229.423 232.593 234.639  1.00  0.00     0.000 C 
BRANCH  10  11
ATOM     11  C   UNL     1     229.896 231.763 233.435  1.00  0.00    -0.003 C 
ATOM     12  C   UNL     1     230.571 232.613 232.358  1.00  0.00     0.004 C 
ENDBRANCH  10  11
ENDBRANCH   9  10
ENDBRANCH   8   9
ENDBRANCH   1   8
TORSDOF 8
ENDMDL
MODEL 9
REMARK VINA RESULT:    -2.219      8.314     10.509
REMARK INTER + INTRA:          -4.738
REMARK INTER:                  -3.439
REMARK INTRA:                  -1.298
REMARK UNBOUND:                -1.481
REMARK SMILES CCCCCC(=O)CCCCC
REMARK SMILES IDX 6 1 7 2 5 3 4 4 3 5 2 6 1 7 8 8 9 9 10 10 11 11 12 12
REMARK H PARENT
REMARK Flexibility Score: inf
ROOT
ATOM      1  C   UNL     1     241.468 237.006 234.347  1.00  0.00     0.132 C 
ATOM      2  O   UNL     1     241.523 236.270 233.373  1.00  0.00    -0.300 OA
ENDROOT
BRANCH   1   3
ATOM      3  C   UNL     1     241.280 236.406 235.716  1.00  0.00     0.075 C 
BRANCH   3   4
ATOM      4  C   UNL     1     240.099 235.431 235.719  1.00  0.00     0.008 C 
BRANCH   4   5
ATOM      5  C   UNL     1     238.767 236.176 235.569  1.00  0.00     0.000 C 
BRANCH   5   6
ATOM      6  C   UNL     1     238.008 235.699 234.325  1.00  0.00    -0.003 C 
ATOM      7  C   UNL     1     238.018 236.763 233.232  1.00  0.00     0.004 C 
ENDBRANCH   5   6
ENDBRANCH   4   5
ENDBRANCH   3   4
ENDBRANCH   1   3
BRANCH   1   8
ATOM      8  C   UNL     1     241.573 238.497 234.153  1.00  0.00     0.075 C 
BRANCH   8   9
ATOM      9  C   UNL     1     241.080 239.239 235.400  1.00  0.00     0.008 C 
BRANCH   9  10
ATOM     10  C   UNL     1     239.621 239.690 235.232  1.00  0.00     0.000 C 
BRANCH  10  11
ATOM     11  C   UNL     1     238.910 239.900 236.577  1.00  0.00    -0.003 C 
ATOM     12  C   UNL     1     239.562 239.119 237.719  1.00  0.00     0.004 C 
ENDBRANCH  10  11
ENDBRANCH   9  10
ENDBRANCH   8   9
ENDBRANCH   1   8
TORSDOF 8
ENDMDL
