MODEL 1
REMARK VINA RESULT:    -4.181      0.000      0.000
REMARK INTER + INTRA:          -5.315
REMARK INTER:                  -5.037
REMARK INTRA:                  -0.279
REMARK UNBOUND:                -0.279
REMARK SMILES C=CCc1ccc(O)c(OC)c1
REMARK SMILES IDX 9 1 7 2 6 3 5 4 4 5 12 6 10 7 11 8 8 9 3 11 2 12 1 13
REMARK H PARENT 8 10
REMARK Flexibility Score: inf
ROOT
ATOM      1  C   UNL     1      79.310  15.037   4.856  1.00  0.00     0.160 A 
ATOM      2  C   UNL     1      79.433  16.430   4.742  1.00  0.00     0.157 A 
ATOM      3  C   UNL     1      79.661  17.016   3.490  1.00  0.00     0.050 A 
ATOM      4  C   UNL     1      79.765  16.220   2.348  1.00  0.00     0.008 A 
ATOM      5  C   UNL     1      79.634  14.827   2.443  1.00  0.00    -0.040 A 
ATOM      6  C   UNL     1      79.415  14.239   3.699  1.00  0.00     0.054 A 
ENDROOT
BRANCH   1   7
ATOM      7  O   UNL     1      79.086  14.487   6.128  1.00  0.00    -0.493 OA
ATOM      8  C   UNL     1      80.091  13.876   6.930  1.00  0.00     0.278 C 
ENDBRANCH   1   7
BRANCH   2   9
ATOM      9  O   UNL     1      79.329  17.226   5.882  1.00  0.00    -0.504 OA
ATOM     10  H   UNL     1      78.489  17.753   6.086  1.00  0.00     0.293 HD
ENDBRANCH   2   9
BRANCH   5  11
ATOM     11  C   UNL     1      79.775  13.964   1.217  1.00  0.00     0.062 C 
BRANCH  11  12
ATOM     12  C   UNL     1      79.029  14.560   0.057  1.00  0.00    -0.030 C 
ATOM     13  C   UNL     1      77.723  14.344  -0.124  1.00  0.00     0.004 C 
ENDBRANCH  11  12
ENDBRANCH   5  11
TORSDOF 4
ENDMDL
MODEL 2
REMARK VINA RESULT:    -4.119      1.774      2.884
REMARK INTER + INTRA:          -5.241
REMARK INTER:                  -5.046
REMARK INTRA:                  -0.194
REMARK UNBOUND:                -0.279
REMARK SMILES C=CCc1ccc(O)c(OC)c1
REMARK SMILES IDX 9 1 7 2 6 3 5 4 4 5 12 6 10 7 11 8 8 9 3 11 2 12 1 13
REMARK H PARENT 8 10
REMARK Flexibility Score: inf
ROOT
ATOM      1  C   UNL     1      79.673  15.755   4.406  1.00  0.00     0.160 A 
ATOM      2  C   UNL     1      80.356  14.544   4.222  1.00  0.00     0.157 A 
ATOM      3  C   UNL     1      80.473  13.989   2.941  1.00  0.00     0.050 A 
ATOM      4  C   UNL     1      79.914  14.639   1.839  1.00  0.00     0.008 A 
ATOM      5  C   UNL     1      79.236  15.856   2.004  1.00  0.00    -0.040 A 
ATOM      6  C   UNL     1      79.111  16.406   3.290  1.00  0.00     0.054 A 
ENDROOT
BRANCH   1   7
ATOM      7  O   UNL     1      79.573  16.276   5.706  1.00  0.00    -0.493 OA
ATOM      8  C   UNL     1      79.558  17.665   6.018  1.00  0.00     0.278 C 
ENDBRANCH   1   7
BRANCH   2   9
ATOM      9  O   UNL     1      80.915  13.894   5.322  1.00  0.00    -0.504 OA
ATOM     10  H   UNL     1      81.693  13.253   5.220  1.00  0.00     0.293 HD
ENDBRANCH   2   9
BRANCH   5  11
ATOM     11  C   UNL     1      78.607  16.544   0.822  1.00  0.00     0.062 C 
BRANCH  11  12
ATOM     12  C   UNL     1      78.661  18.037   0.983  1.00  0.00    -0.030 C 
ATOM     13  C   UNL     1      77.581  18.803   0.802  1.00  0.00     0.004 C 
ENDBRANCH  11  12
ENDBRANCH   5  11
TORSDOF 4
ENDMDL
MODEL 3
REMARK VINA RESULT:    -4.084      2.610      4.570
REMARK INTER + INTRA:          -5.199
REMARK INTER:                  -5.020
REMARK INTRA:                  -0.179
REMARK UNBOUND:                -0.279
REMARK SMILES C=CCc1ccc(O)c(OC)c1
REMARK SMILES IDX 9 1 7 2 6 3 5 4 4 5 12 6 10 7 11 8 8 9 3 11 2 12 1 13
REMARK H PARENT 8 10
REMARK Flexibility Score: inf
ROOT
ATOM      1  C   UNL     1      79.687  17.697   2.068  1.00  0.00     0.160 A 
ATOM      2  C   UNL     1      78.770  17.602   1.011  1.00  0.00     0.157 A 
ATOM      3  C   UNL     1      78.114  16.390   0.757  1.00  0.00     0.050 A 
ATOM      4  C   UNL     1      78.366  15.272   1.554  1.00  0.00     0.008 A 
ATOM      5  C   UNL     1      79.272  15.354   2.622  1.00  0.00    -0.040 A 
ATOM      6  C   UNL     1      79.936  16.566   2.870  1.00  0.00     0.054 A 
ENDROOT
BRANCH   1   7
ATOM      7  O   UNL     1      80.327  18.927   2.289  1.00  0.00    -0.493 OA
ATOM      8  C   UNL     1      81.517  19.346   1.628  1.00  0.00     0.278 C 
ENDBRANCH   1   7
BRANCH   2   9
ATOM      9  O   UNL     1      78.518  18.717   0.215  1.00  0.00    -0.504 OA
ATOM     10  H   UNL     1      77.962  19.494   0.551  1.00  0.00     0.293 HD
ENDBRANCH   2   9
BRANCH   5  11
ATOM     11  C   UNL     1      79.567  14.142   3.465  1.00  0.00     0.062 C 
BRANCH  11  12
ATOM     12  C   UNL     1      80.115  14.546   4.805  1.00  0.00    -0.030 C 
ATOM     13  C   UNL     1      79.407  14.395   5.928  1.00  0.00     0.004 C 
ENDBRANCH  11  12
ENDBRANCH   5  11
TORSDOF 4
ENDMDL
MODEL 4
REMARK VINA RESULT:    -4.052      2.508      4.609
REMARK INTER + INTRA:          -5.160
REMARK INTER:                  -4.948
REMARK INTRA:                  -0.212
REMARK UNBOUND:                -0.279
REMARK SMILES C=CCc1ccc(O)c(OC)c1
REMARK SMILES IDX 9 1 7 2 6 3 5 4 4 5 12 6 10 7 11 8 8 9 3 11 2 12 1 13
REMARK H PARENT 8 10
REMARK Flexibility Score: inf
ROOT
ATOM      1  C   UNL     1      79.197  15.901   1.403  1.00  0.00     0.160 A 
ATOM      2  C   UNL     1      79.320  17.271   1.679  1.00  0.00     0.157 A 
ATOM      3  C   UNL     1      79.756  17.699   2.940  1.00  0.00     0.050 A 
ATOM      4  C   UNL     1      80.074  16.767   3.929  1.00  0.00     0.008 A 
ATOM      5  C   UNL     1      79.967  15.393   3.666  1.00  0.00    -0.040 A 
ATOM      6  C   UNL     1      79.520  14.965   2.405  1.00  0.00     0.054 A 
ENDROOT
BRANCH   1   7
ATOM      7  O   UNL     1      78.753  15.512   0.130  1.00  0.00    -0.493 OA
ATOM      8  C   UNL     1      77.911  14.393  -0.123  1.00  0.00     0.278 C 
ENDBRANCH   1   7
BRANCH   2   9
ATOM      9  O   UNL     1      79.003  18.203   0.692  1.00  0.00    -0.504 OA
ATOM     10  H   UNL     1      78.423  19.010   0.891  1.00  0.00     0.293 HD
ENDBRANCH   2   9
BRANCH   5  11
ATOM     11  C   UNL     1      80.281  14.386   4.740  1.00  0.00     0.062 C 
BRANCH  11  12
ATOM     12  C   UNL     1      79.338  14.531   5.901  1.00  0.00    -0.030 C 
ATOM     13  C   UNL     1      79.769  14.500   7.165  1.00  0.00     0.004 C 
ENDBRANCH  11  12
ENDBRANCH   5  11
TORSDOF 4
ENDMDL
MODEL 5
REMARK VINA RESULT:    -4.009      1.186      2.852
REMARK INTER + INTRA:          -5.108
REMARK INTER:                  -4.867
REMARK INTRA:                  -0.241
REMARK UNBOUND:                -0.279
REMARK SMILES C=CCc1ccc(O)c(OC)c1
REMARK SMILES IDX 9 1 7 2 6 3 5 4 4 5 12 6 10 7 11 8 8 9 3 11 2 12 1 13
REMARK H PARENT 8 10
REMARK Flexibility Score: inf
ROOT
ATOM      1  C   UNL     1      79.828  16.959   3.328  1.00  0.00     0.160 A 
ATOM      2  C   UNL     1      79.325  16.435   4.528  1.00  0.00     0.157 A 
ATOM      3  C   UNL     1      78.951  15.087   4.605  1.00  0.00     0.050 A 
ATOM      4  C   UNL     1      79.079  14.256   3.490  1.00  0.00     0.008 A 
ATOM      5  C   UNL     1      79.590  14.762   2.286  1.00  0.00    -0.040 A 
ATOM      6  C   UNL     1      79.955  16.115   2.207  1.00  0.00     0.054 A 
ENDROOT
BRANCH   1   7
ATOM      7  O   UNL     1      80.187  18.316   3.289  1.00  0.00    -0.493 OA
ATOM      8  C   UNL     1      80.535  19.023   2.104  1.00  0.00     0.278 C 
ENDBRANCH   1   7
BRANCH   2   9
ATOM      9  O   UNL     1      79.197  17.263   5.641  1.00  0.00    -0.504 OA
ATOM     10  H   UNL     1      79.832  18.036   5.804  1.00  0.00     0.293 HD
ENDBRANCH   2   9
BRANCH   5  11
ATOM     11  C   UNL     1      79.703  13.875   1.074  1.00  0.00     0.062 C 
BRANCH  11  12
ATOM     12  C   UNL     1      78.932  14.451  -0.081  1.00  0.00    -0.030 C 
ATOM     13  C   UNL     1      77.596  14.480  -0.090  1.00  0.00     0.004 C 
ENDBRANCH  11  12
ENDBRANCH   5  11
TORSDOF 4
ENDMDL
MODEL 6
REMARK VINA RESULT:    -3.772      2.388      5.058
REMARK INTER + INTRA:          -4.822
REMARK INTER:                  -4.618
REMARK INTRA:                  -0.204
REMARK UNBOUND:                -0.279
REMARK SMILES C=CCc1ccc(O)c(OC)c1
REMARK SMILES IDX 9 1 7 2 6 3 5 4 4 5 12 6 10 7 11 8 8 9 3 11 2 12 1 13
REMARK H PARENT 8 10
REMARK Flexibility Score: inf
ROOT
ATOM      1  C   UNL     1      79.433  16.296   2.216  1.00  0.00     0.160 A 
ATOM      2  C   UNL     1      79.345  15.057   1.564  1.00  0.00     0.157 A 
ATOM      3  C   UNL     1      79.243  13.875   2.310  1.00  0.00     0.050 A 
ATOM      4  C   UNL     1      79.226  13.922   3.705  1.00  0.00     0.008 A 
ATOM      5  C   UNL     1      79.302  15.154   4.372  1.00  0.00    -0.040 A 
ATOM      6  C   UNL     1      79.414  16.337   3.624  1.00  0.00     0.054 A 
ENDROOT
BRANCH   1   7
ATOM      7  O   UNL     1      79.537  17.457   1.434  1.00  0.00    -0.493 OA
ATOM      8  C   UNL     1      78.429  18.235   0.995  1.00  0.00     0.278 C 
ENDBRANCH   1   7
BRANCH   2   9
ATOM      9  O   UNL     1      79.363  15.009   0.171  1.00  0.00    -0.504 OA
ATOM     10  H   UNL     1      79.694  14.191  -0.327  1.00  0.00     0.293 HD
ENDBRANCH   2   9
BRANCH   5  11
ATOM     11  C   UNL     1      79.312  15.205   5.877  1.00  0.00     0.062 C 
BRANCH  11  12
ATOM     12  C   UNL     1      79.860  13.929   6.450  1.00  0.00    -0.030 C 
ATOM     13  C   UNL     1      80.372  13.876   7.684  1.00  0.00     0.004 C 
ENDBRANCH  11  12
ENDBRANCH   5  11
TORSDOF 4
ENDMDL
MODEL 7
REMARK VINA RESULT:    -3.409     19.065     20.413
REMARK INTER + INTRA:          -4.386
REMARK INTER:                  -4.176
REMARK INTRA:                  -0.209
REMARK UNBOUND:                -0.279
REMARK SMILES C=CCc1ccc(O)c(OC)c1
REMARK SMILES IDX 9 1 7 2 6 3 5 4 4 5 12 6 10 7 11 8 8 9 3 11 2 12 1 13
REMARK H PARENT 8 10
REMARK Flexibility Score: inf
ROOT
ATOM      1  C   UNL     1      90.361  27.004  17.119  1.00  0.00     0.160 A 
ATOM      2  C   UNL     1      89.041  26.703  16.751  1.00  0.00     0.157 A 
ATOM      3  C   UNL     1      88.675  26.682  15.399  1.00  0.00     0.050 A 
ATOM      4  C   UNL     1      89.620  26.958  14.409  1.00  0.00     0.008 A 
ATOM      5  C   UNL     1      90.946  27.251  14.759  1.00  0.00    -0.040 A 
ATOM      6  C   UNL     1      91.310  27.281  16.115  1.00  0.00     0.054 A 
ENDROOT
BRANCH   1   7
ATOM      7  O   UNL     1      90.688  27.019  18.484  1.00  0.00    -0.493 OA
ATOM      8  C   UNL     1      91.970  27.360  19.001  1.00  0.00     0.278 C 
ENDBRANCH   1   7
BRANCH   2   9
ATOM      9  O   UNL     1      88.097  26.428  17.739  1.00  0.00    -0.504 OA
ATOM     10  H   UNL     1      88.122  25.566  18.272  1.00  0.00     0.293 HD
ENDBRANCH   2   9
BRANCH   5  11
ATOM     11  C   UNL     1      91.960  27.576  13.695  1.00  0.00     0.062 C 
BRANCH  11  12
ATOM     12  C   UNL     1      92.124  26.424  12.745  1.00  0.00    -0.030 C 
ATOM     13  C   UNL     1      92.115  26.600  11.420  1.00  0.00     0.004 C 
ENDBRANCH  11  12
ENDBRANCH   5  11
TORSDOF 4
ENDMDL
MODEL 8
REMARK VINA RESULT:    -3.122      1.510      2.381
REMARK INTER + INTRA:          -4.039
REMARK INTER:                  -3.915
REMARK INTRA:                  -0.124
REMARK UNBOUND:                -0.279
REMARK SMILES C=CCc1ccc(O)c(OC)c1
REMARK SMILES IDX 9 1 7 2 6 3 5 4 4 5 12 6 10 7 11 8 8 9 3 11 2 12 1 13
REMARK H PARENT 8 10
REMARK Flexibility Score: inf
ROOT
ATOM      1  C   UNL     1      79.816  14.665   7.126  1.00  0.00     0.160 A 
ATOM      2  C   UNL     1      79.753  16.066   7.122  1.00  0.00     0.157 A 
ATOM      3  C   UNL     1      79.502  16.756   5.928  1.00  0.00     0.050 A 
ATOM      4  C   UNL     1      79.311  16.054   4.736  1.00  0.00     0.008 A 
ATOM      5  C   UNL     1      79.361  14.652   4.725  1.00  0.00    -0.040 A 
ATOM      6  C   UNL     1      79.622  13.963   5.920  1.00  0.00     0.054 A 
ENDROOT
BRANCH   1   7
ATOM      7  O   UNL     1      80.074  14.011   8.341  1.00  0.00    -0.493 OA
ATOM      8  C   UNL     1      81.365  13.875   8.925  1.00  0.00     0.278 C 
ENDBRANCH   1   7
BRANCH   2   9
ATOM      9  O   UNL     1      79.943  16.768   8.311  1.00  0.00    -0.504 OA
ATOM     10  H   UNL     1      79.733  17.756   8.384  1.00  0.00     0.293 HD
ENDBRANCH   2   9
BRANCH   5  11
ATOM     11  C   UNL     1      79.184  13.894   3.436  1.00  0.00     0.062 C 
BRANCH  11  12
ATOM     12  C   UNL     1      79.651  14.715   2.267  1.00  0.00    -0.030 C 
ATOM     13  C   UNL     1      79.751  14.196   1.040  1.00  0.00     0.004 C 
ENDBRANCH  11  12
ENDBRANCH   5  11
TORSDOF 4
ENDMDL
MODEL 9
REMARK VINA RESULT:    -2.317      3.063      4.175
REMARK INTER + INTRA:          -3.069
REMARK INTER:                  -2.858
REMARK INTRA:                  -0.211
REMARK UNBOUND:                -0.279
REMARK SMILES C=CCc1ccc(O)c(OC)c1
REMARK SMILES IDX 9 1 7 2 6 3 5 4 4 5 12 6 10 7 11 8 8 9 3 11 2 12 1 13
REMARK H PARENT 8 10
REMARK Flexibility Score: inf
ROOT
ATOM      1  C   UNL     1      79.502  16.152   2.664  1.00  0.00     0.160 A 
ATOM      2  C   UNL     1      79.193  15.222   1.661  1.00  0.00     0.157 A 
ATOM      3  C   UNL     1      78.583  15.646   0.473  1.00  0.00     0.050 A 
ATOM      4  C   UNL     1      78.282  16.996   0.278  1.00  0.00     0.008 A 
ATOM      5  C   UNL     1      78.595  17.940   1.267  1.00  0.00    -0.040 A 
ATOM      6  C   UNL     1      79.197  17.513   2.462  1.00  0.00     0.054 A 
ENDROOT
BRANCH   1   7
ATOM      7  O   UNL     1      80.109  15.688   3.842  1.00  0.00    -0.493 OA
ATOM      8  C   UNL     1      79.534  15.794   5.141  1.00  0.00     0.278 C 
ENDBRANCH   1   7
BRANCH   2   9
ATOM      9  O   UNL     1      79.492  13.875   1.854  1.00  0.00    -0.504 OA
ATOM     10  H   UNL     1      79.294  13.180   1.144  1.00  0.00     0.293 HD
ENDBRANCH   2   9
BRANCH   5  11
ATOM     11  C   UNL     1      78.246  19.391   1.072  1.00  0.00     0.062 C 
BRANCH  11  12
ATOM     12  C   UNL     1      76.789  19.549   0.741  1.00  0.00    -0.030 C 
ATOM     13  C   UNL     1      76.227  20.754   0.599  1.00  0.00     0.004 C 
ENDBRANCH  11  12
ENDBRANCH   5  11
TORSDOF 4
ENDMDL
