MODEL 1
REMARK VINA RESULT:    -7.032      0.000      0.000
REMARK INTER + INTRA:         -10.773
REMARK INTER:                  -9.292
REMARK INTRA:                  -1.480
REMARK UNBOUND:                -1.480
REMARK SMILES CC[C@H](C=C[C@H](C)[C@H]1CC[C@H]2[C@@H]3CC=C4C[C@H](O)CC[C@]4(C)[C@@H]3CC[C@]12C)C(C)C
REMARK SMILES IDX 6 1 7 2 5 3 4 4 3 5 2 6 1 7 28 8 29 9 30 10 8 11 9 12 26 13
REMARK SMILES IDX 10 14 11 15 25 16 27 17 12 18 24 19 23 20 13 21 21 22 14 23
REMARK SMILES IDX 15 24 20 25 22 26 16 27 19 28 17 29 18 30
REMARK H PARENT 18 31
REMARK Flexibility Score: inf
ROOT
ATOM      1  C   UNL     1      10.764  10.160  44.923  1.00  0.00     0.012 C 
ATOM      2  C   UNL     1      12.111  10.754  44.501  1.00  0.00     0.012 C 
ENDROOT
BRANCH   1   3
ATOM      3  C   UNL     1      10.954   8.731  45.392  1.00  0.00    -0.028 C 
ATOM      4  C   UNL     1      10.665   8.359  46.650  1.00  0.00    -0.027 C 
BRANCH   4   5
ATOM      5  C   UNL     1      10.866   6.938  47.135  1.00  0.00     0.014 C 
BRANCH   5   6
ATOM      6  C   UNL     1      12.209   6.844  47.903  1.00  0.00     0.004 C 
ATOM      7  C   UNL     1      12.583   8.103  48.695  1.00  0.00     0.004 C 
ENDBRANCH   5   6
BRANCH   5   8
ATOM      8  C   UNL     1       9.621   6.451  47.938  1.00  0.00    -0.011 C 
ATOM      9  C   UNL     1       9.732   4.970  48.339  1.00  0.00     0.008 C 
ATOM     10  C   UNL     1       8.329   6.651  47.122  1.00  0.00     0.008 C 
ENDBRANCH   5   8
ENDBRANCH   4   5
ENDBRANCH   1   3
BRANCH   1  11
ATOM     11  C   UNL     1       9.973  11.085  45.909  1.00  0.00     0.002 C 
ATOM     12  C   UNL     1      10.626  12.471  46.133  1.00  0.00     0.005 C 
ATOM     13  C   UNL     1       8.462  11.398  45.673  1.00  0.00    -0.026 C 
ATOM     14  C   UNL     1       9.494  13.436  46.514  1.00  0.00     0.005 C 
ATOM     15  C   UNL     1       8.268  12.542  46.684  1.00  0.00    -0.001 C 
ATOM     16  C   UNL     1       7.487  10.242  46.056  1.00  0.00     0.007 C 
ATOM     17  C   UNL     1       8.215  11.860  44.204  1.00  0.00     0.012 C 
ATOM     18  C   UNL     1       6.867  13.210  46.620  1.00  0.00     0.000 C 
ATOM     19  C   UNL     1       6.222  10.707  46.826  1.00  0.00     0.005 C 
ATOM     20  C   UNL     1       5.725  12.127  46.405  1.00  0.00     0.003 C 
ATOM     21  C   UNL     1       6.659  14.122  47.870  1.00  0.00     0.031 C 
ATOM     22  C   UNL     1       4.357  12.531  47.080  1.00  0.00    -0.008 C 
ATOM     23  C   UNL     1       5.728  13.544  48.897  1.00  0.00    -0.027 C 
ATOM     24  C   UNL     1       4.629  12.840  48.562  1.00  0.00    -0.065 C 
ATOM     25  C   UNL     1       3.263  11.419  46.867  1.00  0.00     0.014 C 
ATOM     26  C   UNL     1       3.799  13.808  46.394  1.00  0.00     0.016 C 
ATOM     27  C   UNL     1       3.797  12.282  49.704  1.00  0.00     0.063 C 
ATOM     28  C   UNL     1       3.005  10.540  48.091  1.00  0.00     0.033 C 
ATOM     29  C   UNL     1       2.605  11.430  49.267  1.00  0.00     0.118 C 
BRANCH  29  30
ATOM     30  O   UNL     1       2.180  10.642  50.348  1.00  0.00    -0.393 OA
ATOM     31  H   UNL     1       2.999  10.293  50.789  1.00  0.00     0.210 HD
ENDBRANCH  29  30
ENDBRANCH   1  11
TORSDOF 6
ENDMDL
MODEL 2
REMARK VINA RESULT:    -6.937      3.838      7.768
REMARK INTER + INTRA:         -10.648
REMARK INTER:                  -9.640
REMARK INTRA:                  -1.008
REMARK UNBOUND:                -1.480
REMARK SMILES CC[C@H](C=C[C@H](C)[C@H]1CC[C@H]2[C@@H]3CC=C4C[C@H](O)CC[C@]4(C)[C@@H]3CC[C@]12C)C(C)C
REMARK SMILES IDX 6 1 7 2 5 3 4 4 3 5 2 6 1 7 28 8 29 9 30 10 8 11 9 12 26 13
REMARK SMILES IDX 10 14 11 15 25 16 27 17 12 18 24 19 23 20 13 21 21 22 14 23
REMARK SMILES IDX 15 24 20 25 22 26 16 27 19 28 17 29 18 30
REMARK H PARENT 18 31
REMARK Flexibility Score: inf
ROOT
ATOM      1  C   UNL     1      11.071   4.009  51.845  1.00  0.00     0.012 C 
ATOM      2  C   UNL     1      11.988   3.752  53.044  1.00  0.00     0.012 C 
ENDROOT
BRANCH   1   3
ATOM      3  C   UNL     1       9.631   4.103  52.308  1.00  0.00    -0.028 C 
ATOM      4  C   UNL     1       9.232   3.574  53.477  1.00  0.00    -0.027 C 
BRANCH   4   5
ATOM      5  C   UNL     1       7.792   3.647  53.943  1.00  0.00     0.014 C 
BRANCH   5   6
ATOM      6  C   UNL     1       6.932   4.325  52.846  1.00  0.00     0.004 C 
ATOM      7  C   UNL     1       6.262   5.635  53.277  1.00  0.00     0.004 C 
ENDBRANCH   5   6
BRANCH   5   8
ATOM      8  C   UNL     1       7.288   2.240  54.388  1.00  0.00    -0.011 C 
ATOM      9  C   UNL     1       8.374   1.160  54.237  1.00  0.00     0.008 C 
ATOM     10  C   UNL     1       6.050   1.818  53.573  1.00  0.00     0.008 C 
ENDBRANCH   5   8
ENDBRANCH   4   5
ENDBRANCH   1   3
BRANCH   1  11
ATOM     11  C   UNL     1      11.561   5.195  50.946  1.00  0.00     0.002 C 
ATOM     12  C   UNL     1      13.078   5.162  50.632  1.00  0.00     0.005 C 
ATOM     13  C   UNL     1      10.883   5.489  49.572  1.00  0.00    -0.026 C 
ATOM     14  C   UNL     1      13.267   5.896  49.297  1.00  0.00     0.005 C 
ATOM     15  C   UNL     1      11.896   6.489  48.986  1.00  0.00    -0.001 C 
ATOM     16  C   UNL     1       9.497   6.199  49.664  1.00  0.00     0.007 C 
ATOM     17  C   UNL     1      10.777   4.189  48.717  1.00  0.00     0.012 C 
ATOM     18  C   UNL     1      11.598   6.902  47.518  1.00  0.00     0.000 C 
ATOM     19  C   UNL     1       9.305   7.351  48.642  1.00  0.00     0.005 C 
ATOM     20  C   UNL     1      10.040   7.108  47.285  1.00  0.00     0.003 C 
ATOM     21  C   UNL     1      12.473   8.135  47.128  1.00  0.00     0.031 C 
ATOM     22  C   UNL     1       9.718   8.207  46.199  1.00  0.00    -0.008 C 
ATOM     23  C   UNL     1      11.710   9.428  47.066  1.00  0.00    -0.027 C 
ATOM     24  C   UNL     1      10.448   9.500  46.599  1.00  0.00    -0.065 C 
ATOM     25  C   UNL     1       8.166   8.397  46.020  1.00  0.00     0.014 C 
ATOM     26  C   UNL     1      10.248   7.737  44.816  1.00  0.00     0.016 C 
ATOM     27  C   UNL     1       9.784  10.867  46.627  1.00  0.00     0.063 C 
ATOM     28  C   UNL     1       7.599   9.648  46.694  1.00  0.00     0.033 C 
ATOM     29  C   UNL     1       8.330  10.877  46.156  1.00  0.00     0.118 C 
BRANCH  29  30
ATOM     30  O   UNL     1       7.706  12.049  46.612  1.00  0.00    -0.393 OA
ATOM     31  H   UNL     1       8.119  12.273  47.487  1.00  0.00     0.210 HD
ENDBRANCH  29  30
ENDBRANCH   1  11
TORSDOF 6
ENDMDL
MODEL 3
REMARK VINA RESULT:    -6.722      2.824      7.582
REMARK INTER + INTRA:         -10.364
REMARK INTER:                  -8.975
REMARK INTRA:                  -1.389
REMARK UNBOUND:                -1.480
REMARK SMILES CC[C@H](C=C[C@H](C)[C@H]1CC[C@H]2[C@@H]3CC=C4C[C@H](O)CC[C@]4(C)[C@@H]3CC[C@]12C)C(C)C
REMARK SMILES IDX 6 1 7 2 5 3 4 4 3 5 2 6 1 7 28 8 29 9 30 10 8 11 9 12 26 13
REMARK SMILES IDX 10 14 11 15 25 16 27 17 12 18 24 19 23 20 13 21 21 22 14 23
REMARK SMILES IDX 15 24 20 25 22 26 16 27 19 28 17 29 18 30
REMARK H PARENT 18 31
REMARK Flexibility Score: inf
ROOT
ATOM      1  C   UNL     1       7.554  11.307  46.057  1.00  0.00     0.012 C 
ATOM      2  C   UNL     1       7.906  11.662  44.610  1.00  0.00     0.012 C 
ENDROOT
BRANCH   1   3
ATOM      3  C   UNL     1       6.126  11.721  46.357  1.00  0.00    -0.028 C 
ATOM      4  C   UNL     1       5.352  11.015  47.198  1.00  0.00    -0.027 C 
BRANCH   4   5
ATOM      5  C   UNL     1       3.919  11.408  47.493  1.00  0.00     0.014 C 
BRANCH   5   6
ATOM      6  C   UNL     1       2.960  10.444  46.750  1.00  0.00     0.004 C 
ATOM      7  C   UNL     1       1.745   9.992  47.571  1.00  0.00     0.004 C 
ENDBRANCH   5   6
BRANCH   5   8
ATOM      8  C   UNL     1       3.683  11.504  49.032  1.00  0.00    -0.011 C 
ATOM      9  C   UNL     1       3.040  12.842  49.437  1.00  0.00     0.008 C 
ATOM     10  C   UNL     1       5.007  11.334  49.802  1.00  0.00     0.008 C 
ENDBRANCH   5   8
ENDBRANCH   4   5
ENDBRANCH   1   3
BRANCH   1  11
ATOM     11  C   UNL     1       7.911   9.828  46.427  1.00  0.00     0.002 C 
ATOM     12  C   UNL     1       8.471   9.001  45.243  1.00  0.00     0.005 C 
ATOM     13  C   UNL     1       8.871   9.510  47.615  1.00  0.00    -0.026 C 
ATOM     14  C   UNL     1       9.357   7.905  45.852  1.00  0.00     0.005 C 
ATOM     15  C   UNL     1       9.127   8.015  47.357  1.00  0.00    -0.001 C 
ATOM     16  C   UNL     1       8.231   9.655  49.031  1.00  0.00     0.007 C 
ATOM     17  C   UNL     1      10.177  10.358  47.514  1.00  0.00     0.012 C 
ATOM     18  C   UNL     1      10.185   7.382  48.303  1.00  0.00     0.000 C 
ATOM     19  C   UNL     1       8.591   8.507  50.011  1.00  0.00     0.005 C 
ATOM     20  C   UNL     1      10.023   7.924  49.787  1.00  0.00     0.003 C 
ATOM     21  C   UNL     1      10.141   5.827  48.179  1.00  0.00     0.031 C 
ATOM     22  C   UNL     1      10.438   6.863  50.879  1.00  0.00    -0.008 C 
ATOM     23  C   UNL     1       9.492   5.141  49.348  1.00  0.00    -0.027 C 
ATOM     24  C   UNL     1       9.647   5.571  50.615  1.00  0.00    -0.065 C 
ATOM     25  C   UNL     1      10.236   7.431  52.334  1.00  0.00     0.014 C 
ATOM     26  C   UNL     1      11.957   6.558  50.753  1.00  0.00     0.016 C 
ATOM     27  C   UNL     1       8.903   4.804  51.695  1.00  0.00     0.063 C 
ATOM     28  C   UNL     1       8.993   6.905  53.052  1.00  0.00     0.033 C 
ATOM     29  C   UNL     1       9.056   5.379  53.104  1.00  0.00     0.118 C 
BRANCH  29  30
ATOM     30  O   UNL     1       8.027   4.880  53.919  1.00  0.00    -0.393 OA
ATOM     31  H   UNL     1       8.459   4.331  54.625  1.00  0.00     0.210 HD
ENDBRANCH  29  30
ENDBRANCH   1  11
TORSDOF 6
ENDMDL
MODEL 4
REMARK VINA RESULT:    -6.714      1.460      2.079
REMARK INTER + INTRA:         -10.354
REMARK INTER:                  -9.012
REMARK INTRA:                  -1.342
REMARK UNBOUND:                -1.480
REMARK SMILES CC[C@H](C=C[C@H](C)[C@H]1CC[C@H]2[C@@H]3CC=C4C[C@H](O)CC[C@]4(C)[C@@H]3CC[C@]12C)C(C)C
REMARK SMILES IDX 6 1 7 2 5 3 4 4 3 5 2 6 1 7 28 8 29 9 30 10 8 11 9 12 26 13
REMARK SMILES IDX 10 14 11 15 25 16 27 17 12 18 24 19 23 20 13 21 21 22 14 23
REMARK SMILES IDX 15 24 20 25 22 26 16 27 19 28 17 29 18 30
REMARK H PARENT 18 31
REMARK Flexibility Score: inf
ROOT
ATOM      1  C   UNL     1      11.047   8.450  46.598  1.00  0.00     0.012 C 
ATOM      2  C   UNL     1      12.573   8.550  46.541  1.00  0.00     0.012 C 
ENDROOT
BRANCH   1   3
ATOM      3  C   UNL     1      10.638   7.126  47.213  1.00  0.00    -0.028 C 
ATOM      4  C   UNL     1      10.095   7.058  48.440  1.00  0.00    -0.027 C 
BRANCH   4   5
ATOM      5  C   UNL     1       9.698   5.740  49.072  1.00  0.00     0.014 C 
BRANCH   5   6
ATOM      6  C   UNL     1      10.368   4.577  48.296  1.00  0.00     0.004 C 
ATOM      7  C   UNL     1      11.623   4.002  48.964  1.00  0.00     0.004 C 
ENDBRANCH   5   6
BRANCH   5   8
ATOM      8  C   UNL     1       9.992   5.755  50.603  1.00  0.00    -0.011 C 
ATOM      9  C   UNL     1       8.861   5.104  51.417  1.00  0.00     0.008 C 
ATOM     10  C   UNL     1      10.202   7.197  51.107  1.00  0.00     0.008 C 
ENDBRANCH   5   8
ENDBRANCH   4   5
ENDBRANCH   1   3
BRANCH   1  11
ATOM     11  C   UNL     1      10.376   9.715  47.234  1.00  0.00     0.002 C 
ATOM     12  C   UNL     1      11.312  10.947  47.320  1.00  0.00     0.005 C 
ATOM     13  C   UNL     1       9.037  10.280  46.667  1.00  0.00    -0.026 C 
ATOM     14  C   UNL     1      10.408  12.188  47.301  1.00  0.00     0.005 C 
ATOM     15  C   UNL     1       8.990  11.633  47.398  1.00  0.00    -0.001 C 
ATOM     16  C   UNL     1       7.764   9.469  47.064  1.00  0.00     0.007 C 
ATOM     17  C   UNL     1       9.117  10.449  45.118  1.00  0.00     0.012 C 
ATOM     18  C   UNL     1       7.818  12.552  46.953  1.00  0.00     0.000 C 
ATOM     19  C   UNL     1       6.557  10.349  47.486  1.00  0.00     0.005 C 
ATOM     20  C   UNL     1       6.486  11.714  46.729  1.00  0.00     0.003 C 
ATOM     21  C   UNL     1       7.667  13.739  47.955  1.00  0.00     0.031 C 
ATOM     22  C   UNL     1       5.179  12.535  47.052  1.00  0.00    -0.008 C 
ATOM     23  C   UNL     1       6.488  13.611  48.878  1.00  0.00    -0.027 C 
ATOM     24  C   UNL     1       5.309  13.099  48.476  1.00  0.00    -0.065 C 
ATOM     25  C   UNL     1       3.887  11.661  46.843  1.00  0.00     0.014 C 
ATOM     26  C   UNL     1       5.052  13.719  46.052  1.00  0.00     0.016 C 
ATOM     27  C   UNL     1       4.214  12.995  49.525  1.00  0.00     0.063 C 
ATOM     28  C   UNL     1       3.253  11.148  48.137  1.00  0.00     0.033 C 
ATOM     29  C   UNL     1       2.923  12.339  49.035  1.00  0.00     0.118 C 
BRANCH  29  30
ATOM     30  O   UNL     1       2.172  11.916  50.143  1.00  0.00    -0.393 OA
ATOM     31  H   UNL     1       1.508  11.258  49.807  1.00  0.00     0.210 HD
ENDBRANCH  29  30
ENDBRANCH   1  11
TORSDOF 6
ENDMDL
MODEL 5
REMARK VINA RESULT:    -6.451      2.353      4.145
REMARK INTER + INTRA:         -10.005
REMARK INTER:                  -8.457
REMARK INTRA:                  -1.548
REMARK UNBOUND:                -1.480
REMARK SMILES CC[C@H](C=C[C@H](C)[C@H]1CC[C@H]2[C@@H]3CC=C4C[C@H](O)CC[C@]4(C)[C@@H]3CC[C@]12C)C(C)C
REMARK SMILES IDX 6 1 7 2 5 3 4 4 3 5 2 6 1 7 28 8 29 9 30 10 8 11 9 12 26 13
REMARK SMILES IDX 10 14 11 15 25 16 27 17 12 18 24 19 23 20 13 21 21 22 14 23
REMARK SMILES IDX 15 24 20 25 22 26 16 27 19 28 17 29 18 30
REMARK H PARENT 18 31
REMARK Flexibility Score: inf
ROOT
ATOM      1  C   UNL     1      11.373   6.356  48.364  1.00  0.00     0.012 C 
ATOM      2  C   UNL     1      12.859   6.004  48.257  1.00  0.00     0.012 C 
ENDROOT
BRANCH   1   3
ATOM      3  C   UNL     1      10.823   5.872  49.691  1.00  0.00    -0.028 C 
ATOM      4  C   UNL     1      10.334   6.729  50.603  1.00  0.00    -0.027 C 
BRANCH   4   5
ATOM      5  C   UNL     1       9.796   6.260  51.940  1.00  0.00     0.014 C 
BRANCH   5   6
ATOM      6  C   UNL     1       8.790   7.307  52.483  1.00  0.00     0.004 C 
ATOM      7  C   UNL     1       8.711   8.603  51.666  1.00  0.00     0.004 C 
ENDBRANCH   5   6
BRANCH   5   8
ATOM      8  C   UNL     1       9.230   4.812  51.826  1.00  0.00    -0.011 C 
ATOM      9  C   UNL     1       7.754   4.731  52.250  1.00  0.00     0.008 C 
ATOM     10  C   UNL     1      10.050   3.833  52.689  1.00  0.00     0.008 C 
ENDBRANCH   5   8
ENDBRANCH   4   5
ENDBRANCH   1   3
BRANCH   1  11
ATOM     11  C   UNL     1      11.075   7.856  48.025  1.00  0.00     0.002 C 
ATOM     12  C   UNL     1      12.255   8.594  47.345  1.00  0.00     0.005 C 
ATOM     13  C   UNL     1       9.826   8.251  47.178  1.00  0.00    -0.026 C 
ATOM     14  C   UNL     1      11.643   9.725  46.507  1.00  0.00     0.005 C 
ATOM     15  C   UNL     1      10.163   9.723  46.881  1.00  0.00    -0.001 C 
ATOM     16  C   UNL     1       8.471   8.211  47.952  1.00  0.00     0.007 C 
ATOM     17  C   UNL     1       9.742   7.392  45.880  1.00  0.00     0.012 C 
ATOM     18  C   UNL     1       9.167  10.416  45.910  1.00  0.00     0.000 C 
ATOM     19  C   UNL     1       7.544   9.423  47.673  1.00  0.00     0.005 C 
ATOM     20  C   UNL     1       7.670   9.982  46.219  1.00  0.00     0.003 C 
ATOM     21  C   UNL     1       9.403  11.959  45.923  1.00  0.00     0.031 C 
ATOM     22  C   UNL     1       6.620  11.115  45.896  1.00  0.00    -0.008 C 
ATOM     23  C   UNL     1       8.352  12.729  46.672  1.00  0.00    -0.027 C 
ATOM     24  C   UNL     1       7.049  12.389  46.643  1.00  0.00    -0.065 C 
ATOM     25  C   UNL     1       5.155  10.653  46.242  1.00  0.00     0.014 C 
ATOM     26  C   UNL     1       6.622  11.401  44.369  1.00  0.00     0.016 C 
ATOM     27  C   UNL     1       6.101  13.235  47.476  1.00  0.00     0.063 C 
ATOM     28  C   UNL     1       4.598  11.235  47.542  1.00  0.00     0.033 C 
ATOM     29  C   UNL     1       4.647  12.760  47.465  1.00  0.00     0.118 C 
BRANCH  29  30
ATOM     30  O   UNL     1       3.972  13.321  48.560  1.00  0.00    -0.393 OA
ATOM     31  H   UNL     1       3.009  13.108  48.445  1.00  0.00     0.210 HD
ENDBRANCH  29  30
ENDBRANCH   1  11
TORSDOF 6
ENDMDL
MODEL 6
REMARK VINA RESULT:    -6.400      3.934      7.885
REMARK INTER + INTRA:          -9.938
REMARK INTER:                  -8.591
REMARK INTRA:                  -1.347
REMARK UNBOUND:                -1.480
REMARK SMILES CC[C@H](C=C[C@H](C)[C@H]1CC[C@H]2[C@@H]3CC=C4C[C@H](O)CC[C@]4(C)[C@@H]3CC[C@]12C)C(C)C
REMARK SMILES IDX 6 1 7 2 5 3 4 4 3 5 2 6 1 7 28 8 29 9 30 10 8 11 9 12 26 13
REMARK SMILES IDX 10 14 11 15 25 16 27 17 12 18 24 19 23 20 13 21 21 22 14 23
REMARK SMILES IDX 15 24 20 25 22 26 16 27 19 28 17 29 18 30
REMARK H PARENT 18 31
REMARK Flexibility Score: inf
ROOT
ATOM      1  C   UNL     1      11.982   4.122  52.384  1.00  0.00     0.012 C 
ATOM      2  C   UNL     1      13.146   3.962  53.365  1.00  0.00     0.012 C 
ENDROOT
BRANCH   1   3
ATOM      3  C   UNL     1      10.723   3.516  52.973  1.00  0.00    -0.028 C 
ATOM      4  C   UNL     1       9.510   4.040  52.731  1.00  0.00    -0.027 C 
BRANCH   4   5
ATOM      5  C   UNL     1       8.247   3.454  53.327  1.00  0.00     0.014 C 
BRANCH   5   6
ATOM      6  C   UNL     1       8.617   2.578  54.551  1.00  0.00     0.004 C 
ATOM      7  C   UNL     1       8.386   1.074  54.355  1.00  0.00     0.004 C 
ENDBRANCH   5   6
BRANCH   5   8
ATOM      8  C   UNL     1       7.206   4.578  53.621  1.00  0.00    -0.011 C 
ATOM      9  C   UNL     1       5.910   4.393  52.813  1.00  0.00     0.008 C 
ATOM     10  C   UNL     1       7.795   5.967  53.307  1.00  0.00     0.008 C 
ENDBRANCH   5   8
ENDBRANCH   4   5
ENDBRANCH   1   3
BRANCH   1  11
ATOM     11  C   UNL     1      11.830   5.588  51.852  1.00  0.00     0.002 C 
ATOM     12  C   UNL     1      12.817   6.595  52.493  1.00  0.00     0.005 C 
ATOM     13  C   UNL     1      11.895   5.895  50.324  1.00  0.00    -0.026 C 
ATOM     14  C   UNL     1      13.022   7.722  51.470  1.00  0.00     0.005 C 
ATOM     15  C   UNL     1      12.009   7.429  50.367  1.00  0.00    -0.001 C 
ATOM     16  C   UNL     1      10.604   5.526  49.527  1.00  0.00     0.007 C 
ATOM     17  C   UNL     1      13.147   5.227  49.677  1.00  0.00     0.012 C 
ATOM     18  C   UNL     1      12.239   8.084  48.976  1.00  0.00     0.000 C 
ATOM     19  C   UNL     1      10.166   6.602  48.498  1.00  0.00     0.005 C 
ATOM     20  C   UNL     1      11.362   7.375  47.857  1.00  0.00     0.003 C 
ATOM     21  C   UNL     1      12.025   9.626  49.077  1.00  0.00     0.031 C 
ATOM     22  C   UNL     1      10.919   8.359  46.705  1.00  0.00    -0.008 C 
ATOM     23  C   UNL     1      10.734  10.103  48.475  1.00  0.00    -0.027 C 
ATOM     24  C   UNL     1      10.219   9.566  47.352  1.00  0.00    -0.065 C 
ATOM     25  C   UNL     1      10.031   7.624  45.634  1.00  0.00     0.014 C 
ATOM     26  C   UNL     1      12.177   8.858  45.940  1.00  0.00     0.016 C 
ATOM     27  C   UNL     1       8.887  10.121  46.875  1.00  0.00     0.063 C 
ATOM     28  C   UNL     1       8.534   7.916  45.743  1.00  0.00     0.033 C 
ATOM     29  C   UNL     1       8.314   9.425  45.640  1.00  0.00     0.118 C 
BRANCH  29  30
ATOM     30  O   UNL     1       6.942   9.708  45.547  1.00  0.00    -0.393 OA
ATOM     31  H   UNL     1       6.637   9.959  46.459  1.00  0.00     0.210 HD
ENDBRANCH  29  30
ENDBRANCH   1  11
TORSDOF 6
ENDMDL
MODEL 7
REMARK VINA RESULT:    -6.352      3.246      5.630
REMARK INTER + INTRA:          -9.874
REMARK INTER:                  -8.721
REMARK INTRA:                  -1.153
REMARK UNBOUND:                -1.480
REMARK SMILES CC[C@H](C=C[C@H](C)[C@H]1CC[C@H]2[C@@H]3CC=C4C[C@H](O)CC[C@]4(C)[C@@H]3CC[C@]12C)C(C)C
REMARK SMILES IDX 6 1 7 2 5 3 4 4 3 5 2 6 1 7 28 8 29 9 30 10 8 11 9 12 26 13
REMARK SMILES IDX 10 14 11 15 25 16 27 17 12 18 24 19 23 20 13 21 21 22 14 23
REMARK SMILES IDX 15 24 20 25 22 26 16 27 19 28 17 29 18 30
REMARK H PARENT 18 31
REMARK Flexibility Score: inf
ROOT
ATOM      1  C   UNL     1      10.829   5.574  50.101  1.00  0.00     0.012 C 
ATOM      2  C   UNL     1      12.195   5.229  50.700  1.00  0.00     0.012 C 
ENDROOT
BRANCH   1   3
ATOM      3  C   UNL     1       9.746   4.757  50.778  1.00  0.00    -0.028 C 
ATOM      4  C   UNL     1       9.446   4.926  52.077  1.00  0.00    -0.027 C 
BRANCH   4   5
ATOM      5  C   UNL     1       8.378   4.104  52.769  1.00  0.00     0.014 C 
BRANCH   5   6
ATOM      6  C   UNL     1       9.051   3.113  53.752  1.00  0.00     0.004 C 
ATOM      7  C   UNL     1       8.144   2.622  54.887  1.00  0.00     0.004 C 
ENDBRANCH   5   6
BRANCH   5   8
ATOM      8  C   UNL     1       7.304   5.033  53.415  1.00  0.00    -0.011 C 
ATOM      9  C   UNL     1       5.903   4.796  52.825  1.00  0.00     0.008 C 
ATOM     10  C   UNL     1       7.678   6.516  53.228  1.00  0.00     0.008 C 
ENDBRANCH   5   8
ENDBRANCH   4   5
ENDBRANCH   1   3
BRANCH   1  11
ATOM     11  C   UNL     1      10.561   7.117  50.043  1.00  0.00     0.002 C 
ATOM     12  C   UNL     1      11.680   7.974  50.684  1.00  0.00     0.005 C 
ATOM     13  C   UNL     1      10.255   7.824  48.686  1.00  0.00    -0.026 C 
ATOM     14  C   UNL     1      11.638   9.344  49.991  1.00  0.00     0.005 C 
ATOM     15  C   UNL     1      10.385   9.295  49.120  1.00  0.00    -0.001 C 
ATOM     16  C   UNL     1       8.807   7.605  48.146  1.00  0.00     0.007 C 
ATOM     17  C   UNL     1      11.309   7.431  47.606  1.00  0.00     0.012 C 
ATOM     18  C   UNL     1      10.275  10.311  47.948  1.00  0.00     0.000 C 
ATOM     19  C   UNL     1       8.138   8.887  47.584  1.00  0.00     0.005 C 
ATOM     20  C   UNL     1       9.148   9.875  46.917  1.00  0.00     0.003 C 
ATOM     21  C   UNL     1      10.101  11.754  48.516  1.00  0.00     0.031 C 
ATOM     22  C   UNL     1       8.445  11.102  46.217  1.00  0.00    -0.008 C 
ATOM     23  C   UNL     1       8.705  12.295  48.389  1.00  0.00    -0.027 C 
ATOM     24  C   UNL     1       7.930  12.047  47.315  1.00  0.00    -0.065 C 
ATOM     25  C   UNL     1       7.319  10.627  45.225  1.00  0.00     0.014 C 
ATOM     26  C   UNL     1       9.482  11.863  45.344  1.00  0.00     0.016 C 
ATOM     27  C   UNL     1       6.526  12.627  47.336  1.00  0.00     0.063 C 
ATOM     28  C   UNL     1       5.895  10.788  45.759  1.00  0.00     0.033 C 
ATOM     29  C   UNL     1       5.665  12.253  46.128  1.00  0.00     0.118 C 
BRANCH  29  30
ATOM     30  O   UNL     1       4.314  12.467  46.442  1.00  0.00    -0.393 OA
ATOM     31  H   UNL     1       3.942  13.053  45.731  1.00  0.00     0.210 HD
ENDBRANCH  29  30
ENDBRANCH   1  11
TORSDOF 6
ENDMDL
MODEL 8
REMARK VINA RESULT:    -6.229      3.433      8.601
REMARK INTER + INTRA:          -9.713
REMARK INTER:                  -8.713
REMARK INTRA:                  -1.000
REMARK UNBOUND:                -1.480
REMARK SMILES CC[C@H](C=C[C@H](C)[C@H]1CC[C@H]2[C@@H]3CC=C4C[C@H](O)CC[C@]4(C)[C@@H]3CC[C@]12C)C(C)C
REMARK SMILES IDX 6 1 7 2 5 3 4 4 3 5 2 6 1 7 28 8 29 9 30 10 8 11 9 12 26 13
REMARK SMILES IDX 10 14 11 15 25 16 27 17 12 18 24 19 23 20 13 21 21 22 14 23
REMARK SMILES IDX 15 24 20 25 22 26 16 27 19 28 17 29 18 30
REMARK H PARENT 18 31
REMARK Flexibility Score: inf
ROOT
ATOM      1  C   UNL     1       7.654  10.114  47.467  1.00  0.00     0.012 C 
ATOM      2  C   UNL     1       7.132  10.278  46.037  1.00  0.00     0.012 C 
ENDROOT
BRANCH   1   3
ATOM      3  C   UNL     1       6.607  10.586  48.457  1.00  0.00    -0.028 C 
ATOM      4  C   UNL     1       5.389  10.986  48.054  1.00  0.00    -0.027 C 
BRANCH   4   5
ATOM      5  C   UNL     1       4.340  11.475  49.031  1.00  0.00     0.014 C 
BRANCH   5   6
ATOM      6  C   UNL     1       4.627  12.954  49.393  1.00  0.00     0.004 C 
ATOM      7  C   UNL     1       5.241  13.784  48.258  1.00  0.00     0.004 C 
ENDBRANCH   5   6
BRANCH   5   8
ATOM      8  C   UNL     1       2.907  11.208  48.476  1.00  0.00    -0.011 C 
ATOM      9  C   UNL     1       2.093  10.281  49.395  1.00  0.00     0.008 C 
ATOM     10  C   UNL     1       2.971  10.581  47.069  1.00  0.00     0.008 C 
ENDBRANCH   5   8
ENDBRANCH   4   5
ENDBRANCH   1   3
BRANCH   1  11
ATOM     11  C   UNL     1       8.238   8.687  47.744  1.00  0.00     0.002 C 
ATOM     12  C   UNL     1       8.677   7.928  46.467  1.00  0.00     0.005 C 
ATOM     13  C   UNL     1       9.418   8.486  48.745  1.00  0.00    -0.026 C 
ATOM     14  C   UNL     1       9.775   6.944  46.896  1.00  0.00     0.005 C 
ATOM     15  C   UNL     1       9.794   7.029  48.420  1.00  0.00    -0.001 C 
ATOM     16  C   UNL     1       9.018   8.558  50.251  1.00  0.00     0.007 C 
ATOM     17  C   UNL     1      10.580   9.479  48.438  1.00  0.00     0.012 C 
ATOM     18  C   UNL     1      11.065   6.526  49.160  1.00  0.00     0.000 C 
ATOM     19  C   UNL     1       9.670   7.462  51.135  1.00  0.00     0.005 C 
ATOM     20  C   UNL     1      11.100   7.048  50.660  1.00  0.00     0.003 C 
ATOM     21  C   UNL     1      11.179   4.976  49.017  1.00  0.00     0.031 C 
ATOM     22  C   UNL     1      11.815   6.045  51.645  1.00  0.00    -0.008 C 
ATOM     23  C   UNL     1      10.824   4.221  50.267  1.00  0.00    -0.027 C 
ATOM     24  C   UNL     1      11.144   4.669  51.497  1.00  0.00    -0.065 C 
ATOM     25  C   UNL     1      11.803   6.588  53.123  1.00  0.00     0.014 C 
ATOM     26  C   UNL     1      13.314   5.918  51.256  1.00  0.00     0.016 C 
ATOM     27  C   UNL     1      10.690   3.823  52.674  1.00  0.00     0.063 C 
ATOM     28  C   UNL     1      10.769   5.923  54.034  1.00  0.00     0.033 C 
ATOM     29  C   UNL     1      11.015   4.415  54.046  1.00  0.00     0.118 C 
BRANCH  29  30
ATOM     30  O   UNL     1      10.206   3.801  55.016  1.00  0.00    -0.393 OA
ATOM     31  H   UNL     1      10.750   3.733  55.844  1.00  0.00     0.210 HD
ENDBRANCH  29  30
ENDBRANCH   1  11
TORSDOF 6
ENDMDL
MODEL 9
REMARK VINA RESULT:    -6.189      2.493      3.725
REMARK INTER + INTRA:          -9.659
REMARK INTER:                  -8.330
REMARK INTRA:                  -1.329
REMARK UNBOUND:                -1.480
REMARK SMILES CC[C@H](C=C[C@H](C)[C@H]1CC[C@H]2[C@@H]3CC=C4C[C@H](O)CC[C@]4(C)[C@@H]3CC[C@]12C)C(C)C
REMARK SMILES IDX 6 1 7 2 5 3 4 4 3 5 2 6 1 7 28 8 29 9 30 10 8 11 9 12 26 13
REMARK SMILES IDX 10 14 11 15 25 16 27 17 12 18 24 19 23 20 13 21 21 22 14 23
REMARK SMILES IDX 15 24 20 25 22 26 16 27 19 28 17 29 18 30
REMARK H PARENT 18 31
REMARK Flexibility Score: inf
ROOT
ATOM      1  C   UNL     1      11.125   9.177  51.095  1.00  0.00     0.012 C 
ATOM      2  C   UNL     1      11.886   9.410  52.403  1.00  0.00     0.012 C 
ENDROOT
BRANCH   1   3
ATOM      3  C   UNL     1      10.313   7.900  51.190  1.00  0.00    -0.028 C 
ATOM      4  C   UNL     1      10.588   6.833  50.422  1.00  0.00    -0.027 C 
BRANCH   4   5
ATOM      5  C   UNL     1       9.774   5.558  50.496  1.00  0.00     0.014 C 
BRANCH   5   6
ATOM      6  C   UNL     1       8.598   5.757  51.487  1.00  0.00     0.004 C 
ATOM      7  C   UNL     1       8.350   4.574  52.432  1.00  0.00     0.004 C 
ENDBRANCH   5   6
BRANCH   5   8
ATOM      8  C   UNL     1       9.349   5.094  49.069  1.00  0.00    -0.011 C 
ATOM      9  C   UNL     1      10.479   4.343  48.344  1.00  0.00     0.008 C 
ATOM     10  C   UNL     1       8.917   6.296  48.207  1.00  0.00     0.008 C 
ENDBRANCH   5   8
ENDBRANCH   4   5
ENDBRANCH   1   3
BRANCH   1  11
ATOM     11  C   UNL     1      10.330  10.439  50.618  1.00  0.00     0.002 C 
ATOM     12  C   UNL     1      11.192  11.721  50.507  1.00  0.00     0.005 C 
ATOM     13  C   UNL     1       9.499  10.410  49.298  1.00  0.00    -0.026 C 
ATOM     14  C   UNL     1      10.519  12.614  49.454  1.00  0.00     0.005 C 
ATOM     15  C   UNL     1       9.201  11.911  49.139  1.00  0.00    -0.001 C 
ATOM     16  C   UNL     1       8.138   9.653  49.397  1.00  0.00     0.007 C 
ATOM     17  C   UNL     1      10.353   9.850  48.119  1.00  0.00     0.012 C 
ATOM     18  C   UNL     1       8.483  12.276  47.810  1.00  0.00     0.000 C 
ATOM     19  C   UNL     1       6.955  10.382  48.706  1.00  0.00     0.005 C 
ATOM     20  C   UNL     1       7.379  11.195  47.441  1.00  0.00     0.003 C 
ATOM     21  C   UNL     1       7.948  13.740  47.883  1.00  0.00     0.031 C 
ATOM     22  C   UNL     1       6.153  11.808  46.658  1.00  0.00    -0.008 C 
ATOM     23  C   UNL     1       6.461  13.837  48.072  1.00  0.00    -0.027 C 
ATOM     24  C   UNL     1       5.601  12.984  47.482  1.00  0.00    -0.065 C 
ATOM     25  C   UNL     1       5.072  10.710  46.337  1.00  0.00     0.014 C 
ATOM     26  C   UNL     1       6.635  12.342  45.280  1.00  0.00     0.016 C 
ATOM     27  C   UNL     1       4.125  13.175  47.790  1.00  0.00     0.063 C 
ATOM     28  C   UNL     1       3.840  10.749  47.242  1.00  0.00     0.033 C 
ATOM     29  C   UNL     1       3.202  12.135  47.154  1.00  0.00     0.118 C 
BRANCH  29  30
ATOM     30  O   UNL     1       1.969  12.143  47.824  1.00  0.00    -0.393 OA
ATOM     31  H   UNL     1       1.659  13.087  47.846  1.00  0.00     0.210 HD
ENDBRANCH  29  30
ENDBRANCH   1  11
TORSDOF 6
ENDMDL
