MODEL 1
REMARK VINA RESULT:    -4.764      0.000      0.000
REMARK INTER + INTRA:          -6.516
REMARK INTER:                  -6.435
REMARK INTRA:                  -0.081
REMARK UNBOUND:                -0.081
REMARK SMILES [NH3+]CCCC[C@@H]([NH3+])C(=O)[O-]
REMARK SMILES IDX 4 1 3 2 2 3 1 4 5 8 6 9 7 10 8 14 9 15 10 16
REMARK H PARENT 1 5 1 6 1 7 7 11 7 12 7 13
REMARK Flexibility Score: inf
ROOT
ATOM      1  C   UNL     1       1.331  -6.680  -0.835  1.00  0.00     0.012 C 
ENDROOT
BRANCH   1   2
ATOM      2  C   UNL     1       1.720  -5.572  -1.825  1.00  0.00     0.061 C 
BRANCH   2   3
ATOM      3  C   UNL     1       3.014  -5.928  -2.568  1.00  0.00     0.258 C 
BRANCH   3   4
ATOM      4  N   UNL     1       2.737  -6.296  -3.956  1.00  0.00    -0.358 N 
ATOM      5  H   UNL     1       3.232  -5.631  -4.592  1.00  0.00     0.344 HD
ATOM      6  H   UNL     1       3.082  -7.265  -4.146  1.00  0.00     0.344 HD
ATOM      7  H   UNL     1       1.710  -6.243  -4.144  1.00  0.00     0.344 HD
ENDBRANCH   3   4
ENDBRANCH   2   3
ENDBRANCH   1   2
BRANCH   1   8
ATOM      8  C   UNL     1       2.302  -7.877  -0.863  1.00  0.00     0.072 C 
BRANCH   8   9
ATOM      9  C   UNL     1       2.006  -8.961   0.199  1.00  0.00     0.227 C 
BRANCH   9  10
ATOM     10  N   UNL     1       1.433 -10.155  -0.436  1.00  0.00    -0.350 N 
ATOM     11  H   UNL     1       2.073 -10.495  -1.190  1.00  0.00     0.345 HD
ATOM     12  H   UNL     1       0.512  -9.918  -0.873  1.00  0.00     0.345 HD
ATOM     13  H   UNL     1       1.294 -10.918   0.265  1.00  0.00     0.345 HD
ENDBRANCH   9  10
BRANCH   9  14
ATOM     14  C   UNL     1       3.250  -9.332   0.967  1.00  0.00     0.099 C 
ATOM     15  O   UNL     1       4.372  -8.872   0.625  1.00  0.00    -0.544 OA
ATOM     16  O   UNL     1       3.160 -10.176   2.067  1.00  0.00    -0.544 OA
ENDBRANCH   9  14
ENDBRANCH   8   9
ENDBRANCH   1   8
TORSDOF 7
ENDMDL
MODEL 2
REMARK VINA RESULT:    -4.647      7.625      8.668
REMARK INTER + INTRA:          -6.358
REMARK INTER:                  -6.196
REMARK INTRA:                  -0.161
REMARK UNBOUND:                -0.081
REMARK SMILES [NH3+]CCCC[C@@H]([NH3+])C(=O)[O-]
REMARK SMILES IDX 4 1 3 2 2 3 1 4 5 8 6 9 7 10 8 14 9 15 10 16
REMARK H PARENT 1 5 1 6 1 7 7 11 7 12 7 13
REMARK Flexibility Score: inf
ROOT
ATOM      1  C   UNL     1      -3.514  -5.523   3.530  1.00  0.00     0.012 C 
ENDROOT
BRANCH   1   2
ATOM      2  C   UNL     1      -4.435  -4.369   3.954  1.00  0.00     0.061 C 
BRANCH   2   3
ATOM      3  C   UNL     1      -5.599  -4.882   4.812  1.00  0.00     0.258 C 
BRANCH   3   4
ATOM      4  N   UNL     1      -5.108  -5.652   5.955  1.00  0.00    -0.358 N 
ATOM      5  H   UNL     1      -5.888  -5.789   6.636  1.00  0.00     0.344 HD
ATOM      6  H   UNL     1      -4.768  -6.589   5.637  1.00  0.00     0.344 HD
ATOM      7  H   UNL     1      -4.331  -5.136   6.429  1.00  0.00     0.344 HD
ENDBRANCH   3   4
ENDBRANCH   2   3
ENDBRANCH   1   2
BRANCH   1   8
ATOM      8  C   UNL     1      -4.006  -6.249   2.263  1.00  0.00     0.072 C 
BRANCH   8   9
ATOM      9  C   UNL     1      -4.797  -7.549   2.541  1.00  0.00     0.227 C 
BRANCH   9  10
ATOM     10  N   UNL     1      -6.024  -7.581   1.736  1.00  0.00    -0.350 N 
ATOM     11  H   UNL     1      -6.059  -8.467   1.181  1.00  0.00     0.345 HD
ATOM     12  H   UNL     1      -6.033  -6.777   1.067  1.00  0.00     0.345 HD
ATOM     13  H   UNL     1      -6.871  -7.528   2.348  1.00  0.00     0.345 HD
ENDBRANCH   9  10
BRANCH   9  14
ATOM     14  C   UNL     1      -3.961  -8.771   2.259  1.00  0.00     0.099 C 
ATOM     15  O   UNL     1      -4.473  -9.920   2.308  1.00  0.00    -0.544 OA
ATOM     16  O   UNL     1      -2.618  -8.632   1.930  1.00  0.00    -0.544 OA
ENDBRANCH   9  14
ENDBRANCH   8   9
ENDBRANCH   1   8
TORSDOF 7
ENDMDL
MODEL 3
REMARK VINA RESULT:    -4.639      1.618      1.768
REMARK INTER + INTRA:          -6.347
REMARK INTER:                  -6.183
REMARK INTRA:                  -0.164
REMARK UNBOUND:                -0.081
REMARK SMILES [NH3+]CCCC[C@@H]([NH3+])C(=O)[O-]
REMARK SMILES IDX 4 1 3 2 2 3 1 4 5 8 6 9 7 10 8 14 9 15 10 16
REMARK H PARENT 1 5 1 6 1 7 7 11 7 12 7 13
REMARK Flexibility Score: inf
ROOT
ATOM      1  C   UNL     1       2.097  -5.832  -0.510  1.00  0.00     0.012 C 
ENDROOT
BRANCH   1   2
ATOM      2  C   UNL     1       2.052  -5.155  -1.887  1.00  0.00     0.061 C 
BRANCH   2   3
ATOM      3  C   UNL     1       3.244  -5.586  -2.752  1.00  0.00     0.258 C 
BRANCH   3   4
ATOM      4  N   UNL     1       2.799  -6.365  -3.907  1.00  0.00    -0.358 N 
ATOM      5  H   UNL     1       2.327  -7.235  -3.572  1.00  0.00     0.344 HD
ATOM      6  H   UNL     1       2.119  -5.808  -4.475  1.00  0.00     0.344 HD
ATOM      7  H   UNL     1       3.619  -6.631  -4.499  1.00  0.00     0.344 HD
ENDBRANCH   3   4
ENDBRANCH   2   3
ENDBRANCH   1   2
BRANCH   1   8
ATOM      8  C   UNL     1       1.655  -7.307  -0.552  1.00  0.00     0.072 C 
BRANCH   8   9
ATOM      9  C   UNL     1       2.819  -8.323  -0.486  1.00  0.00     0.227 C 
BRANCH   9  10
ATOM     10  N   UNL     1       3.967  -7.738   0.219  1.00  0.00    -0.350 N 
ATOM     11  H   UNL     1       4.850  -7.970  -0.291  1.00  0.00     0.345 HD
ATOM     12  H   UNL     1       4.034  -8.137   1.184  1.00  0.00     0.345 HD
ATOM     13  H   UNL     1       3.872  -6.698   0.283  1.00  0.00     0.345 HD
ENDBRANCH   9  10
BRANCH   9  14
ATOM     14  C   UNL     1       2.394  -9.601   0.191  1.00  0.00     0.099 C 
ATOM     15  O   UNL     1       2.904  -9.942   1.291  1.00  0.00    -0.544 OA
ATOM     16  O   UNL     1       1.425 -10.407  -0.394  1.00  0.00    -0.544 OA
ENDBRANCH   9  14
ENDBRANCH   8   9
ENDBRANCH   1   8
TORSDOF 7
ENDMDL
MODEL 4
REMARK VINA RESULT:    -4.590      7.604      8.640
REMARK INTER + INTRA:          -6.281
REMARK INTER:                  -6.139
REMARK INTRA:                  -0.143
REMARK UNBOUND:                -0.081
REMARK SMILES [NH3+]CCCC[C@@H]([NH3+])C(=O)[O-]
REMARK SMILES IDX 4 1 3 2 2 3 1 4 5 8 6 9 7 10 8 14 9 15 10 16
REMARK H PARENT 1 5 1 6 1 7 7 11 7 12 7 13
REMARK Flexibility Score: inf
ROOT
ATOM      1  C   UNL     1      -3.893  -5.698   2.433  1.00  0.00     0.012 C 
ENDROOT
BRANCH   1   2
ATOM      2  C   UNL     1      -4.171  -4.801   3.648  1.00  0.00     0.061 C 
BRANCH   2   3
ATOM      3  C   UNL     1      -5.373  -5.318   4.450  1.00  0.00     0.258 C 
BRANCH   3   4
ATOM      4  N   UNL     1      -4.993  -5.613   5.831  1.00  0.00    -0.358 N 
ATOM      5  H   UNL     1      -3.958  -5.743   5.882  1.00  0.00     0.344 HD
ATOM      6  H   UNL     1      -5.266  -4.820   6.456  1.00  0.00     0.344 HD
ATOM      7  H   UNL     1      -5.460  -6.493   6.152  1.00  0.00     0.344 HD
ENDBRANCH   3   4
ENDBRANCH   2   3
ENDBRANCH   1   2
BRANCH   1   8
ATOM      8  C   UNL     1      -3.484  -7.131   2.827  1.00  0.00     0.072 C 
BRANCH   8   9
ATOM      9  C   UNL     1      -3.589  -8.161   1.678  1.00  0.00     0.227 C 
BRANCH   9  10
ATOM     10  N   UNL     1      -3.027  -9.452   2.098  1.00  0.00    -0.350 N 
ATOM     11  H   UNL     1      -2.018  -9.502   1.829  1.00  0.00     0.345 HD
ATOM     12  H   UNL     1      -3.531 -10.233   1.618  1.00  0.00     0.345 HD
ATOM     13  H   UNL     1      -3.112  -9.574   3.133  1.00  0.00     0.345 HD
ENDBRANCH   9  10
BRANCH   9  14
ATOM     14  C   UNL     1      -5.017  -8.340   1.230  1.00  0.00     0.099 C 
ATOM     15  O   UNL     1      -5.952  -8.372   2.073  1.00  0.00    -0.544 OA
ATOM     16  O   UNL     1      -5.309  -8.459  -0.123  1.00  0.00    -0.544 OA
ENDBRANCH   9  14
ENDBRANCH   8   9
ENDBRANCH   1   8
TORSDOF 7
ENDMDL
MODEL 5
REMARK VINA RESULT:    -4.563      2.493      2.806
REMARK INTER + INTRA:          -6.245
REMARK INTER:                  -6.088
REMARK INTRA:                  -0.157
REMARK UNBOUND:                -0.081
REMARK SMILES [NH3+]CCCC[C@@H]([NH3+])C(=O)[O-]
REMARK SMILES IDX 4 1 3 2 2 3 1 4 5 8 6 9 7 10 8 14 9 15 10 16
REMARK H PARENT 1 5 1 6 1 7 7 11 7 12 7 13
REMARK Flexibility Score: inf
ROOT
ATOM      1  C   UNL     1       1.321  -6.265  -1.305  1.00  0.00     0.012 C 
ENDROOT
BRANCH   1   2
ATOM      2  C   UNL     1       2.418  -5.219  -1.548  1.00  0.00     0.061 C 
BRANCH   2   3
ATOM      3  C   UNL     1       3.432  -5.717  -2.586  1.00  0.00     0.258 C 
BRANCH   3   4
ATOM      4  N   UNL     1       2.753  -6.309  -3.739  1.00  0.00    -0.358 N 
ATOM      5  H   UNL     1       1.782  -6.576  -3.464  1.00  0.00     0.344 HD
ATOM      6  H   UNL     1       2.706  -5.618  -4.522  1.00  0.00     0.344 HD
ATOM      7  H   UNL     1       3.263  -7.167  -4.054  1.00  0.00     0.344 HD
ENDBRANCH   3   4
ENDBRANCH   2   3
ENDBRANCH   1   2
BRANCH   1   8
ATOM      8  C   UNL     1       1.717  -7.316  -0.250  1.00  0.00     0.072 C 
BRANCH   8   9
ATOM      9  C   UNL     1       1.038  -8.693  -0.436  1.00  0.00     0.227 C 
BRANCH   9  10
ATOM     10  N   UNL     1       1.728  -9.714   0.363  1.00  0.00    -0.350 N 
ATOM     11  H   UNL     1       2.761  -9.636   0.219  1.00  0.00     0.345 HD
ATOM     12  H   UNL     1       1.428 -10.668   0.056  1.00  0.00     0.345 HD
ATOM     13  H   UNL     1       1.515  -9.596   1.380  1.00  0.00     0.345 HD
ENDBRANCH   9  10
BRANCH   9  14
ATOM     14  C   UNL     1      -0.421  -8.641  -0.059  1.00  0.00     0.099 C 
ATOM     15  O   UNL     1      -0.765  -8.421   1.133  1.00  0.00    -0.544 OA
ATOM     16  O   UNL     1      -1.395  -8.825  -1.032  1.00  0.00    -0.544 OA
ENDBRANCH   9  14
ENDBRANCH   8   9
ENDBRANCH   1   8
TORSDOF 7
ENDMDL
MODEL 6
REMARK VINA RESULT:    -4.527      2.456      3.924
REMARK INTER + INTRA:          -6.196
REMARK INTER:                  -6.096
REMARK INTRA:                  -0.100
REMARK UNBOUND:                -0.081
REMARK SMILES [NH3+]CCCC[C@@H]([NH3+])C(=O)[O-]
REMARK SMILES IDX 4 1 3 2 2 3 1 4 5 8 6 9 7 10 8 14 9 15 10 16
REMARK H PARENT 1 5 1 6 1 7 7 11 7 12 7 13
REMARK Flexibility Score: inf
ROOT
ATOM      1  C   UNL     1       0.666  -8.241  -0.284  1.00  0.00     0.012 C 
ENDROOT
BRANCH   1   2
ATOM      2  C   UNL     1      -0.751  -8.834  -0.281  1.00  0.00     0.061 C 
BRANCH   2   3
ATOM      3  C   UNL     1      -1.520  -8.414   0.978  1.00  0.00     0.258 C 
BRANCH   3   4
ATOM      4  N   UNL     1      -2.216  -9.555   1.572  1.00  0.00    -0.358 N 
ATOM      5  H   UNL     1      -2.826  -9.998   0.849  1.00  0.00     0.344 HD
ATOM      6  H   UNL     1      -1.523 -10.262   1.910  1.00  0.00     0.344 HD
ATOM      7  H   UNL     1      -2.814  -9.236   2.369  1.00  0.00     0.344 HD
ENDBRANCH   3   4
ENDBRANCH   2   3
ENDBRANCH   1   2
BRANCH   1   8
ATOM      8  C   UNL     1       1.766  -9.317  -0.199  1.00  0.00     0.072 C 
BRANCH   8   9
ATOM      9  C   UNL     1       3.199  -8.754  -0.055  1.00  0.00     0.227 C 
BRANCH   9  10
ATOM     10  N   UNL     1       3.172  -7.285  -0.057  1.00  0.00    -0.350 N 
ATOM     11  H   UNL     1       4.039  -6.917  -0.511  1.00  0.00     0.345 HD
ATOM     12  H   UNL     1       3.141  -6.928   0.926  1.00  0.00     0.345 HD
ATOM     13  H   UNL     1       2.337  -6.931  -0.578  1.00  0.00     0.345 HD
ENDBRANCH   9  10
BRANCH   9  14
ATOM     14  C   UNL     1       3.863  -9.257   1.201  1.00  0.00     0.099 C 
ATOM     15  O   UNL     1       3.207  -9.915   2.051  1.00  0.00    -0.544 OA
ATOM     16  O   UNL     1       5.212  -9.004   1.421  1.00  0.00    -0.544 OA
ENDBRANCH   9  14
ENDBRANCH   8   9
ENDBRANCH   1   8
TORSDOF 7
ENDMDL
MODEL 7
REMARK VINA RESULT:    -4.515      3.095      4.556
REMARK INTER + INTRA:          -6.180
REMARK INTER:                  -6.027
REMARK INTRA:                  -0.153
REMARK UNBOUND:                -0.081
REMARK SMILES [NH3+]CCCC[C@@H]([NH3+])C(=O)[O-]
REMARK SMILES IDX 4 1 3 2 2 3 1 4 5 8 6 9 7 10 8 14 9 15 10 16
REMARK H PARENT 1 5 1 6 1 7 7 11 7 12 7 13
REMARK Flexibility Score: inf
ROOT
ATOM      1  C   UNL     1       1.757  -8.420   0.098  1.00  0.00     0.012 C 
ENDROOT
BRANCH   1   2
ATOM      2  C   UNL     1       0.437  -7.891  -0.483  1.00  0.00     0.061 C 
BRANCH   2   3
ATOM      3  C   UNL     1      -0.706  -8.886  -0.246  1.00  0.00     0.258 C 
BRANCH   3   4
ATOM      4  N   UNL     1      -0.249 -10.263  -0.427  1.00  0.00    -0.358 N 
ATOM      5  H   UNL     1       0.680 -10.379   0.037  1.00  0.00     0.344 HD
ATOM      6  H   UNL     1      -0.929 -10.928   0.008  1.00  0.00     0.344 HD
ATOM      7  H   UNL     1      -0.147 -10.477  -1.446  1.00  0.00     0.344 HD
ENDBRANCH   3   4
ENDBRANCH   2   3
ENDBRANCH   1   2
BRANCH   1   8
ATOM      8  C   UNL     1       2.985  -8.016  -0.739  1.00  0.00     0.072 C 
BRANCH   8   9
ATOM      9  C   UNL     1       3.191  -6.489  -0.871  1.00  0.00     0.227 C 
BRANCH   9  10
ATOM     10  N   UNL     1       4.505  -6.103  -0.340  1.00  0.00    -0.350 N 
ATOM     11  H   UNL     1       4.443  -5.158   0.102  1.00  0.00     0.345 HD
ATOM     12  H   UNL     1       5.203  -6.054  -1.118  1.00  0.00     0.345 HD
ATOM     13  H   UNL     1       4.833  -6.794   0.373  1.00  0.00     0.345 HD
ENDBRANCH   9  10
BRANCH   9  14
ATOM     14  C   UNL     1       3.061  -6.039  -2.304  1.00  0.00     0.099 C 
ATOM     15  O   UNL     1       1.940  -5.696  -2.766  1.00  0.00    -0.544 OA
ATOM     16  O   UNL     1       4.184  -5.989  -3.120  1.00  0.00    -0.544 OA
ENDBRANCH   9  14
ENDBRANCH   8   9
ENDBRANCH   1   8
TORSDOF 7
ENDMDL
MODEL 8
REMARK VINA RESULT:    -4.503      5.023      5.948
REMARK INTER + INTRA:          -6.163
REMARK INTER:                  -6.084
REMARK INTRA:                  -0.079
REMARK UNBOUND:                -0.081
REMARK SMILES [NH3+]CCCC[C@@H]([NH3+])C(=O)[O-]
REMARK SMILES IDX 4 1 3 2 2 3 1 4 5 8 6 9 7 10 8 14 9 15 10 16
REMARK H PARENT 1 5 1 6 1 7 7 11 7 12 7 13
REMARK Flexibility Score: inf
ROOT
ATOM      1  C   UNL     1      -1.002  -8.888   0.117  1.00  0.00     0.012 C 
ENDROOT
BRANCH   1   2
ATOM      2  C   UNL     1       0.277  -8.170  -0.337  1.00  0.00     0.061 C 
BRANCH   2   3
ATOM      3  C   UNL     1       1.516  -9.038  -0.079  1.00  0.00     0.258 C 
BRANCH   3   4
ATOM      4  N   UNL     1       1.288 -10.417  -0.508  1.00  0.00    -0.358 N 
ATOM      5  H   UNL     1       2.079 -11.014  -0.176  1.00  0.00     0.344 HD
ATOM      6  H   UNL     1       0.396 -10.778  -0.097  1.00  0.00     0.344 HD
ATOM      7  H   UNL     1       1.242 -10.467  -1.552  1.00  0.00     0.344 HD
ENDBRANCH   3   4
ENDBRANCH   2   3
ENDBRANCH   1   2
BRANCH   1   8
ATOM      8  C   UNL     1      -1.705  -8.177   1.289  1.00  0.00     0.072 C 
BRANCH   8   9
ATOM      9  C   UNL     1      -3.101  -8.746   1.634  1.00  0.00     0.227 C 
BRANCH   9  10
ATOM     10  N   UNL     1      -2.969 -10.019   2.354  1.00  0.00    -0.350 N 
ATOM     11  H   UNL     1      -3.650 -10.048   3.148  1.00  0.00     0.345 HD
ATOM     12  H   UNL     1      -2.004 -10.106   2.749  1.00  0.00     0.345 HD
ATOM     13  H   UNL     1      -3.154 -10.826   1.716  1.00  0.00     0.345 HD
ENDBRANCH   9  10
BRANCH   9  14
ATOM     14  C   UNL     1      -3.904  -7.769   2.455  1.00  0.00     0.099 C 
ATOM     15  O   UNL     1      -5.111  -8.006   2.729  1.00  0.00    -0.544 OA
ATOM     16  O   UNL     1      -3.310  -6.604   2.924  1.00  0.00    -0.544 OA
ENDBRANCH   9  14
ENDBRANCH   8   9
ENDBRANCH   1   8
TORSDOF 7
ENDMDL
MODEL 9
REMARK VINA RESULT:    -4.439      8.200      9.380
REMARK INTER + INTRA:          -6.077
REMARK INTER:                  -5.947
REMARK INTRA:                  -0.129
REMARK UNBOUND:                -0.081
REMARK SMILES [NH3+]CCCC[C@@H]([NH3+])C(=O)[O-]
REMARK SMILES IDX 4 1 3 2 2 3 1 4 5 8 6 9 7 10 8 14 9 15 10 16
REMARK H PARENT 1 5 1 6 1 7 7 11 7 12 7 13
REMARK Flexibility Score: inf
ROOT
ATOM      1  C   UNL     1      -4.176  -6.659   1.959  1.00  0.00     0.012 C 
ENDROOT
BRANCH   1   2
ATOM      2  C   UNL     1      -3.550  -7.979   2.433  1.00  0.00     0.061 C 
BRANCH   2   3
ATOM      3  C   UNL     1      -4.520  -9.150   2.231  1.00  0.00     0.258 C 
BRANCH   3   4
ATOM      4  N   UNL     1      -3.875 -10.425   2.545  1.00  0.00    -0.358 N 
ATOM      5  H   UNL     1      -3.230 -10.291   3.356  1.00  0.00     0.344 HD
ATOM      6  H   UNL     1      -4.596 -11.139   2.801  1.00  0.00     0.344 HD
ATOM      7  H   UNL     1      -3.322 -10.760   1.723  1.00  0.00     0.344 HD
ENDBRANCH   3   4
ENDBRANCH   2   3
ENDBRANCH   1   2
BRANCH   1   8
ATOM      8  C   UNL     1      -3.867  -5.478   2.900  1.00  0.00     0.072 C 
BRANCH   8   9
ATOM      9  C   UNL     1      -5.113  -4.679   3.348  1.00  0.00     0.227 C 
BRANCH   9  10
ATOM     10  N   UNL     1      -6.214  -4.873   2.396  1.00  0.00    -0.350 N 
ATOM     11  H   UNL     1      -7.093  -5.103   2.914  1.00  0.00     0.345 HD
ATOM     12  H   UNL     1      -5.995  -5.672   1.756  1.00  0.00     0.345 HD
ATOM     13  H   UNL     1      -6.368  -4.010   1.827  1.00  0.00     0.345 HD
ENDBRANCH   9  10
BRANCH   9  14
ATOM     14  C   UNL     1      -5.552  -5.078   4.734  1.00  0.00     0.099 C 
ATOM     15  O   UNL     1      -4.716  -5.520   5.566  1.00  0.00    -0.544 OA
ATOM     16  O   UNL     1      -6.885  -4.948   5.104  1.00  0.00    -0.544 OA
ENDBRANCH   9  14
ENDBRANCH   8   9
ENDBRANCH   1   8
TORSDOF 7
ENDMDL
