MODEL 1
REMARK VINA RESULT:    -4.093      0.000      0.000
REMARK INTER + INTRA:          -6.004
REMARK INTER:                  -5.768
REMARK INTRA:                  -0.236
REMARK UNBOUND:                -0.236
REMARK SMILES CCCCCCCCC(=O)[O-]
REMARK SMILES IDX 6 1 7 2 8 3 9 4 10 5 11 6 5 7 4 8 3 9 2 10 1 11
REMARK H PARENT
REMARK Flexibility Score: inf
ROOT
ATOM      1  C   UNL     1      -7.734  24.077  14.458  1.00  0.00     0.000 C 
ENDROOT
BRANCH   1   2
ATOM      2  C   UNL     1      -8.201  25.540  14.506  1.00  0.00     0.006 C 
BRANCH   2   3
ATOM      3  C   UNL     1      -8.957  25.959  13.238  1.00  0.00     0.053 C 
BRANCH   3   4
ATOM      4  C   UNL     1      -9.008  27.452  13.131  1.00  0.00     0.041 C 
ATOM      5  O   UNL     1     -10.034  28.019  12.675  1.00  0.00    -0.550 OA
ATOM      6  O   UNL     1      -7.901  28.212  13.487  1.00  0.00    -0.550 OA
ENDBRANCH   3   4
ENDBRANCH   2   3
ENDBRANCH   1   2
BRANCH   1   7
ATOM      7  C   UNL     1      -8.894  23.094  14.220  1.00  0.00     0.000 C 
BRANCH   7   8
ATOM      8  C   UNL     1      -8.574  21.674  14.712  1.00  0.00    -0.000 C 
BRANCH   8   9
ATOM      9  C   UNL     1      -7.063  21.433  14.877  1.00  0.00    -0.000 C 
BRANCH   9  10
ATOM     10  C   UNL     1      -6.719  19.946  15.044  1.00  0.00    -0.003 C 
ATOM     11  C   UNL     1      -5.466  19.539  14.268  1.00  0.00     0.004 C 
ENDBRANCH   9  10
ENDBRANCH   8   9
ENDBRANCH   7   8
ENDBRANCH   1   7
TORSDOF 7
ENDMDL
MODEL 2
REMARK VINA RESULT:    -3.901      3.317      5.294
REMARK INTER + INTRA:          -5.732
REMARK INTER:                  -5.520
REMARK INTRA:                  -0.213
REMARK UNBOUND:                -0.236
REMARK SMILES CCCCCCCCC(=O)[O-]
REMARK SMILES IDX 6 1 7 2 8 3 9 4 10 5 11 6 5 7 4 8 3 9 2 10 1 11
REMARK H PARENT
REMARK Flexibility Score: inf
ROOT
ATOM      1  C   UNL     1      -5.994  19.867  14.360  1.00  0.00     0.000 C 
ENDROOT
BRANCH   1   2
ATOM      2  C   UNL     1      -7.173  20.495  15.120  1.00  0.00     0.006 C 
BRANCH   2   3
ATOM      3  C   UNL     1      -7.381  21.973  14.764  1.00  0.00     0.053 C 
BRANCH   3   4
ATOM      4  C   UNL     1      -8.805  22.220  14.374  1.00  0.00     0.041 C 
ATOM      5  O   UNL     1      -9.632  21.272  14.360  1.00  0.00    -0.550 OA
ATOM      6  O   UNL     1      -9.207  23.490  13.979  1.00  0.00    -0.550 OA
ENDBRANCH   3   4
ENDBRANCH   2   3
ENDBRANCH   1   2
BRANCH   1   7
ATOM      7  C   UNL     1      -5.411  18.641  15.084  1.00  0.00     0.000 C 
BRANCH   7   8
ATOM      8  C   UNL     1      -3.928  18.412  14.755  1.00  0.00    -0.000 C 
BRANCH   8   9
ATOM      9  C   UNL     1      -3.614  18.628  13.265  1.00  0.00    -0.000 C 
BRANCH   9  10
ATOM     10  C   UNL     1      -2.177  18.226  12.901  1.00  0.00    -0.003 C 
ATOM     11  C   UNL     1      -2.110  16.917  12.115  1.00  0.00     0.004 C 
ENDBRANCH   9  10
ENDBRANCH   8   9
ENDBRANCH   7   8
ENDBRANCH   1   7
TORSDOF 7
ENDMDL
MODEL 3
REMARK VINA RESULT:    -3.770      2.195      3.682
REMARK INTER + INTRA:          -5.549
REMARK INTER:                  -5.343
REMARK INTRA:                  -0.206
REMARK UNBOUND:                -0.236
REMARK SMILES CCCCCCCCC(=O)[O-]
REMARK SMILES IDX 6 1 7 2 8 3 9 4 10 5 11 6 5 7 4 8 3 9 2 10 1 11
REMARK H PARENT
REMARK Flexibility Score: inf
ROOT
ATOM      1  C   UNL     1      -8.139  20.494  14.951  1.00  0.00     0.000 C 
ENDROOT
BRANCH   1   2
ATOM      2  C   UNL     1      -8.880  21.420  13.975  1.00  0.00     0.006 C 
BRANCH   2   3
ATOM      3  C   UNL     1      -9.333  22.729  14.635  1.00  0.00     0.053 C 
BRANCH   3   4
ATOM      4  C   UNL     1      -8.495  23.873  14.155  1.00  0.00     0.041 C 
ATOM      5  O   UNL     1      -9.016  24.805  13.489  1.00  0.00    -0.550 OA
ATOM      6  O   UNL     1      -7.127  23.883  14.400  1.00  0.00    -0.550 OA
ENDBRANCH   3   4
ENDBRANCH   2   3
ENDBRANCH   1   2
BRANCH   1   7
ATOM      7  C   UNL     1      -6.611  20.556  14.779  1.00  0.00     0.000 C 
BRANCH   7   8
ATOM      8  C   UNL     1      -5.932  19.203  15.043  1.00  0.00    -0.000 C 
BRANCH   8   9
ATOM      9  C   UNL     1      -4.419  19.238  14.771  1.00  0.00    -0.000 C 
BRANCH   9  10
ATOM     10  C   UNL     1      -3.943  18.041  13.934  1.00  0.00    -0.003 C 
ATOM     11  C   UNL     1      -2.899  18.430  12.887  1.00  0.00     0.004 C 
ENDBRANCH   9  10
ENDBRANCH   8   9
ENDBRANCH   7   8
ENDBRANCH   1   7
TORSDOF 7
ENDMDL
MODEL 4
REMARK VINA RESULT:    -3.289      7.914     10.821
REMARK INTER + INTRA:          -4.871
REMARK INTER:                  -4.668
REMARK INTRA:                  -0.203
REMARK UNBOUND:                -0.236
REMARK SMILES CCCCCCCCC(=O)[O-]
REMARK SMILES IDX 6 1 7 2 8 3 9 4 10 5 11 6 5 7 4 8 3 9 2 10 1 11
REMARK H PARENT
REMARK Flexibility Score: inf
ROOT
ATOM      1  C   UNL     1      -1.803  16.176  11.456  1.00  0.00     0.000 C 
ENDROOT
BRANCH   1   2
ATOM      2  C   UNL     1      -1.684  16.917  12.797  1.00  0.00     0.006 C 
BRANCH   2   3
ATOM      3  C   UNL     1      -2.437  18.253  12.801  1.00  0.00     0.053 C 
BRANCH   3   4
ATOM      4  C   UNL     1      -3.694  18.142  13.606  1.00  0.00     0.041 C 
ATOM      5  O   UNL     1      -4.578  19.035  13.528  1.00  0.00    -0.550 OA
ATOM      6  O   UNL     1      -3.866  17.077  14.481  1.00  0.00    -0.550 OA
ENDBRANCH   3   4
ENDBRANCH   2   3
ENDBRANCH   1   2
BRANCH   1   7
ATOM      7  C   UNL     1      -1.991  14.660  11.633  1.00  0.00     0.000 C 
BRANCH   7   8
ATOM      8  C   UNL     1      -2.657  14.002  10.415  1.00  0.00    -0.000 C 
BRANCH   8   9
ATOM      9  C   UNL     1      -2.662  12.466  10.502  1.00  0.00    -0.000 C 
BRANCH   9  10
ATOM     10  C   UNL     1      -1.400  11.838   9.893  1.00  0.00    -0.003 C 
ATOM     11  C   UNL     1      -1.582  11.451   8.425  1.00  0.00     0.004 C 
ENDBRANCH   9  10
ENDBRANCH   8   9
ENDBRANCH   7   8
ENDBRANCH   1   7
TORSDOF 7
ENDMDL
MODEL 5
REMARK VINA RESULT:    -3.234      8.053     10.629
REMARK INTER + INTRA:          -4.793
REMARK INTER:                  -4.401
REMARK INTRA:                  -0.392
REMARK UNBOUND:                -0.236
REMARK SMILES CCCCCCCCC(=O)[O-]
REMARK SMILES IDX 6 1 7 2 8 3 9 4 10 5 11 6 5 7 4 8 3 9 2 10 1 11
REMARK H PARENT
REMARK Flexibility Score: inf
ROOT
ATOM      1  C   UNL     1      -1.622  17.111  13.481  1.00  0.00     0.000 C 
ENDROOT
BRANCH   1   2
ATOM      2  C   UNL     1      -0.942  16.141  12.503  1.00  0.00     0.006 C 
BRANCH   2   3
ATOM      3  C   UNL     1      -1.795  15.865  11.259  1.00  0.00     0.053 C 
BRANCH   3   4
ATOM      4  C   UNL     1      -2.309  14.459  11.279  1.00  0.00     0.041 C 
ATOM      5  O   UNL     1      -2.345  13.813  12.358  1.00  0.00    -0.550 OA
ATOM      6  O   UNL     1      -2.702  13.846  10.095  1.00  0.00    -0.550 OA
ENDBRANCH   3   4
ENDBRANCH   2   3
ENDBRANCH   1   2
BRANCH   1   7
ATOM      7  C   UNL     1      -2.146  18.380  12.786  1.00  0.00     0.000 C 
BRANCH   7   8
ATOM      8  C   UNL     1      -3.609  18.688  13.146  1.00  0.00    -0.000 C 
BRANCH   8   9
ATOM      9  C   UNL     1      -4.029  18.066  14.489  1.00  0.00    -0.000 C 
BRANCH   9  10
ATOM     10  C   UNL     1      -5.460  18.450  14.893  1.00  0.00    -0.003 C 
ATOM     11  C   UNL     1      -5.822  19.882  14.496  1.00  0.00     0.004 C 
ENDBRANCH   9  10
ENDBRANCH   8   9
ENDBRANCH   7   8
ENDBRANCH   1   7
TORSDOF 7
ENDMDL
MODEL 6
REMARK VINA RESULT:    -3.203      7.854     10.336
REMARK INTER + INTRA:          -4.750
REMARK INTER:                  -4.427
REMARK INTRA:                  -0.322
REMARK UNBOUND:                -0.236
REMARK SMILES CCCCCCCCC(=O)[O-]
REMARK SMILES IDX 6 1 7 2 8 3 9 4 10 5 11 6 5 7 4 8 3 9 2 10 1 11
REMARK H PARENT
REMARK Flexibility Score: inf
ROOT
ATOM      1  C   UNL     1      -1.860  16.196  11.394  1.00  0.00     0.000 C 
ENDROOT
BRANCH   1   2
ATOM      2  C   UNL     1      -1.614  16.985  12.689  1.00  0.00     0.006 C 
BRANCH   2   3
ATOM      3  C   UNL     1      -2.401  18.300  12.736  1.00  0.00     0.053 C 
BRANCH   3   4
ATOM      4  C   UNL     1      -3.625  18.146  13.583  1.00  0.00     0.041 C 
ATOM      5  O   UNL     1      -4.537  19.013  13.544  1.00  0.00    -0.550 OA
ATOM      6  O   UNL     1      -3.737  17.069  14.454  1.00  0.00    -0.550 OA
ENDBRANCH   3   4
ENDBRANCH   2   3
ENDBRANCH   1   2
BRANCH   1   7
ATOM      7  C   UNL     1      -1.838  14.673  11.616  1.00  0.00     0.000 C 
BRANCH   7   8
ATOM      8  C   UNL     1      -2.560  13.904  10.498  1.00  0.00    -0.000 C 
BRANCH   8   9
ATOM      9  C   UNL     1      -3.306  12.664  11.021  1.00  0.00    -0.000 C 
BRANCH   9  10
ATOM     10  C   UNL     1      -3.155  12.483  12.538  1.00  0.00    -0.003 C 
ATOM     11  C   UNL     1      -4.494  12.273  13.244  1.00  0.00     0.004 C 
ENDBRANCH   9  10
ENDBRANCH   8   9
ENDBRANCH   7   8
ENDBRANCH   1   7
TORSDOF 7
ENDMDL
MODEL 7
REMARK VINA RESULT:    -3.166      9.095     11.914
REMARK INTER + INTRA:          -4.698
REMARK INTER:                  -4.391
REMARK INTRA:                  -0.307
REMARK UNBOUND:                -0.236
REMARK SMILES CCCCCCCCC(=O)[O-]
REMARK SMILES IDX 6 1 7 2 8 3 9 4 10 5 11 6 5 7 4 8 3 9 2 10 1 11
REMARK H PARENT
REMARK Flexibility Score: inf
ROOT
ATOM      1  C   UNL     1      -1.793  16.349  11.572  1.00  0.00     0.000 C 
ENDROOT
BRANCH   1   2
ATOM      2  C   UNL     1      -1.929  14.835  11.798  1.00  0.00     0.006 C 
BRANCH   2   3
ATOM      3  C   UNL     1      -2.575  14.117  10.607  1.00  0.00     0.053 C 
BRANCH   3   4
ATOM      4  C   UNL     1      -2.047  12.721  10.490  1.00  0.00     0.041 C 
ATOM      5  O   UNL     1      -2.839  11.754  10.344  1.00  0.00    -0.550 OA
ATOM      6  O   UNL     1      -0.682  12.484  10.592  1.00  0.00    -0.550 OA
ENDBRANCH   3   4
ENDBRANCH   2   3
ENDBRANCH   1   2
BRANCH   1   7
ATOM      7  C   UNL     1      -0.901  17.026  12.627  1.00  0.00     0.000 C 
BRANCH   7   8
ATOM      8  C   UNL     1      -1.584  18.234  13.288  1.00  0.00    -0.000 C 
BRANCH   8   9
ATOM      9  C   UNL     1      -3.052  18.392  12.856  1.00  0.00    -0.000 C 
BRANCH   9  10
ATOM     10  C   UNL     1      -4.033  18.205  14.023  1.00  0.00    -0.003 C 
ATOM     11  C   UNL     1      -5.115  19.284  14.063  1.00  0.00     0.004 C 
ENDBRANCH   9  10
ENDBRANCH   8   9
ENDBRANCH   7   8
ENDBRANCH   1   7
TORSDOF 7
ENDMDL
MODEL 8
REMARK VINA RESULT:    -3.038     16.507     17.995
REMARK INTER + INTRA:          -4.516
REMARK INTER:                  -3.703
REMARK INTRA:                  -0.813
REMARK UNBOUND:                -0.236
REMARK SMILES CCCCCCCCC(=O)[O-]
REMARK SMILES IDX 6 1 7 2 8 3 9 4 10 5 11 6 5 7 4 8 3 9 2 10 1 11
REMARK H PARENT
REMARK Flexibility Score: inf
ROOT
ATOM      1  C   UNL     1     -13.214   9.968   3.647  1.00  0.00     0.000 C 
ENDROOT
BRANCH   1   2
ATOM      2  C   UNL     1     -12.282   9.445   4.751  1.00  0.00     0.006 C 
BRANCH   2   3
ATOM      3  C   UNL     1     -12.677   9.952   6.144  1.00  0.00     0.053 C 
BRANCH   3   4
ATOM      4  C   UNL     1     -12.722  11.448   6.162  1.00  0.00     0.041 C 
ATOM      5  O   UNL     1     -13.800  12.046   6.418  1.00  0.00    -0.550 OA
ATOM      6  O   UNL     1     -11.586  12.182   5.847  1.00  0.00    -0.550 OA
ENDBRANCH   3   4
ENDBRANCH   2   3
ENDBRANCH   1   2
BRANCH   1   7
ATOM      7  C   UNL     1     -14.147   8.875   3.095  1.00  0.00     0.000 C 
BRANCH   7   8
ATOM      8  C   UNL     1     -15.622   9.127   3.446  1.00  0.00    -0.000 C 
BRANCH   8   9
ATOM      9  C   UNL     1     -15.847  10.501   4.099  1.00  0.00    -0.000 C 
BRANCH   9  10
ATOM     10  C   UNL     1     -16.884  10.452   5.231  1.00  0.00    -0.003 C 
ATOM     11  C   UNL     1     -16.404   9.643   6.436  1.00  0.00     0.004 C 
ENDBRANCH   9  10
ENDBRANCH   8   9
ENDBRANCH   7   8
ENDBRANCH   1   7
TORSDOF 7
ENDMDL
MODEL 9
REMARK VINA RESULT:    -2.918     16.853     18.313
REMARK INTER + INTRA:          -4.348
REMARK INTER:                  -3.576
REMARK INTRA:                  -0.772
REMARK UNBOUND:                -0.236
REMARK SMILES CCCCCCCCC(=O)[O-]
REMARK SMILES IDX 6 1 7 2 8 3 9 4 10 5 11 6 5 7 4 8 3 9 2 10 1 11
REMARK H PARENT
REMARK Flexibility Score: inf
ROOT
ATOM      1  C   UNL     1     -13.631   9.556   3.490  1.00  0.00     0.000 C 
ENDROOT
BRANCH   1   2
ATOM      2  C   UNL     1     -14.959   8.875   3.855  1.00  0.00     0.006 C 
BRANCH   2   3
ATOM      3  C   UNL     1     -16.177   9.626   3.302  1.00  0.00     0.053 C 
BRANCH   3   4
ATOM      4  C   UNL     1     -16.746  10.537   4.344  1.00  0.00     0.041 C 
ATOM      5  O   UNL     1     -16.301  11.707   4.474  1.00  0.00    -0.550 OA
ATOM      6  O   UNL     1     -17.735  10.076   5.205  1.00  0.00    -0.550 OA
ENDBRANCH   3   4
ENDBRANCH   2   3
ENDBRANCH   1   2
BRANCH   1   7
ATOM      7  C   UNL     1     -12.583   9.446   4.611  1.00  0.00     0.000 C 
BRANCH   7   8
ATOM      8  C   UNL     1     -12.358  10.780   5.341  1.00  0.00    -0.000 C 
BRANCH   8   9
ATOM      9  C   UNL     1     -13.437  11.063   6.400  1.00  0.00    -0.000 C 
BRANCH   9  10
ATOM     10  C   UNL     1     -13.740   9.837   7.274  1.00  0.00    -0.003 C 
ATOM     11  C   UNL     1     -15.207   9.762   7.698  1.00  0.00     0.004 C 
ENDBRANCH   9  10
ENDBRANCH   8   9
ENDBRANCH   7   8
ENDBRANCH   1   7
TORSDOF 7
ENDMDL
