MODEL 1
REMARK VINA RESULT:    -7.289      0.000      0.000
REMARK INTER + INTRA:          -8.221
REMARK INTER:                  -8.568
REMARK INTRA:                   0.347
REMARK UNBOUND:                 0.347
REMARK SMILES O=c1c(O)c(-c2ccc(O)cc2)oc2cc(O)cc(O)c12
REMARK SMILES IDX 5 1 3 2 2 3 1 4 21 5 19 6 18 7 16 8 15 9 14 10 13 11 6 12
REMARK SMILES IDX 7 13 8 14 9 15 12 16 11 17 10 18 4 20 20 22 17 24
REMARK H PARENT 10 19 4 21 20 23 17 25
REMARK Flexibility Score: inf
ROOT
ATOM      1  C   UNL     1       9.658  13.247  23.153  1.00  0.00     0.180 A 
ATOM      2  C   UNL     1       9.189  13.971  24.262  1.00  0.00     0.208 A 
ATOM      3  C   UNL     1       8.825  13.274  25.426  1.00  0.00     0.238 A 
ATOM      4  O   UNL     1       8.478  13.933  26.439  1.00  0.00    -0.285 OA
ATOM      5  C   UNL     1       8.881  11.859  25.447  1.00  0.00     0.111 A 
ATOM      6  C   UNL     1       8.493  11.047  26.555  1.00  0.00     0.134 A 
ATOM      7  C   UNL     1       8.692   9.662  26.500  1.00  0.00     0.093 A 
ATOM      8  C   UNL     1       9.203   9.052  25.355  1.00  0.00     0.123 A 
ATOM      9  C   UNL     1       9.533   9.830  24.244  1.00  0.00     0.094 A 
ATOM     10  C   UNL     1       9.383  11.218  24.283  1.00  0.00     0.146 A 
ATOM     11  O   UNL     1       9.730  11.923  23.213  1.00  0.00    -0.452 OA
ENDROOT
BRANCH   1  12
ATOM     12  C   UNL     1      10.074  13.911  21.896  1.00  0.00     0.021 A 
ATOM     13  C   UNL     1      10.105  13.173  20.701  1.00  0.00     0.016 A 
ATOM     14  C   UNL     1      10.516  13.773  19.508  1.00  0.00     0.047 A 
ATOM     15  C   UNL     1      10.916  15.116  19.496  1.00  0.00     0.115 A 
ATOM     16  C   UNL     1      10.497  15.252  21.881  1.00  0.00     0.016 A 
ATOM     17  C   UNL     1      10.908  15.851  20.686  1.00  0.00     0.047 A 
BRANCH  15  18
ATOM     18  O   UNL     1      11.327  15.725  18.313  1.00  0.00    -0.508 OA
ATOM     19  H   UNL     1      11.328  15.224  17.433  1.00  0.00     0.293 HD
ENDBRANCH  15  18
ENDBRANCH   1  12
BRANCH   2  20
ATOM     20  O   UNL     1       9.069  15.361  24.195  1.00  0.00    -0.502 OA
ATOM     21  H   UNL     1       9.595  15.983  24.799  1.00  0.00     0.293 HD
ENDBRANCH   2  20
BRANCH   6  22
ATOM     22  O   UNL     1       7.891  11.542  27.716  1.00  0.00    -0.507 OA
ATOM     23  H   UNL     1       8.257  12.291  28.283  1.00  0.00     0.293 HD
ENDBRANCH   6  22
BRANCH   8  24
ATOM     24  O   UNL     1       9.370   7.670  25.329  1.00  0.00    -0.508 OA
ATOM     25  H   UNL     1       9.756   7.198  24.519  1.00  0.00     0.293 HD
ENDBRANCH   8  24
TORSDOF 5
ENDMDL
MODEL 2
REMARK VINA RESULT:    -6.619      1.771      7.224
REMARK INTER + INTRA:          -7.433
REMARK INTER:                  -7.450
REMARK INTRA:                   0.018
REMARK UNBOUND:                 0.347
REMARK SMILES O=c1c(O)c(-c2ccc(O)cc2)oc2cc(O)cc(O)c12
REMARK SMILES IDX 5 1 3 2 2 3 1 4 21 5 19 6 18 7 16 8 15 9 14 10 13 11 6 12
REMARK SMILES IDX 7 13 8 14 9 15 12 16 11 17 10 18 4 20 20 22 17 24
REMARK H PARENT 10 19 4 21 20 23 17 25
REMARK Flexibility Score: inf
ROOT
ATOM      1  C   UNL     1       9.593  13.564  24.142  1.00  0.00     0.180 A 
ATOM      2  C   UNL     1       9.582  13.073  22.826  1.00  0.00     0.208 A 
ATOM      3  C   UNL     1      10.021  13.907  21.784  1.00  0.00     0.238 A 
ATOM      4  O   UNL     1      10.079  13.436  20.619  1.00  0.00    -0.285 OA
ATOM      5  C   UNL     1      10.412  15.239  22.064  1.00  0.00     0.111 A 
ATOM      6  C   UNL     1      10.830  16.187  21.082  1.00  0.00     0.134 A 
ATOM      7  C   UNL     1      11.295  17.444  21.488  1.00  0.00     0.093 A 
ATOM      8  C   UNL     1      11.297  17.811  22.833  1.00  0.00     0.123 A 
ATOM      9  C   UNL     1      10.837  16.913  23.797  1.00  0.00     0.094 A 
ATOM     10  C   UNL     1      10.404  15.638  23.427  1.00  0.00     0.146 A 
ATOM     11  O   UNL     1       9.996  14.807  24.378  1.00  0.00    -0.452 OA
ENDROOT
BRANCH   1  12
ATOM     12  C   UNL     1       9.159  12.741  25.294  1.00  0.00     0.021 A 
ATOM     13  C   UNL     1       8.279  13.288  26.243  1.00  0.00     0.016 A 
ATOM     14  C   UNL     1       7.875  12.538  27.350  1.00  0.00     0.047 A 
ATOM     15  C   UNL     1       8.358  11.235  27.532  1.00  0.00     0.115 A 
ATOM     16  C   UNL     1       9.656  11.440  25.495  1.00  0.00     0.016 A 
ATOM     17  C   UNL     1       9.251  10.692  26.604  1.00  0.00     0.047 A 
BRANCH  15  18
ATOM     18  O   UNL     1       7.962  10.477  28.632  1.00  0.00    -0.508 OA
ATOM     19  H   UNL     1       7.394   9.645  28.523  1.00  0.00     0.293 HD
ENDBRANCH  15  18
ENDBRANCH   1  12
BRANCH   2  20
ATOM     20  O   UNL     1       9.120  11.782  22.560  1.00  0.00    -0.502 OA
ATOM     21  H   UNL     1       8.319  11.382  23.034  1.00  0.00     0.293 HD
ENDBRANCH   2  20
BRANCH   6  22
ATOM     22  O   UNL     1      10.786  15.957  19.703  1.00  0.00    -0.507 OA
ATOM     23  H   UNL     1      10.923  16.661  18.994  1.00  0.00     0.293 HD
ENDBRANCH   6  22
BRANCH   8  24
ATOM     24  O   UNL     1      11.750  19.076  23.199  1.00  0.00    -0.508 OA
ATOM     25  H   UNL     1      12.643  19.432  22.876  1.00  0.00     0.293 HD
ENDBRANCH   8  24
TORSDOF 5
ENDMDL
MODEL 3
REMARK VINA RESULT:    -6.587      1.038      6.414
REMARK INTER + INTRA:          -7.395
REMARK INTER:                  -7.696
REMARK INTRA:                   0.301
REMARK UNBOUND:                 0.347
REMARK SMILES O=c1c(O)c(-c2ccc(O)cc2)oc2cc(O)cc(O)c12
REMARK SMILES IDX 5 1 3 2 2 3 1 4 21 5 19 6 18 7 16 8 15 9 14 10 13 11 6 12
REMARK SMILES IDX 7 13 8 14 9 15 12 16 11 17 10 18 4 20 20 22 17 24
REMARK H PARENT 10 19 4 21 20 23 17 25
REMARK Flexibility Score: inf
ROOT
ATOM      1  C   UNL     1       9.239  12.071  24.125  1.00  0.00     0.180 A 
ATOM      2  C   UNL     1       9.029  13.282  24.806  1.00  0.00     0.208 A 
ATOM      3  C   UNL     1       9.245  14.492  24.127  1.00  0.00     0.238 A 
ATOM      4  O   UNL     1       8.983  15.571  24.719  1.00  0.00    -0.285 OA
ATOM      5  C   UNL     1       9.721  14.477  22.793  1.00  0.00     0.111 A 
ATOM      6  C   UNL     1      10.018  15.643  22.023  1.00  0.00     0.134 A 
ATOM      7  C   UNL     1      10.383  15.507  20.678  1.00  0.00     0.093 A 
ATOM      8  C   UNL     1      10.524  14.249  20.093  1.00  0.00     0.123 A 
ATOM      9  C   UNL     1      10.291  13.102  20.852  1.00  0.00     0.094 A 
ATOM     10  C   UNL     1       9.888  13.205  22.185  1.00  0.00     0.146 A 
ATOM     11  O   UNL     1       9.655  12.089  22.864  1.00  0.00    -0.452 OA
ENDROOT
BRANCH   1  12
ATOM     12  C   UNL     1       9.020  10.756  24.768  1.00  0.00     0.021 A 
ATOM     13  C   UNL     1       9.718   9.630  24.297  1.00  0.00     0.016 A 
ATOM     14  C   UNL     1       9.510   8.375  24.875  1.00  0.00     0.047 A 
ATOM     15  C   UNL     1       8.589   8.225  25.920  1.00  0.00     0.115 A 
ATOM     16  C   UNL     1       8.082  10.593  25.803  1.00  0.00     0.016 A 
ATOM     17  C   UNL     1       7.875   9.336  26.379  1.00  0.00     0.047 A 
BRANCH  15  18
ATOM     18  O   UNL     1       8.373   6.979  26.504  1.00  0.00    -0.508 OA
ATOM     19  H   UNL     1       8.706   6.767  27.437  1.00  0.00     0.293 HD
ENDBRANCH  15  18
ENDBRANCH   1  12
BRANCH   2  20
ATOM     20  O   UNL     1       8.632  13.276  26.145  1.00  0.00    -0.502 OA
ATOM     21  H   UNL     1       7.918  12.650  26.499  1.00  0.00     0.293 HD
ENDBRANCH   2  20
BRANCH   6  22
ATOM     22  O   UNL     1       9.995  16.945  22.533  1.00  0.00    -0.507 OA
ATOM     23  H   UNL     1       9.456  17.243  23.332  1.00  0.00     0.293 HD
ENDBRANCH   6  22
BRANCH   8  24
ATOM     24  O   UNL     1      10.906  14.153  18.757  1.00  0.00    -0.508 OA
ATOM     25  H   UNL     1      11.258  13.285  18.367  1.00  0.00     0.293 HD
ENDBRANCH   8  24
TORSDOF 5
ENDMDL
MODEL 4
REMARK VINA RESULT:    -6.523      2.359      3.822
REMARK INTER + INTRA:          -7.320
REMARK INTER:                  -7.274
REMARK INTRA:                  -0.046
REMARK UNBOUND:                 0.347
REMARK SMILES O=c1c(O)c(-c2ccc(O)cc2)oc2cc(O)cc(O)c12
REMARK SMILES IDX 5 1 3 2 2 3 1 4 21 5 19 6 18 7 16 8 15 9 14 10 13 11 6 12
REMARK SMILES IDX 7 13 8 14 9 15 12 16 11 17 10 18 4 20 20 22 17 24
REMARK H PARENT 10 19 4 21 20 23 17 25
REMARK Flexibility Score: inf
ROOT
ATOM      1  C   UNL     1      10.002  14.909  23.445  1.00  0.00     0.180 A 
ATOM      2  C   UNL     1      10.519  13.978  22.528  1.00  0.00     0.208 A 
ATOM      3  C   UNL     1      10.410  12.607  22.815  1.00  0.00     0.238 A 
ATOM      4  O   UNL     1      10.807  11.778  21.956  1.00  0.00    -0.285 OA
ATOM      5  C   UNL     1       9.838  12.186  24.040  1.00  0.00     0.111 A 
ATOM      6  C   UNL     1       9.718  10.825  24.456  1.00  0.00     0.134 A 
ATOM      7  C   UNL     1       9.038  10.522  25.642  1.00  0.00     0.093 A 
ATOM      8  C   UNL     1       8.530  11.532  26.459  1.00  0.00     0.123 A 
ATOM      9  C   UNL     1       8.691  12.868  26.091  1.00  0.00     0.094 A 
ATOM     10  C   UNL     1       9.330  13.200  24.894  1.00  0.00     0.146 A 
ATOM     11  O   UNL     1       9.442  14.482  24.571  1.00  0.00    -0.452 OA
ENDROOT
BRANCH   1  12
ATOM     12  C   UNL     1      10.066  16.369  23.208  1.00  0.00     0.021 A 
ATOM     13  C   UNL     1      11.316  16.988  23.038  1.00  0.00     0.016 A 
ATOM     14  C   UNL     1      11.401  18.368  22.836  1.00  0.00     0.047 A 
ATOM     15  C   UNL     1      10.238  19.150  22.815  1.00  0.00     0.115 A 
ATOM     16  C   UNL     1       8.905  17.163  23.207  1.00  0.00     0.016 A 
ATOM     17  C   UNL     1       8.993  18.543  23.004  1.00  0.00     0.047 A 
BRANCH  15  18
ATOM     18  O   UNL     1      10.310  20.526  22.614  1.00  0.00    -0.508 OA
ATOM     19  H   UNL     1      10.305  20.925  21.683  1.00  0.00     0.293 HD
ENDBRANCH  15  18
ENDBRANCH   1  12
BRANCH   2  20
ATOM     20  O   UNL     1      11.148  14.415  21.361  1.00  0.00    -0.502 OA
ATOM     21  H   UNL     1      11.345  13.796  20.583  1.00  0.00     0.293 HD
ENDBRANCH   2  20
BRANCH   6  22
ATOM     22  O   UNL     1      10.265   9.743  23.760  1.00  0.00    -0.507 OA
ATOM     23  H   UNL     1       9.750   9.129  23.147  1.00  0.00     0.293 HD
ENDBRANCH   6  22
BRANCH   8  24
ATOM     24  O   UNL     1       7.875  11.194  27.641  1.00  0.00    -0.508 OA
ATOM     25  H   UNL     1       8.201  11.527  28.541  1.00  0.00     0.293 HD
ENDBRANCH   8  24
TORSDOF 5
ENDMDL
MODEL 5
REMARK VINA RESULT:    -6.307      2.195      6.917
REMARK INTER + INTRA:          -7.066
REMARK INTER:                  -7.352
REMARK INTRA:                   0.286
REMARK UNBOUND:                 0.347
REMARK SMILES O=c1c(O)c(-c2ccc(O)cc2)oc2cc(O)cc(O)c12
REMARK SMILES IDX 5 1 3 2 2 3 1 4 21 5 19 6 18 7 16 8 15 9 14 10 13 11 6 12
REMARK SMILES IDX 7 13 8 14 9 15 12 16 11 17 10 18 4 20 20 22 17 24
REMARK H PARENT 10 19 4 21 20 23 17 25
REMARK Flexibility Score: inf
ROOT
ATOM      1  C   UNL     1       9.484  13.457  23.988  1.00  0.00     0.180 A 
ATOM      2  C   UNL     1       9.468  13.598  22.590  1.00  0.00     0.208 A 
ATOM      3  C   UNL     1       9.613  14.880  22.034  1.00  0.00     0.238 A 
ATOM      4  O   UNL     1       9.673  14.990  20.782  1.00  0.00    -0.285 OA
ATOM      5  C   UNL     1       9.716  16.009  22.882  1.00  0.00     0.111 A 
ATOM      6  C   UNL     1       9.821  17.359  22.428  1.00  0.00     0.134 A 
ATOM      7  C   UNL     1      10.024  18.387  23.357  1.00  0.00     0.093 A 
ATOM      8  C   UNL     1      10.062  18.123  24.726  1.00  0.00     0.123 A 
ATOM      9  C   UNL     1       9.903  16.815  25.185  1.00  0.00     0.094 A 
ATOM     10  C   UNL     1       9.739  15.763  24.280  1.00  0.00     0.146 A 
ATOM     11  O   UNL     1       9.615  14.531  24.757  1.00  0.00    -0.452 OA
ENDROOT
BRANCH   1  12
ATOM     12  C   UNL     1       9.351  12.139  24.649  1.00  0.00     0.021 A 
ATOM     13  C   UNL     1       8.822  12.066  25.949  1.00  0.00     0.016 A 
ATOM     14  C   UNL     1       8.708  10.835  26.600  1.00  0.00     0.047 A 
ATOM     15  C   UNL     1       9.137   9.661  25.967  1.00  0.00     0.115 A 
ATOM     16  C   UNL     1       9.799  10.958  24.028  1.00  0.00     0.016 A 
ATOM     17  C   UNL     1       9.685   9.728  24.682  1.00  0.00     0.047 A 
BRANCH  15  18
ATOM     18  O   UNL     1       9.029   8.428  26.605  1.00  0.00    -0.508 OA
ATOM     19  H   UNL     1       9.739   8.103  27.251  1.00  0.00     0.293 HD
ENDBRANCH  15  18
ENDBRANCH   1  12
BRANCH   2  20
ATOM     20  O   UNL     1       9.289  12.481  21.772  1.00  0.00    -0.502 OA
ATOM     21  H   UNL     1      10.067  11.954  21.392  1.00  0.00     0.293 HD
ENDBRANCH   2  20
BRANCH   6  22
ATOM     22  O   UNL     1       9.709  17.746  21.089  1.00  0.00    -0.507 OA
ATOM     23  H   UNL     1      10.406  17.580  20.379  1.00  0.00     0.293 HD
ENDBRANCH   6  22
BRANCH   8  24
ATOM     24  O   UNL     1      10.247  19.173  25.622  1.00  0.00    -0.508 OA
ATOM     25  H   UNL     1      10.198  19.029  26.625  1.00  0.00     0.293 HD
ENDBRANCH   8  24
TORSDOF 5
ENDMDL
MODEL 6
REMARK VINA RESULT:    -6.226      2.065      6.735
REMARK INTER + INTRA:          -6.971
REMARK INTER:                  -7.457
REMARK INTRA:                   0.485
REMARK UNBOUND:                 0.347
REMARK SMILES O=c1c(O)c(-c2ccc(O)cc2)oc2cc(O)cc(O)c12
REMARK SMILES IDX 5 1 3 2 2 3 1 4 21 5 19 6 18 7 16 8 15 9 14 10 13 11 6 12
REMARK SMILES IDX 7 13 8 14 9 15 12 16 11 17 10 18 4 20 20 22 17 24
REMARK H PARENT 10 19 4 21 20 23 17 25
REMARK Flexibility Score: inf
ROOT
ATOM      1  C   UNL     1       9.852  12.646  24.422  1.00  0.00     0.180 A 
ATOM      2  C   UNL     1      10.561  12.912  23.239  1.00  0.00     0.208 A 
ATOM      3  C   UNL     1      10.850  14.244  22.902  1.00  0.00     0.238 A 
ATOM      4  O   UNL     1      11.549  14.470  21.881  1.00  0.00    -0.285 OA
ATOM      5  C   UNL     1      10.377  15.297  23.723  1.00  0.00     0.111 A 
ATOM      6  C   UNL     1      10.570  16.686  23.454  1.00  0.00     0.134 A 
ATOM      7  C   UNL     1      10.149  17.637  24.393  1.00  0.00     0.093 A 
ATOM      8  C   UNL     1       9.485  17.253  25.558  1.00  0.00     0.123 A 
ATOM      9  C   UNL     1       9.241  15.902  25.804  1.00  0.00     0.094 A 
ATOM     10  C   UNL     1       9.683  14.928  24.905  1.00  0.00     0.146 A 
ATOM     11  O   UNL     1       9.450  13.653  25.189  1.00  0.00    -0.452 OA
ENDROOT
BRANCH   1  12
ATOM     12  C   UNL     1       9.523  11.268  24.852  1.00  0.00     0.021 A 
ATOM     13  C   UNL     1       9.044  11.045  26.154  1.00  0.00     0.016 A 
ATOM     14  C   UNL     1       8.749   9.750  26.588  1.00  0.00     0.047 A 
ATOM     15  C   UNL     1       8.943   8.658  25.731  1.00  0.00     0.115 A 
ATOM     16  C   UNL     1       9.735  10.165  24.005  1.00  0.00     0.016 A 
ATOM     17  C   UNL     1       9.439   8.871  24.441  1.00  0.00     0.047 A 
BRANCH  15  18
ATOM     18  O   UNL     1       8.652   7.363  26.152  1.00  0.00    -0.508 OA
ATOM     19  H   UNL     1       8.896   7.042  27.082  1.00  0.00     0.293 HD
ENDBRANCH  15  18
ENDBRANCH   1  12
BRANCH   2  20
ATOM     20  O   UNL     1      10.953  11.863  22.403  1.00  0.00    -0.502 OA
ATOM     21  H   UNL     1      11.792  11.903  21.836  1.00  0.00     0.293 HD
ENDBRANCH   2  20
BRANCH   6  22
ATOM     22  O   UNL     1      11.143  17.185  22.280  1.00  0.00    -0.507 OA
ATOM     23  H   UNL     1      12.002  16.852  21.869  1.00  0.00     0.293 HD
ENDBRANCH   6  22
BRANCH   8  24
ATOM     24  O   UNL     1       9.065  18.228  26.460  1.00  0.00    -0.508 OA
ATOM     25  H   UNL     1       9.683  18.584  27.181  1.00  0.00     0.293 HD
ENDBRANCH   8  24
TORSDOF 5
ENDMDL
MODEL 7
REMARK VINA RESULT:    -5.903      1.926      7.122
REMARK INTER + INTRA:          -6.591
REMARK INTER:                  -6.911
REMARK INTRA:                   0.321
REMARK UNBOUND:                 0.347
REMARK SMILES O=c1c(O)c(-c2ccc(O)cc2)oc2cc(O)cc(O)c12
REMARK SMILES IDX 5 1 3 2 2 3 1 4 21 5 19 6 18 7 16 8 15 9 14 10 13 11 6 12
REMARK SMILES IDX 7 13 8 14 9 15 12 16 11 17 10 18 4 20 20 22 17 24
REMARK H PARENT 10 19 4 21 20 23 17 25
REMARK Flexibility Score: inf
ROOT
ATOM      1  C   UNL     1       9.204  11.689  25.220  1.00  0.00     0.180 A 
ATOM      2  C   UNL     1       9.760  11.368  23.970  1.00  0.00     0.208 A 
ATOM      3  C   UNL     1       9.959  12.392  23.030  1.00  0.00     0.238 A 
ATOM      4  O   UNL     1      10.526  12.110  21.942  1.00  0.00    -0.285 OA
ATOM      5  C   UNL     1       9.549  13.714  23.329  1.00  0.00     0.111 A 
ATOM      6  C   UNL     1       9.659  14.822  22.434  1.00  0.00     0.134 A 
ATOM      7  C   UNL     1       9.317  16.105  22.878  1.00  0.00     0.093 A 
ATOM      8  C   UNL     1       8.809  16.312  24.160  1.00  0.00     0.123 A 
ATOM      9  C   UNL     1       8.643  15.229  25.023  1.00  0.00     0.094 A 
ATOM     10  C   UNL     1       9.012  13.942  24.623  1.00  0.00     0.146 A 
ATOM     11  O   UNL     1       8.859  12.944  25.484  1.00  0.00    -0.452 OA
ENDROOT
BRANCH   1  12
ATOM     12  C   UNL     1       8.976  10.669  26.268  1.00  0.00     0.021 A 
ATOM     13  C   UNL     1       8.638   9.357  25.894  1.00  0.00     0.016 A 
ATOM     14  C   UNL     1       8.396   8.383  26.867  1.00  0.00     0.047 A 
ATOM     15  C   UNL     1       8.474   8.712  28.227  1.00  0.00     0.115 A 
ATOM     16  C   UNL     1       9.032  10.996  27.635  1.00  0.00     0.016 A 
ATOM     17  C   UNL     1       8.790  10.020  28.606  1.00  0.00     0.047 A 
BRANCH  15  18
ATOM     18  O   UNL     1       8.236   7.750  29.206  1.00  0.00    -0.508 OA
ATOM     19  H   UNL     1       8.520   7.894  30.168  1.00  0.00     0.293 HD
ENDBRANCH  15  18
ENDBRANCH   1  12
BRANCH   2  20
ATOM     20  O   UNL     1      10.088  10.045  23.665  1.00  0.00    -0.502 OA
ATOM     21  H   UNL     1      10.730   9.801  22.920  1.00  0.00     0.293 HD
ENDBRANCH   2  20
BRANCH   6  22
ATOM     22  O   UNL     1      10.073  14.714  21.102  1.00  0.00    -0.507 OA
ATOM     23  H   UNL     1       9.926  15.416  20.393  1.00  0.00     0.293 HD
ENDBRANCH   6  22
BRANCH   8  24
ATOM     24  O   UNL     1       8.463  17.601  24.560  1.00  0.00    -0.508 OA
ATOM     25  H   UNL     1       8.605  18.400  23.953  1.00  0.00     0.293 HD
ENDBRANCH   8  24
TORSDOF 5
ENDMDL
MODEL 8
REMARK VINA RESULT:    -5.577      2.035      3.439
REMARK INTER + INTRA:          -6.209
REMARK INTER:                  -6.394
REMARK INTRA:                   0.185
REMARK UNBOUND:                 0.347
REMARK SMILES O=c1c(O)c(-c2ccc(O)cc2)oc2cc(O)cc(O)c12
REMARK SMILES IDX 5 1 3 2 2 3 1 4 21 5 19 6 18 7 16 8 15 9 14 10 13 11 6 12
REMARK SMILES IDX 7 13 8 14 9 15 12 16 11 17 10 18 4 20 20 22 17 24
REMARK H PARENT 10 19 4 21 20 23 17 25
REMARK Flexibility Score: inf
ROOT
ATOM      1  C   UNL     1       9.081  13.017  24.511  1.00  0.00     0.180 A 
ATOM      2  C   UNL     1       9.082  11.871  23.697  1.00  0.00     0.208 A 
ATOM      3  C   UNL     1       8.842  10.618  24.285  1.00  0.00     0.238 A 
ATOM      4  O   UNL     1       8.770   9.607  23.540  1.00  0.00    -0.285 OA
ATOM      5  C   UNL     1       8.661  10.520  25.686  1.00  0.00     0.111 A 
ATOM      6  C   UNL     1       8.457   9.297  26.395  1.00  0.00     0.134 A 
ATOM      7  C   UNL     1       8.184   9.332  27.768  1.00  0.00     0.093 A 
ATOM      8  C   UNL     1       8.170  10.537  28.470  1.00  0.00     0.123 A 
ATOM      9  C   UNL     1       8.424  11.733  27.798  1.00  0.00     0.094 A 
ATOM     10  C   UNL     1       8.661  11.734  26.421  1.00  0.00     0.146 A 
ATOM     11  O   UNL     1       8.875  12.896  25.817  1.00  0.00    -0.452 OA
ENDROOT
BRANCH   1  12
ATOM     12  C   UNL     1       9.311  14.373  23.963  1.00  0.00     0.021 A 
ATOM     13  C   UNL     1      10.324  14.571  23.010  1.00  0.00     0.016 A 
ATOM     14  C   UNL     1      10.574  15.847  22.497  1.00  0.00     0.047 A 
ATOM     15  C   UNL     1       9.825  16.944  22.942  1.00  0.00     0.115 A 
ATOM     16  C   UNL     1       8.578  15.483  24.421  1.00  0.00     0.016 A 
ATOM     17  C   UNL     1       8.830  16.758  23.907  1.00  0.00     0.047 A 
BRANCH  15  18
ATOM     18  O   UNL     1      10.064  18.221  22.438  1.00  0.00    -0.508 OA
ATOM     19  H   UNL     1      10.948  18.461  22.005  1.00  0.00     0.293 HD
ENDBRANCH  15  18
ENDBRANCH   1  12
BRANCH   2  20
ATOM     20  O   UNL     1       9.338  11.980  22.328  1.00  0.00    -0.502 OA
ATOM     21  H   UNL     1      10.148  12.469  21.964  1.00  0.00     0.293 HD
ENDBRANCH   2  20
BRANCH   6  22
ATOM     22  O   UNL     1       8.536   8.029  25.809  1.00  0.00    -0.507 OA
ATOM     23  H   UNL     1       8.091   7.763  24.944  1.00  0.00     0.293 HD
ENDBRANCH   6  22
BRANCH   8  24
ATOM     24  O   UNL     1       7.912  10.531  29.839  1.00  0.00    -0.508 OA
ATOM     25  H   UNL     1       8.448  11.104  30.481  1.00  0.00     0.293 HD
ENDBRANCH   8  24
TORSDOF 5
ENDMDL
MODEL 9
REMARK VINA RESULT:    -5.498     13.085     14.326
REMARK INTER + INTRA:          -6.115
REMARK INTER:                  -5.828
REMARK INTRA:                  -0.288
REMARK UNBOUND:                 0.347
REMARK SMILES O=c1c(O)c(-c2ccc(O)cc2)oc2cc(O)cc(O)c12
REMARK SMILES IDX 5 1 3 2 2 3 1 4 21 5 19 6 18 7 16 8 15 9 14 10 13 11 6 12
REMARK SMILES IDX 7 13 8 14 9 15 12 16 11 17 10 18 4 20 20 22 17 24
REMARK H PARENT 10 19 4 21 20 23 17 25
REMARK Flexibility Score: inf
ROOT
ATOM      1  C   UNL     1      22.292  19.119  26.021  1.00  0.00     0.180 A 
ATOM      2  C   UNL     1      22.852  18.426  27.107  1.00  0.00     0.208 A 
ATOM      3  C   UNL     1      22.022  18.050  28.176  1.00  0.00     0.238 A 
ATOM      4  O   UNL     1      22.514  17.365  29.110  1.00  0.00    -0.285 OA
ATOM      5  C   UNL     1      20.655  18.419  28.170  1.00  0.00     0.111 A 
ATOM      6  C   UNL     1      19.731  18.130  29.221  1.00  0.00     0.134 A 
ATOM      7  C   UNL     1      18.378  18.452  29.058  1.00  0.00     0.093 A 
ATOM      8  C   UNL     1      17.926  19.108  27.914  1.00  0.00     0.123 A 
ATOM      9  C   UNL     1      18.829  19.446  26.906  1.00  0.00     0.094 A 
ATOM     10  C   UNL     1      20.178  19.103  27.021  1.00  0.00     0.146 A 
ATOM     11  O   UNL     1      21.000  19.422  26.029  1.00  0.00    -0.452 OA
ENDROOT
BRANCH   1  12
ATOM     12  C   UNL     1      23.099  19.537  24.852  1.00  0.00     0.021 A 
ATOM     13  C   UNL     1      23.227  18.671  23.753  1.00  0.00     0.016 A 
ATOM     14  C   UNL     1      24.003  19.036  22.649  1.00  0.00     0.047 A 
ATOM     15  C   UNL     1      24.673  20.266  22.636  1.00  0.00     0.115 A 
ATOM     16  C   UNL     1      23.792  20.761  24.840  1.00  0.00     0.016 A 
ATOM     17  C   UNL     1      24.568  21.124  23.735  1.00  0.00     0.047 A 
BRANCH  15  18
ATOM     18  O   UNL     1      25.449  20.641  21.541  1.00  0.00    -0.508 OA
ATOM     19  H   UNL     1      25.083  20.606  20.597  1.00  0.00     0.293 HD
ENDBRANCH  15  18
ENDBRANCH   1  12
BRANCH   2  20
ATOM     20  O   UNL     1      24.219  18.138  27.129  1.00  0.00    -0.502 OA
ATOM     21  H   UNL     1      24.620  17.361  26.618  1.00  0.00     0.293 HD
ENDBRANCH   2  20
BRANCH   6  22
ATOM     22  O   UNL     1      20.091  17.556  30.444  1.00  0.00    -0.507 OA
ATOM     23  H   UNL     1      20.042  16.572  30.657  1.00  0.00     0.293 HD
ENDBRANCH   6  22
BRANCH   8  24
ATOM     24  O   UNL     1      16.575  19.428  27.795  1.00  0.00    -0.508 OA
ATOM     25  H   UNL     1      15.955  19.416  28.598  1.00  0.00     0.293 HD
ENDBRANCH   8  24
TORSDOF 5
ENDMDL
