MODEL 1
REMARK VINA RESULT:    -4.159      0.000      0.000
REMARK INTER + INTRA:         -10.445
REMARK INTER:                  -7.806
REMARK INTRA:                  -2.639
REMARK UNBOUND:                -2.639
REMARK SMILES CCCCCCCCC=CCCCCCCCC(=O)[O-]
REMARK SMILES IDX 10 1 9 2 11 3 12 4 13 5 14 6 15 7 16 8 17 9 18 10 19 11
REMARK SMILES IDX 20 12 8 13 7 14 6 15 5 16 4 17 3 18 2 19 1 20
REMARK H PARENT
REMARK Flexibility Score: inf
ROOT
ATOM      1  C   UNL     1      36.307  23.105  34.571  1.00  0.00    -0.031 C 
ATOM      2  C   UNL     1      36.535  24.424  34.664  1.00  0.00    -0.031 C 
ENDROOT
BRANCH   1   3
ATOM      3  C   UNL     1      35.009  22.497  35.027  1.00  0.00     0.027 C 
BRANCH   3   4
ATOM      4  C   UNL     1      33.809  23.280  34.474  1.00  0.00     0.004 C 
BRANCH   4   5
ATOM      5  C   UNL     1      33.119  22.556  33.307  1.00  0.00     0.000 C 
BRANCH   5   6
ATOM      6  C   UNL     1      31.661  23.001  33.115  1.00  0.00     0.000 C 
BRANCH   6   7
ATOM      7  C   UNL     1      30.692  21.850  33.411  1.00  0.00     0.000 C 
BRANCH   7   8
ATOM      8  C   UNL     1      31.335  20.493  33.090  1.00  0.00     0.006 C 
BRANCH   8   9
ATOM      9  C   UNL     1      30.864  19.387  34.044  1.00  0.00     0.053 C 
BRANCH   9  10
ATOM     10  C   UNL     1      31.677  19.353  35.302  1.00  0.00     0.041 C 
ATOM     11  O   UNL     1      31.135  19.062  36.400  1.00  0.00    -0.550 OA
ATOM     12  O   UNL     1      33.041  19.612  35.253  1.00  0.00    -0.550 OA
ENDBRANCH   9  10
ENDBRANCH   8   9
ENDBRANCH   7   8
ENDBRANCH   6   7
ENDBRANCH   5   6
ENDBRANCH   4   5
ENDBRANCH   3   4
ENDBRANCH   1   3
BRANCH   2  13
ATOM     13  C   UNL     1      37.821  25.036  34.185  1.00  0.00     0.027 C 
BRANCH  13  14
ATOM     14  C   UNL     1      37.653  26.541  33.921  1.00  0.00     0.004 C 
BRANCH  14  15
ATOM     15  C   UNL     1      36.297  27.076  34.408  1.00  0.00     0.000 C 
BRANCH  15  16
ATOM     16  C   UNL     1      35.400  27.553  33.252  1.00  0.00     0.000 C 
BRANCH  16  17
ATOM     17  C   UNL     1      34.083  26.761  33.152  1.00  0.00    -0.000 C 
BRANCH  17  18
ATOM     18  C   UNL     1      33.930  25.921  31.872  1.00  0.00    -0.000 C 
BRANCH  18  19
ATOM     19  C   UNL     1      35.251  25.740  31.112  1.00  0.00    -0.003 C 
ATOM     20  C   UNL     1      35.685  24.277  31.101  1.00  0.00     0.004 C 
ENDBRANCH  18  19
ENDBRANCH  17  18
ENDBRANCH  16  17
ENDBRANCH  15  16
ENDBRANCH  14  15
ENDBRANCH  13  14
ENDBRANCH   2  13
TORSDOF 15
ENDMDL
MODEL 2
REMARK VINA RESULT:    -4.051      1.339      3.188
REMARK INTER + INTRA:         -10.242
REMARK INTER:                  -7.863
REMARK INTRA:                  -2.379
REMARK UNBOUND:                -2.639
REMARK SMILES CCCCCCCCC=CCCCCCCCC(=O)[O-]
REMARK SMILES IDX 10 1 9 2 11 3 12 4 13 5 14 6 15 7 16 8 17 9 18 10 19 11
REMARK SMILES IDX 20 12 8 13 7 14 6 15 5 16 4 17 3 18 2 19 1 20
REMARK H PARENT
REMARK Flexibility Score: inf
ROOT
ATOM      1  C   UNL     1      32.914  24.707  33.034  1.00  0.00    -0.031 C 
ATOM      2  C   UNL     1      33.172  25.905  32.489  1.00  0.00    -0.031 C 
ENDROOT
BRANCH   1   3
ATOM      3  C   UNL     1      31.510  24.181  33.147  1.00  0.00     0.027 C 
BRANCH   3   4
ATOM      4  C   UNL     1      31.297  22.973  32.222  1.00  0.00     0.004 C 
BRANCH   4   5
ATOM      5  C   UNL     1      32.597  22.197  31.956  1.00  0.00     0.000 C 
BRANCH   5   6
ATOM      6  C   UNL     1      32.457  20.695  32.245  1.00  0.00     0.000 C 
BRANCH   6   7
ATOM      7  C   UNL     1      31.297  20.426  33.211  1.00  0.00     0.000 C 
BRANCH   7   8
ATOM      8  C   UNL     1      31.815  20.165  34.633  1.00  0.00     0.006 C 
BRANCH   8   9
ATOM      9  C   UNL     1      32.057  18.673  34.898  1.00  0.00     0.053 C 
BRANCH   9  10
ATOM     10  C   UNL     1      31.413  18.222  36.173  1.00  0.00     0.041 C 
ATOM     11  O   UNL     1      31.981  18.427  37.278  1.00  0.00    -0.550 OA
ATOM     12  O   UNL     1      30.170  17.604  36.142  1.00  0.00    -0.550 OA
ENDBRANCH   9  10
ENDBRANCH   8   9
ENDBRANCH   7   8
ENDBRANCH   6   7
ENDBRANCH   5   6
ENDBRANCH   4   5
ENDBRANCH   3   4
ENDBRANCH   1   3
BRANCH   2  13
ATOM     13  C   UNL     1      34.577  26.422  32.351  1.00  0.00     0.027 C 
BRANCH  13  14
ATOM     14  C   UNL     1      35.010  27.188  33.611  1.00  0.00     0.004 C 
BRANCH  14  15
ATOM     15  C   UNL     1      36.203  26.528  34.321  1.00  0.00     0.000 C 
BRANCH  15  16
ATOM     16  C   UNL     1      36.959  25.542  33.414  1.00  0.00     0.000 C 
BRANCH  16  17
ATOM     17  C   UNL     1      36.976  24.107  33.975  1.00  0.00    -0.000 C 
BRANCH  17  18
ATOM     18  C   UNL     1      36.171  23.083  33.154  1.00  0.00    -0.000 C 
BRANCH  18  19
ATOM     19  C   UNL     1      35.620  21.932  34.008  1.00  0.00    -0.003 C 
ATOM     20  C   UNL     1      34.812  22.461  35.190  1.00  0.00     0.004 C 
ENDBRANCH  18  19
ENDBRANCH  17  18
ENDBRANCH  16  17
ENDBRANCH  15  16
ENDBRANCH  14  15
ENDBRANCH  13  14
ENDBRANCH   2  13
TORSDOF 15
ENDMDL
MODEL 3
REMARK VINA RESULT:    -3.982      1.701      3.624
REMARK INTER + INTRA:         -10.113
REMARK INTER:                  -8.082
REMARK INTRA:                  -2.031
REMARK UNBOUND:                -2.639
REMARK SMILES CCCCCCCCC=CCCCCCCCC(=O)[O-]
REMARK SMILES IDX 10 1 9 2 11 3 12 4 13 5 14 6 15 7 16 8 17 9 18 10 19 11
REMARK SMILES IDX 20 12 8 13 7 14 6 15 5 16 4 17 3 18 2 19 1 20
REMARK H PARENT
REMARK Flexibility Score: inf
ROOT
ATOM      1  C   UNL     1      32.268  24.455  33.010  1.00  0.00    -0.031 C 
ATOM      2  C   UNL     1      33.236  24.428  32.080  1.00  0.00    -0.031 C 
ENDROOT
BRANCH   1   3
ATOM      3  C   UNL     1      31.383  23.266  33.259  1.00  0.00     0.027 C 
BRANCH   3   4
ATOM      4  C   UNL     1      31.542  22.218  32.147  1.00  0.00     0.004 C 
BRANCH   4   5
ATOM      5  C   UNL     1      31.206  20.796  32.625  1.00  0.00     0.000 C 
BRANCH   5   6
ATOM      6  C   UNL     1      31.391  20.623  34.140  1.00  0.00     0.000 C 
BRANCH   6   7
ATOM      7  C   UNL     1      32.000  19.254  34.466  1.00  0.00     0.000 C 
BRANCH   7   8
ATOM      8  C   UNL     1      31.292  18.609  35.667  1.00  0.00     0.006 C 
BRANCH   8   9
ATOM      9  C   UNL     1      31.648  17.124  35.822  1.00  0.00     0.053 C 
BRANCH   9  10
ATOM     10  C   UNL     1      30.509  16.336  36.393  1.00  0.00     0.041 C 
ATOM     11  O   UNL     1      30.192  16.465  37.605  1.00  0.00    -0.550 OA
ATOM     12  O   UNL     1      29.779  15.481  35.577  1.00  0.00    -0.550 OA
ENDBRANCH   9  10
ENDBRANCH   8   9
ENDBRANCH   7   8
ENDBRANCH   6   7
ENDBRANCH   5   6
ENDBRANCH   4   5
ENDBRANCH   3   4
ENDBRANCH   1   3
BRANCH   2  13
ATOM     13  C   UNL     1      34.138  25.608  31.847  1.00  0.00     0.027 C 
BRANCH  13  14
ATOM     14  C   UNL     1      33.858  26.727  32.862  1.00  0.00     0.004 C 
BRANCH  14  15
ATOM     15  C   UNL     1      35.145  27.301  33.476  1.00  0.00     0.000 C 
BRANCH  15  16
ATOM     16  C   UNL     1      36.289  26.273  33.520  1.00  0.00     0.000 C 
BRANCH  16  17
ATOM     17  C   UNL     1      36.211  25.345  34.746  1.00  0.00    -0.000 C 
BRANCH  17  18
ATOM     18  C   UNL     1      36.274  23.841  34.423  1.00  0.00    -0.000 C 
BRANCH  18  19
ATOM     19  C   UNL     1      35.109  23.049  35.034  1.00  0.00    -0.003 C 
ATOM     20  C   UNL     1      34.859  21.756  34.264  1.00  0.00     0.004 C 
ENDBRANCH  18  19
ENDBRANCH  17  18
ENDBRANCH  16  17
ENDBRANCH  15  16
ENDBRANCH  14  15
ENDBRANCH  13  14
ENDBRANCH   2  13
TORSDOF 15
ENDMDL
MODEL 4
REMARK VINA RESULT:    -3.904      1.202      3.024
REMARK INTER + INTRA:          -9.967
REMARK INTER:                  -7.420
REMARK INTRA:                  -2.547
REMARK UNBOUND:                -2.639
REMARK SMILES CCCCCCCCC=CCCCCCCCC(=O)[O-]
REMARK SMILES IDX 10 1 9 2 11 3 12 4 13 5 14 6 15 7 16 8 17 9 18 10 19 11
REMARK SMILES IDX 20 12 8 13 7 14 6 15 5 16 4 17 3 18 2 19 1 20
REMARK H PARENT
REMARK Flexibility Score: inf
ROOT
ATOM      1  C   UNL     1      32.323  23.485  33.653  1.00  0.00    -0.031 C 
ATOM      2  C   UNL     1      33.556  22.954  33.649  1.00  0.00    -0.031 C 
ENDROOT
BRANCH   1   3
ATOM      3  C   UNL     1      31.398  23.332  32.478  1.00  0.00     0.027 C 
BRANCH   3   4
ATOM      4  C   UNL     1      32.073  22.549  31.342  1.00  0.00     0.004 C 
BRANCH   4   5
ATOM      5  C   UNL     1      31.427  21.174  31.108  1.00  0.00     0.000 C 
BRANCH   5   6
ATOM      6  C   UNL     1      32.182  20.038  31.815  1.00  0.00     0.000 C 
BRANCH   6   7
ATOM      7  C   UNL     1      31.242  19.236  32.723  1.00  0.00     0.000 C 
BRANCH   7   8
ATOM      8  C   UNL     1      31.094  19.911  34.095  1.00  0.00     0.006 C 
BRANCH   8   9
ATOM      9  C   UNL     1      32.154  19.431  35.096  1.00  0.00     0.053 C 
BRANCH   9  10
ATOM     10  C   UNL     1      31.557  18.575  36.171  1.00  0.00     0.041 C 
ATOM     11  O   UNL     1      32.143  18.445  37.278  1.00  0.00    -0.550 OA
ATOM     12  O   UNL     1      30.337  17.944  35.959  1.00  0.00    -0.550 OA
ENDBRANCH   9  10
ENDBRANCH   8   9
ENDBRANCH   7   8
ENDBRANCH   6   7
ENDBRANCH   5   6
ENDBRANCH   4   5
ENDBRANCH   3   4
ENDBRANCH   1   3
BRANCH   2  13
ATOM     13  C   UNL     1      34.473  23.085  34.833  1.00  0.00     0.027 C 
BRANCH  13  14
ATOM     14  C   UNL     1      35.904  22.655  34.474  1.00  0.00     0.004 C 
BRANCH  14  15
ATOM     15  C   UNL     1      36.669  23.741  33.702  1.00  0.00     0.000 C 
BRANCH  15  16
ATOM     16  C   UNL     1      36.589  25.118  34.382  1.00  0.00     0.000 C 
BRANCH  16  17
ATOM     17  C   UNL     1      36.312  26.261  33.388  1.00  0.00    -0.000 C 
BRANCH  17  18
ATOM     18  C   UNL     1      34.990  27.014  33.618  1.00  0.00    -0.000 C 
BRANCH  18  19
ATOM     19  C   UNL     1      33.864  26.545  32.686  1.00  0.00    -0.003 C 
ATOM     20  C   UNL     1      34.425  25.830  31.460  1.00  0.00     0.004 C 
ENDBRANCH  18  19
ENDBRANCH  17  18
ENDBRANCH  16  17
ENDBRANCH  15  16
ENDBRANCH  14  15
ENDBRANCH  13  14
ENDBRANCH   2  13
TORSDOF 15
ENDMDL
MODEL 5
REMARK VINA RESULT:    -3.899      2.317      4.012
REMARK INTER + INTRA:          -9.956
REMARK INTER:                  -8.220
REMARK INTRA:                  -1.736
REMARK UNBOUND:                -2.639
REMARK SMILES CCCCCCCCC=CCCCCCCCC(=O)[O-]
REMARK SMILES IDX 10 1 9 2 11 3 12 4 13 5 14 6 15 7 16 8 17 9 18 10 19 11
REMARK SMILES IDX 20 12 8 13 7 14 6 15 5 16 4 17 3 18 2 19 1 20
REMARK H PARENT
REMARK Flexibility Score: inf
ROOT
ATOM      1  C   UNL     1      34.002  22.176  33.965  1.00  0.00    -0.031 C 
ATOM      2  C   UNL     1      33.621  23.447  34.164  1.00  0.00    -0.031 C 
ENDROOT
BRANCH   1   3
ATOM      3  C   UNL     1      34.692  21.384  35.041  1.00  0.00     0.027 C 
BRANCH   3   4
ATOM      4  C   UNL     1      34.160  19.944  35.093  1.00  0.00     0.004 C 
BRANCH   4   5
ATOM      5  C   UNL     1      32.635  19.871  34.909  1.00  0.00     0.000 C 
BRANCH   5   6
ATOM      6  C   UNL     1      32.015  18.649  35.602  1.00  0.00     0.000 C 
BRANCH   6   7
ATOM      7  C   UNL     1      32.831  18.243  36.835  1.00  0.00     0.000 C 
BRANCH   7   8
ATOM      8  C   UNL     1      32.451  16.831  37.306  1.00  0.00     0.006 C 
BRANCH   8   9
ATOM      9  C   UNL     1      31.246  16.269  36.541  1.00  0.00     0.053 C 
BRANCH   9  10
ATOM     10  C   UNL     1      30.291  15.560  37.451  1.00  0.00     0.041 C 
ATOM     11  O   UNL     1      29.458  14.740  36.983  1.00  0.00    -0.550 OA
ATOM     12  O   UNL     1      30.343  15.782  38.822  1.00  0.00    -0.550 OA
ENDBRANCH   9  10
ENDBRANCH   8   9
ENDBRANCH   7   8
ENDBRANCH   6   7
ENDBRANCH   5   6
ENDBRANCH   4   5
ENDBRANCH   3   4
ENDBRANCH   1   3
BRANCH   2  13
ATOM     13  C   UNL     1      32.908  24.231  33.098  1.00  0.00     0.027 C 
BRANCH  13  14
ATOM     14  C   UNL     1      33.801  24.423  31.862  1.00  0.00     0.004 C 
BRANCH  14  15
ATOM     15  C   UNL     1      34.307  25.867  31.719  1.00  0.00     0.000 C 
BRANCH  15  16
ATOM     16  C   UNL     1      33.871  26.765  32.889  1.00  0.00     0.000 C 
BRANCH  16  17
ATOM     17  C   UNL     1      35.062  27.382  33.646  1.00  0.00    -0.000 C 
BRANCH  17  18
ATOM     18  C   UNL     1      36.377  26.589  33.537  1.00  0.00    -0.000 C 
BRANCH  18  19
ATOM     19  C   UNL     1      36.557  25.571  34.672  1.00  0.00    -0.003 C 
ATOM     20  C   UNL     1      37.217  24.291  34.165  1.00  0.00     0.004 C 
ENDBRANCH  18  19
ENDBRANCH  17  18
ENDBRANCH  16  17
ENDBRANCH  15  16
ENDBRANCH  14  15
ENDBRANCH  13  14
ENDBRANCH   2  13
TORSDOF 15
ENDMDL
MODEL 6
REMARK VINA RESULT:    -3.842      1.392      2.464
REMARK INTER + INTRA:          -9.851
REMARK INTER:                  -7.554
REMARK INTRA:                  -2.297
REMARK UNBOUND:                -2.639
REMARK SMILES CCCCCCCCC=CCCCCCCCC(=O)[O-]
REMARK SMILES IDX 10 1 9 2 11 3 12 4 13 5 14 6 15 7 16 8 17 9 18 10 19 11
REMARK SMILES IDX 20 12 8 13 7 14 6 15 5 16 4 17 3 18 2 19 1 20
REMARK H PARENT
REMARK Flexibility Score: inf
ROOT
ATOM      1  C   UNL     1      36.754  23.183  34.311  1.00  0.00    -0.031 C 
ATOM      2  C   UNL     1      36.060  24.260  34.711  1.00  0.00    -0.031 C 
ENDROOT
BRANCH   1   3
ATOM      3  C   UNL     1      36.133  21.815  34.276  1.00  0.00     0.027 C 
BRANCH   3   4
ATOM      4  C   UNL     1      34.858  21.766  35.129  1.00  0.00     0.004 C 
BRANCH   4   5
ATOM      5  C   UNL     1      34.108  20.431  34.995  1.00  0.00     0.000 C 
BRANCH   5   6
ATOM      6  C   UNL     1      33.106  20.432  33.830  1.00  0.00     0.000 C 
BRANCH   6   7
ATOM      7  C   UNL     1      31.665  20.332  34.345  1.00  0.00     0.000 C 
BRANCH   7   8
ATOM      8  C   UNL     1      31.014  19.012  33.905  1.00  0.00     0.006 C 
BRANCH   8   9
ATOM      9  C   UNL     1      31.580  17.805  34.665  1.00  0.00     0.053 C 
BRANCH   9  10
ATOM     10  C   UNL     1      31.053  17.731  36.065  1.00  0.00     0.041 C 
ATOM     11  O   UNL     1      31.789  18.043  37.037  1.00  0.00    -0.550 OA
ATOM     12  O   UNL     1      29.737  17.348  36.292  1.00  0.00    -0.550 OA
ENDBRANCH   9  10
ENDBRANCH   8   9
ENDBRANCH   7   8
ENDBRANCH   6   7
ENDBRANCH   5   6
ENDBRANCH   4   5
ENDBRANCH   3   4
ENDBRANCH   1   3
BRANCH   2  13
ATOM     13  C   UNL     1      36.671  25.633  34.721  1.00  0.00     0.027 C 
BRANCH  13  14
ATOM     14  C   UNL     1      35.737  26.659  34.061  1.00  0.00     0.004 C 
BRANCH  14  15
ATOM     15  C   UNL     1      35.633  26.468  32.540  1.00  0.00     0.000 C 
BRANCH  15  16
ATOM     16  C   UNL     1      34.183  26.265  32.067  1.00  0.00     0.000 C 
BRANCH  16  17
ATOM     17  C   UNL     1      33.987  24.952  31.288  1.00  0.00    -0.000 C 
BRANCH  17  18
ATOM     18  C   UNL     1      33.618  23.734  32.155  1.00  0.00    -0.000 C 
BRANCH  18  19
ATOM     19  C   UNL     1      32.614  24.073  33.265  1.00  0.00    -0.003 C 
ATOM     20  C   UNL     1      31.190  23.717  32.848  1.00  0.00     0.004 C 
ENDBRANCH  18  19
ENDBRANCH  17  18
ENDBRANCH  16  17
ENDBRANCH  15  16
ENDBRANCH  14  15
ENDBRANCH  13  14
ENDBRANCH   2  13
TORSDOF 15
ENDMDL
MODEL 7
REMARK VINA RESULT:    -3.831      2.238      4.660
REMARK INTER + INTRA:          -9.830
REMARK INTER:                  -7.920
REMARK INTRA:                  -1.910
REMARK UNBOUND:                -2.639
REMARK SMILES CCCCCCCCC=CCCCCCCCC(=O)[O-]
REMARK SMILES IDX 10 1 9 2 11 3 12 4 13 5 14 6 15 7 16 8 17 9 18 10 19 11
REMARK SMILES IDX 20 12 8 13 7 14 6 15 5 16 4 17 3 18 2 19 1 20
REMARK H PARENT
REMARK Flexibility Score: inf
ROOT
ATOM      1  C   UNL     1      31.605  22.771  32.782  1.00  0.00    -0.031 C 
ATOM      2  C   UNL     1      32.001  23.958  33.267  1.00  0.00    -0.031 C 
ENDROOT
BRANCH   1   3
ATOM      3  C   UNL     1      30.741  21.841  33.586  1.00  0.00     0.027 C 
BRANCH   3   4
ATOM      4  C   UNL     1      31.328  20.422  33.607  1.00  0.00     0.004 C 
BRANCH   4   5
ATOM      5  C   UNL     1      31.651  19.938  35.030  1.00  0.00     0.000 C 
BRANCH   5   6
ATOM      6  C   UNL     1      31.709  18.406  35.133  1.00  0.00     0.000 C 
BRANCH   6   7
ATOM      7  C   UNL     1      32.899  17.958  35.990  1.00  0.00     0.000 C 
BRANCH   7   8
ATOM      8  C   UNL     1      32.493  17.817  37.465  1.00  0.00     0.006 C 
BRANCH   8   9
ATOM      9  C   UNL     1      32.394  16.350  37.902  1.00  0.00     0.053 C 
BRANCH   9  10
ATOM     10  C   UNL     1      30.979  15.946  38.179  1.00  0.00     0.041 C 
ATOM     11  O   UNL     1      30.068  16.217  37.353  1.00  0.00    -0.550 OA
ATOM     12  O   UNL     1      30.671  15.241  39.336  1.00  0.00    -0.550 OA
ENDBRANCH   9  10
ENDBRANCH   8   9
ENDBRANCH   7   8
ENDBRANCH   6   7
ENDBRANCH   5   6
ENDBRANCH   4   5
ENDBRANCH   3   4
ENDBRANCH   1   3
BRANCH   2  13
ATOM     13  C   UNL     1      32.844  24.900  32.454  1.00  0.00     0.027 C 
BRANCH  13  14
ATOM     14  C   UNL     1      34.341  24.615  32.654  1.00  0.00     0.004 C 
BRANCH  14  15
ATOM     15  C   UNL     1      34.831  24.999  34.059  1.00  0.00     0.000 C 
BRANCH  15  16
ATOM     16  C   UNL     1      36.293  24.590  34.307  1.00  0.00     0.000 C 
BRANCH  16  17
ATOM     17  C   UNL     1      36.425  23.172  34.895  1.00  0.00    -0.000 C 
BRANCH  17  18
ATOM     18  C   UNL     1      35.125  22.591  35.479  1.00  0.00    -0.000 C 
BRANCH  18  19
ATOM     19  C   UNL     1      34.826  21.171  34.978  1.00  0.00    -0.003 C 
ATOM     20  C   UNL     1      34.995  21.075  33.464  1.00  0.00     0.004 C 
ENDBRANCH  18  19
ENDBRANCH  17  18
ENDBRANCH  16  17
ENDBRANCH  15  16
ENDBRANCH  14  15
ENDBRANCH  13  14
ENDBRANCH   2  13
TORSDOF 15
ENDMDL
MODEL 8
REMARK VINA RESULT:    -3.821      1.338      3.167
REMARK INTER + INTRA:          -9.811
REMARK INTER:                  -7.568
REMARK INTRA:                  -2.243
REMARK UNBOUND:                -2.639
REMARK SMILES CCCCCCCCC=CCCCCCCCC(=O)[O-]
REMARK SMILES IDX 10 1 9 2 11 3 12 4 13 5 14 6 15 7 16 8 17 9 18 10 19 11
REMARK SMILES IDX 20 12 8 13 7 14 6 15 5 16 4 17 3 18 2 19 1 20
REMARK H PARENT
REMARK Flexibility Score: inf
ROOT
ATOM      1  C   UNL     1      34.342  26.789  33.012  1.00  0.00    -0.031 C 
ATOM      2  C   UNL     1      35.150  26.127  33.854  1.00  0.00    -0.031 C 
ENDROOT
BRANCH   1   3
ATOM      3  C   UNL     1      33.052  26.191  32.525  1.00  0.00     0.027 C 
BRANCH   3   4
ATOM      4  C   UNL     1      33.167  24.665  32.394  1.00  0.00     0.004 C 
BRANCH   4   5
ATOM      5  C   UNL     1      32.146  23.919  33.269  1.00  0.00     0.000 C 
BRANCH   5   6
ATOM      6  C   UNL     1      31.442  22.781  32.514  1.00  0.00     0.000 C 
BRANCH   6   7
ATOM      7  C   UNL     1      30.607  21.921  33.471  1.00  0.00     0.000 C 
BRANCH   7   8
ATOM      8  C   UNL     1      31.143  20.482  33.527  1.00  0.00     0.006 C 
BRANCH   8   9
ATOM      9  C   UNL     1      31.773  20.150  34.886  1.00  0.00     0.053 C 
BRANCH   9  10
ATOM     10  C   UNL     1      31.285  18.839  35.420  1.00  0.00     0.041 C 
ATOM     11  O   UNL     1      30.770  17.990  34.646  1.00  0.00    -0.550 OA
ATOM     12  O   UNL     1      31.429  18.542  36.770  1.00  0.00    -0.550 OA
ENDBRANCH   9  10
ENDBRANCH   8   9
ENDBRANCH   7   8
ENDBRANCH   6   7
ENDBRANCH   5   6
ENDBRANCH   4   5
ENDBRANCH   3   4
ENDBRANCH   1   3
BRANCH   2  13
ATOM     13  C   UNL     1      36.428  26.734  34.362  1.00  0.00     0.027 C 
BRANCH  13  14
ATOM     14  C   UNL     1      37.600  25.750  34.225  1.00  0.00     0.004 C 
BRANCH  14  15
ATOM     15  C   UNL     1      37.172  24.404  33.618  1.00  0.00     0.000 C 
BRANCH  15  16
ATOM     16  C   UNL     1      37.772  23.201  34.366  1.00  0.00     0.000 C 
BRANCH  16  17
ATOM     17  C   UNL     1      36.733  22.449  35.218  1.00  0.00    -0.000 C 
BRANCH  17  18
ATOM     18  C   UNL     1      35.292  22.506  34.680  1.00  0.00    -0.000 C 
BRANCH  18  19
ATOM     19  C   UNL     1      34.910  21.266  33.860  1.00  0.00    -0.003 C 
ATOM     20  C   UNL     1      35.070  21.523  32.365  1.00  0.00     0.004 C 
ENDBRANCH  18  19
ENDBRANCH  17  18
ENDBRANCH  16  17
ENDBRANCH  15  16
ENDBRANCH  14  15
ENDBRANCH  13  14
ENDBRANCH   2  13
TORSDOF 15
ENDMDL
MODEL 9
REMARK VINA RESULT:    -3.811      2.935      5.198
REMARK INTER + INTRA:          -9.791
REMARK INTER:                  -7.423
REMARK INTRA:                  -2.368
REMARK UNBOUND:                -2.639
REMARK SMILES CCCCCCCCC=CCCCCCCCC(=O)[O-]
REMARK SMILES IDX 10 1 9 2 11 3 12 4 13 5 14 6 15 7 16 8 17 9 18 10 19 11
REMARK SMILES IDX 20 12 8 13 7 14 6 15 5 16 4 17 3 18 2 19 1 20
REMARK H PARENT
REMARK Flexibility Score: inf
ROOT
ATOM      1  C   UNL     1      34.072  19.854  35.148  1.00  0.00    -0.031 C 
ATOM      2  C   UNL     1      34.541  20.922  34.485  1.00  0.00    -0.031 C 
ENDROOT
BRANCH   1   3
ATOM      3  C   UNL     1      34.035  18.490  34.517  1.00  0.00     0.027 C 
BRANCH   3   4
ATOM      4  C   UNL     1      33.168  17.525  35.339  1.00  0.00     0.004 C 
BRANCH   4   5
ATOM      5  C   UNL     1      31.941  18.216  35.958  1.00  0.00     0.000 C 
BRANCH   5   6
ATOM      6  C   UNL     1      30.626  17.803  35.278  1.00  0.00     0.000 C 
BRANCH   6   7
ATOM      7  C   UNL     1      30.758  16.425  34.618  1.00  0.00     0.000 C 
BRANCH   7   8
ATOM      8  C   UNL     1      29.983  15.360  35.407  1.00  0.00     0.006 C 
BRANCH   8   9
ATOM      9  C   UNL     1      30.859  14.661  36.455  1.00  0.00     0.053 C 
BRANCH   9  10
ATOM     10  C   UNL     1      30.271  14.760  37.829  1.00  0.00     0.041 C 
ATOM     11  O   UNL     1      29.579  13.817  38.293  1.00  0.00    -0.550 OA
ATOM     12  O   UNL     1      30.515  15.884  38.608  1.00  0.00    -0.550 OA
ENDBRANCH   9  10
ENDBRANCH   8   9
ENDBRANCH   7   8
ENDBRANCH   6   7
ENDBRANCH   5   6
ENDBRANCH   4   5
ENDBRANCH   3   4
ENDBRANCH   1   3
BRANCH   2  13
ATOM     13  C   UNL     1      34.601  22.282  35.123  1.00  0.00     0.027 C 
BRANCH  13  14
ATOM     14  C   UNL     1      34.508  23.393  34.067  1.00  0.00     0.004 C 
BRANCH  14  15
ATOM     15  C   UNL     1      33.075  23.919  33.890  1.00  0.00     0.000 C 
BRANCH  15  16
ATOM     16  C   UNL     1      32.643  23.974  32.414  1.00  0.00     0.000 C 
BRANCH  16  17
ATOM     17  C   UNL     1      31.630  22.874  32.046  1.00  0.00    -0.000 C 
BRANCH  17  18
ATOM     18  C   UNL     1      30.798  22.341  33.226  1.00  0.00    -0.000 C 
BRANCH  18  19
ATOM     19  C   UNL     1      30.940  20.825  33.421  1.00  0.00    -0.003 C 
ATOM     20  C   UNL     1      31.655  20.181  32.236  1.00  0.00     0.004 C 
ENDBRANCH  18  19
ENDBRANCH  17  18
ENDBRANCH  16  17
ENDBRANCH  15  16
ENDBRANCH  14  15
ENDBRANCH  13  14
ENDBRANCH   2  13
TORSDOF 15
ENDMDL
