MODEL 1
REMARK VINA RESULT:    -6.047      0.000      0.000
REMARK INTER + INTRA:          -6.047
REMARK INTER:                  -6.047
REMARK INTRA:                   0.000
REMARK UNBOUND:                 0.000
REMARK SMILES C[C@@H]1C(=O)CC[C@H]2[C@]1(C)CC[C@@H]1[C@@]2(C)CC[C@@]2(C)[C@@H]3CC(C)(C)CC[C@]3(C)CC[C@@]12C
REMARK SMILES IDX 1 1 2 2 3 3 4 4 5 5 6 6 7 7 8 8 10 9 11 10 12 11 13 12 15 13
REMARK SMILES IDX 16 14 17 15 30 16 29 17 28 18 26 19 19 20 20 21 21 22 24 23
REMARK SMILES IDX 25 24 22 25 23 26 27 27 31 28 18 29 14 30 9 31
REMARK H PARENT
REMARK Flexibility Score: inf
ROOT
ATOM      1  C   UNL     1     114.037 120.290 122.160  1.00  0.00     0.016 C 
ATOM      2  C   UNL     1     115.372 120.295 121.367  1.00  0.00     0.059 C 
ATOM      3  C   UNL     1     115.623 121.655 120.781  1.00  0.00     0.136 C 
ATOM      4  O   UNL     1     114.777 122.537 120.778  1.00  0.00    -0.299 OA
ATOM      5  C   UNL     1     116.945 121.879 120.161  1.00  0.00     0.076 C 
ATOM      6  C   UNL     1     117.127 120.875 119.036  1.00  0.00     0.012 C 
ATOM      7  C   UNL     1     116.896 119.372 119.431  1.00  0.00     0.002 C 
ATOM      8  C   UNL     1     115.550 119.166 120.262  1.00  0.00    -0.020 C 
ATOM      9  C   UNL     1     114.373 119.207 119.264  1.00  0.00     0.008 C 
ATOM     10  C   UNL     1     114.441 118.133 118.182  1.00  0.00     0.005 C 
ATOM     11  C   UNL     1     115.776 118.010 117.373  1.00  0.00     0.002 C 
ATOM     12  C   UNL     1     117.108 118.358 118.184  1.00  0.00    -0.026 C 
ATOM     13  C   UNL     1     118.207 118.908 117.202  1.00  0.00     0.008 C 
ATOM     14  C   UNL     1     118.321 118.204 115.846  1.00  0.00     0.008 C 
ATOM     15  C   UNL     1     116.969 117.954 115.054  1.00  0.00    -0.024 C 
ATOM     16  C   UNL     1     115.702 118.514 115.856  1.00  0.00    -0.024 C 
ATOM     17  C   UNL     1     114.441 118.004 115.084  1.00  0.00     0.008 C 
ATOM     18  C   UNL     1     114.220 116.516 115.174  1.00  0.00     0.007 C 
ATOM     19  C   UNL     1     115.431 115.625 114.746  1.00  0.00    -0.029 C 
ATOM     20  C   UNL     1     116.866 116.351 114.794  1.00  0.00     0.002 C 
ATOM     21  C   UNL     1     117.796 115.935 113.595  1.00  0.00     0.011 C 
ATOM     22  C   UNL     1     117.732 114.455 113.173  1.00  0.00    -0.035 C 
ATOM     23  C   UNL     1     116.253 114.064 112.829  1.00  0.00     0.007 C 
ATOM     24  C   UNL     1     115.177 115.079 113.309  1.00  0.00     0.007 C 
ATOM     25  C   UNL     1     118.358 113.555 114.268  1.00  0.00     0.011 C 
ATOM     26  C   UNL     1     118.598 114.278 111.898  1.00  0.00     0.011 C 
ATOM     27  C   UNL     1     115.366 114.398 115.732  1.00  0.00     0.011 C 
ATOM     28  C   UNL     1     115.545 120.070 115.817  1.00  0.00     0.012 C 
ATOM     29  C   UNL     1     117.113 118.745 113.697  1.00  0.00     0.012 C 
ATOM     30  C   UNL     1     117.727 117.028 118.736  1.00  0.00     0.012 C 
ATOM     31  C   UNL     1     115.586 117.807 121.028  1.00  0.00     0.012 C 
ENDROOT
TORSDOF 0
ENDMDL
MODEL 2
REMARK VINA RESULT:    -6.035      3.470      5.989
REMARK INTER + INTRA:          -6.035
REMARK INTER:                  -6.035
REMARK INTRA:                   0.000
REMARK UNBOUND:                 0.000
REMARK SMILES C[C@@H]1C(=O)CC[C@H]2[C@]1(C)CC[C@@H]1[C@@]2(C)CC[C@@]2(C)[C@@H]3CC(C)(C)CC[C@]3(C)CC[C@@]12C
REMARK SMILES IDX 1 1 2 2 3 3 4 4 5 5 6 6 7 7 8 8 10 9 11 10 12 11 13 12 15 13
REMARK SMILES IDX 16 14 17 15 30 16 29 17 28 18 26 19 19 20 20 21 21 22 24 23
REMARK SMILES IDX 25 24 22 25 23 26 27 27 31 28 18 29 14 30 9 31
REMARK H PARENT
REMARK Flexibility Score: inf
ROOT
ATOM      1  C   UNL     1     118.164 112.049 121.737  1.00  0.00     0.016 C 
ATOM      2  C   UNL     1     118.572 112.105 120.240  1.00  0.00     0.059 C 
ATOM      3  C   UNL     1     120.059 112.283 120.115  1.00  0.00     0.136 C 
ATOM      4  O   UNL     1     120.774 112.548 121.069  1.00  0.00    -0.299 OA
ATOM      5  C   UNL     1     120.631 112.162 118.758  1.00  0.00     0.076 C 
ATOM      6  C   UNL     1     119.986 113.209 117.866  1.00  0.00     0.012 C 
ATOM      7  C   UNL     1     118.415 113.209 117.857  1.00  0.00     0.002 C 
ATOM      8  C   UNL     1     117.802 113.156 119.329  1.00  0.00    -0.020 C 
ATOM      9  C   UNL     1     117.916 114.571 119.936  1.00  0.00     0.008 C 
ATOM     10  C   UNL     1     117.175 115.645 119.144  1.00  0.00     0.005 C 
ATOM     11  C   UNL     1     117.467 115.736 117.608  1.00  0.00     0.002 C 
ATOM     12  C   UNL     1     117.795 114.349 116.885  1.00  0.00    -0.026 C 
ATOM     13  C   UNL     1     118.737 114.597 115.650  1.00  0.00     0.008 C 
ATOM     14  C   UNL     1     118.426 115.829 114.794  1.00  0.00     0.008 C 
ATOM     15  C   UNL     1     118.183 117.194 115.566  1.00  0.00    -0.024 C 
ATOM     16  C   UNL     1     118.321 117.009 117.151  1.00  0.00    -0.024 C 
ATOM     17  C   UNL     1     117.839 118.353 117.788  1.00  0.00     0.008 C 
ATOM     18  C   UNL     1     116.362 118.611 117.642  1.00  0.00     0.007 C 
ATOM     19  C   UNL     1     115.802 118.549 116.185  1.00  0.00    -0.029 C 
ATOM     20  C   UNL     1     116.703 117.717 115.142  1.00  0.00     0.002 C 
ATOM     21  C   UNL     1     116.751 118.383 113.716  1.00  0.00     0.011 C 
ATOM     22  C   UNL     1     115.434 119.010 113.220  1.00  0.00    -0.035 C 
ATOM     23  C   UNL     1     114.924 120.068 114.258  1.00  0.00     0.007 C 
ATOM     24  C   UNL     1     115.608 120.001 115.653  1.00  0.00     0.007 C 
ATOM     25  C   UNL     1     114.392 117.904 112.917  1.00  0.00     0.011 C 
ATOM     26  C   UNL     1     115.722 119.735 111.878  1.00  0.00     0.011 C 
ATOM     27  C   UNL     1     114.371 117.915 116.353  1.00  0.00     0.011 C 
ATOM     28  C   UNL     1     119.794 116.875 117.662  1.00  0.00     0.012 C 
ATOM     29  C   UNL     1     119.305 118.179 115.061  1.00  0.00     0.012 C 
ATOM     30  C   UNL     1     116.478 113.785 116.249  1.00  0.00     0.012 C 
ATOM     31  C   UNL     1     116.315 112.686 119.284  1.00  0.00     0.012 C 
ENDROOT
TORSDOF 0
ENDMDL
MODEL 3
REMARK VINA RESULT:    -6.001      3.634      6.173
REMARK INTER + INTRA:          -6.001
REMARK INTER:                  -6.001
REMARK INTRA:                   0.000
REMARK UNBOUND:                 0.000
REMARK SMILES C[C@@H]1C(=O)CC[C@H]2[C@]1(C)CC[C@@H]1[C@@]2(C)CC[C@@]2(C)[C@@H]3CC(C)(C)CC[C@]3(C)CC[C@@]12C
REMARK SMILES IDX 1 1 2 2 3 3 4 4 5 5 6 6 7 7 8 8 10 9 11 10 12 11 13 12 15 13
REMARK SMILES IDX 16 14 17 15 30 16 29 17 28 18 26 19 19 20 20 21 21 22 24 23
REMARK SMILES IDX 25 24 22 25 23 26 27 27 31 28 18 29 14 30 9 31
REMARK H PARENT
REMARK Flexibility Score: inf
ROOT
ATOM      1  C   UNL     1     119.181 112.740 122.187  1.00  0.00     0.016 C 
ATOM      2  C   UNL     1     117.835 112.783 121.414  1.00  0.00     0.059 C 
ATOM      3  C   UNL     1     117.528 111.432 120.833  1.00  0.00     0.136 C 
ATOM      4  O   UNL     1     118.341 110.520 120.817  1.00  0.00    -0.299 OA
ATOM      5  C   UNL     1     116.189 111.256 120.233  1.00  0.00     0.076 C 
ATOM      6  C   UNL     1     116.026 112.265 119.110  1.00  0.00     0.012 C 
ATOM      7  C   UNL     1     116.316 113.759 119.500  1.00  0.00     0.002 C 
ATOM      8  C   UNL     1     117.681 113.917 120.311  1.00  0.00    -0.020 C 
ATOM      9  C   UNL     1     118.841 113.834 119.296  1.00  0.00     0.008 C 
ATOM     10  C   UNL     1     118.795 114.910 118.214  1.00  0.00     0.005 C 
ATOM     11  C   UNL     1     117.453 115.080 117.425  1.00  0.00     0.002 C 
ATOM     12  C   UNL     1     116.121 114.779 118.256  1.00  0.00    -0.026 C 
ATOM     13  C   UNL     1     114.989 114.269 117.291  1.00  0.00     0.008 C 
ATOM     14  C   UNL     1     114.880 114.977 115.937  1.00  0.00     0.008 C 
ATOM     15  C   UNL     1     116.228 115.179 115.124  1.00  0.00    -0.024 C 
ATOM     16  C   UNL     1     117.486 114.574 115.908  1.00  0.00    -0.024 C 
ATOM     17  C   UNL     1     118.753 115.039 115.117  1.00  0.00     0.008 C 
ATOM     18  C   UNL     1     119.027 116.518 115.202  1.00  0.00     0.007 C 
ATOM     19  C   UNL     1     117.843 117.452 114.792  1.00  0.00    -0.029 C 
ATOM     20  C   UNL     1     116.384 116.776 114.862  1.00  0.00     0.002 C 
ATOM     21  C   UNL     1     115.451 117.226 113.676  1.00  0.00     0.011 C 
ATOM     22  C   UNL     1     115.562 118.702 113.253  1.00  0.00    -0.035 C 
ATOM     23  C   UNL     1     117.049 119.040 112.886  1.00  0.00     0.007 C 
ATOM     24  C   UNL     1     118.095 117.987 113.351  1.00  0.00     0.007 C 
ATOM     25  C   UNL     1     114.984 119.624 114.357  1.00  0.00     0.011 C 
ATOM     26  C   UNL     1     114.683 118.909 111.991  1.00  0.00     0.011 C 
ATOM     27  C   UNL     1     117.966 118.675 115.776  1.00  0.00     0.011 C 
ATOM     28  C   UNL     1     117.587 113.013 115.867  1.00  0.00     0.012 C 
ATOM     29  C   UNL     1     116.035 114.393 113.771  1.00  0.00     0.012 C 
ATOM     30  C   UNL     1     115.559 116.131 118.817  1.00  0.00     0.012 C 
ATOM     31  C   UNL     1     117.705 115.277 121.077  1.00  0.00     0.012 C 
ENDROOT
TORSDOF 0
ENDMDL
MODEL 4
REMARK VINA RESULT:    -5.962      3.221      5.314
REMARK INTER + INTRA:          -5.962
REMARK INTER:                  -5.962
REMARK INTRA:                   0.000
REMARK UNBOUND:                 0.000
REMARK SMILES C[C@@H]1C(=O)CC[C@H]2[C@]1(C)CC[C@@H]1[C@@]2(C)CC[C@@]2(C)[C@@H]3CC(C)(C)CC[C@]3(C)CC[C@@]12C
REMARK SMILES IDX 1 1 2 2 3 3 4 4 5 5 6 6 7 7 8 8 10 9 11 10 12 11 13 12 15 13
REMARK SMILES IDX 16 14 17 15 30 16 29 17 28 18 26 19 19 20 20 21 21 22 24 23
REMARK SMILES IDX 25 24 22 25 23 26 27 27 31 28 18 29 14 30 9 31
REMARK H PARENT
REMARK Flexibility Score: inf
ROOT
ATOM      1  C   UNL     1     119.046 111.292 120.367  1.00  0.00     0.016 C 
ATOM      2  C   UNL     1     119.102 112.842 120.291  1.00  0.00     0.059 C 
ATOM      3  C   UNL     1     118.318 113.444 121.423  1.00  0.00     0.136 C 
ATOM      4  O   UNL     1     117.591 112.782 122.147  1.00  0.00    -0.299 OA
ATOM      5  C   UNL     1     118.432 114.906 121.605  1.00  0.00     0.076 C 
ATOM      6  C   UNL     1     117.964 115.590 120.332  1.00  0.00     0.012 C 
ATOM      7  C   UNL     1     118.654 115.095 119.010  1.00  0.00     0.002 C 
ATOM      8  C   UNL     1     118.689 113.504 118.906  1.00  0.00    -0.020 C 
ATOM      9  C   UNL     1     117.280 113.030 118.489  1.00  0.00     0.008 C 
ATOM     10  C   UNL     1     116.812 113.590 117.148  1.00  0.00     0.005 C 
ATOM     11  C   UNL     1     116.896 115.141 116.948  1.00  0.00     0.002 C 
ATOM     12  C   UNL     1     118.108 115.868 117.694  1.00  0.00    -0.026 C 
ATOM     13  C   UNL     1     117.713 117.350 118.043  1.00  0.00     0.008 C 
ATOM     14  C   UNL     1     116.929 118.115 116.972  1.00  0.00     0.008 C 
ATOM     15  C   UNL     1     115.689 117.367 116.322  1.00  0.00    -0.024 C 
ATOM     16  C   UNL     1     115.490 115.904 116.941  1.00  0.00    -0.024 C 
ATOM     17  C   UNL     1     114.399 115.207 116.064  1.00  0.00     0.008 C 
ATOM     18  C   UNL     1     114.847 114.883 114.662  1.00  0.00     0.007 C 
ATOM     19  C   UNL     1     115.423 116.080 113.840  1.00  0.00    -0.029 C 
ATOM     20  C   UNL     1     115.958 117.318 114.719  1.00  0.00     0.002 C 
ATOM     21  C   UNL     1     115.623 118.712 114.069  1.00  0.00     0.011 C 
ATOM     22  C   UNL     1     115.743 118.789 112.535  1.00  0.00    -0.035 C 
ATOM     23  C   UNL     1     114.839 117.690 111.876  1.00  0.00     0.007 C 
ATOM     24  C   UNL     1     114.334 116.586 112.848  1.00  0.00     0.007 C 
ATOM     25  C   UNL     1     117.229 118.692 112.106  1.00  0.00     0.011 C 
ATOM     26  C   UNL     1     115.235 120.182 112.080  1.00  0.00     0.011 C 
ATOM     27  C   UNL     1     116.575 115.434 112.983  1.00  0.00     0.011 C 
ATOM     28  C   UNL     1     114.866 115.887 118.375  1.00  0.00     0.012 C 
ATOM     29  C   UNL     1     114.428 118.250 116.664  1.00  0.00     0.012 C 
ATOM     30  C   UNL     1     119.301 116.023 116.689  1.00  0.00     0.012 C 
ATOM     31  C   UNL     1     119.762 113.049 117.868  1.00  0.00     0.012 C 
ENDROOT
TORSDOF 0
ENDMDL
MODEL 5
REMARK VINA RESULT:    -5.961      2.814      4.389
REMARK INTER + INTRA:          -5.961
REMARK INTER:                  -5.961
REMARK INTRA:                   0.000
REMARK UNBOUND:                 0.000
REMARK SMILES C[C@@H]1C(=O)CC[C@H]2[C@]1(C)CC[C@@H]1[C@@]2(C)CC[C@@]2(C)[C@@H]3CC(C)(C)CC[C@]3(C)CC[C@@]12C
REMARK SMILES IDX 1 1 2 2 3 3 4 4 5 5 6 6 7 7 8 8 10 9 11 10 12 11 13 12 15 13
REMARK SMILES IDX 16 14 17 15 30 16 29 17 28 18 26 19 19 20 20 21 21 22 24 23
REMARK SMILES IDX 25 24 22 25 23 26 27 27 31 28 18 29 14 30 9 31
REMARK H PARENT
REMARK Flexibility Score: inf
ROOT
ATOM      1  C   UNL     1     112.840 113.822 122.041  1.00  0.00     0.016 C 
ATOM      2  C   UNL     1     112.862 115.180 121.288  1.00  0.00     0.059 C 
ATOM      3  C   UNL     1     111.504 115.479 120.719  1.00  0.00     0.136 C 
ATOM      4  O   UNL     1     110.602 114.656 120.697  1.00  0.00    -0.299 OA
ATOM      5  C   UNL     1     111.308 116.825 120.140  1.00  0.00     0.076 C 
ATOM      6  C   UNL     1     112.309 117.017 119.014  1.00  0.00     0.012 C 
ATOM      7  C   UNL     1     113.808 116.739 119.392  1.00  0.00     0.002 C 
ATOM      8  C   UNL     1     113.988 115.364 120.181  1.00  0.00    -0.020 C 
ATOM      9  C   UNL     1     113.912 114.218 119.149  1.00  0.00     0.008 C 
ATOM     10  C   UNL     1     114.982 114.293 118.062  1.00  0.00     0.005 C 
ATOM     11  C   UNL     1     115.131 115.649 117.292  1.00  0.00     0.002 C 
ATOM     12  C   UNL     1     114.819 116.964 118.145  1.00  0.00    -0.026 C 
ATOM     13  C   UNL     1     114.289 118.104 117.199  1.00  0.00     0.008 C 
ATOM     14  C   UNL     1     114.988 118.242 115.843  1.00  0.00     0.008 C 
ATOM     15  C   UNL     1     115.201 116.909 115.009  1.00  0.00    -0.024 C 
ATOM     16  C   UNL     1     114.617 115.632 115.777  1.00  0.00    -0.024 C 
ATOM     17  C   UNL     1     115.092 114.383 114.965  1.00  0.00     0.008 C 
ATOM     18  C   UNL     1     116.574 114.125 115.037  1.00  0.00     0.007 C 
ATOM     19  C   UNL     1     117.491 115.326 114.640  1.00  0.00    -0.029 C 
ATOM     20  C   UNL     1     116.799 116.776 114.736  1.00  0.00     0.002 C 
ATOM     21  C   UNL     1     117.230 117.732 113.561  1.00  0.00     0.011 C 
ATOM     22  C   UNL     1     118.706 117.645 113.128  1.00  0.00    -0.035 C 
ATOM     23  C   UNL     1     119.059 116.169 112.737  1.00  0.00     0.007 C 
ATOM     24  C   UNL     1     118.022 115.103 113.193  1.00  0.00     0.007 C 
ATOM     25  C   UNL     1     119.627 118.218 114.235  1.00  0.00     0.011 C 
ATOM     26  C   UNL     1     118.894 118.545 111.878  1.00  0.00     0.011 C 
ATOM     27  C   UNL     1     118.722 115.204 115.615  1.00  0.00     0.011 C 
ATOM     28  C   UNL     1     113.057 115.513 115.744  1.00  0.00     0.012 C 
ATOM     29  C   UNL     1     114.405 117.112 113.663  1.00  0.00     0.012 C 
ATOM     30  C   UNL     1     116.167 117.535 118.705  1.00  0.00     0.012 C 
ATOM     31  C   UNL     1     115.352 115.345 120.939  1.00  0.00     0.012 C 
ENDROOT
TORSDOF 0
ENDMDL
MODEL 6
REMARK VINA RESULT:    -5.944      1.428      3.236
REMARK INTER + INTRA:          -5.944
REMARK INTER:                  -5.944
REMARK INTRA:                   0.000
REMARK UNBOUND:                 0.000
REMARK SMILES C[C@@H]1C(=O)CC[C@H]2[C@]1(C)CC[C@@H]1[C@@]2(C)CC[C@@]2(C)[C@@H]3CC(C)(C)CC[C@]3(C)CC[C@@]12C
REMARK SMILES IDX 1 1 2 2 3 3 4 4 5 5 6 6 7 7 8 8 10 9 11 10 12 11 13 12 15 13
REMARK SMILES IDX 16 14 17 15 30 16 29 17 28 18 26 19 19 20 20 21 21 22 24 23
REMARK SMILES IDX 25 24 22 25 23 26 27 27 31 28 18 29 14 30 9 31
REMARK H PARENT
REMARK Flexibility Score: inf
ROOT
ATOM      1  C   UNL     1     114.349 121.894 120.354  1.00  0.00     0.016 C 
ATOM      2  C   UNL     1     114.285 120.343 120.301  1.00  0.00     0.059 C 
ATOM      3  C   UNL     1     115.087 119.752 121.426  1.00  0.00     0.136 C 
ATOM      4  O   UNL     1     115.829 120.421 122.128  1.00  0.00    -0.299 OA
ATOM      5  C   UNL     1     114.970 118.293 121.630  1.00  0.00     0.076 C 
ATOM      6  C   UNL     1     115.413 117.590 120.358  1.00  0.00     0.012 C 
ATOM      7  C   UNL     1     114.702 118.071 119.042  1.00  0.00     0.002 C 
ATOM      8  C   UNL     1     114.671 119.661 118.917  1.00  0.00    -0.020 C 
ATOM      9  C   UNL     1     116.074 120.123 118.469  1.00  0.00     0.008 C 
ATOM     10  C   UNL     1     116.517 119.543 117.127  1.00  0.00     0.005 C 
ATOM     11  C   UNL     1     116.422 117.990 116.949  1.00  0.00     0.002 C 
ATOM     12  C   UNL     1     115.220 117.278 117.726  1.00  0.00    -0.026 C 
ATOM     13  C   UNL     1     115.616 115.799 118.089  1.00  0.00     0.008 C 
ATOM     14  C   UNL     1     116.377 115.017 117.014  1.00  0.00     0.008 C 
ATOM     15  C   UNL     1     117.608 115.750 116.332  1.00  0.00    -0.024 C 
ATOM     16  C   UNL     1     117.824 117.220 116.928  1.00  0.00    -0.024 C 
ATOM     17  C   UNL     1     118.902 117.901 116.022  1.00  0.00     0.008 C 
ATOM     18  C   UNL     1     118.431 118.208 114.625  1.00  0.00     0.007 C 
ATOM     19  C   UNL     1     117.836 117.002 113.829  1.00  0.00    -0.029 C 
ATOM     20  C   UNL     1     117.311 115.779 114.733  1.00  0.00     0.002 C 
ATOM     21  C   UNL     1     117.629 114.375 114.097  1.00  0.00     0.011 C 
ATOM     22  C   UNL     1     117.482 114.279 112.566  1.00  0.00    -0.035 C 
ATOM     23  C   UNL     1     118.378 115.365 111.877  1.00  0.00     0.007 C 
ATOM     24  C   UNL     1     118.905 116.479 112.824  1.00  0.00     0.007 C 
ATOM     25  C   UNL     1     115.989 114.376 112.162  1.00  0.00     0.011 C 
ATOM     26  C   UNL     1     117.976 112.877 112.122  1.00  0.00     0.011 C 
ATOM     27  C   UNL     1     116.671 117.643 112.983  1.00  0.00     0.011 C 
ATOM     28  C   UNL     1     118.474 117.254 118.351  1.00  0.00     0.012 C 
ATOM     29  C   UNL     1     118.872 114.867 116.663  1.00  0.00     0.012 C 
ATOM     30  C   UNL     1     114.009 117.115 116.745  1.00  0.00     0.012 C 
ATOM     31  C   UNL     1     113.581 120.106 117.893  1.00  0.00     0.012 C 
ENDROOT
TORSDOF 0
ENDMDL
MODEL 7
REMARK VINA RESULT:    -5.930      2.580      4.556
REMARK INTER + INTRA:          -5.930
REMARK INTER:                  -5.930
REMARK INTRA:                   0.000
REMARK UNBOUND:                 0.000
REMARK SMILES C[C@@H]1C(=O)CC[C@H]2[C@]1(C)CC[C@@H]1[C@@]2(C)CC[C@@]2(C)[C@@H]3CC(C)(C)CC[C@]3(C)CC[C@@]12C
REMARK SMILES IDX 1 1 2 2 3 3 4 4 5 5 6 6 7 7 8 8 10 9 11 10 12 11 13 12 15 13
REMARK SMILES IDX 16 14 17 15 30 16 29 17 28 18 26 19 19 20 20 21 21 22 24 23
REMARK SMILES IDX 25 24 22 25 23 26 27 27 31 28 18 29 14 30 9 31
REMARK H PARENT
REMARK Flexibility Score: inf
ROOT
ATOM      1  C   UNL     1     122.012 118.704 120.315  1.00  0.00     0.016 C 
ATOM      2  C   UNL     1     120.465 118.825 120.249  1.00  0.00     0.059 C 
ATOM      3  C   UNL     1     119.837 118.070 121.387  1.00  0.00     0.136 C 
ATOM      4  O   UNL     1     120.472 117.318 122.109  1.00  0.00    -0.299 OA
ATOM      5  C   UNL     1     118.383 118.247 121.578  1.00  0.00     0.076 C 
ATOM      6  C   UNL     1     117.671 117.805 120.311  1.00  0.00     0.012 C 
ATOM      7  C   UNL     1     118.186 118.469 118.984  1.00  0.00     0.002 C 
ATOM      8  C   UNL     1     119.777 118.437 118.870  1.00  0.00    -0.020 C 
ATOM      9  C   UNL     1     120.188 117.008 118.453  1.00  0.00     0.008 C 
ATOM     10  C   UNL     1     119.600 116.560 117.117  1.00  0.00     0.005 C 
ATOM     11  C   UNL     1     118.053 116.710 116.926  1.00  0.00     0.002 C 
ATOM     12  C   UNL     1     117.383 117.954 117.674  1.00  0.00    -0.026 C 
ATOM     13  C   UNL     1     115.888 117.622 118.034  1.00  0.00     0.008 C 
ATOM     14  C   UNL     1     115.083 116.869 116.970  1.00  0.00     0.008 C 
ATOM     15  C   UNL     1     115.773 115.597 116.318  1.00  0.00    -0.024 C 
ATOM     16  C   UNL     1     117.230 115.338 116.929  1.00  0.00    -0.024 C 
ATOM     17  C   UNL     1     117.874 114.216 116.050  1.00  0.00     0.008 C 
ATOM     18  C   UNL     1     118.208 114.646 114.645  1.00  0.00     0.007 C 
ATOM     19  C   UNL     1     117.031 115.270 113.829  1.00  0.00    -0.029 C 
ATOM     20  C   UNL     1     115.823 115.860 114.714  1.00  0.00     0.002 C 
ATOM     21  C   UNL     1     114.411 115.582 114.074  1.00  0.00     0.011 C 
ATOM     22  C   UNL     1     114.331 115.701 112.541  1.00  0.00    -0.035 C 
ATOM     23  C   UNL     1     115.386 114.750 111.877  1.00  0.00     0.007 C 
ATOM     24  C   UNL     1     116.474 114.201 112.843  1.00  0.00     0.007 C 
ATOM     25  C   UNL     1     114.488 117.181 112.107  1.00  0.00     0.011 C 
ATOM     26  C   UNL     1     112.913 115.252 112.097  1.00  0.00     0.011 C 
ATOM     27  C   UNL     1     117.720 116.392 112.964  1.00  0.00     0.011 C 
ATOM     28  C   UNL     1     117.231 114.717 118.365  1.00  0.00     0.012 C 
ATOM     29  C   UNL     1     114.840 114.375 116.670  1.00  0.00     0.012 C 
ATOM     30  C   UNL     1     117.272 119.150 116.666  1.00  0.00     0.012 C 
ATOM     31  C   UNL     1     120.270 119.487 117.826  1.00  0.00     0.012 C 
ENDROOT
TORSDOF 0
ENDMDL
MODEL 8
REMARK VINA RESULT:    -5.904      2.773      4.316
REMARK INTER + INTRA:          -5.904
REMARK INTER:                  -5.904
REMARK INTRA:                   0.000
REMARK UNBOUND:                 0.000
REMARK SMILES C[C@@H]1C(=O)CC[C@H]2[C@]1(C)CC[C@@H]1[C@@]2(C)CC[C@@]2(C)[C@@H]3CC(C)(C)CC[C@]3(C)CC[C@@]12C
REMARK SMILES IDX 1 1 2 2 3 3 4 4 5 5 6 6 7 7 8 8 10 9 11 10 12 11 13 12 15 13
REMARK SMILES IDX 16 14 17 15 30 16 29 17 28 18 26 19 19 20 20 21 21 22 24 23
REMARK SMILES IDX 25 24 22 25 23 26 27 27 31 28 18 29 14 30 9 31
REMARK H PARENT
REMARK Flexibility Score: inf
ROOT
ATOM      1  C   UNL     1     111.328 114.127 120.454  1.00  0.00     0.016 C 
ATOM      2  C   UNL     1     112.877 114.083 120.356  1.00  0.00     0.059 C 
ATOM      3  C   UNL     1     113.490 114.870 121.479  1.00  0.00     0.136 C 
ATOM      4  O   UNL     1     112.834 115.591 122.214  1.00  0.00    -0.299 OA
ATOM      5  C   UNL     1     114.956 114.767 121.640  1.00  0.00     0.076 C 
ATOM      6  C   UNL     1     115.617 115.242 120.357  1.00  0.00     0.012 C 
ATOM      7  C   UNL     1     115.108 114.550 119.042  1.00  0.00     0.002 C 
ATOM      8  C   UNL     1     113.516 114.503 118.961  1.00  0.00    -0.020 C 
ATOM      9  C   UNL     1     113.025 115.909 118.553  1.00  0.00     0.008 C 
ATOM     10  C   UNL     1     113.562 116.383 117.205  1.00  0.00     0.005 C 
ATOM     11  C   UNL     1     115.110 116.311 116.981  1.00  0.00     0.002 C 
ATOM     12  C   UNL     1     115.857 115.103 117.715  1.00  0.00    -0.026 C 
ATOM     13  C   UNL     1     117.341 115.509 118.043  1.00  0.00     0.008 C 
ATOM     14  C   UNL     1     118.084 116.300 116.962  1.00  0.00     0.008 C 
ATOM     15  C   UNL     1     117.318 117.535 116.324  1.00  0.00    -0.024 C 
ATOM     16  C   UNL     1     115.863 117.722 116.965  1.00  0.00    -0.024 C 
ATOM     17  C   UNL     1     115.145 118.809 116.100  1.00  0.00     0.008 C 
ATOM     18  C   UNL     1     114.803 118.361 114.703  1.00  0.00     0.007 C 
ATOM     19  C   UNL     1     115.993 117.794 113.862  1.00  0.00    -0.029 C 
ATOM     20  C   UNL     1     117.247 117.267 114.722  1.00  0.00     0.002 C 
ATOM     21  C   UNL     1     118.629 117.614 114.052  1.00  0.00     0.011 C 
ATOM     22  C   UNL     1     118.684 117.497 112.517  1.00  0.00    -0.035 C 
ATOM     23  C   UNL     1     117.569 118.393 111.876  1.00  0.00     0.007 C 
ATOM     24  C   UNL     1     116.475 118.889 112.864  1.00  0.00     0.007 C 
ATOM     25  C   UNL     1     118.591 116.011 112.087  1.00  0.00     0.011 C 
ATOM     26  C   UNL     1     120.067 118.016 112.043  1.00  0.00     0.011 C 
ATOM     27  C   UNL     1     115.342 116.639 113.013  1.00  0.00     0.011 C 
ATOM     28  C   UNL     1     115.862 118.344 118.401  1.00  0.00     0.012 C 
ATOM     29  C   UNL     1     118.196 118.802 116.655  1.00  0.00     0.012 C 
ATOM     30  C   UNL     1     116.006 113.912 116.706  1.00  0.00     0.012 C 
ATOM     31  C   UNL     1     113.053 113.428 117.929  1.00  0.00     0.012 C 
ENDROOT
TORSDOF 0
ENDMDL
MODEL 9
REMARK VINA RESULT:    -5.872      2.614      7.364
REMARK INTER + INTRA:          -5.872
REMARK INTER:                  -5.872
REMARK INTRA:                   0.000
REMARK UNBOUND:                 0.000
REMARK SMILES C[C@@H]1C(=O)CC[C@H]2[C@]1(C)CC[C@@H]1[C@@]2(C)CC[C@@]2(C)[C@@H]3CC(C)(C)CC[C@]3(C)CC[C@@]12C
REMARK SMILES IDX 1 1 2 2 3 3 4 4 5 5 6 6 7 7 8 8 10 9 11 10 12 11 13 12 15 13
REMARK SMILES IDX 16 14 17 15 30 16 29 17 28 18 26 19 19 20 20 21 21 22 24 23
REMARK SMILES IDX 25 24 22 25 23 26 27 27 31 28 18 29 14 30 9 31
REMARK H PARENT
REMARK Flexibility Score: inf
ROOT
ATOM      1  C   UNL     1     118.848 114.547 111.963  1.00  0.00     0.016 C 
ATOM      2  C   UNL     1     117.928 115.786 112.135  1.00  0.00     0.059 C 
ATOM      3  C   UNL     1     118.721 117.049 111.952  1.00  0.00     0.136 C 
ATOM      4  O   UNL     1     119.941 117.058 111.886  1.00  0.00    -0.299 OA
ATOM      5  C   UNL     1     117.955 118.311 111.892  1.00  0.00     0.076 C 
ATOM      6  C   UNL     1     117.175 118.465 113.187  1.00  0.00     0.012 C 
ATOM      7  C   UNL     1     116.278 117.238 113.581  1.00  0.00     0.002 C 
ATOM      8  C   UNL     1     117.063 115.854 113.467  1.00  0.00    -0.020 C 
ATOM      9  C   UNL     1     117.979 115.732 114.704  1.00  0.00     0.008 C 
ATOM     10  C   UNL     1     117.230 115.753 116.034  1.00  0.00     0.005 C 
ATOM     11  C   UNL     1     116.223 116.928 116.273  1.00  0.00     0.002 C 
ATOM     12  C   UNL     1     115.474 117.472 114.969  1.00  0.00    -0.026 C 
ATOM     13  C   UNL     1     115.112 118.991 115.152  1.00  0.00     0.008 C 
ATOM     14  C   UNL     1     114.599 119.406 116.535  1.00  0.00     0.008 C 
ATOM     15  C   UNL     1     115.429 118.897 117.788  1.00  0.00    -0.024 C 
ATOM     16  C   UNL     1     116.692 118.019 117.344  1.00  0.00    -0.024 C 
ATOM     17  C   UNL     1     117.274 117.403 118.658  1.00  0.00     0.008 C 
ATOM     18  C   UNL     1     116.393 116.361 119.296  1.00  0.00     0.007 C 
ATOM     19  C   UNL     1     114.924 116.803 119.590  1.00  0.00    -0.029 C 
ATOM     20  C   UNL     1     114.399 118.053 118.722  1.00  0.00     0.002 C 
ATOM     21  C   UNL     1     113.494 119.034 119.557  1.00  0.00     0.011 C 
ATOM     22  C   UNL     1     112.528 118.373 120.559  1.00  0.00    -0.035 C 
ATOM     23  C   UNL     1     113.332 117.457 121.546  1.00  0.00     0.007 C 
ATOM     24  C   UNL     1     114.788 117.136 121.106  1.00  0.00     0.007 C 
ATOM     25  C   UNL     1     111.405 117.616 119.806  1.00  0.00     0.011 C 
ATOM     26  C   UNL     1     111.840 119.497 121.378  1.00  0.00     0.011 C 
ATOM     27  C   UNL     1     114.073 115.506 119.317  1.00  0.00     0.011 C 
ATOM     28  C   UNL     1     117.889 118.849 116.772  1.00  0.00     0.012 C 
ATOM     29  C   UNL     1     115.935 120.196 118.525  1.00  0.00     0.012 C 
ATOM     30  C   UNL     1     114.081 116.763 114.853  1.00  0.00     0.012 C 
ATOM     31  C   UNL     1     116.058 114.662 113.396  1.00  0.00     0.012 C 
ENDROOT
TORSDOF 0
ENDMDL
