MODEL 1
REMARK VINA RESULT:    -4.479      0.000      0.000
REMARK INTER + INTRA:          -4.479
REMARK INTER:                  -4.479
REMARK INTRA:                   0.000
REMARK UNBOUND:                 0.000
REMARK SMILES c1ccc2ccccc2c1
REMARK SMILES IDX 2 1 1 2 10 3 9 4 8 5 7 6 6 7 5 8 4 9 3 10
REMARK H PARENT
REMARK Flexibility Score: inf
ROOT
ATOM      1  C   UNL     1      59.577 -10.260 134.293  1.00  0.00     0.001 A 
ATOM      2  C   UNL     1      58.553  -9.670 135.038  1.00  0.00     0.001 A 
ATOM      3  C   UNL     1      57.223 -10.048 134.829  1.00  0.00     0.009 A 
ATOM      4  C   UNL     1      56.911 -11.023 133.869  1.00  0.00    -0.018 A 
ATOM      5  C   UNL     1      55.580 -11.413 133.650  1.00  0.00     0.009 A 
ATOM      6  C   UNL     1      55.284 -12.386 132.691  1.00  0.00     0.001 A 
ATOM      7  C   UNL     1      56.308 -12.976 131.947  1.00  0.00     0.001 A 
ATOM      8  C   UNL     1      57.638 -12.598 132.155  1.00  0.00     0.009 A 
ATOM      9  C   UNL     1      57.950 -11.623 133.115  1.00  0.00    -0.018 A 
ATOM     10  C   UNL     1      59.281 -11.233 133.335  1.00  0.00     0.009 A 
ENDROOT
TORSDOF 0
ENDMDL
MODEL 2
REMARK VINA RESULT:    -4.470      0.070      4.017
REMARK INTER + INTRA:          -4.470
REMARK INTER:                  -4.470
REMARK INTRA:                   0.000
REMARK UNBOUND:                 0.000
REMARK SMILES c1ccc2ccccc2c1
REMARK SMILES IDX 2 1 1 2 10 3 9 4 8 5 7 6 6 7 5 8 4 9 3 10
REMARK H PARENT
REMARK Flexibility Score: inf
ROOT
ATOM      1  C   UNL     1      55.233 -12.362 132.778  1.00  0.00     0.001 A 
ATOM      2  C   UNL     1      56.227 -12.973 132.009  1.00  0.00     0.001 A 
ATOM      3  C   UNL     1      57.567 -12.613 132.175  1.00  0.00     0.009 A 
ATOM      4  C   UNL     1      57.922 -11.635 133.118  1.00  0.00    -0.018 A 
ATOM      5  C   UNL     1      59.264 -11.265 133.296  1.00  0.00     0.009 A 
ATOM      6  C   UNL     1      59.603 -10.290 134.238  1.00  0.00     0.001 A 
ATOM      7  C   UNL     1      58.610  -9.679 135.008  1.00  0.00     0.001 A 
ATOM      8  C   UNL     1      57.269 -10.039 134.842  1.00  0.00     0.009 A 
ATOM      9  C   UNL     1      56.915 -11.017 133.899  1.00  0.00    -0.018 A 
ATOM     10  C   UNL     1      55.572 -11.387 133.721  1.00  0.00     0.009 A 
ENDROOT
TORSDOF 0
ENDMDL
MODEL 3
REMARK VINA RESULT:    -4.459      0.039      2.082
REMARK INTER + INTRA:          -4.459
REMARK INTER:                  -4.459
REMARK INTRA:                   0.000
REMARK UNBOUND:                 0.000
REMARK SMILES c1ccc2ccccc2c1
REMARK SMILES IDX 2 1 1 2 10 3 9 4 8 5 7 6 6 7 5 8 4 9 3 10
REMARK H PARENT
REMARK Flexibility Score: inf
ROOT
ATOM      1  C   UNL     1      58.569  -9.644 135.054  1.00  0.00     0.001 A 
ATOM      2  C   UNL     1      59.592 -10.251 134.321  1.00  0.00     0.001 A 
ATOM      3  C   UNL     1      59.291 -11.227 133.367  1.00  0.00     0.009 A 
ATOM      4  C   UNL     1      57.957 -11.603 133.141  1.00  0.00    -0.018 A 
ATOM      5  C   UNL     1      57.641 -12.581 132.185  1.00  0.00     0.009 A 
ATOM      6  C   UNL     1      56.308 -12.946 131.970  1.00  0.00     0.001 A 
ATOM      7  C   UNL     1      55.285 -12.339 132.704  1.00  0.00     0.001 A 
ATOM      8  C   UNL     1      55.586 -11.363 133.658  1.00  0.00     0.009 A 
ATOM      9  C   UNL     1      56.920 -10.987 133.884  1.00  0.00    -0.018 A 
ATOM     10  C   UNL     1      57.237 -10.009 134.839  1.00  0.00     0.009 A 
ENDROOT
TORSDOF 0
ENDMDL
MODEL 4
REMARK VINA RESULT:    -4.437      0.102      3.436
REMARK INTER + INTRA:          -4.437
REMARK INTER:                  -4.437
REMARK INTRA:                   0.000
REMARK UNBOUND:                 0.000
REMARK SMILES c1ccc2ccccc2c1
REMARK SMILES IDX 2 1 1 2 10 3 9 4 8 5 7 6 6 7 5 8 4 9 3 10
REMARK H PARENT
REMARK Flexibility Score: inf
ROOT
ATOM      1  C   UNL     1      56.256 -13.008 132.036  1.00  0.00     0.001 A 
ATOM      2  C   UNL     1      55.245 -12.370 132.759  1.00  0.00     0.001 A 
ATOM      3  C   UNL     1      55.561 -11.348 133.660  1.00  0.00     0.009 A 
ATOM      4  C   UNL     1      56.897 -10.958 133.841  1.00  0.00    -0.018 A 
ATOM      5  C   UNL     1      57.228  -9.933 134.741  1.00  0.00     0.009 A 
ATOM      6  C   UNL     1      58.563  -9.554 134.911  1.00  0.00     0.001 A 
ATOM      7  C   UNL     1      59.574 -10.192 134.187  1.00  0.00     0.001 A 
ATOM      8  C   UNL     1      59.258 -11.213 133.287  1.00  0.00     0.009 A 
ATOM      9  C   UNL     1      57.922 -11.604 133.106  1.00  0.00    -0.018 A 
ATOM     10  C   UNL     1      57.591 -12.629 132.206  1.00  0.00     0.009 A 
ENDROOT
TORSDOF 0
ENDMDL
MODEL 5
REMARK VINA RESULT:    -4.436      7.987     10.577
REMARK INTER + INTRA:          -4.436
REMARK INTER:                  -4.436
REMARK INTRA:                   0.000
REMARK UNBOUND:                 0.000
REMARK SMILES c1ccc2ccccc2c1
REMARK SMILES IDX 2 1 1 2 10 3 9 4 8 5 7 6 6 7 5 8 4 9 3 10
REMARK H PARENT
REMARK Flexibility Score: inf
ROOT
ATOM      1  C   UNL     1      48.242 -19.272 134.517  1.00  0.00     0.001 A 
ATOM      2  C   UNL     1      47.282 -18.602 133.755  1.00  0.00     0.001 A 
ATOM      3  C   UNL     1      47.653 -17.530 132.939  1.00  0.00     0.009 A 
ATOM      4  C   UNL     1      48.995 -17.121 132.881  1.00  0.00    -0.018 A 
ATOM      5  C   UNL     1      49.382 -16.046 132.065  1.00  0.00     0.009 A 
ATOM      6  C   UNL     1      50.721 -15.650 132.017  1.00  0.00     0.001 A 
ATOM      7  C   UNL     1      51.682 -16.320 132.779  1.00  0.00     0.001 A 
ATOM      8  C   UNL     1      51.311 -17.392 133.595  1.00  0.00     0.009 A 
ATOM      9  C   UNL     1      49.969 -17.801 133.652  1.00  0.00    -0.018 A 
ATOM     10  C   UNL     1      49.582 -18.876 134.469  1.00  0.00     0.009 A 
ENDROOT
TORSDOF 0
ENDMDL
MODEL 6
REMARK VINA RESULT:    -4.432      7.950     10.631
REMARK INTER + INTRA:          -4.432
REMARK INTER:                  -4.432
REMARK INTRA:                   0.000
REMARK UNBOUND:                 0.000
REMARK SMILES c1ccc2ccccc2c1
REMARK SMILES IDX 2 1 1 2 10 3 9 4 8 5 7 6 6 7 5 8 4 9 3 10
REMARK H PARENT
REMARK Flexibility Score: inf
ROOT
ATOM      1  C   UNL     1      47.275 -18.525 133.736  1.00  0.00     0.001 A 
ATOM      2  C   UNL     1      48.232 -19.204 134.494  1.00  0.00     0.001 A 
ATOM      3  C   UNL     1      49.576 -18.824 134.435  1.00  0.00     0.009 A 
ATOM      4  C   UNL     1      49.970 -17.757 133.614  1.00  0.00    -0.018 A 
ATOM      5  C   UNL     1      51.317 -17.364 133.546  1.00  0.00     0.009 A 
ATOM      6  C   UNL     1      51.695 -16.299 132.724  1.00  0.00     0.001 A 
ATOM      7  C   UNL     1      50.738 -15.619 131.966  1.00  0.00     0.001 A 
ATOM      8  C   UNL     1      49.394 -15.999 132.025  1.00  0.00     0.009 A 
ATOM      9  C   UNL     1      49.000 -17.067 132.846  1.00  0.00    -0.018 A 
ATOM     10  C   UNL     1      47.654 -17.460 132.914  1.00  0.00     0.009 A 
ENDROOT
TORSDOF 0
ENDMDL
MODEL 7
REMARK VINA RESULT:    -4.412      8.058     10.276
REMARK INTER + INTRA:          -4.412
REMARK INTER:                  -4.412
REMARK INTRA:                   0.000
REMARK UNBOUND:                 0.000
REMARK SMILES c1ccc2ccccc2c1
REMARK SMILES IDX 2 1 1 2 10 3 9 4 8 5 7 6 6 7 5 8 4 9 3 10
REMARK H PARENT
REMARK Flexibility Score: inf
ROOT
ATOM      1  C   UNL     1      51.476 -16.106 132.941  1.00  0.00     0.001 A 
ATOM      2  C   UNL     1      50.474 -15.518 132.166  1.00  0.00     0.001 A 
ATOM      3  C   UNL     1      49.174 -16.030 132.189  1.00  0.00     0.009 A 
ATOM      4  C   UNL     1      48.869 -17.140 132.992  1.00  0.00    -0.018 A 
ATOM      5  C   UNL     1      47.567 -17.665 133.026  1.00  0.00     0.009 A 
ATOM      6  C   UNL     1      47.278 -18.770 133.831  1.00  0.00     0.001 A 
ATOM      7  C   UNL     1      48.280 -19.359 134.606  1.00  0.00     0.001 A 
ATOM      8  C   UNL     1      49.581 -18.846 134.583  1.00  0.00     0.009 A 
ATOM      9  C   UNL     1      49.885 -17.736 133.780  1.00  0.00    -0.018 A 
ATOM     10  C   UNL     1      51.187 -17.211 133.746  1.00  0.00     0.009 A 
ENDROOT
TORSDOF 0
ENDMDL
MODEL 8
REMARK VINA RESULT:    -4.395      1.900      4.221
REMARK INTER + INTRA:          -4.395
REMARK INTER:                  -4.395
REMARK INTRA:                   0.000
REMARK UNBOUND:                 0.000
REMARK SMILES c1ccc2ccccc2c1
REMARK SMILES IDX 2 1 1 2 10 3 9 4 8 5 7 6 6 7 5 8 4 9 3 10
REMARK H PARENT
REMARK Flexibility Score: inf
ROOT
ATOM      1  C   UNL     1      53.388 -12.138 133.456  1.00  0.00     0.001 A 
ATOM      2  C   UNL     1      53.297 -13.515 133.676  1.00  0.00     0.001 A 
ATOM      3  C   UNL     1      54.449 -14.308 133.662  1.00  0.00     0.009 A 
ATOM      4  C   UNL     1      55.703 -13.723 133.426  1.00  0.00    -0.018 A 
ATOM      5  C   UNL     1      56.867 -14.507 133.410  1.00  0.00     0.009 A 
ATOM      6  C   UNL     1      58.110 -13.911 133.174  1.00  0.00     0.001 A 
ATOM      7  C   UNL     1      58.201 -12.534 132.954  1.00  0.00     0.001 A 
ATOM      8  C   UNL     1      57.049 -11.741 132.969  1.00  0.00     0.009 A 
ATOM      9  C   UNL     1      55.795 -12.326 133.204  1.00  0.00    -0.018 A 
ATOM     10  C   UNL     1      54.631 -11.542 133.221  1.00  0.00     0.009 A 
ENDROOT
TORSDOF 0
ENDMDL
MODEL 9
REMARK VINA RESULT:    -4.329      1.742      3.309
REMARK INTER + INTRA:          -4.329
REMARK INTER:                  -4.329
REMARK INTRA:                   0.000
REMARK UNBOUND:                 0.000
REMARK SMILES c1ccc2ccccc2c1
REMARK SMILES IDX 2 1 1 2 10 3 9 4 8 5 7 6 6 7 5 8 4 9 3 10
REMARK H PARENT
REMARK Flexibility Score: inf
ROOT
ATOM      1  C   UNL     1      58.040 -12.204 133.434  1.00  0.00     0.001 A 
ATOM      2  C   UNL     1      58.105 -13.599 133.411  1.00  0.00     0.001 A 
ATOM      3  C   UNL     1      56.931 -14.359 133.376  1.00  0.00     0.009 A 
ATOM      4  C   UNL     1      55.681 -13.721 133.365  1.00  0.00    -0.018 A 
ATOM      5  C   UNL     1      54.495 -14.471 133.330  1.00  0.00     0.009 A 
ATOM      6  C   UNL     1      53.256 -13.823 133.318  1.00  0.00     0.001 A 
ATOM      7  C   UNL     1      53.191 -12.427 133.341  1.00  0.00     0.001 A 
ATOM      8  C   UNL     1      54.365 -11.668 133.375  1.00  0.00     0.009 A 
ATOM      9  C   UNL     1      55.615 -12.306 133.387  1.00  0.00    -0.018 A 
ATOM     10  C   UNL     1      56.801 -11.556 133.422  1.00  0.00     0.009 A 
ENDROOT
TORSDOF 0
ENDMDL
