MODEL 1
REMARK VINA RESULT:    -3.730      0.000      0.000
REMARK INTER + INTRA:          -7.341
REMARK INTER:                  -6.019
REMARK INTRA:                  -1.321
REMARK UNBOUND:                -1.321
REMARK SMILES CCCCCCCCCCCCO
REMARK SMILES IDX 7 1 6 2 5 3 4 4 3 5 2 6 1 7 8 8 9 9 10 10 11 11 12 12 13 13
REMARK H PARENT 13 14
REMARK Flexibility Score: inf
ROOT
ATOM      1  C   UNL     1     103.766 105.659 102.008  1.00  0.00     0.000 C 
ENDROOT
BRANCH   1   2
ATOM      2  C   UNL     1     104.487 107.012 102.132  1.00  0.00    -0.000 C 
BRANCH   2   3
ATOM      3  C   UNL     1     104.539 107.522 103.579  1.00  0.00    -0.000 C 
BRANCH   3   4
ATOM      4  C   UNL     1     105.989 107.733 104.036  1.00  0.00    -0.000 C 
BRANCH   4   5
ATOM      5  C   UNL     1     106.966 107.551 102.865  1.00  0.00    -0.000 C 
BRANCH   5   6
ATOM      6  C   UNL     1     108.393 107.225 103.332  1.00  0.00    -0.003 C 
ATOM      7  C   UNL     1     109.465 107.865 102.450  1.00  0.00     0.004 C 
ENDBRANCH   5   6
ENDBRANCH   4   5
ENDBRANCH   3   4
ENDBRANCH   2   3
ENDBRANCH   1   2
BRANCH   1   8
ATOM      8  C   UNL     1     104.418 104.561 102.866  1.00  0.00     0.000 C 
BRANCH   8   9
ATOM      9  C   UNL     1     105.811 104.164 102.355  1.00  0.00     0.000 C 
BRANCH   9  10
ATOM     10  C   UNL     1     106.747 103.708 103.487  1.00  0.00     0.002 C 
BRANCH  10  11
ATOM     11  C   UNL     1     106.267 104.153 104.878  1.00  0.00     0.028 C 
BRANCH  11  12
ATOM     12  C   UNL     1     107.118 103.594 106.028  1.00  0.00     0.156 C 
BRANCH  12  13
ATOM     13  O   UNL     1     107.444 102.248 105.810  1.00  0.00    -0.396 OA
ATOM     14  H   UNL     1     108.126 102.234 105.088  1.00  0.00     0.210 HD
ENDBRANCH  12  13
ENDBRANCH  11  12
ENDBRANCH  10  11
ENDBRANCH   9  10
ENDBRANCH   8   9
ENDBRANCH   1   8
TORSDOF 11
ENDMDL
MODEL 2
REMARK VINA RESULT:    -3.478      2.241      4.053
REMARK INTER + INTRA:          -6.934
REMARK INTER:                  -5.605
REMARK INTRA:                  -1.329
REMARK UNBOUND:                -1.321
REMARK SMILES CCCCCCCCCCCCO
REMARK SMILES IDX 7 1 6 2 5 3 4 4 3 5 2 6 1 7 8 8 9 9 10 10 11 11 12 12 13 13
REMARK H PARENT 13 14
REMARK Flexibility Score: inf
ROOT
ATOM      1  C   UNL     1     107.781 104.545 102.414  1.00  0.00     0.000 C 
ENDROOT
BRANCH   1   2
ATOM      2  C   UNL     1     106.509 103.899 102.987  1.00  0.00    -0.000 C 
BRANCH   2   3
ATOM      3  C   UNL     1     105.245 104.295 102.210  1.00  0.00    -0.000 C 
BRANCH   3   4
ATOM      4  C   UNL     1     104.095 104.633 103.168  1.00  0.00    -0.000 C 
BRANCH   4   5
ATOM      5  C   UNL     1     104.124 106.118 103.559  1.00  0.00    -0.000 C 
BRANCH   5   6
ATOM      6  C   UNL     1     104.205 107.049 102.339  1.00  0.00    -0.003 C 
ATOM      7  C   UNL     1     104.543 108.491 102.717  1.00  0.00     0.004 C 
ENDBRANCH   5   6
ENDBRANCH   4   5
ENDBRANCH   3   4
ENDBRANCH   2   3
ENDBRANCH   1   2
BRANCH   1   8
ATOM      8  C   UNL     1     107.617 106.054 102.164  1.00  0.00     0.000 C 
BRANCH   8   9
ATOM      9  C   UNL     1     108.322 106.907 103.230  1.00  0.00     0.000 C 
BRANCH   9  10
ATOM     10  C   UNL     1     107.445 107.142 104.472  1.00  0.00     0.002 C 
BRANCH  10  11
ATOM     11  C   UNL     1     107.968 106.416 105.722  1.00  0.00     0.028 C 
BRANCH  11  12
ATOM     12  C   UNL     1     108.795 107.316 106.652  1.00  0.00     0.156 C 
BRANCH  12  13
ATOM     13  O   UNL     1     110.112 107.449 106.191  1.00  0.00    -0.396 OA
ATOM     14  H   UNL     1     110.077 107.364 105.202  1.00  0.00     0.210 HD
ENDBRANCH  12  13
ENDBRANCH  11  12
ENDBRANCH  10  11
ENDBRANCH   9  10
ENDBRANCH   8   9
ENDBRANCH   1   8
TORSDOF 11
ENDMDL
MODEL 3
REMARK VINA RESULT:    -3.478      1.310      3.478
REMARK INTER + INTRA:          -6.933
REMARK INTER:                  -5.732
REMARK INTRA:                  -1.201
REMARK UNBOUND:                -1.321
REMARK SMILES CCCCCCCCCCCCO
REMARK SMILES IDX 7 1 6 2 5 3 4 4 3 5 2 6 1 7 8 8 9 9 10 10 11 11 12 12 13 13
REMARK H PARENT 13 14
REMARK Flexibility Score: inf
ROOT
ATOM      1  C   UNL     1     107.475 107.746 102.284  1.00  0.00     0.000 C 
ENDROOT
BRANCH   1   2
ATOM      2  C   UNL     1     106.013 108.008 101.884  1.00  0.00    -0.000 C 
BRANCH   2   3
ATOM      3  C   UNL     1     105.143 108.436 103.075  1.00  0.00    -0.000 C 
BRANCH   3   4
ATOM      4  C   UNL     1     104.505 107.219 103.756  1.00  0.00    -0.000 C 
BRANCH   4   5
ATOM      5  C   UNL     1     104.132 106.144 102.723  1.00  0.00    -0.000 C 
BRANCH   5   6
ATOM      6  C   UNL     1     103.730 104.813 103.377  1.00  0.00    -0.003 C 
ATOM      7  C   UNL     1     102.602 104.103 102.627  1.00  0.00     0.004 C 
ENDBRANCH   5   6
ENDBRANCH   4   5
ENDBRANCH   3   4
ENDBRANCH   2   3
ENDBRANCH   1   2
BRANCH   1   8
ATOM      8  C   UNL     1     107.927 106.310 101.965  1.00  0.00     0.000 C 
BRANCH   8   9
ATOM      9  C   UNL     1     107.661 105.338 103.124  1.00  0.00     0.000 C 
BRANCH   9  10
ATOM     10  C   UNL     1     107.776 106.016 104.500  1.00  0.00     0.002 C 
BRANCH  10  11
ATOM     11  C   UNL     1     107.392 105.083 105.661  1.00  0.00     0.028 C 
BRANCH  11  12
ATOM     12  C   UNL     1     106.680 103.800 105.207  1.00  0.00     0.156 C 
BRANCH  12  13
ATOM     13  O   UNL     1     107.335 102.658 105.688  1.00  0.00    -0.396 OA
ATOM     14  H   UNL     1     107.300 101.982 104.962  1.00  0.00     0.210 HD
ENDBRANCH  12  13
ENDBRANCH  11  12
ENDBRANCH  10  11
ENDBRANCH   9  10
ENDBRANCH   8   9
ENDBRANCH   1   8
TORSDOF 11
ENDMDL
MODEL 4
REMARK VINA RESULT:    -3.458      2.294      3.893
REMARK INTER + INTRA:          -6.902
REMARK INTER:                  -5.682
REMARK INTRA:                  -1.220
REMARK UNBOUND:                -1.321
REMARK SMILES CCCCCCCCCCCCO
REMARK SMILES IDX 7 1 6 2 5 3 4 4 3 5 2 6 1 7 8 8 9 9 10 10 11 11 12 12 13 13
REMARK H PARENT 13 14
REMARK Flexibility Score: inf
ROOT
ATOM      1  C   UNL     1     107.228 104.852 106.266  1.00  0.00     0.000 C 
ENDROOT
BRANCH   1   2
ATOM      2  C   UNL     1     107.763 106.140 105.619  1.00  0.00    -0.000 C 
BRANCH   2   3
ATOM      3  C   UNL     1     106.779 107.313 105.737  1.00  0.00    -0.000 C 
BRANCH   3   4
ATOM      4  C   UNL     1     106.330 107.795 104.352  1.00  0.00    -0.000 C 
BRANCH   4   5
ATOM      5  C   UNL     1     104.863 108.251 104.377  1.00  0.00    -0.000 C 
BRANCH   5   6
ATOM      6  C   UNL     1     104.395 108.810 103.024  1.00  0.00    -0.003 C 
ATOM      7  C   UNL     1     105.350 108.467 101.881  1.00  0.00     0.004 C 
ENDBRANCH   5   6
ENDBRANCH   4   5
ENDBRANCH   3   4
ENDBRANCH   2   3
ENDBRANCH   1   2
BRANCH   1   8
ATOM      8  C   UNL     1     106.722 103.835 105.228  1.00  0.00     0.000 C 
BRANCH   8   9
ATOM      9  C   UNL     1     107.163 104.184 103.798  1.00  0.00     0.000 C 
BRANCH   9  10
ATOM     10  C   UNL     1     106.001 104.127 102.792  1.00  0.00     0.002 C 
BRANCH  10  11
ATOM     11  C   UNL     1     104.687 104.689 103.361  1.00  0.00     0.028 C 
BRANCH  11  12
ATOM     12  C   UNL     1     103.665 105.070 102.280  1.00  0.00     0.156 C 
BRANCH  12  13
ATOM     13  O   UNL     1     102.701 104.065 102.117  1.00  0.00    -0.396 OA
ATOM     14  H   UNL     1     102.071 104.386 101.418  1.00  0.00     0.210 HD
ENDBRANCH  12  13
ENDBRANCH  11  12
ENDBRANCH  10  11
ENDBRANCH   9  10
ENDBRANCH   8   9
ENDBRANCH   1   8
TORSDOF 11
ENDMDL
MODEL 5
REMARK VINA RESULT:    -3.443      1.709      4.048
REMARK INTER + INTRA:          -6.878
REMARK INTER:                  -5.329
REMARK INTRA:                  -1.548
REMARK UNBOUND:                -1.321
REMARK SMILES CCCCCCCCCCCCO
REMARK SMILES IDX 7 1 6 2 5 3 4 4 3 5 2 6 1 7 8 8 9 9 10 10 11 11 12 12 13 13
REMARK H PARENT 13 14
REMARK Flexibility Score: inf
ROOT
ATOM      1  C   UNL     1     104.061 105.555 101.875  1.00  0.00     0.000 C 
ENDROOT
BRANCH   1   2
ATOM      2  C   UNL     1     104.707 104.481 102.766  1.00  0.00    -0.000 C 
BRANCH   2   3
ATOM      3  C   UNL     1     106.076 104.024 102.242  1.00  0.00    -0.000 C 
BRANCH   3   4
ATOM      4  C   UNL     1     107.121 104.019 103.365  1.00  0.00    -0.000 C 
BRANCH   4   5
ATOM      5  C   UNL     1     106.446 103.990 104.744  1.00  0.00    -0.000 C 
BRANCH   5   6
ATOM      6  C   UNL     1     107.361 104.518 105.860  1.00  0.00    -0.003 C 
ATOM      7  C   UNL     1     106.656 105.511 106.784  1.00  0.00     0.004 C 
ENDBRANCH   5   6
ENDBRANCH   4   5
ENDBRANCH   3   4
ENDBRANCH   2   3
ENDBRANCH   1   2
BRANCH   1   8
ATOM      8  C   UNL     1     104.786 106.910 101.961  1.00  0.00     0.000 C 
BRANCH   8   9
ATOM      9  C   UNL     1     104.912 107.418 103.405  1.00  0.00     0.000 C 
BRANCH   9  10
ATOM     10  C   UNL     1     106.370 107.710 103.803  1.00  0.00     0.002 C 
BRANCH  10  11
ATOM     11  C   UNL     1     107.358 107.517 102.641  1.00  0.00     0.028 C 
BRANCH  11  12
ATOM     12  C   UNL     1     108.829 107.519 103.081  1.00  0.00     0.156 C 
BRANCH  12  13
ATOM     13  O   UNL     1     108.942 107.427 104.476  1.00  0.00    -0.396 OA
ATOM     14  H   UNL     1     108.144 106.928 104.793  1.00  0.00     0.210 HD
ENDBRANCH  12  13
ENDBRANCH  11  12
ENDBRANCH  10  11
ENDBRANCH   9  10
ENDBRANCH   8   9
ENDBRANCH   1   8
TORSDOF 11
ENDMDL
MODEL 6
REMARK VINA RESULT:    -3.431      2.386      3.427
REMARK INTER + INTRA:          -6.859
REMARK INTER:                  -5.704
REMARK INTRA:                  -1.155
REMARK UNBOUND:                -1.321
REMARK SMILES CCCCCCCCCCCCO
REMARK SMILES IDX 7 1 6 2 5 3 4 4 3 5 2 6 1 7 8 8 9 9 10 10 11 11 12 12 13 13
REMARK H PARENT 13 14
REMARK Flexibility Score: inf
ROOT
ATOM      1  C   UNL     1     105.921 104.082 102.961  1.00  0.00     0.000 C 
ENDROOT
BRANCH   1   2
ATOM      2  C   UNL     1     107.040 104.199 101.912  1.00  0.00    -0.000 C 
BRANCH   2   3
ATOM      3  C   UNL     1     107.708 105.582 101.914  1.00  0.00    -0.000 C 
BRANCH   3   4
ATOM      4  C   UNL     1     107.746 106.171 103.330  1.00  0.00    -0.000 C 
BRANCH   4   5
ATOM      5  C   UNL     1     106.979 107.500 103.393  1.00  0.00    -0.000 C 
BRANCH   5   6
ATOM      6  C   UNL     1     106.259 107.829 102.076  1.00  0.00    -0.003 C 
ATOM      7  C   UNL     1     104.827 108.319 102.291  1.00  0.00     0.004 C 
ENDBRANCH   5   6
ENDBRANCH   4   5
ENDBRANCH   3   4
ENDBRANCH   2   3
ENDBRANCH   1   2
BRANCH   1   8
ATOM      8  C   UNL     1     104.543 104.476 102.402  1.00  0.00     0.000 C 
BRANCH   8   9
ATOM      9  C   UNL     1     103.510 104.731 103.511  1.00  0.00     0.000 C 
BRANCH   9  10
ATOM     10  C   UNL     1     104.077 105.582 104.660  1.00  0.00     0.002 C 
BRANCH  10  11
ATOM     11  C   UNL     1     104.300 104.775 105.950  1.00  0.00     0.028 C 
BRANCH  11  12
ATOM     12  C   UNL     1     103.126 104.858 106.936  1.00  0.00     0.156 C 
BRANCH  12  13
ATOM     13  O   UNL     1     101.915 104.527 106.312  1.00  0.00    -0.396 OA
ATOM     14  H   UNL     1     101.840 103.537 106.344  1.00  0.00     0.210 HD
ENDBRANCH  12  13
ENDBRANCH  11  12
ENDBRANCH  10  11
ENDBRANCH   9  10
ENDBRANCH   8   9
ENDBRANCH   1   8
TORSDOF 11
ENDMDL
MODEL 7
REMARK VINA RESULT:    -3.424      2.041      2.957
REMARK INTER + INTRA:          -6.846
REMARK INTER:                  -5.341
REMARK INTRA:                  -1.505
REMARK UNBOUND:                -1.321
REMARK SMILES CCCCCCCCCCCCO
REMARK SMILES IDX 7 1 6 2 5 3 4 4 3 5 2 6 1 7 8 8 9 9 10 10 11 11 12 12 13 13
REMARK H PARENT 13 14
REMARK Flexibility Score: inf
ROOT
ATOM      1  C   UNL     1     104.126 107.325 102.618  1.00  0.00     0.000 C 
ENDROOT
BRANCH   1   2
ATOM      2  C   UNL     1     105.447 108.052 102.922  1.00  0.00    -0.000 C 
BRANCH   2   3
ATOM      3  C   UNL     1     106.555 107.706 101.917  1.00  0.00    -0.000 C 
BRANCH   3   4
ATOM      4  C   UNL     1     107.874 107.398 102.637  1.00  0.00    -0.000 C 
BRANCH   4   5
ATOM      5  C   UNL     1     107.861 105.979 103.225  1.00  0.00    -0.000 C 
BRANCH   5   6
ATOM      6  C   UNL     1     107.714 104.894 102.146  1.00  0.00    -0.003 C 
ATOM      7  C   UNL     1     107.478 103.503 102.734  1.00  0.00     0.004 C 
ENDBRANCH   5   6
ENDBRANCH   4   5
ENDBRANCH   3   4
ENDBRANCH   2   3
ENDBRANCH   1   2
BRANCH   1   8
ATOM      8  C   UNL     1     104.339 105.995 101.875  1.00  0.00     0.000 C 
BRANCH   8   9
ATOM      9  C   UNL     1     103.941 104.777 102.723  1.00  0.00     0.000 C 
BRANCH   9  10
ATOM     10  C   UNL     1     103.728 105.134 104.204  1.00  0.00     0.002 C 
BRANCH  10  11
ATOM     11  C   UNL     1     104.956 104.827 105.078  1.00  0.00     0.028 C 
BRANCH  11  12
ATOM     12  C   UNL     1     105.146 105.816 106.237  1.00  0.00     0.156 C 
BRANCH  12  13
ATOM     13  O   UNL     1     104.118 106.769 106.265  1.00  0.00    -0.396 OA
ATOM     14  H   UNL     1     104.330 107.437 105.561  1.00  0.00     0.210 HD
ENDBRANCH  12  13
ENDBRANCH  11  12
ENDBRANCH  10  11
ENDBRANCH   9  10
ENDBRANCH   8   9
ENDBRANCH   1   8
TORSDOF 11
ENDMDL
MODEL 8
REMARK VINA RESULT:    -3.386      2.425      4.048
REMARK INTER + INTRA:          -6.785
REMARK INTER:                  -5.498
REMARK INTRA:                  -1.287
REMARK UNBOUND:                -1.321
REMARK SMILES CCCCCCCCCCCCO
REMARK SMILES IDX 7 1 6 2 5 3 4 4 3 5 2 6 1 7 8 8 9 9 10 10 11 11 12 12 13 13
REMARK H PARENT 13 14
REMARK Flexibility Score: inf
ROOT
ATOM      1  C   UNL     1     104.782 107.538 104.220  1.00  0.00     0.000 C 
ENDROOT
BRANCH   1   2
ATOM      2  C   UNL     1     105.041 107.478 102.705  1.00  0.00    -0.000 C 
BRANCH   2   3
ATOM      3  C   UNL     1     104.377 106.263 102.040  1.00  0.00    -0.000 C 
BRANCH   3   4
ATOM      4  C   UNL     1     104.530 105.009 102.910  1.00  0.00    -0.000 C 
BRANCH   4   5
ATOM      5  C   UNL     1     105.555 104.040 102.303  1.00  0.00    -0.000 C 
BRANCH   5   6
ATOM      6  C   UNL     1     106.887 104.034 103.069  1.00  0.00    -0.003 C 
ATOM      7  C   UNL     1     106.718 103.684 104.547  1.00  0.00     0.004 C 
ENDBRANCH   5   6
ENDBRANCH   4   5
ENDBRANCH   3   4
ENDBRANCH   2   3
ENDBRANCH   1   2
BRANCH   1   8
ATOM      8  C   UNL     1     106.082 107.590 105.041  1.00  0.00     0.000 C 
BRANCH   8   9
ATOM      9  C   UNL     1     107.336 107.418 104.169  1.00  0.00     0.000 C 
BRANCH   9  10
ATOM     10  C   UNL     1     108.556 106.944 104.977  1.00  0.00     0.002 C 
BRANCH  10  11
ATOM     11  C   UNL     1     108.424 107.226 106.483  1.00  0.00     0.028 C 
BRANCH  11  12
ATOM     12  C   UNL     1     109.744 107.651 107.144  1.00  0.00     0.156 C 
BRANCH  12  13
ATOM     13  O   UNL     1     110.783 107.719 106.206  1.00  0.00    -0.396 OA
ATOM     14  H   UNL     1     111.632 107.687 106.720  1.00  0.00     0.210 HD
ENDBRANCH  12  13
ENDBRANCH  11  12
ENDBRANCH  10  11
ENDBRANCH   9  10
ENDBRANCH   8   9
ENDBRANCH   1   8
TORSDOF 11
ENDMDL
MODEL 9
REMARK VINA RESULT:    -3.328      1.482      3.646
REMARK INTER + INTRA:          -6.691
REMARK INTER:                  -5.296
REMARK INTRA:                  -1.395
REMARK UNBOUND:                -1.321
REMARK SMILES CCCCCCCCCCCCO
REMARK SMILES IDX 7 1 6 2 5 3 4 4 3 5 2 6 1 7 8 8 9 9 10 10 11 11 12 12 13 13
REMARK H PARENT 13 14
REMARK Flexibility Score: inf
ROOT
ATOM      1  C   UNL     1     104.975 107.910 104.407  1.00  0.00     0.000 C 
ENDROOT
BRANCH   1   2
ATOM      2  C   UNL     1     106.219 107.573 103.568  1.00  0.00    -0.000 C 
BRANCH   2   3
ATOM      3  C   UNL     1     105.863 106.957 102.207  1.00  0.00    -0.000 C 
BRANCH   3   4
ATOM      4  C   UNL     1     106.375 105.515 102.105  1.00  0.00    -0.000 C 
BRANCH   4   5
ATOM      5  C   UNL     1     105.211 104.529 101.931  1.00  0.00    -0.000 C 
BRANCH   5   6
ATOM      6  C   UNL     1     103.842 105.185 102.167  1.00  0.00    -0.003 C 
ATOM      7  C   UNL     1     102.790 104.195 102.670  1.00  0.00     0.004 C 
ENDBRANCH   5   6
ENDBRANCH   4   5
ENDBRANCH   3   4
ENDBRANCH   2   3
ENDBRANCH   1   2
BRANCH   1   8
ATOM      8  C   UNL     1     104.944 107.156 105.748  1.00  0.00     0.000 C 
BRANCH   8   9
ATOM      9  C   UNL     1     104.128 105.856 105.672  1.00  0.00     0.000 C 
BRANCH   9  10
ATOM     10  C   UNL     1     104.861 104.662 106.307  1.00  0.00     0.002 C 
BRANCH  10  11
ATOM     11  C   UNL     1     106.099 104.225 105.508  1.00  0.00     0.028 C 
BRANCH  11  12
ATOM     12  C   UNL     1     107.096 103.393 106.329  1.00  0.00     0.156 C 
BRANCH  12  13
ATOM     13  O   UNL     1     107.461 102.222 105.650  1.00  0.00    -0.396 OA
ATOM     14  H   UNL     1     107.057 102.281 104.745  1.00  0.00     0.210 HD
ENDBRANCH  12  13
ENDBRANCH  11  12
ENDBRANCH  10  11
ENDBRANCH   9  10
ENDBRANCH   8   9
ENDBRANCH   1   8
TORSDOF 11
ENDMDL
