MODEL 1
REMARK VINA RESULT:    -4.522      0.000      0.000
REMARK INTER + INTRA:          -6.391
REMARK INTER:                  -5.843
REMARK INTRA:                  -0.547
REMARK UNBOUND:                -0.547
REMARK SMILES C=CC(=O)CCCCC
REMARK SMILES IDX 6 1 7 2 8 3 9 4 5 5 3 6 4 7 2 8 1 9
REMARK H PARENT
REMARK Flexibility Score: inf
ROOT
ATOM      1  C   UNL     1      35.197  19.966  16.379  1.00  0.00     0.008 C 
ENDROOT
BRANCH   1   2
ATOM      2  C   UNL     1      34.976  21.428  16.797  1.00  0.00     0.000 C 
BRANCH   2   3
ATOM      3  C   UNL     1      34.871  21.597  18.320  1.00  0.00    -0.003 C 
ATOM      4  C   UNL     1      33.670  20.861  18.916  1.00  0.00     0.004 C 
ENDBRANCH   2   3
ENDBRANCH   1   2
BRANCH   1   5
ATOM      5  C   UNL     1      34.410  19.634  15.108  1.00  0.00     0.080 C 
BRANCH   5   6
ATOM      6  C   UNL     1      32.990  19.282  15.443  1.00  0.00     0.155 C 
ATOM      7  O   UNL     1      32.738  18.157  15.956  1.00  0.00    -0.295 OA
BRANCH   6   8
ATOM      8  C   UNL     1      31.901  20.228  15.131  1.00  0.00     0.039 C 
ATOM      9  C   UNL     1      31.278  20.935  16.072  1.00  0.00     0.012 C 
ENDBRANCH   6   8
ENDBRANCH   5   6
ENDBRANCH   1   5
TORSDOF 5
ENDMDL
MODEL 2
REMARK VINA RESULT:    -4.432      2.387      4.231
REMARK INTER + INTRA:          -6.275
REMARK INTER:                  -5.764
REMARK INTRA:                  -0.512
REMARK UNBOUND:                -0.547
REMARK SMILES C=CC(=O)CCCCC
REMARK SMILES IDX 6 1 7 2 8 3 9 4 5 5 3 6 4 7 2 8 1 9
REMARK H PARENT
REMARK Flexibility Score: inf
ROOT
ATOM      1  C   UNL     1      32.035  19.087  18.492  1.00  0.00     0.008 C 
ENDROOT
BRANCH   1   2
ATOM      2  C   UNL     1      33.098  18.095  17.996  1.00  0.00     0.000 C 
BRANCH   2   3
ATOM      3  C   UNL     1      32.748  17.489  16.629  1.00  0.00    -0.003 C 
ATOM      4  C   UNL     1      33.921  17.522  15.649  1.00  0.00     0.004 C 
ENDBRANCH   2   3
ENDBRANCH   1   2
BRANCH   1   5
ATOM      5  C   UNL     1      32.333  20.504  17.996  1.00  0.00     0.080 C 
BRANCH   5   6
ATOM      6  C   UNL     1      33.556  21.053  18.671  1.00  0.00     0.155 C 
ATOM      7  O   UNL     1      33.583  21.133  19.930  1.00  0.00    -0.295 OA
BRANCH   6   8
ATOM      8  C   UNL     1      34.694  21.535  17.862  1.00  0.00     0.039 C 
ATOM      9  C   UNL     1      34.975  21.040  16.659  1.00  0.00     0.012 C 
ENDBRANCH   6   8
ENDBRANCH   5   6
ENDBRANCH   1   5
TORSDOF 5
ENDMDL
MODEL 3
REMARK VINA RESULT:    -4.410      1.980      3.098
REMARK INTER + INTRA:          -6.246
REMARK INTER:                  -5.692
REMARK INTRA:                  -0.555
REMARK UNBOUND:                -0.547
REMARK SMILES C=CC(=O)CCCCC
REMARK SMILES IDX 6 1 7 2 8 3 9 4 5 5 3 6 4 7 2 8 1 9
REMARK H PARENT
REMARK Flexibility Score: inf
ROOT
ATOM      1  C   UNL     1      33.864  20.913  18.407  1.00  0.00     0.008 C 
ENDROOT
BRANCH   1   2
ATOM      2  C   UNL     1      34.813  21.390  17.297  1.00  0.00     0.000 C 
BRANCH   2   3
ATOM      3  C   UNL     1      34.686  20.557  16.013  1.00  0.00    -0.003 C 
ATOM      4  C   UNL     1      35.652  19.372  15.978  1.00  0.00     0.004 C 
ENDBRANCH   2   3
ENDBRANCH   1   2
BRANCH   1   5
ATOM      5  C   UNL     1      32.496  20.535  17.832  1.00  0.00     0.080 C 
BRANCH   5   6
ATOM      6  C   UNL     1      32.065  19.189  18.337  1.00  0.00     0.155 C 
ATOM      7  O   UNL     1      31.399  19.115  19.406  1.00  0.00    -0.295 OA
BRANCH   6   8
ATOM      8  C   UNL     1      32.458  17.966  17.610  1.00  0.00     0.039 C 
ATOM      9  C   UNL     1      32.215  17.798  16.312  1.00  0.00     0.012 C 
ENDBRANCH   6   8
ENDBRANCH   5   6
ENDBRANCH   1   5
TORSDOF 5
ENDMDL
MODEL 4
REMARK VINA RESULT:    -4.383     12.126     13.367
REMARK INTER + INTRA:          -6.211
REMARK INTER:                  -5.686
REMARK INTRA:                  -0.525
REMARK UNBOUND:                -0.547
REMARK SMILES C=CC(=O)CCCCC
REMARK SMILES IDX 6 1 7 2 8 3 9 4 5 5 3 6 4 7 2 8 1 9
REMARK H PARENT
REMARK Flexibility Score: inf
ROOT
ATOM      1  C   UNL     1      27.709  18.894  26.486  1.00  0.00     0.008 C 
ENDROOT
BRANCH   1   2
ATOM      2  C   UNL     1      28.001  17.914  27.633  1.00  0.00     0.000 C 
BRANCH   2   3
ATOM      3  C   UNL     1      29.499  17.817  27.960  1.00  0.00    -0.003 C 
ATOM      4  C   UNL     1      29.765  17.245  29.352  1.00  0.00     0.004 C 
ENDBRANCH   2   3
ENDBRANCH   1   2
BRANCH   1   5
ATOM      5  C   UNL     1      27.925  20.342  26.936  1.00  0.00     0.080 C 
BRANCH   5   6
ATOM      6  C   UNL     1      26.859  20.758  27.907  1.00  0.00     0.155 C 
ATOM      7  O   UNL     1      25.647  20.651  27.576  1.00  0.00    -0.295 OA
BRANCH   6   8
ATOM      8  C   UNL     1      27.234  21.328  29.216  1.00  0.00     0.039 C 
ATOM      9  C   UNL     1      28.035  20.694  30.069  1.00  0.00     0.012 C 
ENDBRANCH   6   8
ENDBRANCH   5   6
ENDBRANCH   1   5
TORSDOF 5
ENDMDL
MODEL 5
REMARK VINA RESULT:    -4.378      1.632      2.864
REMARK INTER + INTRA:          -6.205
REMARK INTER:                  -5.624
REMARK INTRA:                  -0.581
REMARK UNBOUND:                -0.547
REMARK SMILES C=CC(=O)CCCCC
REMARK SMILES IDX 6 1 7 2 8 3 9 4 5 5 3 6 4 7 2 8 1 9
REMARK H PARENT
REMARK Flexibility Score: inf
ROOT
ATOM      1  C   UNL     1      32.123  19.004  18.462  1.00  0.00     0.008 C 
ENDROOT
BRANCH   1   2
ATOM      2  C   UNL     1      32.431  20.489  18.216  1.00  0.00     0.000 C 
BRANCH   2   3
ATOM      3  C   UNL     1      33.577  21.008  19.097  1.00  0.00    -0.003 C 
ATOM      4  C   UNL     1      34.683  21.688  18.290  1.00  0.00     0.004 C 
ENDBRANCH   2   3
ENDBRANCH   1   2
BRANCH   1   5
ATOM      5  C   UNL     1      33.342  18.132  18.146  1.00  0.00     0.080 C 
BRANCH   5   6
ATOM      6  C   UNL     1      33.516  17.986  16.663  1.00  0.00     0.155 C 
ATOM      7  O   UNL     1      32.579  17.494  15.977  1.00  0.00    -0.295 OA
BRANCH   6   8
ATOM      8  C   UNL     1      34.790  18.374  16.026  1.00  0.00     0.039 C 
ATOM      9  C   UNL     1      34.934  19.515  15.354  1.00  0.00     0.012 C 
ENDBRANCH   6   8
ENDBRANCH   5   6
ENDBRANCH   1   5
TORSDOF 5
ENDMDL
MODEL 6
REMARK VINA RESULT:    -4.344      1.860      2.666
REMARK INTER + INTRA:          -6.161
REMARK INTER:                  -5.635
REMARK INTRA:                  -0.526
REMARK UNBOUND:                -0.547
REMARK SMILES C=CC(=O)CCCCC
REMARK SMILES IDX 6 1 7 2 8 3 9 4 5 5 3 6 4 7 2 8 1 9
REMARK H PARENT
REMARK Flexibility Score: inf
ROOT
ATOM      1  C   UNL     1      34.570  21.247  17.202  1.00  0.00     0.008 C 
ENDROOT
BRANCH   1   2
ATOM      2  C   UNL     1      33.828  20.985  18.522  1.00  0.00     0.000 C 
BRANCH   2   3
ATOM      3  C   UNL     1      32.382  20.515  18.302  1.00  0.00    -0.003 C 
ATOM      4  C   UNL     1      31.988  19.362  19.225  1.00  0.00     0.004 C 
ENDBRANCH   2   3
ENDBRANCH   1   2
BRANCH   1   5
ATOM      5  C   UNL     1      33.987  20.400  16.067  1.00  0.00     0.080 C 
BRANCH   5   6
ATOM      6  C   UNL     1      34.870  19.221  15.781  1.00  0.00     0.155 C 
ATOM      7  O   UNL     1      36.109  19.401  15.628  1.00  0.00    -0.295 OA
BRANCH   6   8
ATOM      8  C   UNL     1      34.282  17.875  15.636  1.00  0.00     0.039 C 
ATOM      9  C   UNL     1      33.057  17.581  16.067  1.00  0.00     0.012 C 
ENDBRANCH   6   8
ENDBRANCH   5   6
ENDBRANCH   1   5
TORSDOF 5
ENDMDL
MODEL 7
REMARK VINA RESULT:    -4.327     11.802     13.067
REMARK INTER + INTRA:          -6.139
REMARK INTER:                  -5.758
REMARK INTRA:                  -0.381
REMARK UNBOUND:                -0.547
REMARK SMILES C=CC(=O)CCCCC
REMARK SMILES IDX 6 1 7 2 8 3 9 4 5 5 3 6 4 7 2 8 1 9
REMARK H PARENT
REMARK Flexibility Score: inf
ROOT
ATOM      1  C   UNL     1      26.449  18.288  27.267  1.00  0.00     0.008 C 
ENDROOT
BRANCH   1   2
ATOM      2  C   UNL     1      25.760  19.595  27.688  1.00  0.00     0.000 C 
BRANCH   2   3
ATOM      3  C   UNL     1      26.680  20.818  27.551  1.00  0.00    -0.003 C 
ATOM      4  C   UNL     1      27.164  21.348  28.901  1.00  0.00     0.004 C 
ENDBRANCH   2   3
ENDBRANCH   1   2
BRANCH   1   5
ATOM      5  C   UNL     1      27.707  18.573  26.442  1.00  0.00     0.080 C 
BRANCH   5   6
ATOM      6  C   UNL     1      28.933  18.101  27.169  1.00  0.00     0.155 C 
ATOM      7  O   UNL     1      29.953  17.767  26.506  1.00  0.00    -0.295 OA
BRANCH   6   8
ATOM      8  C   UNL     1      28.922  17.988  28.641  1.00  0.00     0.039 C 
ATOM      9  C   UNL     1      29.779  17.213  29.303  1.00  0.00     0.012 C 
ENDBRANCH   6   8
ENDBRANCH   5   6
ENDBRANCH   1   5
TORSDOF 5
ENDMDL
MODEL 8
REMARK VINA RESULT:    -4.322      1.819      3.245
REMARK INTER + INTRA:          -6.133
REMARK INTER:                  -5.597
REMARK INTRA:                  -0.536
REMARK UNBOUND:                -0.547
REMARK SMILES C=CC(=O)CCCCC
REMARK SMILES IDX 6 1 7 2 8 3 9 4 5 5 3 6 4 7 2 8 1 9
REMARK H PARENT
REMARK Flexibility Score: inf
ROOT
ATOM      1  C   UNL     1      32.307  19.857  16.528  1.00  0.00     0.008 C 
ENDROOT
BRANCH   1   2
ATOM      2  C   UNL     1      32.344  18.408  17.038  1.00  0.00     0.000 C 
BRANCH   2   3
ATOM      3  C   UNL     1      32.703  18.317  18.529  1.00  0.00    -0.003 C 
ATOM      4  C   UNL     1      32.001  19.382  19.373  1.00  0.00     0.004 C 
ENDBRANCH   2   3
ENDBRANCH   1   2
BRANCH   1   5
ATOM      5  C   UNL     1      33.433  20.113  15.522  1.00  0.00     0.080 C 
BRANCH   5   6
ATOM      6  C   UNL     1      34.735  20.339  16.234  1.00  0.00     0.155 C 
ATOM      7  O   UNL     1      35.618  19.439  16.205  1.00  0.00    -0.295 OA
BRANCH   6   8
ATOM      8  C   UNL     1      34.955  21.584  16.995  1.00  0.00     0.039 C 
ATOM      9  C   UNL     1      34.922  21.623  18.326  1.00  0.00     0.012 C 
ENDBRANCH   6   8
ENDBRANCH   5   6
ENDBRANCH   1   5
TORSDOF 5
ENDMDL
MODEL 9
REMARK VINA RESULT:    -4.308      2.250      3.623
REMARK INTER + INTRA:          -6.115
REMARK INTER:                  -5.631
REMARK INTRA:                  -0.483
REMARK UNBOUND:                -0.547
REMARK SMILES C=CC(=O)CCCCC
REMARK SMILES IDX 6 1 7 2 8 3 9 4 5 5 3 6 4 7 2 8 1 9
REMARK H PARENT
REMARK Flexibility Score: inf
ROOT
ATOM      1  C   UNL     1      34.430  21.243  16.822  1.00  0.00     0.008 C 
ENDROOT
BRANCH   1   2
ATOM      2  C   UNL     1      35.242  20.047  16.300  1.00  0.00     0.000 C 
BRANCH   2   3
ATOM      3  C   UNL     1      34.471  19.219  15.261  1.00  0.00    -0.003 C 
ATOM      4  C   UNL     1      34.130  17.814  15.759  1.00  0.00     0.004 C 
ENDBRANCH   2   3
ENDBRANCH   1   2
BRANCH   1   5
ATOM      5  C   UNL     1      34.591  21.395  18.337  1.00  0.00     0.080 C 
BRANCH   5   6
ATOM      6  C   UNL     1      33.331  20.991  19.045  1.00  0.00     0.155 C 
ATOM      7  O   UNL     1      33.205  21.247  20.274  1.00  0.00    -0.295 OA
BRANCH   6   8
ATOM      8  C   UNL     1      32.274  20.263  18.316  1.00  0.00     0.039 C 
ATOM      9  C   UNL     1      31.924  19.016  18.625  1.00  0.00     0.012 C 
ENDBRANCH   6   8
ENDBRANCH   5   6
ENDBRANCH   1   5
TORSDOF 5
ENDMDL
