MODEL 1
REMARK VINA RESULT:    -2.470      0.000      0.000
REMARK INTER + INTRA:          -4.869
REMARK INTER:                  -4.492
REMARK INTRA:                  -0.377
REMARK UNBOUND:                -0.377
REMARK SMILES CCCCCC=CCC=CCCCCCCCC(=O)[O-]
REMARK SMILES IDX 11 1 12 2 13 3 14 4 15 5 16 6 17 7 18 8 19 9 20 10 10 11
REMARK SMILES IDX 9 12 8 13 7 14 6 15 5 16 4 17 3 18 2 19 1 20
REMARK H PARENT
REMARK Flexibility Score: inf
ROOT
ATOM      1  C   UNL     1      28.330  16.164   3.083  1.00  0.00     0.027 C 
ENDROOT
BRANCH   1   2
ATOM      2  C   UNL     1      27.958  17.626   2.777  1.00  0.00     0.004 C 
BRANCH   2   3
ATOM      3  C   UNL     1      26.503  17.826   2.313  1.00  0.00     0.000 C 
BRANCH   3   4
ATOM      4  C   UNL     1      26.385  18.010   0.790  1.00  0.00     0.000 C 
BRANCH   4   5
ATOM      5  C   UNL     1      27.642  17.546   0.031  1.00  0.00     0.000 C 
BRANCH   5   6
ATOM      6  C   UNL     1      27.541  16.148  -0.608  1.00  0.00     0.006 C 
BRANCH   6   7
ATOM      7  C   UNL     1      26.456  15.273   0.032  1.00  0.00     0.053 C 
BRANCH   7   8
ATOM      8  C   UNL     1      26.922  13.855   0.132  1.00  0.00     0.041 C 
ATOM      9  O   UNL     1      26.938  13.271   1.247  1.00  0.00    -0.550 OA
ATOM     10  O   UNL     1      27.288  13.162  -1.014  1.00  0.00    -0.550 OA
ENDBRANCH   7   8
ENDBRANCH   6   7
ENDBRANCH   5   6
ENDBRANCH   4   5
ENDBRANCH   3   4
ENDBRANCH   2   3
ENDBRANCH   1   2
BRANCH   1  11
ATOM     11  C   UNL     1      29.598  15.733   2.396  1.00  0.00    -0.031 C 
ATOM     12  C   UNL     1      29.832  14.448   2.094  1.00  0.00    -0.027 C 
BRANCH  12  13
ATOM     13  C   UNL     1      31.096  14.018   1.406  1.00  0.00     0.054 C 
BRANCH  13  14
ATOM     14  C   UNL     1      31.492  15.016   0.355  1.00  0.00    -0.027 C 
ATOM     15  C   UNL     1      30.674  16.012  -0.014  1.00  0.00    -0.031 C 
BRANCH  15  16
ATOM     16  C   UNL     1      31.056  16.985  -1.096  1.00  0.00     0.027 C 
BRANCH  16  17
ATOM     17  C   UNL     1      32.580  17.155  -1.174  1.00  0.00     0.004 C 
BRANCH  17  18
ATOM     18  C   UNL     1      33.029  17.886  -2.449  1.00  0.00     0.000 C 
BRANCH  18  19
ATOM     19  C   UNL     1      32.770  17.066  -3.721  1.00  0.00    -0.003 C 
ATOM     20  C   UNL     1      34.011  16.273  -4.125  1.00  0.00     0.004 C 
ENDBRANCH  18  19
ENDBRANCH  17  18
ENDBRANCH  16  17
ENDBRANCH  15  16
ENDBRANCH  13  14
ENDBRANCH  12  13
ENDBRANCH   1  11
TORSDOF 14
ENDMDL
MODEL 2
REMARK VINA RESULT:    -2.312      1.431      1.821
REMARK INTER + INTRA:          -4.581
REMARK INTER:                  -3.094
REMARK INTRA:                  -1.487
REMARK UNBOUND:                -0.377
REMARK SMILES CCCCCC=CCC=CCCCCCCCC(=O)[O-]
REMARK SMILES IDX 11 1 12 2 13 3 14 4 15 5 16 6 17 7 18 8 19 9 20 10 10 11
REMARK SMILES IDX 9 12 8 13 7 14 6 15 5 16 4 17 3 18 2 19 1 20
REMARK H PARENT
REMARK Flexibility Score: inf
ROOT
ATOM      1  C   UNL     1      28.277  16.068   3.347  1.00  0.00     0.027 C 
ENDROOT
BRANCH   1   2
ATOM      2  C   UNL     1      28.268  17.467   2.705  1.00  0.00     0.004 C 
BRANCH   2   3
ATOM      3  C   UNL     1      26.868  17.975   2.310  1.00  0.00     0.000 C 
BRANCH   3   4
ATOM      4  C   UNL     1      26.632  17.941   0.790  1.00  0.00     0.000 C 
BRANCH   4   5
ATOM      5  C   UNL     1      27.866  17.468   0.001  1.00  0.00     0.000 C 
BRANCH   5   6
ATOM      6  C   UNL     1      27.743  16.068  -0.629  1.00  0.00     0.006 C 
BRANCH   6   7
ATOM      7  C   UNL     1      26.571  15.257  -0.062  1.00  0.00     0.053 C 
BRANCH   7   8
ATOM      8  C   UNL     1      26.964  13.825   0.115  1.00  0.00     0.041 C 
ATOM      9  O   UNL     1      26.921  13.292   1.254  1.00  0.00    -0.550 OA
ATOM     10  O   UNL     1      27.330  13.064  -0.989  1.00  0.00    -0.550 OA
ENDBRANCH   7   8
ENDBRANCH   6   7
ENDBRANCH   5   6
ENDBRANCH   4   5
ENDBRANCH   3   4
ENDBRANCH   2   3
ENDBRANCH   1   2
BRANCH   1  11
ATOM     11  C   UNL     1      29.236  15.126   2.671  1.00  0.00    -0.031 C 
ATOM     12  C   UNL     1      29.956  15.501   1.603  1.00  0.00    -0.027 C 
BRANCH  12  13
ATOM     13  C   UNL     1      30.915  14.561   0.931  1.00  0.00     0.054 C 
BRANCH  13  14
ATOM     14  C   UNL     1      31.828  15.309   0.002  1.00  0.00    -0.027 C 
ATOM     15  C   UNL     1      31.469  16.481  -0.544  1.00  0.00    -0.031 C 
BRANCH  15  16
ATOM     16  C   UNL     1      32.368  17.210  -1.505  1.00  0.00     0.027 C 
BRANCH  16  17
ATOM     17  C   UNL     1      32.992  18.450  -0.849  1.00  0.00     0.004 C 
BRANCH  17  18
ATOM     18  C   UNL     1      34.427  18.715  -1.330  1.00  0.00     0.000 C 
BRANCH  18  19
ATOM     19  C   UNL     1      35.134  19.801  -0.506  1.00  0.00    -0.003 C 
ATOM     20  C   UNL     1      36.639  19.791  -0.761  1.00  0.00     0.004 C 
ENDBRANCH  18  19
ENDBRANCH  17  18
ENDBRANCH  16  17
ENDBRANCH  15  16
ENDBRANCH  13  14
ENDBRANCH  12  13
ENDBRANCH   1  11
TORSDOF 14
ENDMDL
MODEL 3
REMARK VINA RESULT:    -2.186      1.958      2.856
REMARK INTER + INTRA:          -4.353
REMARK INTER:                  -2.609
REMARK INTRA:                  -1.744
REMARK UNBOUND:                -0.377
REMARK SMILES CCCCCC=CCC=CCCCCCCCC(=O)[O-]
REMARK SMILES IDX 11 1 12 2 13 3 14 4 15 5 16 6 17 7 18 8 19 9 20 10 10 11
REMARK SMILES IDX 9 12 8 13 7 14 6 15 5 16 4 17 3 18 2 19 1 20
REMARK H PARENT
REMARK Flexibility Score: inf
ROOT
ATOM      1  C   UNL     1      28.067  14.634   2.816  1.00  0.00     0.027 C 
ENDROOT
BRANCH   1   2
ATOM      2  C   UNL     1      27.409  13.411   2.151  1.00  0.00     0.004 C 
BRANCH   2   3
ATOM      3  C   UNL     1      26.496  13.753   0.958  1.00  0.00     0.000 C 
BRANCH   3   4
ATOM      4  C   UNL     1      27.267  13.866  -0.368  1.00  0.00     0.000 C 
BRANCH   4   5
ATOM      5  C   UNL     1      27.622  15.318  -0.734  1.00  0.00     0.000 C 
BRANCH   5   6
ATOM      6  C   UNL     1      26.754  16.395  -0.056  1.00  0.00     0.006 C 
BRANCH   6   7
ATOM      7  C   UNL     1      27.581  17.532   0.556  1.00  0.00     0.053 C 
BRANCH   7   8
ATOM      8  C   UNL     1      26.873  18.113   1.740  1.00  0.00     0.041 C 
ATOM      9  O   UNL     1      27.352  17.974   2.896  1.00  0.00    -0.550 OA
ATOM     10  O   UNL     1      25.711  18.853   1.560  1.00  0.00    -0.550 OA
ENDBRANCH   7   8
ENDBRANCH   6   7
ENDBRANCH   5   6
ENDBRANCH   4   5
ENDBRANCH   3   4
ENDBRANCH   2   3
ENDBRANCH   1   2
BRANCH   1  11
ATOM     11  C   UNL     1      29.535  14.742   2.507  1.00  0.00    -0.031 C 
ATOM     12  C   UNL     1      30.073  14.154   1.428  1.00  0.00    -0.027 C 
BRANCH  12  13
ATOM     13  C   UNL     1      31.539  14.265   1.119  1.00  0.00     0.054 C 
BRANCH  13  14
ATOM     14  C   UNL     1      31.796  15.402   0.173  1.00  0.00    -0.027 C 
ATOM     15  C   UNL     1      30.798  16.164  -0.300  1.00  0.00    -0.031 C 
BRANCH  15  16
ATOM     16  C   UNL     1      31.053  17.277  -1.280  1.00  0.00     0.027 C 
BRANCH  16  17
ATOM     17  C   UNL     1      32.377  17.992  -0.973  1.00  0.00     0.004 C 
BRANCH  17  18
ATOM     18  C   UNL     1      33.383  17.897  -2.129  1.00  0.00     0.000 C 
BRANCH  18  19
ATOM     19  C   UNL     1      33.020  16.798  -3.138  1.00  0.00    -0.003 C 
ATOM     20  C   UNL     1      34.160  16.558  -4.124  1.00  0.00     0.004 C 
ENDBRANCH  18  19
ENDBRANCH  17  18
ENDBRANCH  16  17
ENDBRANCH  15  16
ENDBRANCH  13  14
ENDBRANCH  12  13
ENDBRANCH   1  11
TORSDOF 14
ENDMDL
MODEL 4
REMARK VINA RESULT:    -2.151      2.622      5.583
REMARK INTER + INTRA:          -4.289
REMARK INTER:                  -3.815
REMARK INTRA:                  -0.473
REMARK UNBOUND:                -0.377
REMARK SMILES CCCCCC=CCC=CCCCCCCCC(=O)[O-]
REMARK SMILES IDX 11 1 12 2 13 3 14 4 15 5 16 6 17 7 18 8 19 9 20 10 10 11
REMARK SMILES IDX 9 12 8 13 7 14 6 15 5 16 4 17 3 18 2 19 1 20
REMARK H PARENT
REMARK Flexibility Score: inf
ROOT
ATOM      1  C   UNL     1      28.912  15.930   3.454  1.00  0.00     0.027 C 
ENDROOT
BRANCH   1   2
ATOM      2  C   UNL     1      29.533  14.569   3.094  1.00  0.00     0.004 C 
BRANCH   2   3
ATOM      3  C   UNL     1      29.658  14.308   1.581  1.00  0.00     0.000 C 
BRANCH   3   4
ATOM      4  C   UNL     1      31.119  14.159   1.123  1.00  0.00     0.000 C 
BRANCH   4   5
ATOM      5  C   UNL     1      31.550  15.253   0.128  1.00  0.00     0.000 C 
BRANCH   5   6
ATOM      6  C   UNL     1      30.577  16.439  -0.002  1.00  0.00     0.006 C 
BRANCH   6   7
ATOM      7  C   UNL     1      30.736  17.203  -1.323  1.00  0.00     0.053 C 
BRANCH   7   8
ATOM      8  C   UNL     1      32.179  17.271  -1.716  1.00  0.00     0.041 C 
ATOM      9  O   UNL     1      32.988  17.956  -1.038  1.00  0.00    -0.550 OA
ATOM     10  O   UNL     1      32.638  16.535  -2.800  1.00  0.00    -0.550 OA
ENDBRANCH   7   8
ENDBRANCH   6   7
ENDBRANCH   5   6
ENDBRANCH   4   5
ENDBRANCH   3   4
ENDBRANCH   2   3
ENDBRANCH   1   2
BRANCH   1  11
ATOM     11  C   UNL     1      28.140  16.535   2.312  1.00  0.00    -0.031 C 
ATOM     12  C   UNL     1      27.528  17.723   2.427  1.00  0.00    -0.027 C 
BRANCH  12  13
ATOM     13  C   UNL     1      26.760  18.327   1.286  1.00  0.00     0.054 C 
BRANCH  13  14
ATOM     14  C   UNL     1      26.626  17.343   0.159  1.00  0.00    -0.027 C 
ATOM     15  C   UNL     1      26.816  16.028   0.345  1.00  0.00    -0.031 C 
BRANCH  15  16
ATOM     16  C   UNL     1      26.721  15.050  -0.794  1.00  0.00     0.027 C 
BRANCH  16  17
ATOM     17  C   UNL     1      26.790  13.602  -0.287  1.00  0.00     0.004 C 
BRANCH  17  18
ATOM     18  C   UNL     1      27.694  12.714  -1.155  1.00  0.00     0.000 C 
BRANCH  18  19
ATOM     19  C   UNL     1      27.073  12.398  -2.523  1.00  0.00    -0.003 C 
ATOM     20  C   UNL     1      27.818  11.259  -3.215  1.00  0.00     0.004 C 
ENDBRANCH  18  19
ENDBRANCH  17  18
ENDBRANCH  16  17
ENDBRANCH  15  16
ENDBRANCH  13  14
ENDBRANCH  12  13
ENDBRANCH   1  11
TORSDOF 14
ENDMDL
MODEL 5
REMARK VINA RESULT:    -2.124      2.424      5.215
REMARK INTER + INTRA:          -4.240
REMARK INTER:                  -2.682
REMARK INTRA:                  -1.558
REMARK UNBOUND:                -0.377
REMARK SMILES CCCCCC=CCC=CCCCCCCCC(=O)[O-]
REMARK SMILES IDX 11 1 12 2 13 3 14 4 15 5 16 6 17 7 18 8 19 9 20 10 10 11
REMARK SMILES IDX 9 12 8 13 7 14 6 15 5 16 4 17 3 18 2 19 1 20
REMARK H PARENT
REMARK Flexibility Score: inf
ROOT
ATOM      1  C   UNL     1      31.878  14.552   0.589  1.00  0.00     0.027 C 
ENDROOT
BRANCH   1   2
ATOM      2  C   UNL     1      31.746  16.064   0.330  1.00  0.00     0.004 C 
BRANCH   2   3
ATOM      3  C   UNL     1      31.772  16.457  -1.159  1.00  0.00     0.000 C 
BRANCH   3   4
ATOM      4  C   UNL     1      30.480  17.158  -1.611  1.00  0.00     0.000 C 
BRANCH   4   5
ATOM      5  C   UNL     1      29.230  16.651  -0.868  1.00  0.00     0.000 C 
BRANCH   5   6
ATOM      6  C   UNL     1      28.684  17.599   0.216  1.00  0.00     0.006 C 
BRANCH   6   7
ATOM      7  C   UNL     1      27.154  17.568   0.323  1.00  0.00     0.053 C 
BRANCH   7   8
ATOM      8  C   UNL     1      26.719  17.957   1.701  1.00  0.00     0.041 C 
ATOM      9  O   UNL     1      25.660  18.617   1.869  1.00  0.00    -0.550 OA
ATOM     10  O   UNL     1      27.458  17.547   2.804  1.00  0.00    -0.550 OA
ENDBRANCH   7   8
ENDBRANCH   6   7
ENDBRANCH   5   6
ENDBRANCH   4   5
ENDBRANCH   3   4
ENDBRANCH   2   3
ENDBRANCH   1   2
BRANCH   1  11
ATOM     11  C   UNL     1      30.736  14.000   1.399  1.00  0.00    -0.031 C 
ATOM     12  C   UNL     1      29.751  14.788   1.854  1.00  0.00    -0.027 C 
BRANCH  12  13
ATOM     13  C   UNL     1      28.610  14.236   2.660  1.00  0.00     0.054 C 
BRANCH  13  14
ATOM     14  C   UNL     1      27.435  13.932   1.776  1.00  0.00    -0.027 C 
ATOM     15  C   UNL     1      27.473  14.154   0.453  1.00  0.00    -0.031 C 
BRANCH  15  16
ATOM     16  C   UNL     1      26.281  13.886  -0.425  1.00  0.00     0.027 C 
BRANCH  16  17
ATOM     17  C   UNL     1      26.717  13.431  -1.826  1.00  0.00     0.004 C 
BRANCH  17  18
ATOM     18  C   UNL     1      27.668  12.225  -1.787  1.00  0.00     0.000 C 
BRANCH  18  19
ATOM     19  C   UNL     1      27.649  11.417  -3.092  1.00  0.00    -0.003 C 
ATOM     20  C   UNL     1      27.059  10.027  -2.870  1.00  0.00     0.004 C 
ENDBRANCH  18  19
ENDBRANCH  17  18
ENDBRANCH  16  17
ENDBRANCH  15  16
ENDBRANCH  13  14
ENDBRANCH  12  13
ENDBRANCH   1  11
TORSDOF 14
ENDMDL
MODEL 6
REMARK VINA RESULT:    -1.899     16.554     19.199
REMARK INTER + INTRA:          -3.829
REMARK INTER:                  -3.335
REMARK INTRA:                  -0.494
REMARK UNBOUND:                -0.377
REMARK SMILES CCCCCC=CCC=CCCCCCCCC(=O)[O-]
REMARK SMILES IDX 11 1 12 2 13 3 14 4 15 5 16 6 17 7 18 8 19 9 20 10 10 11
REMARK SMILES IDX 9 12 8 13 7 14 6 15 5 16 4 17 3 18 2 19 1 20
REMARK H PARENT
REMARK Flexibility Score: inf
ROOT
ATOM      1  C   UNL     1      23.153  21.204  13.831  1.00  0.00     0.027 C 
ENDROOT
BRANCH   1   2
ATOM      2  C   UNL     1      24.052  21.564  15.028  1.00  0.00     0.004 C 
BRANCH   2   3
ATOM      3  C   UNL     1      23.375  22.461  16.082  1.00  0.00     0.000 C 
BRANCH   3   4
ATOM      4  C   UNL     1      22.649  23.666  15.458  1.00  0.00     0.000 C 
BRANCH   4   5
ATOM      5  C   UNL     1      23.169  25.016  15.983  1.00  0.00     0.000 C 
BRANCH   5   6
ATOM      6  C   UNL     1      24.700  25.125  16.109  1.00  0.00     0.006 C 
BRANCH   6   7
ATOM      7  C   UNL     1      25.423  24.980  14.764  1.00  0.00     0.053 C 
BRANCH   7   8
ATOM      8  C   UNL     1      26.834  24.531  14.976  1.00  0.00     0.041 C 
ATOM      9  O   UNL     1      27.088  23.595  15.779  1.00  0.00    -0.550 OA
ATOM     10  O   UNL     1      27.865  25.113  14.248  1.00  0.00    -0.550 OA
ENDBRANCH   7   8
ENDBRANCH   6   7
ENDBRANCH   5   6
ENDBRANCH   4   5
ENDBRANCH   3   4
ENDBRANCH   2   3
ENDBRANCH   1   2
BRANCH   1  11
ATOM     11  C   UNL     1      21.885  20.509  14.247  1.00  0.00    -0.031 C 
ATOM     12  C   UNL     1      20.962  21.121  15.004  1.00  0.00    -0.027 C 
BRANCH  12  13
ATOM     13  C   UNL     1      19.696  20.428  15.416  1.00  0.00     0.054 C 
BRANCH  13  14
ATOM     14  C   UNL     1      18.741  21.400  16.048  1.00  0.00    -0.027 C 
ATOM     15  C   UNL     1      18.108  22.336  15.326  1.00  0.00    -0.031 C 
BRANCH  15  16
ATOM     16  C   UNL     1      17.184  23.334  15.968  1.00  0.00     0.027 C 
BRANCH  16  17
ATOM     17  C   UNL     1      17.164  24.655  15.183  1.00  0.00     0.004 C 
BRANCH  17  18
ATOM     18  C   UNL     1      18.069  24.619  13.943  1.00  0.00     0.000 C 
BRANCH  18  19
ATOM     19  C   UNL     1      19.490  25.125  14.235  1.00  0.00    -0.003 C 
ATOM     20  C   UNL     1      20.444  24.770  13.097  1.00  0.00     0.004 C 
ENDBRANCH  18  19
ENDBRANCH  17  18
ENDBRANCH  16  17
ENDBRANCH  15  16
ENDBRANCH  13  14
ENDBRANCH  12  13
ENDBRANCH   1  11
TORSDOF 14
ENDMDL
MODEL 7
REMARK VINA RESULT:    -1.897      1.682      2.477
REMARK INTER + INTRA:          -3.827
REMARK INTER:                  -3.070
REMARK INTRA:                  -0.757
REMARK UNBOUND:                -0.377
REMARK SMILES CCCCCC=CCC=CCCCCCCCC(=O)[O-]
REMARK SMILES IDX 11 1 12 2 13 3 14 4 15 5 16 6 17 7 18 8 19 9 20 10 10 11
REMARK SMILES IDX 9 12 8 13 7 14 6 15 5 16 4 17 3 18 2 19 1 20
REMARK H PARENT
REMARK Flexibility Score: inf
ROOT
ATOM      1  C   UNL     1      27.750  17.348   2.572  1.00  0.00     0.027 C 
ENDROOT
BRANCH   1   2
ATOM      2  C   UNL     1      27.034  17.702   1.256  1.00  0.00     0.004 C 
BRANCH   2   3
ATOM      3  C   UNL     1      27.561  16.943   0.023  1.00  0.00     0.000 C 
BRANCH   3   4
ATOM      4  C   UNL     1      26.641  15.785  -0.400  1.00  0.00     0.000 C 
BRANCH   4   5
ATOM      5  C   UNL     1      27.355  14.421  -0.400  1.00  0.00     0.000 C 
BRANCH   5   6
ATOM      6  C   UNL     1      26.929  13.459  -1.525  1.00  0.00     0.006 C 
BRANCH   6   7
ATOM      7  C   UNL     1      27.728  12.150  -1.529  1.00  0.00     0.053 C 
BRANCH   7   8
ATOM      8  C   UNL     1      27.515  11.413  -2.814  1.00  0.00     0.041 C 
ATOM      9  O   UNL     1      27.736  11.982  -3.915  1.00  0.00    -0.550 OA
ATOM     10  O   UNL     1      27.122  10.081  -2.793  1.00  0.00    -0.550 OA
ENDBRANCH   7   8
ENDBRANCH   6   7
ENDBRANCH   5   6
ENDBRANCH   4   5
ENDBRANCH   3   4
ENDBRANCH   2   3
ENDBRANCH   1   2
BRANCH   1  11
ATOM     11  C   UNL     1      28.838  16.327   2.383  1.00  0.00    -0.031 C 
ATOM     12  C   UNL     1      28.697  15.060   2.803  1.00  0.00    -0.027 C 
BRANCH  12  13
ATOM     13  C   UNL     1      29.783  14.041   2.612  1.00  0.00     0.054 C 
BRANCH  13  14
ATOM     14  C   UNL     1      30.486  14.255   1.302  1.00  0.00    -0.027 C 
ATOM     15  C   UNL     1      30.891  15.473   0.911  1.00  0.00    -0.031 C 
BRANCH  15  16
ATOM     16  C   UNL     1      31.558  15.691  -0.419  1.00  0.00     0.027 C 
BRANCH  16  17
ATOM     17  C   UNL     1      31.631  17.186  -0.764  1.00  0.00     0.004 C 
BRANCH  17  18
ATOM     18  C   UNL     1      32.636  17.486  -1.887  1.00  0.00     0.000 C 
BRANCH  18  19
ATOM     19  C   UNL     1      32.205  16.893  -3.237  1.00  0.00    -0.003 C 
ATOM     20  C   UNL     1      33.416  16.606  -4.121  1.00  0.00     0.004 C 
ENDBRANCH  18  19
ENDBRANCH  17  18
ENDBRANCH  16  17
ENDBRANCH  15  16
ENDBRANCH  13  14
ENDBRANCH  12  13
ENDBRANCH   1  11
TORSDOF 14
ENDMDL
MODEL 8
REMARK VINA RESULT:    -1.844     16.525     18.438
REMARK INTER + INTRA:          -3.730
REMARK INTER:                  -3.267
REMARK INTRA:                  -0.463
REMARK UNBOUND:                -0.377
REMARK SMILES CCCCCC=CCC=CCCCCCCCC(=O)[O-]
REMARK SMILES IDX 11 1 12 2 13 3 14 4 15 5 16 6 17 7 18 8 19 9 20 10 10 11
REMARK SMILES IDX 9 12 8 13 7 14 6 15 5 16 4 17 3 18 2 19 1 20
REMARK H PARENT
REMARK Flexibility Score: inf
ROOT
ATOM      1  C   UNL     1      22.663  19.888  14.204  1.00  0.00     0.027 C 
ENDROOT
BRANCH   1   2
ATOM      2  C   UNL     1      23.293  19.921  15.609  1.00  0.00     0.004 C 
BRANCH   2   3
ATOM      3  C   UNL     1      23.923  21.273  15.990  1.00  0.00     0.000 C 
BRANCH   3   4
ATOM      4  C   UNL     1      24.771  21.874  14.857  1.00  0.00     0.000 C 
BRANCH   4   5
ATOM      5  C   UNL     1      24.367  23.318  14.505  1.00  0.00     0.000 C 
BRANCH   5   6
ATOM      6  C   UNL     1      24.140  24.247  15.712  1.00  0.00     0.006 C 
BRANCH   6   7
ATOM      7  C   UNL     1      25.401  25.018  16.121  1.00  0.00     0.053 C 
BRANCH   7   8
ATOM      8  C   UNL     1      26.608  24.434  15.456  1.00  0.00     0.041 C 
ATOM      9  O   UNL     1      27.193  25.065  14.538  1.00  0.00    -0.550 OA
ATOM     10  O   UNL     1      27.116  23.216  15.888  1.00  0.00    -0.550 OA
ENDBRANCH   7   8
ENDBRANCH   6   7
ENDBRANCH   5   6
ENDBRANCH   4   5
ENDBRANCH   3   4
ENDBRANCH   2   3
ENDBRANCH   1   2
BRANCH   1  11
ATOM     11  C   UNL     1      21.288  20.498  14.172  1.00  0.00    -0.031 C 
ATOM     12  C   UNL     1      20.352  20.174  15.077  1.00  0.00    -0.027 C 
BRANCH  12  13
ATOM     13  C   UNL     1      18.981  20.785  15.045  1.00  0.00     0.054 C 
BRANCH  13  14
ATOM     14  C   UNL     1      19.051  22.259  15.322  1.00  0.00    -0.027 C 
ATOM     15  C   UNL     1      20.190  22.848  15.715  1.00  0.00    -0.031 C 
BRANCH  15  16
ATOM     16  C   UNL     1      20.248  24.318  16.031  1.00  0.00     0.027 C 
BRANCH  16  17
ATOM     17  C   UNL     1      20.769  25.122  14.831  1.00  0.00     0.004 C 
BRANCH  17  18
ATOM     18  C   UNL     1      20.490  24.429  13.489  1.00  0.00     0.000 C 
BRANCH  18  19
ATOM     19  C   UNL     1      21.764  24.224  12.655  1.00  0.00    -0.003 C 
ATOM     20  C   UNL     1      21.588  24.767  11.240  1.00  0.00     0.004 C 
ENDBRANCH  18  19
ENDBRANCH  17  18
ENDBRANCH  16  17
ENDBRANCH  15  16
ENDBRANCH  13  14
ENDBRANCH  12  13
ENDBRANCH   1  11
TORSDOF 14
ENDMDL
MODEL 9
REMARK VINA RESULT:    -1.815      2.007      3.117
REMARK INTER + INTRA:          -3.677
REMARK INTER:                  -1.934
REMARK INTRA:                  -1.743
REMARK UNBOUND:                -0.377
REMARK SMILES CCCCCC=CCC=CCCCCCCCC(=O)[O-]
REMARK SMILES IDX 11 1 12 2 13 3 14 4 15 5 16 6 17 7 18 8 19 9 20 10 10 11
REMARK SMILES IDX 9 12 8 13 7 14 6 15 5 16 4 17 3 18 2 19 1 20
REMARK H PARENT
REMARK Flexibility Score: inf
ROOT
ATOM      1  C   UNL     1      28.132  14.600   2.858  1.00  0.00     0.027 C 
ENDROOT
BRANCH   1   2
ATOM      2  C   UNL     1      27.533  13.340   2.208  1.00  0.00     0.004 C 
BRANCH   2   3
ATOM      3  C   UNL     1      26.634  13.620   0.990  1.00  0.00     0.000 C 
BRANCH   3   4
ATOM      4  C   UNL     1      27.431  13.757  -0.318  1.00  0.00     0.000 C 
BRANCH   4   5
ATOM      5  C   UNL     1      27.605  15.220  -0.765  1.00  0.00     0.000 C 
BRANCH   5   6
ATOM      6  C   UNL     1      26.701  16.237  -0.043  1.00  0.00     0.006 C 
BRANCH   6   7
ATOM      7  C   UNL     1      27.449  17.505   0.385  1.00  0.00     0.053 C 
BRANCH   7   8
ATOM      8  C   UNL     1      26.946  17.987   1.709  1.00  0.00     0.041 C 
ATOM      9  O   UNL     1      27.595  17.745   2.760  1.00  0.00    -0.550 OA
ATOM     10  O   UNL     1      25.785  18.747   1.775  1.00  0.00    -0.550 OA
ENDBRANCH   7   8
ENDBRANCH   6   7
ENDBRANCH   5   6
ENDBRANCH   4   5
ENDBRANCH   3   4
ENDBRANCH   2   3
ENDBRANCH   1   2
BRANCH   1  11
ATOM     11  C   UNL     1      29.577  14.809   2.495  1.00  0.00    -0.031 C 
ATOM     12  C   UNL     1      30.172  14.089   1.532  1.00  0.00    -0.027 C 
BRANCH  12  13
ATOM     13  C   UNL     1      31.614  14.299   1.169  1.00  0.00     0.054 C 
BRANCH  13  14
ATOM     14  C   UNL     1      31.736  15.253   0.015  1.00  0.00    -0.027 C 
ATOM     15  C   UNL     1      30.969  16.351  -0.075  1.00  0.00    -0.031 C 
BRANCH  15  16
ATOM     16  C   UNL     1      31.064  17.283  -1.252  1.00  0.00     0.027 C 
BRANCH  16  17
ATOM     17  C   UNL     1      32.228  16.893  -2.175  1.00  0.00     0.004 C 
BRANCH  17  18
ATOM     18  C   UNL     1      33.324  17.968  -2.232  1.00  0.00     0.000 C 
BRANCH  18  19
ATOM     19  C   UNL     1      33.519  18.684  -0.887  1.00  0.00    -0.003 C 
ATOM     20  C   UNL     1      34.844  19.441  -0.855  1.00  0.00     0.004 C 
ENDBRANCH  18  19
ENDBRANCH  17  18
ENDBRANCH  16  17
ENDBRANCH  15  16
ENDBRANCH  13  14
ENDBRANCH  12  13
ENDBRANCH   1  11
TORSDOF 14
ENDMDL
