MODEL 1
REMARK VINA RESULT:    -3.325      0.000      0.000
REMARK INTER + INTRA:          -3.542
REMARK INTER:                  -3.519
REMARK INTRA:                  -0.023
REMARK UNBOUND:                -0.023
REMARK SMILES O=C([O-])c1cccnc1
REMARK SMILES IDX 4 1 5 2 9 3 6 4 8 5 7 6 2 7 1 8 3 9
REMARK H PARENT
REMARK Flexibility Score: inf
ROOT
ATOM      1  C   UNL     1     -95.555 148.481 238.560  1.00  0.00     0.016 A 
ATOM      2  C   UNL     1     -95.938 149.832 238.571  1.00  0.00     0.013 A 
ATOM      3  C   UNL     1     -96.272 147.577 239.363  1.00  0.00     0.120 A 
ATOM      4  C   UNL     1     -97.007 150.252 239.365  1.00  0.00     0.021 A 
ATOM      5  N   UNL     1     -97.309 148.011 240.127  1.00  0.00    -0.264 NA
ATOM      6  C   UNL     1     -97.688 149.316 240.145  1.00  0.00     0.111 A 
ENDROOT
BRANCH   1   7
ATOM      7  C   UNL     1     -94.425 148.017 237.726  1.00  0.00     0.073 C 
ATOM      8  O   UNL     1     -93.924 146.875 237.905  1.00  0.00    -0.545 OA
ATOM      9  O   UNL     1     -93.901 148.836 236.732  1.00  0.00    -0.545 OA
ENDBRANCH   1   7
TORSDOF 1
ENDMDL
MODEL 2
REMARK VINA RESULT:    -3.299      2.964      3.803
REMARK INTER + INTRA:          -3.515
REMARK INTER:                  -3.495
REMARK INTRA:                  -0.020
REMARK UNBOUND:                -0.023
REMARK SMILES O=C([O-])c1cccnc1
REMARK SMILES IDX 4 1 5 2 9 3 6 4 8 5 7 6 2 7 1 8 3 9
REMARK H PARENT
REMARK Flexibility Score: inf
ROOT
ATOM      1  C   UNL     1     -96.935 149.347 239.359  1.00  0.00     0.016 A 
ATOM      2  C   UNL     1     -95.801 149.697 238.608  1.00  0.00     0.013 A 
ATOM      3  C   UNL     1     -97.055 148.021 239.808  1.00  0.00     0.120 A 
ATOM      4  C   UNL     1     -94.826 148.740 238.323  1.00  0.00     0.021 A 
ATOM      5  N   UNL     1     -96.090 147.107 239.517  1.00  0.00    -0.264 NA
ATOM      6  C   UNL     1     -94.989 147.436 238.791  1.00  0.00     0.111 A 
ENDROOT
BRANCH   1   7
ATOM      7  C   UNL     1     -97.980 150.346 239.672  1.00  0.00     0.073 C 
ATOM      8  O   UNL     1     -98.421 151.113 238.776  1.00  0.00    -0.545 OA
ATOM      9  O   UNL     1     -98.490 150.451 240.962  1.00  0.00    -0.545 OA
ENDBRANCH   1   7
TORSDOF 1
ENDMDL
MODEL 3
REMARK VINA RESULT:    -3.200      2.638      3.724
REMARK INTER + INTRA:          -3.411
REMARK INTER:                  -3.387
REMARK INTRA:                  -0.023
REMARK UNBOUND:                -0.023
REMARK SMILES O=C([O-])c1cccnc1
REMARK SMILES IDX 4 1 5 2 9 3 6 4 8 5 7 6 2 7 1 8 3 9
REMARK H PARENT
REMARK Flexibility Score: inf
ROOT
ATOM      1  C   UNL     1     -95.825 148.720 238.564  1.00  0.00     0.016 A 
ATOM      2  C   UNL     1     -95.352 149.278 237.365  1.00  0.00     0.013 A 
ATOM      3  C   UNL     1     -95.282 147.495 238.990  1.00  0.00     0.120 A 
ATOM      4  C   UNL     1     -94.367 148.621 236.626  1.00  0.00     0.021 A 
ATOM      5  N   UNL     1     -94.323 146.875 238.251  1.00  0.00    -0.264 NA
ATOM      6  C   UNL     1     -93.859 147.407 237.090  1.00  0.00     0.111 A 
ENDROOT
BRANCH   1   7
ATOM      7  C   UNL     1     -96.868 149.400 239.362  1.00  0.00     0.073 C 
ATOM      8  O   UNL     1     -97.122 150.620 239.176  1.00  0.00    -0.545 OA
ATOM      9  O   UNL     1     -97.582 148.701 240.328  1.00  0.00    -0.545 OA
ENDBRANCH   1   7
TORSDOF 1
ENDMDL
MODEL 4
REMARK VINA RESULT:    -3.137      2.882      3.997
REMARK INTER + INTRA:          -3.343
REMARK INTER:                  -3.327
REMARK INTRA:                  -0.017
REMARK UNBOUND:                -0.023
REMARK SMILES O=C([O-])c1cccnc1
REMARK SMILES IDX 4 1 5 2 9 3 6 4 8 5 7 6 2 7 1 8 3 9
REMARK H PARENT
REMARK Flexibility Score: inf
ROOT
ATOM      1  C   UNL     1     -96.074 149.163 238.053  1.00  0.00     0.016 A 
ATOM      2  C   UNL     1     -94.703 148.898 238.207  1.00  0.00     0.013 A 
ATOM      3  C   UNL     1     -96.632 149.063 236.767  1.00  0.00     0.120 A 
ATOM      4  C   UNL     1     -93.928 148.544 237.101  1.00  0.00     0.021 A 
ATOM      5  N   UNL     1     -95.856 148.717 235.706  1.00  0.00    -0.264 NA
ATOM      6  C   UNL     1     -94.529 148.458 235.844  1.00  0.00     0.111 A 
ENDROOT
BRANCH   1   7
ATOM      7  C   UNL     1     -96.912 149.539 239.212  1.00  0.00     0.073 C 
ATOM      8  O   UNL     1     -97.332 150.719 239.343  1.00  0.00    -0.545 OA
ATOM      9  O   UNL     1     -97.246 148.593 240.175  1.00  0.00    -0.545 OA
ENDBRANCH   1   7
TORSDOF 1
ENDMDL
MODEL 5
REMARK VINA RESULT:    -3.077     15.105     15.987
REMARK INTER + INTRA:          -3.280
REMARK INTER:                  -3.256
REMARK INTRA:                  -0.024
REMARK UNBOUND:                -0.023
REMARK SMILES O=C([O-])c1cccnc1
REMARK SMILES IDX 4 1 5 2 9 3 6 4 8 5 7 6 2 7 1 8 3 9
REMARK H PARENT
REMARK Flexibility Score: inf
ROOT
ATOM      1  C   UNL     1     -92.145 163.509 236.603  1.00  0.00     0.016 A 
ATOM      2  C   UNL     1     -91.441 162.308 236.413  1.00  0.00     0.013 A 
ATOM      3  C   UNL     1     -92.259 164.394 235.517  1.00  0.00     0.120 A 
ATOM      4  C   UNL     1     -90.875 162.015 235.171  1.00  0.00     0.021 A 
ATOM      5  N   UNL     1     -91.698 164.085 234.317  1.00  0.00    -0.264 NA
ATOM      6  C   UNL     1     -91.016 162.926 234.123  1.00  0.00     0.111 A 
ENDROOT
BRANCH   1   7
ATOM      7  C   UNL     1     -92.752 163.838 237.910  1.00  0.00     0.073 C 
ATOM      8  O   UNL     1     -92.840 162.964 238.813  1.00  0.00    -0.545 OA
ATOM      9  O   UNL     1     -93.234 165.118 238.160  1.00  0.00    -0.545 OA
ENDBRANCH   1   7
TORSDOF 1
ENDMDL
MODEL 6
REMARK VINA RESULT:    -3.056      1.600      2.093
REMARK INTER + INTRA:          -3.258
REMARK INTER:                  -3.241
REMARK INTRA:                  -0.017
REMARK UNBOUND:                -0.023
REMARK SMILES O=C([O-])c1cccnc1
REMARK SMILES IDX 4 1 5 2 9 3 6 4 8 5 7 6 2 7 1 8 3 9
REMARK H PARENT
REMARK Flexibility Score: inf
ROOT
ATOM      1  C   UNL     1     -96.056 149.155 237.731  1.00  0.00     0.016 A 
ATOM      2  C   UNL     1     -96.169 149.890 238.922  1.00  0.00     0.013 A 
ATOM      3  C   UNL     1     -97.175 149.081 236.884  1.00  0.00     0.120 A 
ATOM      4  C   UNL     1     -97.369 150.526 239.244  1.00  0.00     0.021 A 
ATOM      5  N   UNL     1     -98.334 149.710 237.220  1.00  0.00    -0.264 NA
ATOM      6  C   UNL     1     -98.453 150.423 238.370  1.00  0.00     0.111 A 
ENDROOT
BRANCH   1   7
ATOM      7  C   UNL     1     -94.793 148.474 237.372  1.00  0.00     0.073 C 
ATOM      8  O   UNL     1     -94.062 148.925 236.451  1.00  0.00    -0.545 OA
ATOM      9  O   UNL     1     -94.396 147.326 238.049  1.00  0.00    -0.545 OA
ENDBRANCH   1   7
TORSDOF 1
ENDMDL
MODEL 7
REMARK VINA RESULT:    -3.006      3.017      4.115
REMARK INTER + INTRA:          -3.205
REMARK INTER:                  -3.183
REMARK INTRA:                  -0.022
REMARK UNBOUND:                -0.023
REMARK SMILES O=C([O-])c1cccnc1
REMARK SMILES IDX 4 1 5 2 9 3 6 4 8 5 7 6 2 7 1 8 3 9
REMARK H PARENT
REMARK Flexibility Score: inf
ROOT
ATOM      1  C   UNL     1     -94.858 148.397 236.932  1.00  0.00     0.016 A 
ATOM      2  C   UNL     1     -95.541 149.068 235.904  1.00  0.00     0.013 A 
ATOM      3  C   UNL     1     -93.882 147.450 236.577  1.00  0.00     0.120 A 
ATOM      4  C   UNL     1     -95.246 148.790 234.568  1.00  0.00     0.021 A 
ATOM      5  N   UNL     1     -93.614 147.198 235.268  1.00  0.00    -0.264 NA
ATOM      6  C   UNL     1     -94.268 147.841 234.267  1.00  0.00     0.111 A 
ENDROOT
BRANCH   1   7
ATOM      7  C   UNL     1     -95.156 148.677 238.353  1.00  0.00     0.073 C 
ATOM      8  O   UNL     1     -94.974 147.793 239.232  1.00  0.00    -0.545 OA
ATOM      9  O   UNL     1     -95.641 149.922 238.739  1.00  0.00    -0.545 OA
ENDBRANCH   1   7
TORSDOF 1
ENDMDL
MODEL 8
REMARK VINA RESULT:    -2.923     14.340     15.349
REMARK INTER + INTRA:          -3.117
REMARK INTER:                  -3.094
REMARK INTRA:                  -0.023
REMARK UNBOUND:                -0.023
REMARK SMILES O=C([O-])c1cccnc1
REMARK SMILES IDX 4 1 5 2 9 3 6 4 8 5 7 6 2 7 1 8 3 9
REMARK H PARENT
REMARK Flexibility Score: inf
ROOT
ATOM      1  C   UNL     1     -92.108 161.344 231.592  1.00  0.00     0.016 A 
ATOM      2  C   UNL     1     -92.439 160.009 231.876  1.00  0.00     0.013 A 
ATOM      3  C   UNL     1     -92.508 161.883 230.358  1.00  0.00     0.120 A 
ATOM      4  C   UNL     1     -93.148 159.249 230.943  1.00  0.00     0.021 A 
ATOM      5  N   UNL     1     -93.198 161.122 229.466  1.00  0.00    -0.264 NA
ATOM      6  C   UNL     1     -93.523 159.829 229.731  1.00  0.00     0.111 A 
ENDROOT
BRANCH   1   7
ATOM      7  C   UNL     1     -91.358 162.165 232.567  1.00  0.00     0.073 C 
ATOM      8  O   UNL     1     -90.875 163.279 232.228  1.00  0.00    -0.545 OA
ATOM      9  O   UNL     1     -91.176 161.719 233.871  1.00  0.00    -0.545 OA
ENDBRANCH   1   7
TORSDOF 1
ENDMDL
