MODEL 1
REMARK VINA RESULT:    -3.683      0.000      0.000
REMARK INTER + INTRA:          -9.439
REMARK INTER:                  -6.912
REMARK INTRA:                  -2.527
REMARK UNBOUND:                -2.527
REMARK SMILES O=C([O-])CCCCCCCCCCCCCCC(=O)[O-]
REMARK SMILES IDX 10 1 9 2 8 3 7 4 6 5 5 6 4 7 2 8 1 9 3 10 11 11 12 12 13 13
REMARK SMILES IDX 14 14 15 15 16 16 17 17 18 18 19 19 20 20
REMARK H PARENT
REMARK Flexibility Score: inf
ROOT
ATOM      1  C   UNL     1      26.592   2.592   6.704  1.00  0.00     0.000 C 
ENDROOT
BRANCH   1   2
ATOM      2  C   UNL     1      27.811   1.657   6.681  1.00  0.00     0.000 C 
BRANCH   2   3
ATOM      3  C   UNL     1      27.687   0.550   5.620  1.00  0.00     0.000 C 
BRANCH   3   4
ATOM      4  C   UNL     1      27.529  -0.848   6.240  1.00  0.00     0.000 C 
BRANCH   4   5
ATOM      5  C   UNL     1      28.267  -0.989   7.580  1.00  0.00     0.000 C 
BRANCH   5   6
ATOM      6  C   UNL     1      27.922  -2.325   8.257  1.00  0.00     0.006 C 
BRANCH   6   7
ATOM      7  C   UNL     1      28.957  -3.415   7.951  1.00  0.00     0.053 C 
BRANCH   7   8
ATOM      8  C   UNL     1      28.319  -4.637   7.366  1.00  0.00     0.041 C 
ATOM      9  O   UNL     1      27.256  -4.541   6.699  1.00  0.00    -0.550 OA
ATOM     10  O   UNL     1      28.919  -5.881   7.529  1.00  0.00    -0.550 OA
ENDBRANCH   7   8
ENDBRANCH   6   7
ENDBRANCH   5   6
ENDBRANCH   4   5
ENDBRANCH   3   4
ENDBRANCH   2   3
ENDBRANCH   1   2
BRANCH   1  11
ATOM     11  C   UNL     1      25.803   2.506   8.023  1.00  0.00     0.000 C 
BRANCH  11  12
ATOM     12  C   UNL     1      26.474   1.578   9.048  1.00  0.00     0.000 C 
BRANCH  12  13
ATOM     13  C   UNL     1      25.496   0.549   9.642  1.00  0.00     0.000 C 
BRANCH  13  14
ATOM     14  C   UNL     1      24.304   0.271   8.701  1.00  0.00     0.000 C 
BRANCH  14  15
ATOM     15  C   UNL     1      24.331  -1.134   8.074  1.00  0.00     0.000 C 
BRANCH  15  16
ATOM     16  C   UNL     1      23.775  -1.161   6.642  1.00  0.00     0.006 C 
BRANCH  16  17
ATOM     17  C   UNL     1      23.684   0.242   6.028  1.00  0.00     0.053 C 
BRANCH  17  18
ATOM     18  C   UNL     1      22.317   0.522   5.482  1.00  0.00     0.041 C 
ATOM     19  O   UNL     1      21.332   0.622   6.261  1.00  0.00    -0.550 OA
ATOM     20  O   UNL     1      22.137   0.707   4.118  1.00  0.00    -0.550 OA
ENDBRANCH  17  18
ENDBRANCH  16  17
ENDBRANCH  15  16
ENDBRANCH  14  15
ENDBRANCH  13  14
ENDBRANCH  12  13
ENDBRANCH  11  12
ENDBRANCH   1  11
TORSDOF 15
ENDMDL
MODEL 2
REMARK VINA RESULT:    -3.681      2.771      4.075
REMARK INTER + INTRA:          -9.435
REMARK INTER:                  -7.388
REMARK INTRA:                  -2.047
REMARK UNBOUND:                -2.527
REMARK SMILES O=C([O-])CCCCCCCCCCCCCCC(=O)[O-]
REMARK SMILES IDX 10 1 9 2 8 3 7 4 6 5 5 6 4 7 2 8 1 9 3 10 11 11 12 12 13 13
REMARK SMILES IDX 14 14 15 15 16 16 17 17 18 18 19 19 20 20
REMARK H PARENT
REMARK Flexibility Score: inf
ROOT
ATOM      1  C   UNL     1      28.693  -1.100  10.213  1.00  0.00     0.000 C 
ENDROOT
BRANCH   1   2
ATOM      2  C   UNL     1      29.111  -1.033   8.737  1.00  0.00     0.000 C 
BRANCH   2   3
ATOM      3  C   UNL     1      28.838  -2.347   7.985  1.00  0.00     0.000 C 
BRANCH   3   4
ATOM      4  C   UNL     1      27.475  -2.349   7.275  1.00  0.00     0.000 C 
BRANCH   4   5
ATOM      5  C   UNL     1      26.976  -0.934   6.945  1.00  0.00     0.000 C 
BRANCH   5   6
ATOM      6  C   UNL     1      27.519  -0.464   5.586  1.00  0.00     0.006 C 
BRANCH   6   7
ATOM      7  C   UNL     1      27.973   1.002   5.619  1.00  0.00     0.053 C 
BRANCH   7   8
ATOM      8  C   UNL     1      26.820   1.943   5.457  1.00  0.00     0.041 C 
ATOM      9  O   UNL     1      26.623   2.857   6.301  1.00  0.00    -0.550 OA
ATOM     10  O   UNL     1      25.981   1.833   4.354  1.00  0.00    -0.550 OA
ENDBRANCH   7   8
ENDBRANCH   6   7
ENDBRANCH   5   6
ENDBRANCH   4   5
ENDBRANCH   3   4
ENDBRANCH   2   3
ENDBRANCH   1   2
BRANCH   1  11
ATOM     11  C   UNL     1      27.522  -0.155  10.542  1.00  0.00     0.000 C 
BRANCH  11  12
ATOM     12  C   UNL     1      26.167  -0.881  10.544  1.00  0.00     0.000 C 
BRANCH  12  13
ATOM     13  C   UNL     1      24.981   0.084  10.375  1.00  0.00     0.000 C 
BRANCH  13  14
ATOM     14  C   UNL     1      25.267   1.180   9.326  1.00  0.00     0.000 C 
BRANCH  14  15
ATOM     15  C   UNL     1      24.060   1.501   8.428  1.00  0.00     0.000 C 
BRANCH  15  16
ATOM     16  C   UNL     1      23.474   0.254   7.745  1.00  0.00     0.006 C 
BRANCH  16  17
ATOM     17  C   UNL     1      23.571   0.332   6.216  1.00  0.00     0.053 C 
BRANCH  17  18
ATOM     18  C   UNL     1      22.263   0.011   5.560  1.00  0.00     0.041 C 
ATOM     19  O   UNL     1      21.802   0.766   4.663  1.00  0.00    -0.550 OA
ATOM     20  O   UNL     1      21.569  -1.139   5.914  1.00  0.00    -0.550 OA
ENDBRANCH  17  18
ENDBRANCH  16  17
ENDBRANCH  15  16
ENDBRANCH  14  15
ENDBRANCH  13  14
ENDBRANCH  12  13
ENDBRANCH  11  12
ENDBRANCH   1  11
TORSDOF 15
ENDMDL
MODEL 3
REMARK VINA RESULT:    -3.665      3.134      5.551
REMARK INTER + INTRA:          -9.405
REMARK INTER:                  -6.856
REMARK INTRA:                  -2.549
REMARK UNBOUND:                -2.527
REMARK SMILES O=C([O-])CCCCCCCCCCCCCCC(=O)[O-]
REMARK SMILES IDX 10 1 9 2 8 3 7 4 6 5 5 6 4 7 2 8 1 9 3 10 11 11 12 12 13 13
REMARK SMILES IDX 14 14 15 15 16 16 17 17 18 18 19 19 20 20
REMARK H PARENT
REMARK Flexibility Score: inf
ROOT
ATOM      1  C   UNL     1      28.952  -2.681   7.795  1.00  0.00     0.000 C 
ENDROOT
BRANCH   1   2
ATOM      2  C   UNL     1      28.752  -1.209   8.184  1.00  0.00     0.000 C 
BRANCH   2   3
ATOM      3  C   UNL     1      28.418  -1.031   9.675  1.00  0.00     0.000 C 
BRANCH   3   4
ATOM      4  C   UNL     1      27.190  -0.135   9.902  1.00  0.00     0.000 C 
BRANCH   4   5
ATOM      5  C   UNL     1      26.035  -0.876  10.593  1.00  0.00     0.000 C 
BRANCH   5   6
ATOM      6  C   UNL     1      25.058   0.117  11.243  1.00  0.00     0.006 C 
BRANCH   6   7
ATOM      7  C   UNL     1      24.126   0.772  10.214  1.00  0.00     0.053 C 
BRANCH   7   8
ATOM      8  C   UNL     1      24.374   2.244  10.099  1.00  0.00     0.041 C 
ATOM      9  O   UNL     1      23.793   3.049  10.873  1.00  0.00    -0.550 OA
ATOM     10  O   UNL     1      25.276   2.727   9.157  1.00  0.00    -0.550 OA
ENDBRANCH   7   8
ENDBRANCH   6   7
ENDBRANCH   5   6
ENDBRANCH   4   5
ENDBRANCH   3   4
ENDBRANCH   2   3
ENDBRANCH   1   2
BRANCH   1  11
ATOM     11  C   UNL     1      27.763  -3.251   6.998  1.00  0.00     0.000 C 
BRANCH  11  12
ATOM     12  C   UNL     1      26.698  -3.883   7.907  1.00  0.00     0.000 C 
BRANCH  12  13
ATOM     13  C   UNL     1      25.324  -3.203   7.767  1.00  0.00     0.000 C 
BRANCH  13  14
ATOM     14  C   UNL     1      25.312  -2.145   6.642  1.00  0.00     0.000 C 
BRANCH  14  15
ATOM     15  C   UNL     1      24.381  -0.954   6.930  1.00  0.00     0.000 C 
BRANCH  15  16
ATOM     16  C   UNL     1      25.033   0.403   6.619  1.00  0.00     0.006 C 
BRANCH  16  17
ATOM     17  C   UNL     1      26.386   0.248   5.912  1.00  0.00     0.053 C 
BRANCH  17  18
ATOM     18  C   UNL     1      27.107   1.556   5.799  1.00  0.00     0.041 C 
ATOM     19  O   UNL     1      28.030   1.842   6.606  1.00  0.00    -0.550 OA
ATOM     20  O   UNL     1      26.781   2.445   4.783  1.00  0.00    -0.550 OA
ENDBRANCH  17  18
ENDBRANCH  16  17
ENDBRANCH  15  16
ENDBRANCH  14  15
ENDBRANCH  13  14
ENDBRANCH  12  13
ENDBRANCH  11  12
ENDBRANCH   1  11
TORSDOF 15
ENDMDL
MODEL 4
REMARK VINA RESULT:    -3.659      2.068      3.174
REMARK INTER + INTRA:          -9.395
REMARK INTER:                  -7.197
REMARK INTRA:                  -2.198
REMARK UNBOUND:                -2.527
REMARK SMILES O=C([O-])CCCCCCCCCCCCCCC(=O)[O-]
REMARK SMILES IDX 10 1 9 2 8 3 7 4 6 5 5 6 4 7 2 8 1 9 3 10 11 11 12 12 13 13
REMARK SMILES IDX 14 14 15 15 16 16 17 17 18 18 19 19 20 20
REMARK H PARENT
REMARK Flexibility Score: inf
ROOT
ATOM      1  C   UNL     1      27.699   0.500   5.524  1.00  0.00     0.000 C 
ENDROOT
BRANCH   1   2
ATOM      2  C   UNL     1      27.503  -0.748   6.398  1.00  0.00     0.000 C 
BRANCH   2   3
ATOM      3  C   UNL     1      28.358  -0.714   7.677  1.00  0.00     0.000 C 
BRANCH   3   4
ATOM      4  C   UNL     1      28.464  -2.091   8.352  1.00  0.00     0.000 C 
BRANCH   4   5
ATOM      5  C   UNL     1      28.952  -3.187   7.393  1.00  0.00     0.000 C 
BRANCH   5   6
ATOM      6  C   UNL     1      28.002  -4.395   7.413  1.00  0.00     0.006 C 
BRANCH   6   7
ATOM      7  C   UNL     1      27.903  -5.077   6.041  1.00  0.00     0.053 C 
BRANCH   7   8
ATOM      8  C   UNL     1      27.228  -4.200   5.033  1.00  0.00     0.041 C 
ATOM      9  O   UNL     1      27.866  -3.768   4.038  1.00  0.00    -0.550 OA
ATOM     10  O   UNL     1      25.881  -3.887   5.175  1.00  0.00    -0.550 OA
ENDBRANCH   7   8
ENDBRANCH   6   7
ENDBRANCH   5   6
ENDBRANCH   4   5
ENDBRANCH   3   4
ENDBRANCH   2   3
ENDBRANCH   1   2
BRANCH   1  11
ATOM     11  C   UNL     1      27.964   1.770   6.355  1.00  0.00     0.000 C 
BRANCH  11  12
ATOM     12  C   UNL     1      26.671   2.529   6.693  1.00  0.00     0.000 C 
BRANCH  12  13
ATOM     13  C   UNL     1      26.443   2.660   8.209  1.00  0.00     0.000 C 
BRANCH  13  14
ATOM     14  C   UNL     1      25.483   1.578   8.748  1.00  0.00     0.000 C 
BRANCH  14  15
ATOM     15  C   UNL     1      26.082   0.740   9.891  1.00  0.00     0.000 C 
BRANCH  15  16
ATOM     16  C   UNL     1      25.446  -0.654  10.009  1.00  0.00     0.006 C 
BRANCH  16  17
ATOM     17  C   UNL     1      24.224  -0.813   9.095  1.00  0.00     0.053 C 
BRANCH  17  18
ATOM     18  C   UNL     1      24.435  -1.881   8.066  1.00  0.00     0.041 C 
ATOM     19  O   UNL     1      24.964  -2.977   8.390  1.00  0.00    -0.550 OA
ATOM     20  O   UNL     1      24.015  -1.681   6.757  1.00  0.00    -0.550 OA
ENDBRANCH  17  18
ENDBRANCH  16  17
ENDBRANCH  15  16
ENDBRANCH  14  15
ENDBRANCH  13  14
ENDBRANCH  12  13
ENDBRANCH  11  12
ENDBRANCH   1  11
TORSDOF 15
ENDMDL
MODEL 5
REMARK VINA RESULT:    -3.635      2.630      3.808
REMARK INTER + INTRA:          -9.350
REMARK INTER:                  -7.356
REMARK INTRA:                  -1.994
REMARK UNBOUND:                -2.527
REMARK SMILES O=C([O-])CCCCCCCCCCCCCCC(=O)[O-]
REMARK SMILES IDX 10 1 9 2 8 3 7 4 6 5 5 6 4 7 2 8 1 9 3 10 11 11 12 12 13 13
REMARK SMILES IDX 14 14 15 15 16 16 17 17 18 18 19 19 20 20
REMARK H PARENT
REMARK Flexibility Score: inf
ROOT
ATOM      1  C   UNL     1      27.610   0.505   5.603  1.00  0.00     0.000 C 
ENDROOT
BRANCH   1   2
ATOM      2  C   UNL     1      27.612  -0.822   6.377  1.00  0.00     0.000 C 
BRANCH   2   3
ATOM      3  C   UNL     1      28.364  -0.724   7.715  1.00  0.00     0.000 C 
BRANCH   3   4
ATOM      4  C   UNL     1      28.441  -2.073   8.449  1.00  0.00     0.000 C 
BRANCH   4   5
ATOM      5  C   UNL     1      28.870  -3.226   7.529  1.00  0.00     0.000 C 
BRANCH   5   6
ATOM      6  C   UNL     1      27.744  -4.262   7.388  1.00  0.00     0.006 C 
BRANCH   6   7
ATOM      7  C   UNL     1      27.846  -5.055   6.077  1.00  0.00     0.053 C 
BRANCH   7   8
ATOM      8  C   UNL     1      27.133  -4.365   4.956  1.00  0.00     0.041 C 
ATOM      9  O   UNL     1      25.875  -4.308   4.943  1.00  0.00    -0.550 OA
ATOM     10  O   UNL     1      27.859  -3.755   3.940  1.00  0.00    -0.550 OA
ENDBRANCH   7   8
ENDBRANCH   6   7
ENDBRANCH   5   6
ENDBRANCH   4   5
ENDBRANCH   3   4
ENDBRANCH   2   3
ENDBRANCH   1   2
BRANCH   1  11
ATOM     11  C   UNL     1      27.969   1.711   6.492  1.00  0.00     0.000 C 
BRANCH  11  12
ATOM     12  C   UNL     1      26.746   2.581   6.821  1.00  0.00     0.000 C 
BRANCH  12  13
ATOM     13  C   UNL     1      26.229   2.355   8.253  1.00  0.00     0.000 C 
BRANCH  13  14
ATOM     14  C   UNL     1      24.747   1.924   8.274  1.00  0.00     0.000 C 
BRANCH  14  15
ATOM     15  C   UNL     1      24.540   0.427   7.984  1.00  0.00     0.000 C 
BRANCH  15  16
ATOM     16  C   UNL     1      24.093  -0.366   9.223  1.00  0.00     0.006 C 
BRANCH  16  17
ATOM     17  C   UNL     1      25.266  -1.074   9.913  1.00  0.00     0.053 C 
BRANCH  17  18
ATOM     18  C   UNL     1      25.897  -0.211  10.961  1.00  0.00     0.041 C 
ATOM     19  O   UNL     1      25.190   0.303  11.868  1.00  0.00    -0.550 OA
ATOM     20  O   UNL     1      27.270  -0.000  10.958  1.00  0.00    -0.550 OA
ENDBRANCH  17  18
ENDBRANCH  16  17
ENDBRANCH  15  16
ENDBRANCH  14  15
ENDBRANCH  13  14
ENDBRANCH  12  13
ENDBRANCH  11  12
ENDBRANCH   1  11
TORSDOF 15
ENDMDL
MODEL 6
REMARK VINA RESULT:    -3.614      2.369      5.643
REMARK INTER + INTRA:          -9.310
REMARK INTER:                  -7.070
REMARK INTRA:                  -2.240
REMARK UNBOUND:                -2.527
REMARK SMILES O=C([O-])CCCCCCCCCCCCCCC(=O)[O-]
REMARK SMILES IDX 10 1 9 2 8 3 7 4 6 5 5 6 4 7 2 8 1 9 3 10 11 11 12 12 13 13
REMARK SMILES IDX 14 14 15 15 16 16 17 17 18 18 19 19 20 20
REMARK H PARENT
REMARK Flexibility Score: inf
ROOT
ATOM      1  C   UNL     1      26.893  -0.037   5.866  1.00  0.00     0.000 C 
ENDROOT
BRANCH   1   2
ATOM      2  C   UNL     1      27.630  -1.303   6.329  1.00  0.00     0.000 C 
BRANCH   2   3
ATOM      3  C   UNL     1      26.699  -2.524   6.430  1.00  0.00     0.000 C 
BRANCH   3   4
ATOM      4  C   UNL     1      26.209  -2.776   7.864  1.00  0.00     0.000 C 
BRANCH   4   5
ATOM      5  C   UNL     1      24.682  -2.923   7.953  1.00  0.00     0.000 C 
BRANCH   5   6
ATOM      6  C   UNL     1      23.996  -2.239   6.760  1.00  0.00     0.006 C 
BRANCH   6   7
ATOM      7  C   UNL     1      23.231  -0.975   7.177  1.00  0.00     0.053 C 
BRANCH   7   8
ATOM      8  C   UNL     1      22.402  -0.433   6.054  1.00  0.00     0.041 C 
ATOM      9  O   UNL     1      21.236  -0.865   5.858  1.00  0.00    -0.550 OA
ATOM     10  O   UNL     1      22.906   0.578   5.243  1.00  0.00    -0.550 OA
ENDBRANCH   7   8
ENDBRANCH   6   7
ENDBRANCH   5   6
ENDBRANCH   4   5
ENDBRANCH   3   4
ENDBRANCH   2   3
ENDBRANCH   1   2
BRANCH   1  11
ATOM     11  C   UNL     1      27.857   1.105   5.492  1.00  0.00     0.000 C 
BRANCH  11  12
ATOM     12  C   UNL     1      27.869   2.229   6.540  1.00  0.00     0.000 C 
BRANCH  12  13
ATOM     13  C   UNL     1      26.457   2.588   7.036  1.00  0.00     0.000 C 
BRANCH  13  14
ATOM     14  C   UNL     1      26.332   2.465   8.570  1.00  0.00     0.000 C 
BRANCH  14  15
ATOM     15  C   UNL     1      25.362   1.358   9.019  1.00  0.00     0.000 C 
BRANCH  15  16
ATOM     16  C   UNL     1      26.057   0.242   9.816  1.00  0.00     0.006 C 
BRANCH  16  17
ATOM     17  C   UNL     1      27.582   0.280   9.658  1.00  0.00     0.053 C 
BRANCH  17  18
ATOM     18  C   UNL     1      28.274  -0.449  10.769  1.00  0.00     0.041 C 
ATOM     19  O   UNL     1      28.283  -1.708  10.790  1.00  0.00    -0.550 OA
ATOM     20  O   UNL     1      28.937   0.261  11.762  1.00  0.00    -0.550 OA
ENDBRANCH  17  18
ENDBRANCH  16  17
ENDBRANCH  15  16
ENDBRANCH  14  15
ENDBRANCH  13  14
ENDBRANCH  12  13
ENDBRANCH  11  12
ENDBRANCH   1  11
TORSDOF 15
ENDMDL
MODEL 7
REMARK VINA RESULT:    -3.603     11.265     13.114
REMARK INTER + INTRA:          -9.290
REMARK INTER:                  -7.324
REMARK INTRA:                  -1.966
REMARK UNBOUND:                -2.527
REMARK SMILES O=C([O-])CCCCCCCCCCCCCCC(=O)[O-]
REMARK SMILES IDX 10 1 9 2 8 3 7 4 6 5 5 6 4 7 2 8 1 9 3 10 11 11 12 12 13 13
REMARK SMILES IDX 14 14 15 15 16 16 17 17 18 18 19 19 20 20
REMARK H PARENT
REMARK Flexibility Score: inf
ROOT
ATOM      1  C   UNL     1      25.404  -2.737  17.867  1.00  0.00     0.000 C 
ENDROOT
BRANCH   1   2
ATOM      2  C   UNL     1      24.010  -2.215  17.488  1.00  0.00     0.000 C 
BRANCH   2   3
ATOM      3  C   UNL     1      23.205  -1.740  18.710  1.00  0.00     0.000 C 
BRANCH   3   4
ATOM      4  C   UNL     1      22.023  -2.668  19.035  1.00  0.00     0.000 C 
BRANCH   4   5
ATOM      5  C   UNL     1      21.988  -3.919  18.145  1.00  0.00     0.000 C 
BRANCH   5   6
ATOM      6  C   UNL     1      21.804  -5.189  18.991  1.00  0.00     0.006 C 
BRANCH   6   7
ATOM      7  C   UNL     1      21.206  -6.346  18.179  1.00  0.00     0.053 C 
BRANCH   7   8
ATOM      8  C   UNL     1      19.978  -6.904  18.830  1.00  0.00     0.041 C 
ATOM      9  O   UNL     1      19.316  -7.813  18.263  1.00  0.00    -0.550 OA
ATOM     10  O   UNL     1      19.584  -6.444  20.080  1.00  0.00    -0.550 OA
ENDBRANCH   7   8
ENDBRANCH   6   7
ENDBRANCH   5   6
ENDBRANCH   4   5
ENDBRANCH   3   4
ENDBRANCH   2   3
ENDBRANCH   1   2
BRANCH   1  11
ATOM     11  C   UNL     1      25.750  -4.066  17.170  1.00  0.00     0.000 C 
BRANCH  11  12
ATOM     12  C   UNL     1      25.784  -5.250  18.149  1.00  0.00     0.000 C 
BRANCH  12  13
ATOM     13  C   UNL     1      25.017  -6.475  17.621  1.00  0.00     0.000 C 
BRANCH  13  14
ATOM     14  C   UNL     1      24.351  -6.198  16.256  1.00  0.00     0.000 C 
BRANCH  14  15
ATOM     15  C   UNL     1      24.870  -7.103  15.126  1.00  0.00     0.000 C 
BRANCH  15  16
ATOM     16  C   UNL     1      23.813  -8.100  14.623  1.00  0.00     0.006 C 
BRANCH  16  17
ATOM     17  C   UNL     1      24.135  -9.543  15.033  1.00  0.00     0.053 C 
BRANCH  17  18
ATOM     18  C   UNL     1      23.788  -9.804  16.467  1.00  0.00     0.041 C 
ATOM     19  O   UNL     1      24.672 -10.206  17.269  1.00  0.00    -0.550 OA
ATOM     20  O   UNL     1      22.498  -9.571  16.925  1.00  0.00    -0.550 OA
ENDBRANCH  17  18
ENDBRANCH  16  17
ENDBRANCH  15  16
ENDBRANCH  14  15
ENDBRANCH  13  14
ENDBRANCH  12  13
ENDBRANCH  11  12
ENDBRANCH   1  11
TORSDOF 15
ENDMDL
MODEL 8
REMARK VINA RESULT:    -3.585      1.396      5.358
REMARK INTER + INTRA:          -9.256
REMARK INTER:                  -7.105
REMARK INTRA:                  -2.151
REMARK UNBOUND:                -2.527
REMARK SMILES O=C([O-])CCCCCCCCCCCCCCC(=O)[O-]
REMARK SMILES IDX 10 1 9 2 8 3 7 4 6 5 5 6 4 7 2 8 1 9 3 10 11 11 12 12 13 13
REMARK SMILES IDX 14 14 15 15 16 16 17 17 18 18 19 19 20 20
REMARK H PARENT
REMARK Flexibility Score: inf
ROOT
ATOM      1  C   UNL     1      28.006   1.730   6.472  1.00  0.00     0.000 C 
ENDROOT
BRANCH   1   2
ATOM      2  C   UNL     1      26.809   2.653   6.739  1.00  0.00     0.000 C 
BRANCH   2   3
ATOM      3  C   UNL     1      26.340   2.603   8.204  1.00  0.00     0.000 C 
BRANCH   3   4
ATOM      4  C   UNL     1      24.897   2.093   8.345  1.00  0.00     0.000 C 
BRANCH   4   5
ATOM      5  C   UNL     1      24.814   0.741   9.071  1.00  0.00     0.000 C 
BRANCH   5   6
ATOM      6  C   UNL     1      24.360  -0.370   8.111  1.00  0.00     0.006 C 
BRANCH   6   7
ATOM      7  C   UNL     1      23.862   0.189   6.771  1.00  0.00     0.053 C 
BRANCH   7   8
ATOM      8  C   UNL     1      22.822  -0.695   6.154  1.00  0.00     0.041 C 
ATOM      9  O   UNL     1      21.811  -0.192   5.596  1.00  0.00    -0.550 OA
ATOM     10  O   UNL     1      22.986  -2.075   6.166  1.00  0.00    -0.550 OA
ENDBRANCH   7   8
ENDBRANCH   6   7
ENDBRANCH   5   6
ENDBRANCH   4   5
ENDBRANCH   3   4
ENDBRANCH   2   3
ENDBRANCH   1   2
BRANCH   1  11
ATOM     11  C   UNL     1      27.672   0.597   5.483  1.00  0.00     0.000 C 
BRANCH  11  12
ATOM     12  C   UNL     1      27.485  -0.757   6.186  1.00  0.00     0.000 C 
BRANCH  12  13
ATOM     13  C   UNL     1      28.080  -0.773   7.605  1.00  0.00     0.000 C 
BRANCH  13  14
ATOM     14  C   UNL     1      28.072  -2.188   8.222  1.00  0.00     0.000 C 
BRANCH  14  15
ATOM     15  C   UNL     1      28.786  -3.240   7.356  1.00  0.00     0.000 C 
BRANCH  15  16
ATOM     16  C   UNL     1      28.059  -4.594   7.339  1.00  0.00     0.006 C 
BRANCH  16  17
ATOM     17  C   UNL     1      27.928  -5.164   5.920  1.00  0.00     0.053 C 
BRANCH  17  18
ATOM     18  C   UNL     1      27.261  -4.195   4.992  1.00  0.00     0.041 C 
ATOM     19  O   UNL     1      27.891  -3.727   4.008  1.00  0.00    -0.550 OA
ATOM     20  O   UNL     1      25.935  -3.836   5.195  1.00  0.00    -0.550 OA
ENDBRANCH  17  18
ENDBRANCH  16  17
ENDBRANCH  15  16
ENDBRANCH  14  15
ENDBRANCH  13  14
ENDBRANCH  12  13
ENDBRANCH  11  12
ENDBRANCH   1  11
TORSDOF 15
ENDMDL
MODEL 9
REMARK VINA RESULT:    -3.582     10.441     11.463
REMARK INTER + INTRA:          -9.249
REMARK INTER:                  -6.994
REMARK INTRA:                  -2.255
REMARK UNBOUND:                -2.527
REMARK SMILES O=C([O-])CCCCCCCCCCCCCCC(=O)[O-]
REMARK SMILES IDX 10 1 9 2 8 3 7 4 6 5 5 6 4 7 2 8 1 9 3 10 11 11 12 12 13 13
REMARK SMILES IDX 14 14 15 15 16 16 17 17 18 18 19 19 20 20
REMARK H PARENT
REMARK Flexibility Score: inf
ROOT
ATOM      1  C   UNL     1      25.007  -2.246  18.242  1.00  0.00     0.000 C 
ENDROOT
BRANCH   1   2
ATOM      2  C   UNL     1      24.806  -3.401  17.251  1.00  0.00     0.000 C 
BRANCH   2   3
ATOM      3  C   UNL     1      25.836  -4.528  17.439  1.00  0.00     0.000 C 
BRANCH   3   4
ATOM      4  C   UNL     1      25.221  -5.793  18.059  1.00  0.00     0.000 C 
BRANCH   4   5
ATOM      5  C   UNL     1      25.281  -7.004  17.116  1.00  0.00     0.000 C 
BRANCH   5   6
ATOM      6  C   UNL     1      25.162  -6.563  15.648  1.00  0.00     0.006 C 
BRANCH   6   7
ATOM      7  C   UNL     1      24.926  -7.750  14.703  1.00  0.00     0.053 C 
BRANCH   7   8
ATOM      8  C   UNL     1      23.468  -7.978  14.453  1.00  0.00     0.041 C 
ATOM      9  O   UNL     1      22.827  -8.814  15.143  1.00  0.00    -0.550 OA
ATOM     10  O   UNL     1      22.806  -7.241  13.478  1.00  0.00    -0.550 OA
ENDBRANCH   7   8
ENDBRANCH   6   7
ENDBRANCH   5   6
ENDBRANCH   4   5
ENDBRANCH   3   4
ENDBRANCH   2   3
ENDBRANCH   1   2
BRANCH   1  11
ATOM     11  C   UNL     1      23.675  -1.670  18.760  1.00  0.00     0.000 C 
BRANCH  11  12
ATOM     12  C   UNL     1      22.457  -2.433  18.216  1.00  0.00     0.000 C 
BRANCH  12  13
ATOM     13  C   UNL     1      21.636  -3.106  19.331  1.00  0.00     0.000 C 
BRANCH  13  14
ATOM     14  C   UNL     1      22.046  -4.579  19.545  1.00  0.00     0.000 C 
BRANCH  14  15
ATOM     15  C   UNL     1      21.022  -5.586  18.992  1.00  0.00     0.000 C 
BRANCH  15  16
ATOM     16  C   UNL     1      21.577  -6.426  17.830  1.00  0.00     0.006 C 
BRANCH  16  17
ATOM     17  C   UNL     1      21.815  -5.585  16.569  1.00  0.00     0.053 C 
BRANCH  17  18
ATOM     18  C   UNL     1      20.532  -5.264  15.866  1.00  0.00     0.041 C 
ATOM     19  O   UNL     1      20.357  -4.126  15.355  1.00  0.00    -0.550 OA
ATOM     20  O   UNL     1      19.543  -6.232  15.744  1.00  0.00    -0.550 OA
ENDBRANCH  17  18
ENDBRANCH  16  17
ENDBRANCH  15  16
ENDBRANCH  14  15
ENDBRANCH  13  14
ENDBRANCH  12  13
ENDBRANCH  11  12
ENDBRANCH   1  11
TORSDOF 15
ENDMDL
