MODEL 1
REMARK VINA RESULT:    -6.694      0.000      0.000
REMARK INTER + INTRA:         -11.206
REMARK INTER:                 -10.411
REMARK INTRA:                  -0.794
REMARK UNBOUND:                -0.794
REMARK SMILES COc1cc(CNC(=O)CCCCC=CC(C)C)ccc1O
REMARK SMILES IDX 11 1 12 2 13 3 14 4 15 5 16 6 17 7 18 8 10 9 8 10 9 11 7 12
REMARK SMILES IDX 6 14 5 15 4 16 19 17 3 18 20 19 21 20 2 21 1 22 22 23
REMARK H PARENT 7 13 22 24
REMARK Flexibility Score: inf
ROOT
ATOM      1  C   UNL     1     -25.590 -28.040 107.425  1.00  0.00     0.010 C 
ENDROOT
BRANCH   1   2
ATOM      2  C   UNL     1     -25.763 -28.287 108.938  1.00  0.00     0.005 C 
BRANCH   2   3
ATOM      3  C   UNL     1     -26.222 -27.052 109.732  1.00  0.00     0.027 C 
BRANCH   3   4
ATOM      4  C   UNL     1     -25.180 -26.568 110.704  1.00  0.00    -0.031 C 
ATOM      5  C   UNL     1     -23.973 -27.148 110.793  1.00  0.00    -0.028 C 
BRANCH   5   6
ATOM      6  C   UNL     1     -22.930 -26.648 111.764  1.00  0.00     0.005 C 
ATOM      7  C   UNL     1     -23.070 -25.136 111.974  1.00  0.00     0.012 C 
ATOM      8  C   UNL     1     -23.048 -27.385 113.103  1.00  0.00     0.012 C 
ENDBRANCH   5   6
ENDBRANCH   3   4
ENDBRANCH   2   3
ENDBRANCH   1   2
BRANCH   1   9
ATOM      9  C   UNL     1     -26.832 -28.376 106.585  1.00  0.00     0.100 C 
BRANCH   9  10
ATOM     10  C   UNL     1     -27.462 -27.145 106.001  1.00  0.00     0.220 C 
ATOM     11  O   UNL     1     -26.850 -26.044 106.072  1.00  0.00    -0.275 OA
ATOM     12  N   UNL     1     -28.730 -27.226 105.335  1.00  0.00    -0.352 N 
ATOM     13  H   UNL     1     -29.203 -28.154 105.252  1.00  0.00     0.163 HD
BRANCH  12  14
ATOM     14  C   UNL     1     -29.386 -26.059 104.752  1.00  0.00     0.151 C 
BRANCH  14  15
ATOM     15  C   UNL     1     -29.009 -25.921 103.301  1.00  0.00    -0.025 A 
ATOM     16  C   UNL     1     -28.535 -24.694 102.814  1.00  0.00     0.056 A 
ATOM     17  C   UNL     1     -29.099 -27.020 102.434  1.00  0.00     0.009 A 
ATOM     18  C   UNL     1     -28.157 -24.556 101.463  1.00  0.00     0.160 A 
ATOM     19  C   UNL     1     -28.728 -26.889 101.095  1.00  0.00     0.050 A 
ATOM     20  C   UNL     1     -28.259 -25.668 100.606  1.00  0.00     0.157 A 
BRANCH  18  21
ATOM     21  O   UNL     1     -27.679 -23.342 100.946  1.00  0.00    -0.493 OA
ATOM     22  C   UNL     1     -26.346 -22.866 101.104  1.00  0.00     0.278 C 
ENDBRANCH  18  21
BRANCH  20  23
ATOM     23  O   UNL     1     -27.896 -25.576  99.261  1.00  0.00    -0.504 OA
ATOM     24  H   UNL     1     -28.559 -25.731  98.511  1.00  0.00     0.293 HD
ENDBRANCH  20  23
ENDBRANCH  14  15
ENDBRANCH  12  14
ENDBRANCH   9  10
ENDBRANCH   1   9
TORSDOF 10
ENDMDL
MODEL 2
REMARK VINA RESULT:    -6.587      3.342      5.697
REMARK INTER + INTRA:         -11.040
REMARK INTER:                  -9.110
REMARK INTRA:                  -1.930
REMARK UNBOUND:                -0.794
REMARK SMILES COc1cc(CNC(=O)CCCCC=CC(C)C)ccc1O
REMARK SMILES IDX 11 1 12 2 13 3 14 4 15 5 16 6 17 7 18 8 10 9 8 10 9 11 7 12
REMARK SMILES IDX 6 14 5 15 4 16 19 17 3 18 20 19 21 20 2 21 1 22 22 23
REMARK H PARENT 7 13 22 24
REMARK Flexibility Score: inf
ROOT
ATOM      1  C   UNL     1     -24.123 -23.373 102.038  1.00  0.00     0.010 C 
ENDROOT
BRANCH   1   2
ATOM      2  C   UNL     1     -24.565 -23.875 103.428  1.00  0.00     0.005 C 
BRANCH   2   3
ATOM      3  C   UNL     1     -25.512 -25.087 103.391  1.00  0.00     0.027 C 
BRANCH   3   4
ATOM      4  C   UNL     1     -25.990 -25.492 104.759  1.00  0.00    -0.031 C 
ATOM      5  C   UNL     1     -26.293 -26.765 105.053  1.00  0.00    -0.028 C 
BRANCH   5   6
ATOM      6  C   UNL     1     -26.761 -27.164 106.433  1.00  0.00     0.005 C 
ATOM      7  C   UNL     1     -25.599 -27.739 107.250  1.00  0.00     0.012 C 
ATOM      8  C   UNL     1     -27.380 -25.962 107.156  1.00  0.00     0.012 C 
ENDBRANCH   5   6
ENDBRANCH   3   4
ENDBRANCH   2   3
ENDBRANCH   1   2
BRANCH   1   9
ATOM      9  C   UNL     1     -24.769 -22.047 101.611  1.00  0.00     0.100 C 
BRANCH   9  10
ATOM     10  C   UNL     1     -26.267 -22.100 101.697  1.00  0.00     0.220 C 
ATOM     11  O   UNL     1     -26.871 -21.306 102.469  1.00  0.00    -0.275 OA
ATOM     12  N   UNL     1     -27.007 -23.021 100.882  1.00  0.00    -0.352 N 
ATOM     13  H   UNL     1     -26.492 -23.644 100.220  1.00  0.00     0.163 HD
BRANCH  12  14
ATOM     14  C   UNL     1     -28.464 -23.113 100.928  1.00  0.00     0.151 C 
BRANCH  14  15
ATOM     15  C   UNL     1     -28.891 -24.082 101.998  1.00  0.00    -0.025 A 
ATOM     16  C   UNL     1     -29.299 -23.605 103.253  1.00  0.00     0.056 A 
ATOM     17  C   UNL     1     -28.915 -25.460 101.743  1.00  0.00     0.009 A 
ATOM     18  C   UNL     1     -29.723 -24.498 104.256  1.00  0.00     0.160 A 
ATOM     19  C   UNL     1     -29.332 -26.351 102.733  1.00  0.00     0.050 A 
ATOM     20  C   UNL     1     -29.735 -25.879 103.985  1.00  0.00     0.157 A 
BRANCH  18  21
ATOM     21  O   UNL     1     -30.137 -24.052 105.522  1.00  0.00    -0.493 OA
ATOM     22  C   UNL     1     -29.557 -22.956 106.222  1.00  0.00     0.278 C 
ENDBRANCH  18  21
BRANCH  20  23
ATOM     23  O   UNL     1     -30.147 -26.799 104.950  1.00  0.00    -0.504 OA
ATOM     24  H   UNL     1     -29.873 -26.722 105.922  1.00  0.00     0.293 HD
ENDBRANCH  20  23
ENDBRANCH  14  15
ENDBRANCH  12  14
ENDBRANCH   9  10
ENDBRANCH   1   9
TORSDOF 10
ENDMDL
MODEL 3
REMARK VINA RESULT:    -6.283      1.215      1.488
REMARK INTER + INTRA:         -10.568
REMARK INTER:                  -9.932
REMARK INTRA:                  -0.635
REMARK UNBOUND:                -0.794
REMARK SMILES COc1cc(CNC(=O)CCCCC=CC(C)C)ccc1O
REMARK SMILES IDX 11 1 12 2 13 3 14 4 15 5 16 6 17 7 18 8 10 9 8 10 9 11 7 12
REMARK SMILES IDX 6 14 5 15 4 16 19 17 3 18 20 19 21 20 2 21 1 22 22 23
REMARK H PARENT 7 13 22 24
REMARK Flexibility Score: inf
ROOT
ATOM      1  C   UNL     1     -27.113 -28.016 107.875  1.00  0.00     0.010 C 
ENDROOT
BRANCH   1   2
ATOM      2  C   UNL     1     -25.716 -27.884 108.516  1.00  0.00     0.005 C 
BRANCH   2   3
ATOM      3  C   UNL     1     -25.425 -28.917 109.618  1.00  0.00     0.027 C 
BRANCH   3   4
ATOM      4  C   UNL     1     -24.356 -28.461 110.574  1.00  0.00    -0.031 C 
ATOM      5  C   UNL     1     -24.067 -27.161 110.741  1.00  0.00    -0.028 C 
BRANCH   5   6
ATOM      6  C   UNL     1     -23.000 -26.712 111.711  1.00  0.00     0.005 C 
ATOM      7  C   UNL     1     -23.040 -25.190 111.889  1.00  0.00     0.012 C 
ATOM      8  C   UNL     1     -23.177 -27.413 113.063  1.00  0.00     0.012 C 
ENDBRANCH   5   6
ENDBRANCH   3   4
ENDBRANCH   2   3
ENDBRANCH   1   2
BRANCH   1   9
ATOM      9  C   UNL     1     -27.119 -27.893 106.344  1.00  0.00     0.100 C 
BRANCH   9  10
ATOM     10  C   UNL     1     -28.045 -26.809 105.874  1.00  0.00     0.220 C 
ATOM     11  O   UNL     1     -28.040 -25.693 106.462  1.00  0.00    -0.275 OA
ATOM     12  N   UNL     1     -28.902 -27.027 104.744  1.00  0.00    -0.352 N 
ATOM     13  H   UNL     1     -28.864 -27.945 104.245  1.00  0.00     0.163 HD
BRANCH  12  14
ATOM     14  C   UNL     1     -29.821 -26.007 104.247  1.00  0.00     0.151 C 
BRANCH  14  15
ATOM     15  C   UNL     1     -29.204 -25.269 103.090  1.00  0.00    -0.025 A 
ATOM     16  C   UNL     1     -28.870 -23.913 103.221  1.00  0.00     0.056 A 
ATOM     17  C   UNL     1     -28.929 -25.934 101.885  1.00  0.00     0.009 A 
ATOM     18  C   UNL     1     -28.271 -23.214 102.154  1.00  0.00     0.160 A 
ATOM     19  C   UNL     1     -28.338 -25.247 100.824  1.00  0.00     0.050 A 
ATOM     20  C   UNL     1     -28.008 -23.895 100.950  1.00  0.00     0.157 A 
BRANCH  18  21
ATOM     21  O   UNL     1     -27.926 -21.857 102.254  1.00  0.00    -0.493 OA
ATOM     22  C   UNL     1     -28.430 -20.967 103.244  1.00  0.00     0.278 C 
ENDBRANCH  18  21
BRANCH  20  23
ATOM     23  O   UNL     1     -27.416 -23.243  99.868  1.00  0.00    -0.504 OA
ATOM     24  H   UNL     1     -26.542 -23.555  99.462  1.00  0.00     0.293 HD
ENDBRANCH  20  23
ENDBRANCH  14  15
ENDBRANCH  12  14
ENDBRANCH   9  10
ENDBRANCH   1   9
TORSDOF 10
ENDMDL
MODEL 4
REMARK VINA RESULT:    -6.238      3.166      6.930
REMARK INTER + INTRA:         -10.496
REMARK INTER:                  -8.114
REMARK INTRA:                  -2.383
REMARK UNBOUND:                -0.794
REMARK SMILES COc1cc(CNC(=O)CCCCC=CC(C)C)ccc1O
REMARK SMILES IDX 11 1 12 2 13 3 14 4 15 5 16 6 17 7 18 8 10 9 8 10 9 11 7 12
REMARK SMILES IDX 6 14 5 15 4 16 19 17 3 18 20 19 21 20 2 21 1 22 22 23
REMARK H PARENT 7 13 22 24
REMARK Flexibility Score: inf
ROOT
ATOM      1  C   UNL     1     -27.198 -23.414 101.033  1.00  0.00     0.010 C 
ENDROOT
BRANCH   1   2
ATOM      2  C   UNL     1     -26.829 -22.365 102.101  1.00  0.00     0.005 C 
BRANCH   2   3
ATOM      3  C   UNL     1     -25.791 -22.846 103.129  1.00  0.00     0.027 C 
BRANCH   3   4
ATOM      4  C   UNL     1     -26.368 -22.995 104.511  1.00  0.00    -0.031 C 
ATOM      5  C   UNL     1     -27.642 -22.675 104.781  1.00  0.00    -0.028 C 
BRANCH   5   6
ATOM      6  C   UNL     1     -28.216 -22.838 106.169  1.00  0.00     0.005 C 
ATOM      7  C   UNL     1     -29.657 -23.355 106.099  1.00  0.00     0.012 C 
ATOM      8  C   UNL     1     -27.347 -23.790 106.998  1.00  0.00     0.012 C 
ENDBRANCH   5   6
ENDBRANCH   3   4
ENDBRANCH   2   3
ENDBRANCH   1   2
BRANCH   1   9
ATOM      9  C   UNL     1     -28.709 -23.643 100.867  1.00  0.00     0.100 C 
BRANCH   9  10
ATOM     10  C   UNL     1     -29.307 -24.322 102.065  1.00  0.00     0.220 C 
ATOM     11  O   UNL     1     -30.346 -23.840 102.594  1.00  0.00    -0.275 OA
ATOM     12  N   UNL     1     -28.724 -25.527 102.582  1.00  0.00    -0.352 N 
ATOM     13  H   UNL     1     -27.886 -25.932 102.106  1.00  0.00     0.163 HD
BRANCH  12  14
ATOM     14  C   UNL     1     -29.266 -26.225 103.744  1.00  0.00     0.151 C 
BRANCH  14  15
ATOM     15  C   UNL     1     -28.158 -26.601 104.690  1.00  0.00    -0.025 A 
ATOM     16  C   UNL     1     -28.460 -27.216 105.914  1.00  0.00     0.056 A 
ATOM     17  C   UNL     1     -26.818 -26.370 104.346  1.00  0.00     0.009 A 
ATOM     18  C   UNL     1     -27.432 -27.594 106.800  1.00  0.00     0.160 A 
ATOM     19  C   UNL     1     -25.795 -26.741 105.219  1.00  0.00     0.050 A 
ATOM     20  C   UNL     1     -26.093 -27.350 106.441  1.00  0.00     0.157 A 
BRANCH  18  21
ATOM     21  O   UNL     1     -27.702 -28.212 108.032  1.00  0.00    -0.493 OA
ATOM     22  C   UNL     1     -28.004 -27.514 109.236  1.00  0.00     0.278 C 
ENDBRANCH  18  21
BRANCH  20  23
ATOM     23  O   UNL     1     -25.043 -27.708 107.288  1.00  0.00    -0.504 OA
ATOM     24  H   UNL     1     -24.081 -27.464 107.088  1.00  0.00     0.293 HD
ENDBRANCH  20  23
ENDBRANCH  14  15
ENDBRANCH  12  14
ENDBRANCH   9  10
ENDBRANCH   1   9
TORSDOF 10
ENDMDL
MODEL 5
REMARK VINA RESULT:    -6.193      4.089      6.725
REMARK INTER + INTRA:         -10.427
REMARK INTER:                  -8.366
REMARK INTRA:                  -2.061
REMARK UNBOUND:                -0.794
REMARK SMILES COc1cc(CNC(=O)CCCCC=CC(C)C)ccc1O
REMARK SMILES IDX 11 1 12 2 13 3 14 4 15 5 16 6 17 7 18 8 10 9 8 10 9 11 7 12
REMARK SMILES IDX 6 14 5 15 4 16 19 17 3 18 20 19 21 20 2 21 1 22 22 23
REMARK H PARENT 7 13 22 24
REMARK Flexibility Score: inf
ROOT
ATOM      1  C   UNL     1     -25.689 -21.916 101.992  1.00  0.00     0.010 C 
ENDROOT
BRANCH   1   2
ATOM      2  C   UNL     1     -26.798 -22.734 101.299  1.00  0.00     0.005 C 
BRANCH   2   3
ATOM      3  C   UNL     1     -28.194 -22.563 101.922  1.00  0.00     0.027 C 
BRANCH   3   4
ATOM      4  C   UNL     1     -28.143 -21.974 103.306  1.00  0.00    -0.031 C 
ATOM      5  C   UNL     1     -28.405 -22.710 104.397  1.00  0.00    -0.028 C 
BRANCH   5   6
ATOM      6  C   UNL     1     -28.340 -22.113 105.783  1.00  0.00     0.005 C 
ATOM      7  C   UNL     1     -29.600 -22.465 106.581  1.00  0.00     0.012 C 
ATOM      8  C   UNL     1     -27.088 -22.602 106.518  1.00  0.00     0.012 C 
ENDBRANCH   5   6
ENDBRANCH   3   4
ENDBRANCH   2   3
ENDBRANCH   1   2
BRANCH   1   9
ATOM      9  C   UNL     1     -24.313 -22.598 101.999  1.00  0.00     0.100 C 
BRANCH   9  10
ATOM     10  C   UNL     1     -24.372 -23.972 102.601  1.00  0.00     0.220 C 
ATOM     11  O   UNL     1     -23.863 -24.943 101.977  1.00  0.00    -0.275 OA
ATOM     12  N   UNL     1     -24.969 -24.174 103.890  1.00  0.00    -0.352 N 
ATOM     13  H   UNL     1     -25.350 -23.351 104.409  1.00  0.00     0.163 HD
BRANCH  12  14
ATOM     14  C   UNL     1     -25.052 -25.489 104.519  1.00  0.00     0.151 C 
BRANCH  14  15
ATOM     15  C   UNL     1     -26.491 -25.864 104.753  1.00  0.00    -0.025 A 
ATOM     16  C   UNL     1     -27.386 -25.912 103.674  1.00  0.00     0.056 A 
ATOM     17  C   UNL     1     -26.941 -26.198 106.038  1.00  0.00     0.009 A 
ATOM     18  C   UNL     1     -28.731 -26.284 103.873  1.00  0.00     0.160 A 
ATOM     19  C   UNL     1     -28.271 -26.565 106.243  1.00  0.00     0.050 A 
ATOM     20  C   UNL     1     -29.167 -26.610 105.171  1.00  0.00     0.157 A 
BRANCH  18  21
ATOM     21  O   UNL     1     -29.651 -26.342 102.814  1.00  0.00    -0.493 OA
ATOM     22  C   UNL     1     -30.557 -25.297 102.474  1.00  0.00     0.278 C 
ENDBRANCH  18  21
BRANCH  20  23
ATOM     23  O   UNL     1     -30.489 -26.983 105.415  1.00  0.00    -0.504 OA
ATOM     24  H   UNL     1     -30.736 -27.907 105.748  1.00  0.00     0.293 HD
ENDBRANCH  20  23
ENDBRANCH  14  15
ENDBRANCH  12  14
ENDBRANCH   9  10
ENDBRANCH   1   9
TORSDOF 10
ENDMDL
MODEL 6
REMARK VINA RESULT:    -6.155      2.620      7.499
REMARK INTER + INTRA:         -10.368
REMARK INTER:                  -8.909
REMARK INTRA:                  -1.459
REMARK UNBOUND:                -0.794
REMARK SMILES COc1cc(CNC(=O)CCCCC=CC(C)C)ccc1O
REMARK SMILES IDX 11 1 12 2 13 3 14 4 15 5 16 6 17 7 18 8 10 9 8 10 9 11 7 12
REMARK SMILES IDX 6 14 5 15 4 16 19 17 3 18 20 19 21 20 2 21 1 22 22 23
REMARK H PARENT 7 13 22 24
REMARK Flexibility Score: inf
ROOT
ATOM      1  C   UNL     1     -30.751 -25.105 102.485  1.00  0.00     0.010 C 
ENDROOT
BRANCH   1   2
ATOM      2  C   UNL     1     -29.477 -25.965 102.356  1.00  0.00     0.005 C 
BRANCH   2   3
ATOM      3  C   UNL     1     -28.534 -25.532 101.220  1.00  0.00     0.027 C 
BRANCH   3   4
ATOM      4  C   UNL     1     -27.395 -24.677 101.707  1.00  0.00    -0.031 C 
ATOM      5  C   UNL     1     -26.811 -24.890 102.896  1.00  0.00    -0.028 C 
BRANCH   5   6
ATOM      6  C   UNL     1     -25.661 -24.033 103.370  1.00  0.00     0.005 C 
ATOM      7  C   UNL     1     -24.334 -24.551 102.804  1.00  0.00     0.012 C 
ATOM      8  C   UNL     1     -25.879 -22.571 102.965  1.00  0.00     0.012 C 
ENDBRANCH   5   6
ENDBRANCH   3   4
ENDBRANCH   2   3
ENDBRANCH   1   2
BRANCH   1   9
ATOM      9  C   UNL     1     -30.503 -23.685 103.016  1.00  0.00     0.100 C 
BRANCH   9  10
ATOM     10  C   UNL     1     -29.915 -23.698 104.397  1.00  0.00     0.220 C 
ATOM     11  O   UNL     1     -29.083 -22.808 104.723  1.00  0.00    -0.275 OA
ATOM     12  N   UNL     1     -30.321 -24.692 105.349  1.00  0.00    -0.352 N 
ATOM     13  H   UNL     1     -31.040 -25.398 105.072  1.00  0.00     0.163 HD
BRANCH  12  14
ATOM     14  C   UNL     1     -29.779 -24.749 106.703  1.00  0.00     0.151 C 
BRANCH  14  15
ATOM     15  C   UNL     1     -28.864 -25.935 106.849  1.00  0.00    -0.025 A 
ATOM     16  C   UNL     1     -28.470 -26.363 108.125  1.00  0.00     0.056 A 
ATOM     17  C   UNL     1     -28.424 -26.639 105.718  1.00  0.00     0.009 A 
ATOM     18  C   UNL     1     -27.632 -27.485 108.279  1.00  0.00     0.160 A 
ATOM     19  C   UNL     1     -27.593 -27.750 105.863  1.00  0.00     0.050 A 
ATOM     20  C   UNL     1     -27.195 -28.177 107.133  1.00  0.00     0.157 A 
BRANCH  18  21
ATOM     21  O   UNL     1     -27.220 -27.938 109.542  1.00  0.00    -0.493 OA
ATOM     22  C   UNL     1     -26.054 -27.483 110.223  1.00  0.00     0.278 C 
ENDBRANCH  18  21
BRANCH  20  23
ATOM     23  O   UNL     1     -26.364 -29.293 107.238  1.00  0.00    -0.504 OA
ATOM     24  H   UNL     1     -25.448 -29.327 106.807  1.00  0.00     0.293 HD
ENDBRANCH  20  23
ENDBRANCH  14  15
ENDBRANCH  12  14
ENDBRANCH   9  10
ENDBRANCH   1   9
TORSDOF 10
ENDMDL
MODEL 7
REMARK VINA RESULT:    -6.130      1.647      2.249
REMARK INTER + INTRA:         -10.329
REMARK INTER:                  -9.699
REMARK INTRA:                  -0.631
REMARK UNBOUND:                -0.794
REMARK SMILES COc1cc(CNC(=O)CCCCC=CC(C)C)ccc1O
REMARK SMILES IDX 11 1 12 2 13 3 14 4 15 5 16 6 17 7 18 8 10 9 8 10 9 11 7 12
REMARK SMILES IDX 6 14 5 15 4 16 19 17 3 18 20 19 21 20 2 21 1 22 22 23
REMARK H PARENT 7 13 22 24
REMARK Flexibility Score: inf
ROOT
ATOM      1  C   UNL     1     -26.614 -26.861 106.988  1.00  0.00     0.010 C 
ENDROOT
BRANCH   1   2
ATOM      2  C   UNL     1     -26.644 -26.856 108.530  1.00  0.00     0.005 C 
BRANCH   2   3
ATOM      3  C   UNL     1     -25.597 -27.773 109.186  1.00  0.00     0.027 C 
BRANCH   3   4
ATOM      4  C   UNL     1     -24.789 -27.069 110.243  1.00  0.00    -0.031 C 
ATOM      5  C   UNL     1     -23.669 -27.607 110.749  1.00  0.00    -0.028 C 
BRANCH   5   6
ATOM      6  C   UNL     1     -22.859 -26.887 111.802  1.00  0.00     0.005 C 
ATOM      7  C   UNL     1     -23.174 -25.387 111.792  1.00  0.00     0.012 C 
ATOM      8  C   UNL     1     -23.133 -27.481 113.187  1.00  0.00     0.012 C 
ENDBRANCH   5   6
ENDBRANCH   3   4
ENDBRANCH   2   3
ENDBRANCH   1   2
BRANCH   1   9
ATOM      9  C   UNL     1     -27.663 -27.777 106.340  1.00  0.00     0.100 C 
BRANCH   9  10
ATOM     10  C   UNL     1     -28.566 -27.022 105.408  1.00  0.00     0.220 C 
ATOM     11  O   UNL     1     -29.497 -26.317 105.885  1.00  0.00    -0.275 OA
ATOM     12  N   UNL     1     -28.350 -27.072 103.990  1.00  0.00    -0.352 N 
ATOM     13  H   UNL     1     -27.550 -27.631 103.616  1.00  0.00     0.163 HD
BRANCH  12  14
ATOM     14  C   UNL     1     -29.199 -26.357 103.042  1.00  0.00     0.151 C 
BRANCH  14  15
ATOM     15  C   UNL     1     -28.581 -25.031 102.686  1.00  0.00    -0.025 A 
ATOM     16  C   UNL     1     -27.191 -24.862 102.768  1.00  0.00     0.056 A 
ATOM     17  C   UNL     1     -29.381 -23.968 102.243  1.00  0.00     0.009 A 
ATOM     18  C   UNL     1     -26.596 -23.634 102.417  1.00  0.00     0.160 A 
ATOM     19  C   UNL     1     -28.798 -22.749 101.895  1.00  0.00     0.050 A 
ATOM     20  C   UNL     1     -27.414 -22.576 101.979  1.00  0.00     0.157 A 
BRANCH  18  21
ATOM     21  O   UNL     1     -25.208 -23.433 102.488  1.00  0.00    -0.493 OA
ATOM     22  C   UNL     1     -24.236 -24.471 102.400  1.00  0.00     0.278 C 
ENDBRANCH  18  21
BRANCH  20  23
ATOM     23  O   UNL     1     -26.867 -21.343 101.621  1.00  0.00    -0.504 OA
ATOM     24  H   UNL     1     -26.694 -20.611 102.301  1.00  0.00     0.293 HD
ENDBRANCH  20  23
ENDBRANCH  14  15
ENDBRANCH  12  14
ENDBRANCH   9  10
ENDBRANCH   1   9
TORSDOF 10
ENDMDL
MODEL 8
REMARK VINA RESULT:    -6.074      1.734      2.219
REMARK INTER + INTRA:         -10.242
REMARK INTER:                  -9.438
REMARK INTRA:                  -0.804
REMARK UNBOUND:                -0.794
REMARK SMILES COc1cc(CNC(=O)CCCCC=CC(C)C)ccc1O
REMARK SMILES IDX 11 1 12 2 13 3 14 4 15 5 16 6 17 7 18 8 10 9 8 10 9 11 7 12
REMARK SMILES IDX 6 14 5 15 4 16 19 17 3 18 20 19 21 20 2 21 1 22 22 23
REMARK H PARENT 7 13 22 24
REMARK Flexibility Score: inf
ROOT
ATOM      1  C   UNL     1     -27.157 -28.221 108.701  1.00  0.00     0.010 C 
ENDROOT
BRANCH   1   2
ATOM      2  C   UNL     1     -26.984 -28.468 110.214  1.00  0.00     0.005 C 
BRANCH   2   3
ATOM      3  C   UNL     1     -26.089 -29.670 110.560  1.00  0.00     0.027 C 
BRANCH   3   4
ATOM      4  C   UNL     1     -24.854 -29.274 111.323  1.00  0.00    -0.031 C 
ATOM      5  C   UNL     1     -24.389 -28.016 111.308  1.00  0.00    -0.028 C 
BRANCH   5   6
ATOM      6  C   UNL     1     -23.155 -27.625 112.086  1.00  0.00     0.005 C 
ATOM      7  C   UNL     1     -22.593 -26.294 111.574  1.00  0.00     0.012 C 
ATOM      8  C   UNL     1     -23.473 -27.530 113.582  1.00  0.00     0.012 C 
ENDBRANCH   5   6
ENDBRANCH   3   4
ENDBRANCH   2   3
ENDBRANCH   1   2
BRANCH   1   9
ATOM      9  C   UNL     1     -25.990 -28.728 107.841  1.00  0.00     0.100 C 
BRANCH   9  10
ATOM     10  C   UNL     1     -25.706 -27.812 106.686  1.00  0.00     0.220 C 
ATOM     11  O   UNL     1     -24.644 -27.964 106.022  1.00  0.00    -0.275 OA
ATOM     12  N   UNL     1     -26.650 -26.796 106.318  1.00  0.00    -0.352 N 
ATOM     13  H   UNL     1     -27.541 -26.710 106.856  1.00  0.00     0.163 HD
BRANCH  12  14
ATOM     14  C   UNL     1     -26.421 -25.879 105.204  1.00  0.00     0.151 C 
BRANCH  14  15
ATOM     15  C   UNL     1     -27.653 -25.785 104.346  1.00  0.00    -0.025 A 
ATOM     16  C   UNL     1     -27.593 -25.140 103.101  1.00  0.00     0.056 A 
ATOM     17  C   UNL     1     -28.860 -26.364 104.765  1.00  0.00     0.009 A 
ATOM     18  C   UNL     1     -28.733 -25.063 102.277  1.00  0.00     0.160 A 
ATOM     19  C   UNL     1     -29.993 -26.291 103.953  1.00  0.00     0.050 A 
ATOM     20  C   UNL     1     -29.937 -25.645 102.715  1.00  0.00     0.157 A 
BRANCH  18  21
ATOM     21  O   UNL     1     -28.704 -24.425 101.026  1.00  0.00    -0.493 OA
ATOM     22  C   UNL     1     -28.176 -23.122 100.797  1.00  0.00     0.278 C 
ENDBRANCH  18  21
BRANCH  20  23
ATOM     23  O   UNL     1     -31.090 -25.593 101.931  1.00  0.00    -0.504 OA
ATOM     24  H   UNL     1     -31.057 -25.416 100.934  1.00  0.00     0.293 HD
ENDBRANCH  20  23
ENDBRANCH  14  15
ENDBRANCH  12  14
ENDBRANCH   9  10
ENDBRANCH   1   9
TORSDOF 10
ENDMDL
