MODEL 1
REMARK VINA RESULT:    -5.352      0.000      0.000
REMARK INTER + INTRA:          -6.474
REMARK INTER:                  -6.135
REMARK INTRA:                  -0.339
REMARK UNBOUND:                -0.339
REMARK SMILES COc1ccc(C(C)=O)c(O)c1
REMARK SMILES IDX 6 1 10 2 12 3 3 4 4 5 5 6 7 7 8 8 9 9 11 10 2 12 1 13
REMARK H PARENT 11 11
REMARK Flexibility Score: inf
ROOT
ATOM      1  C   UNL     1       5.334  10.486   6.679  1.00  0.00     0.059 A 
ATOM      2  C   UNL     1       6.606  10.696   7.266  1.00  0.00     0.130 A 
ATOM      3  C   UNL     1       7.586  11.407   6.564  1.00  0.00     0.093 A 
ATOM      4  C   UNL     1       7.343  11.891   5.275  1.00  0.00     0.122 A 
ATOM      5  C   UNL     1       6.092  11.657   4.681  1.00  0.00     0.047 A 
ATOM      6  C   UNL     1       5.100  10.963   5.377  1.00  0.00     0.019 A 
ENDROOT
BRANCH   1   7
ATOM      7  C   UNL     1       4.233   9.813   7.409  1.00  0.00     0.163 C 
ATOM      8  C   UNL     1       2.930  10.510   7.657  1.00  0.00     0.093 C 
ATOM      9  O   UNL     1       4.414   8.669   7.906  1.00  0.00    -0.294 OA
ENDBRANCH   1   7
BRANCH   2  10
ATOM     10  O   UNL     1       6.943  10.189   8.523  1.00  0.00    -0.507 OA
ATOM     11  H   UNL     1       6.343   9.570   9.052  1.00  0.00     0.293 HD
ENDBRANCH   2  10
BRANCH   4  12
ATOM     12  O   UNL     1       8.368  12.590   4.622  1.00  0.00    -0.497 OA
ATOM     13  C   UNL     1       8.774  12.351   3.278  1.00  0.00     0.278 C 
ENDBRANCH   4  12
TORSDOF 3
ENDMDL
MODEL 2
REMARK VINA RESULT:    -5.237      2.219      3.452
REMARK INTER + INTRA:          -6.342
REMARK INTER:                  -6.006
REMARK INTRA:                  -0.336
REMARK UNBOUND:                -0.339
REMARK SMILES COc1ccc(C(C)=O)c(O)c1
REMARK SMILES IDX 6 1 10 2 12 3 3 4 4 5 5 6 7 7 8 8 9 9 11 10 2 12 1 13
REMARK H PARENT 11 11
REMARK Flexibility Score: inf
ROOT
ATOM      1  C   UNL     1       3.421  10.766   9.049  1.00  0.00     0.059 A 
ATOM      2  C   UNL     1       3.979   9.627   8.420  1.00  0.00     0.130 A 
ATOM      3  C   UNL     1       5.161   9.750   7.681  1.00  0.00     0.093 A 
ATOM      4  C   UNL     1       5.789  10.990   7.526  1.00  0.00     0.122 A 
ATOM      5  C   UNL     1       5.220  12.125   8.125  1.00  0.00     0.047 A 
ATOM      6  C   UNL     1       4.050  12.012   8.878  1.00  0.00     0.019 A 
ENDROOT
BRANCH   1   7
ATOM      7  C   UNL     1       2.218  10.677   9.911  1.00  0.00     0.163 C 
ATOM      8  C   UNL     1       1.153  11.730   9.865  1.00  0.00     0.093 C 
ATOM      9  O   UNL     1       2.118   9.750  10.759  1.00  0.00    -0.294 OA
ENDBRANCH   1   7
BRANCH   2  10
ATOM     10  O   UNL     1       3.375   8.369   8.478  1.00  0.00    -0.507 OA
ATOM     11  H   UNL     1       2.389   8.216   8.308  1.00  0.00     0.293 HD
ENDBRANCH   2  10
BRANCH   4  12
ATOM     12  O   UNL     1       6.968  11.049   6.768  1.00  0.00    -0.497 OA
ATOM     13  C   UNL     1       8.277  10.882   7.304  1.00  0.00     0.278 C 
ENDBRANCH   4  12
TORSDOF 3
ENDMDL
MODEL 3
REMARK VINA RESULT:    -5.189      2.269      5.104
REMARK INTER + INTRA:          -6.287
REMARK INTER:                  -5.944
REMARK INTRA:                  -0.342
REMARK UNBOUND:                -0.339
REMARK SMILES COc1ccc(C(C)=O)c(O)c1
REMARK SMILES IDX 6 1 10 2 12 3 3 4 4 5 5 6 7 7 8 8 9 9 11 10 2 12 1 13
REMARK H PARENT 11 11
REMARK Flexibility Score: inf
ROOT
ATOM      1  C   UNL     1       5.854  11.212   7.685  1.00  0.00     0.059 A 
ATOM      2  C   UNL     1       4.778  10.301   7.825  1.00  0.00     0.130 A 
ATOM      3  C   UNL     1       3.598  10.710   8.456  1.00  0.00     0.093 A 
ATOM      4  C   UNL     1       3.470  11.999   8.982  1.00  0.00     0.122 A 
ATOM      5  C   UNL     1       4.547  12.893   8.870  1.00  0.00     0.047 A 
ATOM      6  C   UNL     1       5.724  12.503   8.228  1.00  0.00     0.019 A 
ENDROOT
BRANCH   1   7
ATOM      7  C   UNL     1       7.093  10.859   6.953  1.00  0.00     0.163 C 
ATOM      8  C   UNL     1       8.442  11.218   7.496  1.00  0.00     0.093 C 
ATOM      9  O   UNL     1       7.020  10.321   5.815  1.00  0.00    -0.294 OA
ENDBRANCH   1   7
BRANCH   2  10
ATOM     10  O   UNL     1       4.856   8.979   7.381  1.00  0.00    -0.507 OA
ATOM     11  H   UNL     1       5.239   8.715   6.482  1.00  0.00     0.293 HD
ENDBRANCH   2  10
BRANCH   4  12
ATOM     12  O   UNL     1       2.264  12.346   9.609  1.00  0.00    -0.497 OA
ATOM     13  C   UNL     1       1.250  11.414   9.971  1.00  0.00     0.278 C 
ENDBRANCH   4  12
TORSDOF 3
ENDMDL
MODEL 4
REMARK VINA RESULT:    -5.188      1.960      4.994
REMARK INTER + INTRA:          -6.285
REMARK INTER:                  -5.963
REMARK INTRA:                  -0.322
REMARK UNBOUND:                -0.339
REMARK SMILES COc1ccc(C(C)=O)c(O)c1
REMARK SMILES IDX 6 1 10 2 12 3 3 4 4 5 5 6 7 7 8 8 9 9 11 10 2 12 1 13
REMARK H PARENT 11 11
REMARK Flexibility Score: inf
ROOT
ATOM      1  C   UNL     1       5.238  10.971   7.045  1.00  0.00     0.059 A 
ATOM      2  C   UNL     1       5.475  11.387   8.378  1.00  0.00     0.130 A 
ATOM      3  C   UNL     1       4.466  11.251   9.338  1.00  0.00     0.093 A 
ATOM      4  C   UNL     1       3.210  10.738   8.998  1.00  0.00     0.122 A 
ATOM      5  C   UNL     1       2.965  10.354   7.670  1.00  0.00     0.047 A 
ATOM      6  C   UNL     1       3.969  10.469   6.706  1.00  0.00     0.019 A 
ENDROOT
BRANCH   1   7
ATOM      7  C   UNL     1       6.297  11.015   6.009  1.00  0.00     0.163 C 
ATOM      8  C   UNL     1       6.046  11.644   4.672  1.00  0.00     0.093 C 
ATOM      9  O   UNL     1       7.402  10.444   6.213  1.00  0.00    -0.294 OA
ENDBRANCH   1   7
BRANCH   2  10
ATOM     10  O   UNL     1       6.682  11.966   8.778  1.00  0.00    -0.507 OA
ATOM     11  H   UNL     1       6.740  12.725   9.445  1.00  0.00     0.293 HD
ENDBRANCH   2  10
BRANCH   4  12
ATOM     12  O   UNL     1       2.239  10.633  10.005  1.00  0.00    -0.497 OA
ATOM     13  C   UNL     1       1.147  11.533  10.164  1.00  0.00     0.278 C 
ENDBRANCH   4  12
TORSDOF 3
ENDMDL
MODEL 5
REMARK VINA RESULT:    -4.945      1.366      2.111
REMARK INTER + INTRA:          -6.007
REMARK INTER:                  -5.703
REMARK INTRA:                  -0.305
REMARK UNBOUND:                -0.339
REMARK SMILES COc1ccc(C(C)=O)c(O)c1
REMARK SMILES IDX 6 1 10 2 12 3 3 4 4 5 5 6 7 7 8 8 9 9 11 10 2 12 1 13
REMARK H PARENT 11 11
REMARK Flexibility Score: inf
ROOT
ATOM      1  C   UNL     1       5.851  10.473   7.493  1.00  0.00     0.059 A 
ATOM      2  C   UNL     1       5.675  10.630   6.096  1.00  0.00     0.130 A 
ATOM      3  C   UNL     1       6.759  11.012   5.298  1.00  0.00     0.093 A 
ATOM      4  C   UNL     1       8.012  11.274   5.860  1.00  0.00     0.122 A 
ATOM      5  C   UNL     1       8.180  11.147   7.248  1.00  0.00     0.047 A 
ATOM      6  C   UNL     1       7.111  10.750   8.054  1.00  0.00     0.019 A 
ENDROOT
BRANCH   1   7
ATOM      7  C   UNL     1       4.760   9.989   8.372  1.00  0.00     0.163 C 
ATOM      8  C   UNL     1       4.295  10.798   9.544  1.00  0.00     0.093 C 
ATOM      9  O   UNL     1       4.265   8.844   8.190  1.00  0.00    -0.294 OA
ENDBRANCH   1   7
BRANCH   2  10
ATOM     10  O   UNL     1       4.439  10.448   5.473  1.00  0.00    -0.507 OA
ATOM     11  H   UNL     1       4.338  10.222   4.492  1.00  0.00     0.293 HD
ENDBRANCH   2  10
BRANCH   4  12
ATOM     12  O   UNL     1       9.057  11.660   5.007  1.00  0.00    -0.497 OA
ATOM     13  C   UNL     1       8.871  12.227   3.714  1.00  0.00     0.278 C 
ENDBRANCH   4  12
TORSDOF 3
ENDMDL
MODEL 6
REMARK VINA RESULT:    -4.897      1.166      4.628
REMARK INTER + INTRA:          -5.952
REMARK INTER:                  -5.718
REMARK INTRA:                  -0.234
REMARK UNBOUND:                -0.339
REMARK SMILES COc1ccc(C(C)=O)c(O)c1
REMARK SMILES IDX 6 1 10 2 12 3 3 4 4 5 5 6 7 7 8 8 9 9 11 10 2 12 1 13
REMARK H PARENT 11 11
REMARK Flexibility Score: inf
ROOT
ATOM      1  C   UNL     1       7.575  11.563   5.269  1.00  0.00     0.059 A 
ATOM      2  C   UNL     1       7.590  11.023   6.578  1.00  0.00     0.130 A 
ATOM      3  C   UNL     1       6.409  10.520   7.135  1.00  0.00     0.093 A 
ATOM      4  C   UNL     1       5.201  10.568   6.432  1.00  0.00     0.122 A 
ATOM      5  C   UNL     1       5.181  11.131   5.145  1.00  0.00     0.047 A 
ATOM      6  C   UNL     1       6.355  11.621   4.572  1.00  0.00     0.019 A 
ENDROOT
BRANCH   1   7
ATOM      7  C   UNL     1       8.812  12.032   4.600  1.00  0.00     0.163 C 
ATOM      8  C   UNL     1       8.812  12.408   3.149  1.00  0.00     0.093 C 
ATOM      9  O   UNL     1       9.904  12.041   5.229  1.00  0.00    -0.294 OA
ENDBRANCH   1   7
BRANCH   2  10
ATOM     10  O   UNL     1       8.743  10.998   7.365  1.00  0.00    -0.507 OA
ATOM     11  H   UNL     1       9.534  10.396   7.175  1.00  0.00     0.293 HD
ENDBRANCH   2  10
BRANCH   4  12
ATOM     12  O   UNL     1       4.050  10.054   7.048  1.00  0.00    -0.497 OA
ATOM     13  C   UNL     1       4.061   9.057   8.065  1.00  0.00     0.278 C 
ENDBRANCH   4  12
TORSDOF 3
ENDMDL
