MODEL 1
REMARK VINA RESULT:    -3.763      0.000      0.000
REMARK INTER + INTRA:          -3.983
REMARK INTER:                  -3.983
REMARK INTRA:                   0.000
REMARK UNBOUND:                 0.000
REMARK SMILES O=c1ccc2cc(O)c(O)cc2o1
REMARK SMILES IDX 4 1 3 2 2 3 1 4 13 5 12 6 11 7 9 8 7 9 6 10 5 11 8 12 10 14
REMARK H PARENT 8 13 10 15
REMARK Flexibility Score: inf
ROOT
ATOM      1  C   UNL     1     -10.060   8.436  -7.530  1.00  0.00     0.019 A 
ATOM      2  C   UNL     1      -9.789   7.907  -6.269  1.00  0.00     0.094 A 
ATOM      3  C   UNL     1      -8.459   7.685  -5.898  1.00  0.00     0.336 A 
ATOM      4  O   UNL     1      -8.194   7.208  -4.763  1.00  0.00    -0.246 OA
ATOM      5  O   UNL     1      -7.468   7.974  -6.737  1.00  0.00    -0.423 OA
ATOM      6  C   UNL     1      -7.682   8.479  -7.950  1.00  0.00     0.142 A 
ATOM      7  C   UNL     1      -6.601   8.764  -8.789  1.00  0.00     0.098 A 
ATOM      8  C   UNL     1      -6.817   9.296 -10.066  1.00  0.00     0.161 A 
ATOM      9  C   UNL     1      -8.129   9.546 -10.509  1.00  0.00     0.158 A 
ATOM     10  C   UNL     1      -9.217   9.263  -9.671  1.00  0.00     0.062 A 
ATOM     11  C   UNL     1      -8.999   8.730  -8.393  1.00  0.00     0.022 A 
ENDROOT
BRANCH   9  12
ATOM     12  O   UNL     1      -8.346  10.075 -11.780  1.00  0.00    -0.504 OA
ATOM     13  H   UNL     1      -9.259  10.046 -12.220  1.00  0.00     0.293 HD
ENDBRANCH   9  12
BRANCH   8  14
ATOM     14  O   UNL     1      -5.718   9.568 -10.880  1.00  0.00    -0.504 OA
ATOM     15  H   UNL     1      -5.592   9.123 -11.781  1.00  0.00     0.293 HD
ENDBRANCH   8  14
TORSDOF 2
ENDMDL
MODEL 2
REMARK VINA RESULT:    -3.749     15.566     15.637
REMARK INTER + INTRA:          -3.968
REMARK INTER:                  -3.968
REMARK INTRA:                   0.000
REMARK UNBOUND:                 0.000
REMARK SMILES O=c1ccc2cc(O)c(O)cc2o1
REMARK SMILES IDX 4 1 3 2 2 3 1 4 13 5 12 6 11 7 9 8 7 9 6 10 5 11 8 12 10 14
REMARK H PARENT 8 13 10 15
REMARK Flexibility Score: inf
ROOT
ATOM      1  C   UNL     1      -9.529  -6.614 -12.717  1.00  0.00     0.019 A 
ATOM      2  C   UNL     1      -9.432  -7.997 -12.579  1.00  0.00     0.094 A 
ATOM      3  C   UNL     1      -8.196  -8.616 -12.795  1.00  0.00     0.336 A 
ATOM      4  O   UNL     1      -8.089  -9.865 -12.675  1.00  0.00    -0.246 OA
ATOM      5  O   UNL     1      -7.130  -7.893 -13.128  1.00  0.00    -0.423 OA
ATOM      6  C   UNL     1      -7.179  -6.570 -13.271  1.00  0.00     0.142 A 
ATOM      7  C   UNL     1      -6.026  -5.863 -13.622  1.00  0.00     0.098 A 
ATOM      8  C   UNL     1      -6.068  -4.472 -13.774  1.00  0.00     0.161 A 
ATOM      9  C   UNL     1      -7.276  -3.780 -13.573  1.00  0.00     0.158 A 
ATOM     10  C   UNL     1      -8.436  -4.486 -13.219  1.00  0.00     0.062 A 
ATOM     11  C   UNL     1      -8.392  -5.878 -13.068  1.00  0.00     0.022 A 
ENDROOT
BRANCH   9  12
ATOM     12  O   UNL     1      -7.320  -2.395 -13.723  1.00  0.00    -0.504 OA
ATOM     13  H   UNL     1      -7.252  -1.771 -12.927  1.00  0.00     0.293 HD
ENDBRANCH   9  12
BRANCH   8  14
ATOM     14  O   UNL     1      -4.901  -3.794 -14.125  1.00  0.00    -0.504 OA
ATOM     15  H   UNL     1      -4.455  -3.130 -13.503  1.00  0.00     0.293 HD
ENDBRANCH   8  14
TORSDOF 2
ENDMDL
MODEL 3
REMARK VINA RESULT:    -3.730     14.082     14.420
REMARK INTER + INTRA:          -3.948
REMARK INTER:                  -3.948
REMARK INTRA:                   0.000
REMARK UNBOUND:                 0.000
REMARK SMILES O=c1ccc2cc(O)c(O)cc2o1
REMARK SMILES IDX 4 1 3 2 2 3 1 4 13 5 12 6 11 7 9 8 7 9 6 10 5 11 8 12 10 14
REMARK H PARENT 8 13 10 15
REMARK Flexibility Score: inf
ROOT
ATOM      1  C   UNL     1      -9.719  -3.594 -12.649  1.00  0.00     0.019 A 
ATOM      2  C   UNL     1      -9.732  -2.258 -13.045  1.00  0.00     0.094 A 
ATOM      3  C   UNL     1      -8.635  -1.747 -13.746  1.00  0.00     0.336 A 
ATOM      4  O   UNL     1      -8.629  -0.542 -14.113  1.00  0.00    -0.246 OA
ATOM      5  O   UNL     1      -7.595  -2.527 -14.031  1.00  0.00    -0.423 OA
ATOM      6  C   UNL     1      -7.542  -3.807 -13.672  1.00  0.00     0.142 A 
ATOM      7  C   UNL     1      -6.423  -4.578 -13.998  1.00  0.00     0.098 A 
ATOM      8  C   UNL     1      -6.358  -5.926 -13.624  1.00  0.00     0.161 A 
ATOM      9  C   UNL     1      -7.424  -6.509 -12.915  1.00  0.00     0.158 A 
ATOM     10  C   UNL     1      -8.550  -5.740 -12.586  1.00  0.00     0.062 A 
ATOM     11  C   UNL     1      -8.613  -4.391 -12.961  1.00  0.00     0.022 A 
ENDROOT
BRANCH   9  12
ATOM     12  O   UNL     1      -7.362  -7.851 -12.543  1.00  0.00    -0.504 OA
ATOM     13  H   UNL     1      -7.615  -8.594 -13.184  1.00  0.00     0.293 HD
ENDBRANCH   9  12
BRANCH   8  14
ATOM     14  O   UNL     1      -5.228  -6.669 -13.964  1.00  0.00    -0.504 OA
ATOM     15  H   UNL     1      -5.272  -7.453 -14.604  1.00  0.00     0.293 HD
ENDBRANCH   8  14
TORSDOF 2
ENDMDL
MODEL 4
REMARK VINA RESULT:    -3.651      1.397      5.128
REMARK INTER + INTRA:          -3.864
REMARK INTER:                  -3.864
REMARK INTRA:                   0.000
REMARK UNBOUND:                 0.000
REMARK SMILES O=c1ccc2cc(O)c(O)cc2o1
REMARK SMILES IDX 4 1 3 2 2 3 1 4 13 5 12 6 11 7 9 8 7 9 6 10 5 11 8 12 10 14
REMARK H PARENT 8 13 10 15
REMARK Flexibility Score: inf
ROOT
ATOM      1  C   UNL     1      -6.254   9.678 -10.415  1.00  0.00     0.019 A 
ATOM      2  C   UNL     1      -6.671  10.038 -11.696  1.00  0.00     0.094 A 
ATOM      3  C   UNL     1      -7.999   9.807 -12.067  1.00  0.00     0.336 A 
ATOM      4  O   UNL     1      -8.394  10.125 -13.220  1.00  0.00    -0.246 OA
ATOM      5  O   UNL     1      -8.852   9.252 -11.209  1.00  0.00    -0.423 OA
ATOM      6  C   UNL     1      -8.496   8.894  -9.978  1.00  0.00     0.142 A 
ATOM      7  C   UNL     1      -9.435   8.315  -9.120  1.00  0.00     0.098 A 
ATOM      8  C   UNL     1      -9.070   7.935  -7.823  1.00  0.00     0.161 A 
ATOM      9  C   UNL     1      -7.750   8.136  -7.379  1.00  0.00     0.158 A 
ATOM     10  C   UNL     1      -6.804   8.717  -8.236  1.00  0.00     0.062 A 
ATOM     11  C   UNL     1      -7.172   9.096  -9.534  1.00  0.00     0.022 A 
ENDROOT
BRANCH   9  12
ATOM     12  O   UNL     1      -7.384   7.759  -6.087  1.00  0.00    -0.504 OA
ATOM     13  H   UNL     1      -7.993   7.921  -5.293  1.00  0.00     0.293 HD
ENDBRANCH   9  12
BRANCH   8  14
ATOM     14  O   UNL     1     -10.030   7.360  -6.990  1.00  0.00    -0.504 OA
ATOM     15  H   UNL     1     -11.014   7.352  -7.228  1.00  0.00     0.293 HD
ENDBRANCH   8  14
TORSDOF 2
ENDMDL
MODEL 5
REMARK VINA RESULT:    -3.597      1.247      4.573
REMARK INTER + INTRA:          -3.807
REMARK INTER:                  -3.807
REMARK INTRA:                   0.000
REMARK UNBOUND:                 0.000
REMARK SMILES O=c1ccc2cc(O)c(O)cc2o1
REMARK SMILES IDX 4 1 3 2 2 3 1 4 13 5 12 6 11 7 9 8 7 9 6 10 5 11 8 12 10 14
REMARK H PARENT 8 13 10 15
REMARK Flexibility Score: inf
ROOT
ATOM      1  C   UNL     1      -8.825   9.802 -10.774  1.00  0.00     0.019 A 
ATOM      2  C   UNL     1      -7.803  10.113 -11.670  1.00  0.00     0.094 A 
ATOM      3  C   UNL     1      -6.480   9.827 -11.317  1.00  0.00     0.336 A 
ATOM      4  O   UNL     1      -5.544  10.100 -12.114  1.00  0.00    -0.246 OA
ATOM      5  O   UNL     1      -6.202   9.265 -10.143  1.00  0.00    -0.423 OA
ATOM      6  C   UNL     1      -7.146   8.953  -9.259  1.00  0.00     0.142 A 
ATOM      7  C   UNL     1      -6.795   8.364  -8.040  1.00  0.00     0.098 A 
ATOM      8  C   UNL     1      -7.781   8.032  -7.104  1.00  0.00     0.161 A 
ATOM      9  C   UNL     1      -9.135   8.291  -7.389  1.00  0.00     0.158 A 
ATOM     10  C   UNL     1      -9.492   8.880  -8.610  1.00  0.00     0.062 A 
ATOM     11  C   UNL     1      -8.504   9.213  -9.546  1.00  0.00     0.022 A 
ENDROOT
BRANCH   9  12
ATOM     12  O   UNL     1     -10.119   7.960  -6.458  1.00  0.00    -0.504 OA
ATOM     13  H   UNL     1     -11.092   8.203  -6.604  1.00  0.00     0.293 HD
ENDBRANCH   9  12
BRANCH   8  14
ATOM     14  O   UNL     1      -7.399   7.446  -5.898  1.00  0.00    -0.504 OA
ATOM     15  H   UNL     1      -6.628   7.803  -5.347  1.00  0.00     0.293 HD
ENDBRANCH   8  14
TORSDOF 2
ENDMDL
MODEL 6
REMARK VINA RESULT:    -3.232     16.173     18.190
REMARK INTER + INTRA:          -3.421
REMARK INTER:                  -3.421
REMARK INTRA:                   0.000
REMARK UNBOUND:                 0.000
REMARK SMILES O=c1ccc2cc(O)c(O)cc2o1
REMARK SMILES IDX 4 1 3 2 2 3 1 4 13 5 12 6 11 7 9 8 7 9 6 10 5 11 8 12 10 14
REMARK H PARENT 8 13 10 15
REMARK Flexibility Score: inf
ROOT
ATOM      1  C   UNL     1     -10.125  -5.276   1.512  1.00  0.00     0.019 A 
ATOM      2  C   UNL     1      -9.995  -6.656   1.655  1.00  0.00     0.094 A 
ATOM      3  C   UNL     1      -9.739  -7.186   2.924  1.00  0.00     0.336 A 
ATOM      4  O   UNL     1      -9.618  -8.431   3.073  1.00  0.00    -0.246 OA
ATOM      5  O   UNL     1      -9.623  -6.383   3.979  1.00  0.00    -0.423 OA
ATOM      6  C   UNL     1      -9.740  -5.060   3.887  1.00  0.00     0.142 A 
ATOM      7  C   UNL     1      -9.609  -4.266   5.029  1.00  0.00     0.098 A 
ATOM      8  C   UNL     1      -9.731  -2.875   4.942  1.00  0.00     0.161 A 
ATOM      9  C   UNL     1      -9.987  -2.269   3.698  1.00  0.00     0.158 A 
ATOM     10  C   UNL     1     -10.120  -3.062   2.549  1.00  0.00     0.062 A 
ATOM     11  C   UNL     1      -9.998  -4.455   2.638  1.00  0.00     0.022 A 
ENDROOT
BRANCH   9  12
ATOM     12  O   UNL     1     -10.109  -0.883   3.609  1.00  0.00    -0.504 OA
ATOM     13  H   UNL     1      -9.457  -0.325   3.069  1.00  0.00     0.293 HD
ENDBRANCH   9  12
BRANCH   8  14
ATOM     14  O   UNL     1      -9.594  -2.109   6.100  1.00  0.00    -0.504 OA
ATOM     15  H   UNL     1      -9.357  -1.125   6.070  1.00  0.00     0.293 HD
ENDBRANCH   8  14
TORSDOF 2
ENDMDL
MODEL 7
REMARK VINA RESULT:    -3.228     16.416     18.395
REMARK INTER + INTRA:          -3.417
REMARK INTER:                  -3.417
REMARK INTRA:                   0.000
REMARK UNBOUND:                 0.000
REMARK SMILES O=c1ccc2cc(O)c(O)cc2o1
REMARK SMILES IDX 4 1 3 2 2 3 1 4 13 5 12 6 11 7 9 8 7 9 6 10 5 11 8 12 10 14
REMARK H PARENT 8 13 10 15
REMARK Flexibility Score: inf
ROOT
ATOM      1  C   UNL     1      -9.096  -3.731   5.503  1.00  0.00     0.019 A 
ATOM      2  C   UNL     1      -9.350  -2.373   5.318  1.00  0.00     0.094 A 
ATOM      3  C   UNL     1      -9.845  -1.936   4.085  1.00  0.00     0.336 A 
ATOM      4  O   UNL     1     -10.081  -0.714   3.899  1.00  0.00    -0.246 OA
ATOM      5  O   UNL     1     -10.071  -2.807   3.104  1.00  0.00    -0.423 OA
ATOM      6  C   UNL     1      -9.842  -4.111   3.238  1.00  0.00     0.142 A 
ATOM      7  C   UNL     1     -10.098  -4.978   2.172  1.00  0.00     0.098 A 
ATOM      8  C   UNL     1      -9.860  -6.351   2.305  1.00  0.00     0.161 A 
ATOM      9  C   UNL     1      -9.361  -6.864   3.516  1.00  0.00     0.158 A 
ATOM     10  C   UNL     1      -9.103  -5.998   4.589  1.00  0.00     0.062 A 
ATOM     11  C   UNL     1      -9.341  -4.623   4.455  1.00  0.00     0.022 A 
ENDROOT
BRANCH   9  12
ATOM     12  O   UNL     1      -9.124  -8.231   3.650  1.00  0.00    -0.504 OA
ATOM     13  H   UNL     1      -9.237  -8.869   2.870  1.00  0.00     0.293 HD
ENDBRANCH   9  12
BRANCH   8  14
ATOM     14  O   UNL     1     -10.125  -7.191   1.223  1.00  0.00    -0.504 OA
ATOM     15  H   UNL     1      -9.434  -7.383   0.508  1.00  0.00     0.293 HD
ENDBRANCH   8  14
TORSDOF 2
ENDMDL
MODEL 8
REMARK VINA RESULT:    -3.137     17.113     18.057
REMARK INTER + INTRA:          -3.320
REMARK INTER:                  -3.320
REMARK INTRA:                   0.000
REMARK UNBOUND:                 0.000
REMARK SMILES O=c1ccc2cc(O)c(O)cc2o1
REMARK SMILES IDX 4 1 3 2 2 3 1 4 13 5 12 6 11 7 9 8 7 9 6 10 5 11 8 12 10 14
REMARK H PARENT 8 13 10 15
REMARK Flexibility Score: inf
ROOT
ATOM      1  C   UNL     1      -9.967  -8.011 -11.981  1.00  0.00     0.019 A 
ATOM      2  C   UNL     1      -9.195  -7.491 -13.019  1.00  0.00     0.094 A 
ATOM      3  C   UNL     1      -7.801  -7.510 -12.902  1.00  0.00     0.336 A 
ATOM      4  O   UNL     1      -7.086  -7.045 -13.829  1.00  0.00    -0.246 OA
ATOM      5  O   UNL     1      -7.222  -8.018 -11.817  1.00  0.00    -0.423 OA
ATOM      6  C   UNL     1      -7.922  -8.524 -10.804  1.00  0.00     0.142 A 
ATOM      7  C   UNL     1      -7.260  -9.045  -9.689  1.00  0.00     0.098 A 
ATOM      8  C   UNL     1      -7.988  -9.579  -8.619  1.00  0.00     0.161 A 
ATOM      9  C   UNL     1      -9.394  -9.593  -8.664  1.00  0.00     0.158 A 
ATOM     10  C   UNL     1     -10.063  -9.073  -9.782  1.00  0.00     0.062 A 
ATOM     11  C   UNL     1      -9.333  -8.538 -10.852  1.00  0.00     0.022 A 
ENDROOT
BRANCH   9  12
ATOM     12  O   UNL     1     -10.121 -10.125  -7.600  1.00  0.00    -0.504 OA
ATOM     13  H   UNL     1     -10.096  -9.706  -6.677  1.00  0.00     0.293 HD
ENDBRANCH   9  12
BRANCH   8  14
ATOM     14  O   UNL     1      -7.299 -10.090  -7.520  1.00  0.00    -0.504 OA
ATOM     15  H   UNL     1      -7.696 -10.802  -6.918  1.00  0.00     0.293 HD
ENDBRANCH   8  14
TORSDOF 2
ENDMDL
MODEL 9
REMARK VINA RESULT:    -2.914     14.926     15.470
REMARK INTER + INTRA:          -3.085
REMARK INTER:                  -3.085
REMARK INTRA:                   0.000
REMARK UNBOUND:                 0.000
REMARK SMILES O=c1ccc2cc(O)c(O)cc2o1
REMARK SMILES IDX 4 1 3 2 2 3 1 4 13 5 12 6 11 7 9 8 7 9 6 10 5 11 8 12 10 14
REMARK H PARENT 8 13 10 15
REMARK Flexibility Score: inf
ROOT
ATOM      1  C   UNL     1      -6.458  -4.278 -14.006  1.00  0.00     0.019 A 
ATOM      2  C   UNL     1      -6.883  -2.955 -14.125  1.00  0.00     0.094 A 
ATOM      3  C   UNL     1      -8.189  -2.626 -13.747  1.00  0.00     0.336 A 
ATOM      4  O   UNL     1      -8.591  -1.437 -13.847  1.00  0.00    -0.246 OA
ATOM      5  O   UNL     1      -9.012  -3.562 -13.282  1.00  0.00    -0.423 OA
ATOM      6  C   UNL     1      -8.647  -4.835 -13.153  1.00  0.00     0.142 A 
ATOM      7  C   UNL     1      -9.555  -5.775 -12.658  1.00  0.00     0.098 A 
ATOM      8  C   UNL     1      -9.180  -7.117 -12.519  1.00  0.00     0.161 A 
ATOM      9  C   UNL     1      -7.883  -7.524 -12.879  1.00  0.00     0.158 A 
ATOM     10  C   UNL     1      -6.967  -6.584 -13.376  1.00  0.00     0.062 A 
ATOM     11  C   UNL     1      -7.345  -5.241 -13.515  1.00  0.00     0.022 A 
ENDROOT
BRANCH   9  12
ATOM     12  O   UNL     1      -7.507  -8.859 -12.741  1.00  0.00    -0.504 OA
ATOM     13  H   UNL     1      -7.268  -9.430 -13.544  1.00  0.00     0.293 HD
ENDBRANCH   9  12
BRANCH   8  14
ATOM     14  O   UNL     1     -10.109  -8.031 -12.022  1.00  0.00    -0.504 OA
ATOM     15  H   UNL     1     -10.813  -8.457 -12.612  1.00  0.00     0.293 HD
ENDBRANCH   8  14
TORSDOF 2
ENDMDL
