MODEL 1
REMARK VINA RESULT:    -9.037      0.000      0.000
REMARK INTER + INTRA:         -11.130
REMARK INTER:                 -10.886
REMARK INTRA:                  -0.244
REMARK UNBOUND:                -0.244
REMARK SMILES Oc1cc(O)c2c(c1)O[C@@H](c1ccc(O)c(O)c1)[C@H](O)C2
REMARK SMILES IDX 21 1 19 2 10 3 9 4 7 5 8 6 2 7 3 8 4 9 6 10 20 11 11 13
REMARK SMILES IDX 18 14 12 15 16 16 13 17 14 18 17 19 15 21 5 23 1 25
REMARK H PARENT 20 12 17 20 15 22 5 24 1 26
REMARK Flexibility Score: inf
ROOT
ATOM      1  C   UNL     1       9.870 -46.600  38.243  1.00  0.00     0.079 C 
ATOM      2  C   UNL     1       9.287 -46.526  36.818  1.00  0.00     0.164 C 
ATOM      3  C   UNL     1      10.058 -45.480  35.984  1.00  0.00     0.232 C 
ATOM      4  O   UNL     1      11.453 -45.789  35.983  1.00  0.00    -0.482 OA
ATOM      5  C   UNL     1      12.108 -46.317  37.102  1.00  0.00     0.131 A 
ATOM      6  C   UNL     1      13.501 -46.433  37.088  1.00  0.00     0.093 A 
ATOM      7  C   UNL     1      14.177 -46.958  38.196  1.00  0.00     0.122 A 
ATOM      8  C   UNL     1      13.455 -47.366  39.321  1.00  0.00     0.092 A 
ATOM      9  C   UNL     1      12.057 -47.258  39.346  1.00  0.00     0.126 A 
ATOM     10  C   UNL     1      11.373 -46.750  38.225  1.00  0.00     0.039 A 
ENDROOT
BRANCH   2  11
ATOM     11  O   UNL     1       7.912 -46.237  36.860  1.00  0.00    -0.389 OA
ATOM     12  H   UNL     1       7.619 -46.305  37.807  1.00  0.00     0.211 HD
ENDBRANCH   2  11
BRANCH   3  13
ATOM     13  C   UNL     1       9.546 -45.434  34.564  1.00  0.00    -0.001 A 
ATOM     14  C   UNL     1       9.198 -46.621  33.899  1.00  0.00     0.057 A 
ATOM     15  C   UNL     1       9.459 -44.213  33.875  1.00  0.00     0.012 A 
ATOM     16  C   UNL     1       8.749 -46.591  32.573  1.00  0.00     0.157 A 
ATOM     17  C   UNL     1       9.011 -44.178  32.553  1.00  0.00     0.050 A 
ATOM     18  C   UNL     1       8.653 -45.363  31.896  1.00  0.00     0.157 A 
BRANCH  16  19
ATOM     19  O   UNL     1       8.407 -47.788  31.946  1.00  0.00    -0.504 OA
ATOM     20  H   UNL     1       9.106 -48.458  31.647  1.00  0.00     0.293 HD
ENDBRANCH  16  19
BRANCH  18  21
ATOM     21  O   UNL     1       8.206 -45.326  30.577  1.00  0.00    -0.504 OA
ATOM     22  H   UNL     1       8.030 -44.449  30.100  1.00  0.00     0.293 HD
ENDBRANCH  18  21
ENDBRANCH   3  13
BRANCH   9  23
ATOM     23  O   UNL     1      11.347 -47.655  40.479  1.00  0.00    -0.507 OA
ATOM     24  H   UNL     1      10.548 -48.275  40.416  1.00  0.00     0.293 HD
ENDBRANCH   9  23
BRANCH   7  25
ATOM     25  O   UNL     1      15.565 -47.075  38.190  1.00  0.00    -0.508 OA
ATOM     26  H   UNL     1      16.037 -47.743  37.592  1.00  0.00     0.293 HD
ENDBRANCH   7  25
TORSDOF 6
ENDMDL
MODEL 2
REMARK VINA RESULT:    -8.168      2.166      7.452
REMARK INTER + INTRA:         -10.083
REMARK INTER:                  -9.721
REMARK INTRA:                  -0.362
REMARK UNBOUND:                -0.244
REMARK SMILES Oc1cc(O)c2c(c1)O[C@@H](c1ccc(O)c(O)c1)[C@H](O)C2
REMARK SMILES IDX 21 1 19 2 10 3 9 4 7 5 8 6 2 7 3 8 4 9 6 10 20 11 11 13
REMARK SMILES IDX 18 14 12 15 16 16 13 17 14 18 17 19 15 21 5 23 1 25
REMARK H PARENT 20 12 17 20 15 22 5 24 1 26
REMARK Flexibility Score: inf
ROOT
ATOM      1  C   UNL     1       7.982 -47.439  32.641  1.00  0.00     0.079 C 
ATOM      2  C   UNL     1       8.526 -47.461  34.082  1.00  0.00     0.164 C 
ATOM      3  C   UNL     1       9.357 -46.189  34.355  1.00  0.00     0.232 C 
ATOM      4  O   UNL     1       8.570 -45.026  34.091  1.00  0.00    -0.482 OA
ATOM      5  C   UNL     1       7.643 -44.967  33.044  1.00  0.00     0.131 A 
ATOM      6  C   UNL     1       7.034 -43.746  32.738  1.00  0.00     0.093 A 
ATOM      7  C   UNL     1       6.104 -43.662  31.695  1.00  0.00     0.122 A 
ATOM      8  C   UNL     1       5.784 -44.806  30.957  1.00  0.00     0.092 A 
ATOM      9  C   UNL     1       6.384 -46.037  31.258  1.00  0.00     0.126 A 
ATOM     10  C   UNL     1       7.304 -46.128  32.319  1.00  0.00     0.039 A 
ENDROOT
BRANCH   2  11
ATOM     11  O   UNL     1       9.280 -48.626  34.309  1.00  0.00    -0.389 OA
ATOM     12  H   UNL     1       9.530 -49.000  33.423  1.00  0.00     0.211 HD
ENDBRANCH   2  11
BRANCH   3  13
ATOM     13  C   UNL     1       9.849 -46.157  35.782  1.00  0.00    -0.001 A 
ATOM     14  C   UNL     1       8.937 -46.253  36.847  1.00  0.00     0.057 A 
ATOM     15  C   UNL     1      11.214 -45.983  36.064  1.00  0.00     0.012 A 
ATOM     16  C   UNL     1       9.381 -46.196  38.174  1.00  0.00     0.157 A 
ATOM     17  C   UNL     1      11.661 -45.926  37.386  1.00  0.00     0.050 A 
ATOM     18  C   UNL     1      10.750 -46.034  38.446  1.00  0.00     0.157 A 
BRANCH  16  19
ATOM     19  O   UNL     1       8.448 -46.300  39.204  1.00  0.00    -0.504 OA
ATOM     20  H   UNL     1       7.467 -46.092  39.065  1.00  0.00     0.293 HD
ENDBRANCH  16  19
BRANCH  18  21
ATOM     21  O   UNL     1      11.198 -45.978  39.764  1.00  0.00    -0.504 OA
ATOM     22  H   UNL     1      10.560 -46.065  40.546  1.00  0.00     0.293 HD
ENDBRANCH  18  21
ENDBRANCH   3  13
BRANCH   9  23
ATOM     23  O   UNL     1       6.067 -47.169  30.506  1.00  0.00    -0.507 OA
ATOM     24  H   UNL     1       5.117 -47.514  30.441  1.00  0.00     0.293 HD
ENDBRANCH   9  23
BRANCH   7  25
ATOM     25  O   UNL     1       5.496 -42.450  31.382  1.00  0.00    -0.508 OA
ATOM     26  H   UNL     1       4.825 -42.017  32.006  1.00  0.00     0.293 HD
ENDBRANCH   7  25
TORSDOF 6
ENDMDL
MODEL 3
REMARK VINA RESULT:    -7.935      1.615      2.160
REMARK INTER + INTRA:          -9.803
REMARK INTER:                 -10.195
REMARK INTRA:                   0.392
REMARK UNBOUND:                -0.244
REMARK SMILES Oc1cc(O)c2c(c1)O[C@@H](c1ccc(O)c(O)c1)[C@H](O)C2
REMARK SMILES IDX 21 1 19 2 10 3 9 4 7 5 8 6 2 7 3 8 4 9 6 10 20 11 11 13
REMARK SMILES IDX 18 14 12 15 16 16 13 17 14 18 17 19 15 21 5 23 1 25
REMARK H PARENT 20 12 17 20 15 22 5 24 1 26
REMARK Flexibility Score: inf
ROOT
ATOM      1  C   UNL     1       9.027 -47.432  37.897  1.00  0.00     0.079 C 
ATOM      2  C   UNL     1       8.340 -47.701  36.545  1.00  0.00     0.164 C 
ATOM      3  C   UNL     1       8.523 -46.489  35.606  1.00  0.00     0.232 C 
ATOM      4  O   UNL     1       9.913 -46.193  35.457  1.00  0.00    -0.482 OA
ATOM      5  C   UNL     1      10.827 -46.327  36.508  1.00  0.00     0.131 A 
ATOM      6  C   UNL     1      12.134 -45.858  36.341  1.00  0.00     0.093 A 
ATOM      7  C   UNL     1      13.066 -45.980  37.379  1.00  0.00     0.122 A 
ATOM      8  C   UNL     1      12.687 -46.573  38.587  1.00  0.00     0.092 A 
ATOM      9  C   UNL     1      11.380 -47.051  38.764  1.00  0.00     0.126 A 
ATOM     10  C   UNL     1      10.448 -46.948  37.715  1.00  0.00     0.039 A 
ENDROOT
BRANCH   2  11
ATOM     11  O   UNL     1       6.980 -48.005  36.733  1.00  0.00    -0.389 OA
ATOM     12  H   UNL     1       6.641 -47.428  37.468  1.00  0.00     0.211 HD
ENDBRANCH   2  11
BRANCH   3  13
ATOM     13  C   UNL     1       7.911 -46.755  34.251  1.00  0.00    -0.001 A 
ATOM     14  C   UNL     1       8.488 -46.205  33.094  1.00  0.00     0.057 A 
ATOM     15  C   UNL     1       6.733 -47.512  34.135  1.00  0.00     0.012 A 
ATOM     16  C   UNL     1       7.911 -46.422  31.837  1.00  0.00     0.157 A 
ATOM     17  C   UNL     1       6.155 -47.732  32.883  1.00  0.00     0.050 A 
ATOM     18  C   UNL     1       6.740 -47.192  31.729  1.00  0.00     0.157 A 
BRANCH  16  19
ATOM     19  O   UNL     1       8.514 -45.866  30.710  1.00  0.00    -0.504 OA
ATOM     20  H   UNL     1       8.771 -46.425  29.906  1.00  0.00     0.293 HD
ENDBRANCH  16  19
BRANCH  18  21
ATOM     21  O   UNL     1       6.162 -47.413  30.481  1.00  0.00    -0.504 OA
ATOM     22  H   UNL     1       6.721 -47.661  29.673  1.00  0.00     0.293 HD
ENDBRANCH  18  21
ENDBRANCH   3  13
BRANCH   9  23
ATOM     23  O   UNL     1      11.009 -47.628  39.979  1.00  0.00    -0.507 OA
ATOM     24  H   UNL     1      11.613 -48.282  40.463  1.00  0.00     0.293 HD
ENDBRANCH   9  23
BRANCH   7  25
ATOM     25  O   UNL     1      14.368 -45.514  37.221  1.00  0.00    -0.508 OA
ATOM     26  H   UNL     1      14.636 -44.582  37.513  1.00  0.00     0.293 HD
ENDBRANCH   7  25
TORSDOF 6
ENDMDL
MODEL 4
REMARK VINA RESULT:    -7.877      2.379      4.395
REMARK INTER + INTRA:          -9.732
REMARK INTER:                  -9.698
REMARK INTRA:                  -0.034
REMARK UNBOUND:                -0.244
REMARK SMILES Oc1cc(O)c2c(c1)O[C@@H](c1ccc(O)c(O)c1)[C@H](O)C2
REMARK SMILES IDX 21 1 19 2 10 3 9 4 7 5 8 6 2 7 3 8 4 9 6 10 20 11 11 13
REMARK SMILES IDX 18 14 12 15 16 16 13 17 14 18 17 19 15 21 5 23 1 25
REMARK H PARENT 20 12 17 20 15 22 5 24 1 26
REMARK Flexibility Score: inf
ROOT
ATOM      1  C   UNL     1      10.418 -45.370  34.370  1.00  0.00     0.079 C 
ATOM      2  C   UNL     1       9.253 -45.040  33.418  1.00  0.00     0.164 C 
ATOM      3  C   UNL     1       8.419 -46.309  33.140  1.00  0.00     0.232 C 
ATOM      4  O   UNL     1       7.967 -46.876  34.372  1.00  0.00    -0.482 OA
ATOM      5  C   UNL     1       8.748 -46.870  35.534  1.00  0.00     0.131 A 
ATOM      6  C   UNL     1       8.316 -47.590  36.651  1.00  0.00     0.093 A 
ATOM      7  C   UNL     1       9.080 -47.599  37.825  1.00  0.00     0.122 A 
ATOM      8  C   UNL     1      10.281 -46.885  37.876  1.00  0.00     0.092 A 
ATOM      9  C   UNL     1      10.723 -46.155  36.763  1.00  0.00     0.126 A 
ATOM     10  C   UNL     1       9.945 -46.128  35.590  1.00  0.00     0.039 A 
ENDROOT
BRANCH   2  11
ATOM     11  O   UNL     1       9.734 -44.470  32.226  1.00  0.00    -0.389 OA
ATOM     12  H   UNL     1       9.873 -43.500  32.390  1.00  0.00     0.211 HD
ENDBRANCH   2  11
BRANCH   3  13
ATOM     13  C   UNL     1       7.233 -45.998  32.259  1.00  0.00    -0.001 A 
ATOM     14  C   UNL     1       6.739 -44.685  32.176  1.00  0.00     0.057 A 
ATOM     15  C   UNL     1       6.581 -47.021  31.550  1.00  0.00     0.012 A 
ATOM     16  C   UNL     1       5.622 -44.392  31.383  1.00  0.00     0.157 A 
ATOM     17  C   UNL     1       5.468 -46.733  30.758  1.00  0.00     0.050 A 
ATOM     18  C   UNL     1       4.984 -45.420  30.667  1.00  0.00     0.157 A 
BRANCH  16  19
ATOM     19  O   UNL     1       5.163 -43.078  31.320  1.00  0.00    -0.504 OA
ATOM     20  H   UNL     1       5.227 -42.447  32.111  1.00  0.00     0.293 HD
ENDBRANCH  16  19
BRANCH  18  21
ATOM     21  O   UNL     1       3.874 -45.135  29.876  1.00  0.00    -0.504 OA
ATOM     22  H   UNL     1       3.844 -44.318  29.277  1.00  0.00     0.293 HD
ENDBRANCH  18  21
ENDBRANCH   3  13
BRANCH   9  23
ATOM     23  O   UNL     1      11.929 -45.458  36.822  1.00  0.00    -0.507 OA
ATOM     24  H   UNL     1      12.038 -44.547  36.390  1.00  0.00     0.293 HD
ENDBRANCH   9  23
BRANCH   7  25
ATOM     25  O   UNL     1       8.658 -48.316  38.941  1.00  0.00    -0.508 OA
ATOM     26  H   UNL     1       9.295 -48.902  39.466  1.00  0.00     0.293 HD
ENDBRANCH   7  25
TORSDOF 6
ENDMDL
MODEL 5
REMARK VINA RESULT:    -7.861      2.524      6.852
REMARK INTER + INTRA:          -9.714
REMARK INTER:                 -10.121
REMARK INTRA:                   0.407
REMARK UNBOUND:                -0.244
REMARK SMILES Oc1cc(O)c2c(c1)O[C@@H](c1ccc(O)c(O)c1)[C@H](O)C2
REMARK SMILES IDX 21 1 19 2 10 3 9 4 7 5 8 6 2 7 3 8 4 9 6 10 20 11 11 13
REMARK SMILES IDX 18 14 12 15 16 16 13 17 14 18 17 19 15 21 5 23 1 25
REMARK H PARENT 20 12 17 20 15 22 5 24 1 26
REMARK Flexibility Score: inf
ROOT
ATOM      1  C   UNL     1       8.286 -46.603  34.949  1.00  0.00     0.079 C 
ATOM      2  C   UNL     1       9.746 -46.543  35.435  1.00  0.00     0.164 C 
ATOM      3  C   UNL     1       9.796 -46.639  36.975  1.00  0.00     0.232 C 
ATOM      4  O   UNL     1       9.129 -47.825  37.412  1.00  0.00    -0.482 OA
ATOM      5  C   UNL     1       7.980 -48.316  36.782  1.00  0.00     0.131 A 
ATOM      6  C   UNL     1       7.282 -49.379  37.364  1.00  0.00     0.093 A 
ATOM      7  C   UNL     1       6.130 -49.888  36.751  1.00  0.00     0.122 A 
ATOM      8  C   UNL     1       5.676 -49.329  35.553  1.00  0.00     0.092 A 
ATOM      9  C   UNL     1       6.370 -48.265  34.957  1.00  0.00     0.126 A 
ATOM     10  C   UNL     1       7.540 -47.766  35.560  1.00  0.00     0.039 A 
ENDROOT
BRANCH   2  11
ATOM     11  O   UNL     1      10.374 -45.373  34.973  1.00  0.00    -0.389 OA
ATOM     12  H   UNL     1      11.226 -45.641  34.535  1.00  0.00     0.211 HD
ENDBRANCH   2  11
BRANCH   3  13
ATOM     13  C   UNL     1      11.222 -46.646  37.473  1.00  0.00    -0.001 A 
ATOM     14  C   UNL     1      11.521 -47.134  38.756  1.00  0.00     0.057 A 
ATOM     15  C   UNL     1      12.257 -46.120  36.682  1.00  0.00     0.012 A 
ATOM     16  C   UNL     1      12.836 -47.118  39.237  1.00  0.00     0.157 A 
ATOM     17  C   UNL     1      13.571 -46.103  37.157  1.00  0.00     0.050 A 
ATOM     18  C   UNL     1      13.868 -46.602  38.433  1.00  0.00     0.157 A 
BRANCH  16  19
ATOM     19  O   UNL     1      13.097 -47.616  40.512  1.00  0.00    -0.504 OA
ATOM     20  H   UNL     1      13.868 -48.246  40.696  1.00  0.00     0.293 HD
ENDBRANCH  16  19
BRANCH  18  21
ATOM     21  O   UNL     1      15.179 -46.584  38.905  1.00  0.00    -0.504 OA
ATOM     22  H   UNL     1      15.968 -46.490  38.276  1.00  0.00     0.293 HD
ENDBRANCH  18  21
ENDBRANCH   3  13
BRANCH   9  23
ATOM     23  O   UNL     1       5.901 -47.706  33.768  1.00  0.00    -0.507 OA
ATOM     24  H   UNL     1       5.314 -46.880  33.765  1.00  0.00     0.293 HD
ENDBRANCH   9  23
BRANCH   7  25
ATOM     25  O   UNL     1       5.429 -50.944  37.326  1.00  0.00    -0.508 OA
ATOM     26  H   UNL     1       4.692 -51.425  36.825  1.00  0.00     0.293 HD
ENDBRANCH   7  25
TORSDOF 6
ENDMDL
MODEL 6
REMARK VINA RESULT:    -7.688      3.811      6.800
REMARK INTER + INTRA:          -9.505
REMARK INTER:                  -9.182
REMARK INTRA:                  -0.324
REMARK UNBOUND:                -0.244
REMARK SMILES Oc1cc(O)c2c(c1)O[C@@H](c1ccc(O)c(O)c1)[C@H](O)C2
REMARK SMILES IDX 21 1 19 2 10 3 9 4 7 5 8 6 2 7 3 8 4 9 6 10 20 11 11 13
REMARK SMILES IDX 18 14 12 15 16 16 13 17 14 18 17 19 15 21 5 23 1 25
REMARK H PARENT 20 12 17 20 15 22 5 24 1 26
REMARK Flexibility Score: inf
ROOT
ATOM      1  C   UNL     1       5.887 -48.202  38.798  1.00  0.00     0.079 C 
ATOM      2  C   UNL     1       7.148 -47.347  38.569  1.00  0.00     0.164 C 
ATOM      3  C   UNL     1       8.362 -48.257  38.286  1.00  0.00     0.232 C 
ATOM      4  O   UNL     1       8.082 -49.114  37.177  1.00  0.00    -0.482 OA
ATOM      5  C   UNL     1       6.812 -49.659  36.951  1.00  0.00     0.131 A 
ATOM      6  C   UNL     1       6.651 -50.622  35.950  1.00  0.00     0.093 A 
ATOM      7  C   UNL     1       5.390 -51.181  35.705  1.00  0.00     0.122 A 
ATOM      8  C   UNL     1       4.290 -50.774  36.466  1.00  0.00     0.092 A 
ATOM      9  C   UNL     1       4.439 -49.805  37.469  1.00  0.00     0.126 A 
ATOM     10  C   UNL     1       5.701 -49.227  37.703  1.00  0.00     0.039 A 
ENDROOT
BRANCH   2  11
ATOM     11  O   UNL     1       7.382 -46.506  39.672  1.00  0.00    -0.389 OA
ATOM     12  H   UNL     1       6.549 -45.990  39.839  1.00  0.00     0.211 HD
ENDBRANCH   2  11
BRANCH   3  13
ATOM     13  C   UNL     1       9.598 -47.439  37.996  1.00  0.00    -0.001 A 
ATOM     14  C   UNL     1       9.807 -46.902  36.714  1.00  0.00     0.057 A 
ATOM     15  C   UNL     1      10.576 -47.245  38.986  1.00  0.00     0.012 A 
ATOM     16  C   UNL     1      10.963 -46.166  36.428  1.00  0.00     0.157 A 
ATOM     17  C   UNL     1      11.730 -46.511  38.705  1.00  0.00     0.050 A 
ATOM     18  C   UNL     1      11.930 -45.967  37.429  1.00  0.00     0.157 A 
BRANCH  16  19
ATOM     19  O   UNL     1      11.134 -45.645  35.147  1.00  0.00    -0.504 OA
ATOM     20  H   UNL     1      11.999 -45.204  34.857  1.00  0.00     0.293 HD
ENDBRANCH  16  19
BRANCH  18  21
ATOM     21  O   UNL     1      13.082 -45.235  37.152  1.00  0.00    -0.504 OA
ATOM     22  H   UNL     1      13.085 -44.221  37.172  1.00  0.00     0.293 HD
ENDBRANCH  18  21
ENDBRANCH   3  13
BRANCH   9  23
ATOM     23  O   UNL     1       3.337 -49.417  38.231  1.00  0.00    -0.507 OA
ATOM     24  H   UNL     1       2.548 -50.035  38.378  1.00  0.00     0.293 HD
ENDBRANCH   9  23
BRANCH   7  25
ATOM     25  O   UNL     1       5.222 -52.142  34.712  1.00  0.00    -0.508 OA
ATOM     26  H   UNL     1       4.620 -51.980  33.914  1.00  0.00     0.293 HD
ENDBRANCH   7  25
TORSDOF 6
ENDMDL
MODEL 7
REMARK VINA RESULT:    -7.622      4.195      6.987
REMARK INTER + INTRA:          -9.425
REMARK INTER:                  -9.069
REMARK INTRA:                  -0.357
REMARK UNBOUND:                -0.244
REMARK SMILES Oc1cc(O)c2c(c1)O[C@@H](c1ccc(O)c(O)c1)[C@H](O)C2
REMARK SMILES IDX 21 1 19 2 10 3 9 4 7 5 8 6 2 7 3 8 4 9 6 10 20 11 11 13
REMARK SMILES IDX 18 14 12 15 16 16 13 17 14 18 17 19 15 21 5 23 1 25
REMARK H PARENT 20 12 17 20 15 22 5 24 1 26
REMARK Flexibility Score: inf
ROOT
ATOM      1  C   UNL     1       9.017 -47.268  35.838  1.00  0.00     0.079 C 
ATOM      2  C   UNL     1       8.121 -48.502  36.056  1.00  0.00     0.164 C 
ATOM      3  C   UNL     1       6.666 -48.180  35.648  1.00  0.00     0.232 C 
ATOM      4  O   UNL     1       6.630 -47.717  34.297  1.00  0.00    -0.482 OA
ATOM      5  C   UNL     1       7.636 -46.912  33.750  1.00  0.00     0.131 A 
ATOM      6  C   UNL     1       7.452 -46.355  32.481  1.00  0.00     0.093 A 
ATOM      7  C   UNL     1       8.445 -45.547  31.914  1.00  0.00     0.122 A 
ATOM      8  C   UNL     1       9.624 -45.295  32.621  1.00  0.00     0.092 A 
ATOM      9  C   UNL     1       9.822 -45.852  33.893  1.00  0.00     0.126 A 
ATOM     10  C   UNL     1       8.835 -46.682  34.456  1.00  0.00     0.039 A 
ENDROOT
BRANCH   2  11
ATOM     11  O   UNL     1       8.195 -48.938  37.390  1.00  0.00    -0.389 OA
ATOM     12  H   UNL     1       7.702 -48.282  37.950  1.00  0.00     0.211 HD
ENDBRANCH   2  11
BRANCH   3  13
ATOM     13  C   UNL     1       5.780 -49.394  35.794  1.00  0.00    -0.001 A 
ATOM     14  C   UNL     1       4.823 -49.452  36.820  1.00  0.00     0.057 A 
ATOM     15  C   UNL     1       5.935 -50.498  34.938  1.00  0.00     0.012 A 
ATOM     16  C   UNL     1       4.016 -50.585  36.980  1.00  0.00     0.157 A 
ATOM     17  C   UNL     1       5.132 -51.631  35.094  1.00  0.00     0.050 A 
ATOM     18  C   UNL     1       4.169 -51.680  36.112  1.00  0.00     0.157 A 
BRANCH  16  19
ATOM     19  O   UNL     1       3.073 -50.606  38.006  1.00  0.00    -0.504 OA
ATOM     20  H   UNL     1       2.377 -51.338  38.083  1.00  0.00     0.293 HD
ENDBRANCH  16  19
BRANCH  18  21
ATOM     21  O   UNL     1       3.369 -52.811  36.265  1.00  0.00    -0.504 OA
ATOM     22  H   UNL     1       2.596 -53.003  35.638  1.00  0.00     0.293 HD
ENDBRANCH  18  21
ENDBRANCH   3  13
BRANCH   9  23
ATOM     23  O   UNL     1      10.997 -45.583  34.596  1.00  0.00    -0.507 OA
ATOM     24  H   UNL     1      11.894 -45.935  34.285  1.00  0.00     0.293 HD
ENDBRANCH   9  23
BRANCH   7  25
ATOM     25  O   UNL     1       8.268 -44.987  30.651  1.00  0.00    -0.508 OA
ATOM     26  H   UNL     1       8.299 -43.985  30.507  1.00  0.00     0.293 HD
ENDBRANCH   7  25
TORSDOF 6
ENDMDL
MODEL 8
REMARK VINA RESULT:    -7.574      4.155      6.024
REMARK INTER + INTRA:          -9.367
REMARK INTER:                  -9.243
REMARK INTRA:                  -0.125
REMARK UNBOUND:                -0.244
REMARK SMILES Oc1cc(O)c2c(c1)O[C@@H](c1ccc(O)c(O)c1)[C@H](O)C2
REMARK SMILES IDX 21 1 19 2 10 3 9 4 7 5 8 6 2 7 3 8 4 9 6 10 20 11 11 13
REMARK SMILES IDX 18 14 12 15 16 16 13 17 14 18 17 19 15 21 5 23 1 25
REMARK H PARENT 20 12 17 20 15 22 5 24 1 26
REMARK Flexibility Score: inf
ROOT
ATOM      1  C   UNL     1       8.875 -47.559  34.668  1.00  0.00     0.079 C 
ATOM      2  C   UNL     1       7.512 -48.260  34.820  1.00  0.00     0.164 C 
ATOM      3  C   UNL     1       7.608 -49.382  35.876  1.00  0.00     0.232 C 
ATOM      4  O   UNL     1       8.083 -48.848  37.114  1.00  0.00    -0.482 OA
ATOM      5  C   UNL     1       9.045 -47.833  37.175  1.00  0.00     0.131 A 
ATOM      6  C   UNL     1       9.588 -47.480  38.414  1.00  0.00     0.093 A 
ATOM      7  C   UNL     1      10.552 -46.468  38.500  1.00  0.00     0.122 A 
ATOM      8  C   UNL     1      10.974 -45.810  37.340  1.00  0.00     0.092 A 
ATOM      9  C   UNL     1      10.433 -46.153  36.092  1.00  0.00     0.126 A 
ATOM     10  C   UNL     1       9.449 -47.155  36.006  1.00  0.00     0.039 A 
ENDROOT
BRANCH   2  11
ATOM     11  O   UNL     1       7.070 -48.757  33.581  1.00  0.00    -0.389 OA
ATOM     12  H   UNL     1       6.784 -47.981  33.030  1.00  0.00     0.211 HD
ENDBRANCH   2  11
BRANCH   3  13
ATOM     13  C   UNL     1       6.267 -50.043  36.089  1.00  0.00    -0.001 A 
ATOM     14  C   UNL     1       5.481 -49.707  37.204  1.00  0.00     0.057 A 
ATOM     15  C   UNL     1       5.812 -51.036  35.205  1.00  0.00     0.012 A 
ATOM     16  C   UNL     1       4.250 -50.335  37.424  1.00  0.00     0.157 A 
ATOM     17  C   UNL     1       4.584 -51.666  35.421  1.00  0.00     0.050 A 
ATOM     18  C   UNL     1       3.796 -51.318  36.527  1.00  0.00     0.157 A 
BRANCH  16  19
ATOM     19  O   UNL     1       3.494 -49.972  38.538  1.00  0.00    -0.504 OA
ATOM     20  H   UNL     1       2.490 -50.105  38.573  1.00  0.00     0.293 HD
ENDBRANCH  16  19
BRANCH  18  21
ATOM     21  O   UNL     1       2.571 -51.947  36.741  1.00  0.00    -0.504 OA
ATOM     22  H   UNL     1       2.292 -52.762  36.207  1.00  0.00     0.293 HD
ENDBRANCH  18  21
ENDBRANCH   3  13
BRANCH   9  23
ATOM     23  O   UNL     1      10.872 -45.500  34.941  1.00  0.00    -0.507 OA
ATOM     24  H   UNL     1      11.755 -45.005  34.914  1.00  0.00     0.293 HD
ENDBRANCH   9  23
BRANCH   7  25
ATOM     25  O   UNL     1      11.099 -46.111  39.730  1.00  0.00    -0.508 OA
ATOM     26  H   UNL     1      11.747 -46.718  40.217  1.00  0.00     0.293 HD
ENDBRANCH   7  25
TORSDOF 6
ENDMDL
MODEL 9
REMARK VINA RESULT:    -7.403      4.276      5.868
REMARK INTER + INTRA:          -9.162
REMARK INTER:                  -8.809
REMARK INTRA:                  -0.353
REMARK UNBOUND:                -0.244
REMARK SMILES Oc1cc(O)c2c(c1)O[C@@H](c1ccc(O)c(O)c1)[C@H](O)C2
REMARK SMILES IDX 21 1 19 2 10 3 9 4 7 5 8 6 2 7 3 8 4 9 6 10 20 11 11 13
REMARK SMILES IDX 18 14 12 15 16 16 13 17 14 18 17 19 15 21 5 23 1 25
REMARK H PARENT 20 12 17 20 15 22 5 24 1 26
REMARK Flexibility Score: inf
ROOT
ATOM      1  C   UNL     1       8.892 -47.550  34.576  1.00  0.00     0.079 C 
ATOM      2  C   UNL     1       7.537 -48.269  34.722  1.00  0.00     0.164 C 
ATOM      3  C   UNL     1       7.638 -49.380  35.789  1.00  0.00     0.232 C 
ATOM      4  O   UNL     1       8.095 -48.829  37.026  1.00  0.00    -0.482 OA
ATOM      5  C   UNL     1       9.043 -47.801  37.087  1.00  0.00     0.131 A 
ATOM      6  C   UNL     1       9.569 -47.429  38.327  1.00  0.00     0.093 A 
ATOM      7  C   UNL     1      10.519 -46.404  38.413  1.00  0.00     0.122 A 
ATOM      8  C   UNL     1      10.943 -45.751  37.252  1.00  0.00     0.092 A 
ATOM      9  C   UNL     1      10.418 -46.112  36.002  1.00  0.00     0.126 A 
ATOM     10  C   UNL     1       9.448 -47.128  35.916  1.00  0.00     0.039 A 
ENDROOT
BRANCH   2  11
ATOM     11  O   UNL     1       7.113 -48.782  33.484  1.00  0.00    -0.389 OA
ATOM     12  H   UNL     1       7.755 -48.470  32.792  1.00  0.00     0.211 HD
ENDBRANCH   2  11
BRANCH   3  13
ATOM     13  C   UNL     1       6.305 -50.058  35.995  1.00  0.00    -0.001 A 
ATOM     14  C   UNL     1       6.095 -51.365  35.525  1.00  0.00     0.057 A 
ATOM     15  C   UNL     1       5.245 -49.375  36.615  1.00  0.00     0.012 A 
ATOM     16  C   UNL     1       4.853 -51.991  35.686  1.00  0.00     0.157 A 
ATOM     17  C   UNL     1       4.004 -49.996  36.778  1.00  0.00     0.050 A 
ATOM     18  C   UNL     1       3.802 -51.304  36.319  1.00  0.00     0.157 A 
BRANCH  16  19
ATOM     19  O   UNL     1       4.683 -53.290  35.212  1.00  0.00    -0.504 OA
ATOM     20  H   UNL     1       4.860 -54.102  35.792  1.00  0.00     0.293 HD
ENDBRANCH  16  19
BRANCH  18  21
ATOM     21  O   UNL     1       2.564 -51.922  36.484  1.00  0.00    -0.504 OA
ATOM     22  H   UNL     1       2.422 -52.652  37.172  1.00  0.00     0.293 HD
ENDBRANCH  18  21
ENDBRANCH   3  13
BRANCH   9  23
ATOM     23  O   UNL     1      10.858 -45.462  34.848  1.00  0.00    -0.507 OA
ATOM     24  H   UNL     1      11.677 -45.777  34.341  1.00  0.00     0.293 HD
ENDBRANCH   9  23
BRANCH   7  25
ATOM     25  O   UNL     1      11.050 -46.029  39.644  1.00  0.00    -0.508 OA
ATOM     26  H   UNL     1      11.132 -46.689  40.408  1.00  0.00     0.293 HD
ENDBRANCH   7  25
TORSDOF 6
ENDMDL
