MODEL 1
REMARK VINA RESULT:    -4.790      0.000      0.000
REMARK INTER + INTRA:          -5.461
REMARK INTER:                  -5.210
REMARK INTRA:                  -0.251
REMARK UNBOUND:                -0.251
REMARK SMILES O=C([O-])c1ccccc1O
REMARK SMILES IDX 4 1 9 2 5 3 8 4 6 5 7 6 2 7 1 8 3 9 10 10
REMARK H PARENT 10 11
REMARK Flexibility Score: inf
ROOT
ATOM      1  C   UNL     1      38.371  46.179  66.893  1.00  0.00     0.039 A 
ATOM      2  C   UNL     1      37.035  45.993  66.450  1.00  0.00     0.124 A 
ATOM      3  C   UNL     1      39.416  46.093  65.954  1.00  0.00     0.014 A 
ATOM      4  C   UNL     1      36.778  45.793  65.087  1.00  0.00     0.047 A 
ATOM      5  C   UNL     1      39.144  45.873  64.603  1.00  0.00     0.001 A 
ATOM      6  C   UNL     1      37.827  45.732  64.168  1.00  0.00     0.004 A 
ENDROOT
BRANCH   1   7
ATOM      7  C   UNL     1      38.714  46.492  68.298  1.00  0.00     0.075 C 
ATOM      8  O   UNL     1      39.654  47.283  68.573  1.00  0.00    -0.545 OA
ATOM      9  O   UNL     1      38.040  45.859  69.336  1.00  0.00    -0.545 OA
ENDBRANCH   1   7
BRANCH   2  10
ATOM     10  O   UNL     1      35.947  45.967  67.325  1.00  0.00    -0.507 OA
ATOM     11  H   UNL     1      35.096  46.490  67.175  1.00  0.00     0.293 HD
ENDBRANCH   2  10
TORSDOF 2
ENDMDL
MODEL 2
REMARK VINA RESULT:    -4.594      2.132      3.792
REMARK INTER + INTRA:          -5.248
REMARK INTER:                  -5.120
REMARK INTRA:                  -0.129
REMARK UNBOUND:                -0.251
REMARK SMILES O=C([O-])c1ccccc1O
REMARK SMILES IDX 4 1 9 2 5 3 8 4 6 5 7 6 2 7 1 8 3 9 10 10
REMARK H PARENT 10 11
REMARK Flexibility Score: inf
ROOT
ATOM      1  C   UNL     1      37.881  46.121  67.095  1.00  0.00     0.039 A 
ATOM      2  C   UNL     1      37.375  47.291  67.722  1.00  0.00     0.124 A 
ATOM      3  C   UNL     1      38.360  45.072  67.901  1.00  0.00     0.014 A 
ATOM      4  C   UNL     1      37.305  47.352  69.119  1.00  0.00     0.047 A 
ATOM      5  C   UNL     1      38.302  45.158  69.293  1.00  0.00     0.001 A 
ATOM      6  C   UNL     1      37.767  46.293  69.902  1.00  0.00     0.004 A 
ENDROOT
BRANCH   1   7
ATOM      7  C   UNL     1      37.896  45.941  65.626  1.00  0.00     0.075 C 
ATOM      8  O   UNL     1      36.824  45.789  64.982  1.00  0.00    -0.545 OA
ATOM      9  O   UNL     1      39.106  45.869  64.947  1.00  0.00    -0.545 OA
ENDBRANCH   1   7
BRANCH   2  10
ATOM     10  O   UNL     1      36.968  48.416  67.002  1.00  0.00    -0.507 OA
ATOM     11  H   UNL     1      37.521  49.258  66.921  1.00  0.00     0.293 HD
ENDBRANCH   2  10
TORSDOF 2
ENDMDL
MODEL 3
REMARK VINA RESULT:    -4.411      2.116      3.879
REMARK INTER + INTRA:          -5.049
REMARK INTER:                  -4.969
REMARK INTRA:                  -0.080
REMARK UNBOUND:                -0.251
REMARK SMILES O=C([O-])c1ccccc1O
REMARK SMILES IDX 4 1 9 2 5 3 8 4 6 5 7 6 2 7 1 8 3 9 10 10
REMARK H PARENT 10 11
REMARK Flexibility Score: inf
ROOT
ATOM      1  C   UNL     1      37.584  46.468  67.236  1.00  0.00     0.039 A 
ATOM      2  C   UNL     1      37.523  45.584  68.346  1.00  0.00     0.124 A 
ATOM      3  C   UNL     1      37.519  47.855  67.468  1.00  0.00     0.014 A 
ATOM      4  C   UNL     1      37.463  46.106  69.645  1.00  0.00     0.047 A 
ATOM      5  C   UNL     1      37.438  48.358  68.768  1.00  0.00     0.001 A 
ATOM      6  C   UNL     1      37.420  47.485  69.856  1.00  0.00     0.004 A 
ENDROOT
BRANCH   1   7
ATOM      7  C   UNL     1      37.748  45.997  65.843  1.00  0.00     0.075 C 
ATOM      8  O   UNL     1      36.747  45.707  65.137  1.00  0.00    -0.545 OA
ATOM      9  O   UNL     1      39.021  45.803  65.320  1.00  0.00    -0.545 OA
ENDBRANCH   1   7
BRANCH   2  10
ATOM     10  O   UNL     1      37.486  44.196  68.203  1.00  0.00    -0.507 OA
ATOM     11  H   UNL     1      38.297  43.634  67.987  1.00  0.00     0.293 HD
ENDBRANCH   2  10
TORSDOF 2
ENDMDL
MODEL 4
REMARK VINA RESULT:    -4.090      2.066      3.796
REMARK INTER + INTRA:          -4.700
REMARK INTER:                  -4.467
REMARK INTRA:                  -0.233
REMARK UNBOUND:                -0.251
REMARK SMILES O=C([O-])c1ccccc1O
REMARK SMILES IDX 4 1 9 2 5 3 8 4 6 5 7 6 2 7 1 8 3 9 10 10
REMARK H PARENT 10 11
REMARK Flexibility Score: inf
ROOT
ATOM      1  C   UNL     1      37.562  46.826  67.595  1.00  0.00     0.039 A 
ATOM      2  C   UNL     1      36.367  46.691  68.351  1.00  0.00     0.124 A 
ATOM      3  C   UNL     1      38.599  47.631  68.102  1.00  0.00     0.014 A 
ATOM      4  C   UNL     1      36.269  47.305  69.606  1.00  0.00     0.047 A 
ATOM      5  C   UNL     1      38.476  48.253  69.346  1.00  0.00     0.001 A 
ATOM      6  C   UNL     1      37.316  48.083  70.102  1.00  0.00     0.004 A 
ENDROOT
BRANCH   1   7
ATOM      7  C   UNL     1      37.780  46.129  66.308  1.00  0.00     0.075 C 
ATOM      8  O   UNL     1      36.809  45.795  65.581  1.00  0.00    -0.545 OA
ATOM      9  O   UNL     1      39.067  45.773  65.920  1.00  0.00    -0.545 OA
ENDBRANCH   1   7
BRANCH   2  10
ATOM     10  O   UNL     1      35.254  45.991  67.882  1.00  0.00    -0.507 OA
ATOM     11  H   UNL     1      34.524  46.411  67.324  1.00  0.00     0.293 HD
ENDBRANCH   2  10
TORSDOF 2
ENDMDL
MODEL 5
REMARK VINA RESULT:    -4.044      2.773      3.392
REMARK INTER + INTRA:          -4.650
REMARK INTER:                  -4.406
REMARK INTRA:                  -0.243
REMARK UNBOUND:                -0.251
REMARK SMILES O=C([O-])c1ccccc1O
REMARK SMILES IDX 4 1 9 2 5 3 8 4 6 5 7 6 2 7 1 8 3 9 10 10
REMARK H PARENT 10 11
REMARK Flexibility Score: inf
ROOT
ATOM      1  C   UNL     1      37.215  47.647  68.250  1.00  0.00     0.039 A 
ATOM      2  C   UNL     1      36.652  46.354  68.081  1.00  0.00     0.124 A 
ATOM      3  C   UNL     1      38.606  47.765  68.423  1.00  0.00     0.014 A 
ATOM      4  C   UNL     1      37.492  45.235  68.026  1.00  0.00     0.047 A 
ATOM      5  C   UNL     1      39.427  46.636  68.387  1.00  0.00     0.001 A 
ATOM      6  C   UNL     1      38.872  45.373  68.179  1.00  0.00     0.004 A 
ENDROOT
BRANCH   1   7
ATOM      7  C   UNL     1      36.405  48.885  68.219  1.00  0.00     0.075 C 
ATOM      8  O   UNL     1      35.383  49.007  68.944  1.00  0.00    -0.545 OA
ATOM      9  O   UNL     1      36.728  49.905  67.333  1.00  0.00    -0.545 OA
ENDBRANCH   1   7
BRANCH   2  10
ATOM     10  O   UNL     1      35.275  46.137  67.998  1.00  0.00    -0.507 OA
ATOM     11  H   UNL     1      34.660  46.670  67.399  1.00  0.00     0.293 HD
ENDBRANCH   2  10
TORSDOF 2
ENDMDL
MODEL 6
REMARK VINA RESULT:    -3.934      2.256      3.794
REMARK INTER + INTRA:          -4.530
REMARK INTER:                  -4.278
REMARK INTRA:                  -0.253
REMARK UNBOUND:                -0.251
REMARK SMILES O=C([O-])c1ccccc1O
REMARK SMILES IDX 4 1 9 2 5 3 8 4 6 5 7 6 2 7 1 8 3 9 10 10
REMARK H PARENT 10 11
REMARK Flexibility Score: inf
ROOT
ATOM      1  C   UNL     1      38.540  46.510  68.132  1.00  0.00     0.039 A 
ATOM      2  C   UNL     1      38.499  45.187  68.646  1.00  0.00     0.124 A 
ATOM      3  C   UNL     1      39.536  47.389  68.598  1.00  0.00     0.014 A 
ATOM      4  C   UNL     1      39.480  44.765  69.553  1.00  0.00     0.047 A 
ATOM      5  C   UNL     1      40.494  46.958  69.517  1.00  0.00     0.001 A 
ATOM      6  C   UNL     1      40.472  45.645  69.987  1.00  0.00     0.004 A 
ENDROOT
BRANCH   1   7
ATOM      7  C   UNL     1      37.600  46.999  67.099  1.00  0.00     0.075 C 
ATOM      8  O   UNL     1      37.135  48.167  67.149  1.00  0.00    -0.545 OA
ATOM      9  O   UNL     1      37.166  46.143  66.094  1.00  0.00    -0.545 OA
ENDBRANCH   1   7
BRANCH   2  10
ATOM     10  O   UNL     1      37.491  44.279  68.312  1.00  0.00    -0.507 OA
ATOM     11  H   UNL     1      36.554  44.555  68.056  1.00  0.00     0.293 HD
ENDBRANCH   2  10
TORSDOF 2
ENDMDL
MODEL 7
REMARK VINA RESULT:    -3.887      2.523      3.199
REMARK INTER + INTRA:          -4.479
REMARK INTER:                  -4.240
REMARK INTRA:                  -0.239
REMARK UNBOUND:                -0.251
REMARK SMILES O=C([O-])c1ccccc1O
REMARK SMILES IDX 4 1 9 2 5 3 8 4 6 5 7 6 2 7 1 8 3 9 10 10
REMARK H PARENT 10 11
REMARK Flexibility Score: inf
ROOT
ATOM      1  C   UNL     1      38.530  47.456  68.770  1.00  0.00     0.039 A 
ATOM      2  C   UNL     1      37.616  47.247  67.702  1.00  0.00     0.124 A 
ATOM      3  C   UNL     1      38.897  46.361  69.573  1.00  0.00     0.014 A 
ATOM      4  C   UNL     1      37.151  45.954  67.432  1.00  0.00     0.047 A 
ATOM      5  C   UNL     1      38.408  45.082  69.302  1.00  0.00     0.001 A 
ATOM      6  C   UNL     1      37.543  44.876  68.227  1.00  0.00     0.004 A 
ENDROOT
BRANCH   1   7
ATOM      7  C   UNL     1      39.141  48.773  69.056  1.00  0.00     0.075 C 
ATOM      8  O   UNL     1      40.257  48.856  69.634  1.00  0.00    -0.545 OA
ATOM      9  O   UNL     1      38.452  49.941  68.749  1.00  0.00    -0.545 OA
ENDBRANCH   1   7
BRANCH   2  10
ATOM     10  O   UNL     1      37.124  48.291  66.916  1.00  0.00    -0.507 OA
ATOM     11  H   UNL     1      36.601  48.150  66.064  1.00  0.00     0.293 HD
ENDBRANCH   2  10
TORSDOF 2
ENDMDL
MODEL 8
REMARK VINA RESULT:    -3.873      2.488      3.777
REMARK INTER + INTRA:          -4.464
REMARK INTER:                  -4.227
REMARK INTRA:                  -0.238
REMARK UNBOUND:                -0.251
REMARK SMILES O=C([O-])c1ccccc1O
REMARK SMILES IDX 4 1 9 2 5 3 8 4 6 5 7 6 2 7 1 8 3 9 10 10
REMARK H PARENT 10 11
REMARK Flexibility Score: inf
ROOT
ATOM      1  C   UNL     1      37.118  47.021  68.810  1.00  0.00     0.039 A 
ATOM      2  C   UNL     1      37.733  46.747  67.559  1.00  0.00     0.124 A 
ATOM      3  C   UNL     1      37.614  46.387  69.964  1.00  0.00     0.014 A 
ATOM      4  C   UNL     1      38.853  45.906  67.508  1.00  0.00     0.047 A 
ATOM      5  C   UNL     1      38.718  45.536  69.892  1.00  0.00     0.001 A 
ATOM      6  C   UNL     1      39.343  45.303  68.667  1.00  0.00     0.004 A 
ENDROOT
BRANCH   1   7
ATOM      7  C   UNL     1      35.996  47.973  68.960  1.00  0.00     0.075 C 
ATOM      8  O   UNL     1      34.932  47.633  69.541  1.00  0.00    -0.545 OA
ATOM      9  O   UNL     1      36.080  49.241  68.396  1.00  0.00    -0.545 OA
ENDBRANCH   1   7
BRANCH   2  10
ATOM     10  O   UNL     1      37.248  47.256  66.353  1.00  0.00    -0.507 OA
ATOM     11  H   UNL     1      36.535  47.969  66.294  1.00  0.00     0.293 HD
ENDBRANCH   2  10
TORSDOF 2
ENDMDL
MODEL 9
REMARK VINA RESULT:    -3.637      2.610      3.831
REMARK INTER + INTRA:          -4.207
REMARK INTER:                  -3.959
REMARK INTRA:                  -0.248
REMARK UNBOUND:                -0.251
REMARK SMILES O=C([O-])c1ccccc1O
REMARK SMILES IDX 4 1 9 2 5 3 8 4 6 5 7 6 2 7 1 8 3 9 10 10
REMARK H PARENT 10 11
REMARK Flexibility Score: inf
ROOT
ATOM      1  C   UNL     1      36.942  47.336  68.512  1.00  0.00     0.039 A 
ATOM      2  C   UNL     1      38.286  47.794  68.456  1.00  0.00     0.124 A 
ATOM      3  C   UNL     1      36.668  45.995  68.185  1.00  0.00     0.014 A 
ATOM      4  C   UNL     1      39.312  46.894  68.140  1.00  0.00     0.047 A 
ATOM      5  C   UNL     1      37.700  45.117  67.852  1.00  0.00     0.001 A 
ATOM      6  C   UNL     1      39.022  45.563  67.838  1.00  0.00     0.004 A 
ENDROOT
BRANCH   1   7
ATOM      7  C   UNL     1      35.817  48.200  68.933  1.00  0.00     0.075 C 
ATOM      8  O   UNL     1      34.831  47.722  69.553  1.00  0.00    -0.545 OA
ATOM      9  O   UNL     1      35.807  49.546  68.585  1.00  0.00    -0.545 OA
ENDBRANCH   1   7
BRANCH   2  10
ATOM     10  O   UNL     1      38.637  49.129  68.671  1.00  0.00    -0.507 OA
ATOM     11  H   UNL     1      38.235  49.701  69.400  1.00  0.00     0.293 HD
ENDBRANCH   2  10
TORSDOF 2
ENDMDL
