MODEL 1
REMARK VINA RESULT:    -4.626      0.000      0.000
REMARK INTER + INTRA:          -4.626
REMARK INTER:                  -4.626
REMARK INTRA:                   0.000
REMARK UNBOUND:                 0.000
REMARK SMILES CC1=CC(=O)[C@H]2C[C@@H]1C2(C)C
REMARK SMILES IDX 1 1 2 2 3 3 4 4 5 5 6 6 7 7 8 8 9 9 10 10 11 11
REMARK H PARENT
REMARK Flexibility Score: inf
ROOT
ATOM      1  C   UNL     1      29.180  29.344 140.037  1.00  0.00     0.040 C 
ATOM      2  C   UNL     1      28.248  30.246 139.292  1.00  0.00    -0.066 C 
ATOM      3  C   UNL     1      26.939  29.918 139.109  1.00  0.00     0.047 C 
ATOM      4  C   UNL     1      26.116  30.891 138.318  1.00  0.00     0.159 C 
ATOM      5  O   UNL     1      24.905  30.683 138.049  1.00  0.00    -0.295 OA
ATOM      6  C   UNL     1      26.852  32.150 137.861  1.00  0.00     0.067 C 
ATOM      7  C   UNL     1      27.626  32.612 139.115  1.00  0.00     0.021 C 
ATOM      8  C   UNL     1      28.717  31.596 138.709  1.00  0.00     0.022 C 
ATOM      9  C   UNL     1      28.215  31.730 137.242  1.00  0.00    -0.019 C 
ATOM     10  C   UNL     1      28.257  30.468 136.333  1.00  0.00     0.012 C 
ATOM     11  C   UNL     1      28.905  32.895 136.486  1.00  0.00     0.012 C 
ENDROOT
TORSDOF 0
ENDMDL
MODEL 2
REMARK VINA RESULT:    -4.504     11.650     13.224
REMARK INTER + INTRA:          -4.504
REMARK INTER:                  -4.504
REMARK INTRA:                   0.000
REMARK UNBOUND:                 0.000
REMARK SMILES CC1=CC(=O)[C@H]2C[C@@H]1C2(C)C
REMARK SMILES IDX 1 1 2 2 3 3 4 4 5 5 6 6 7 7 8 8 9 9 10 10 11 11
REMARK H PARENT
REMARK Flexibility Score: inf
ROOT
ATOM      1  C   UNL     1      28.379  44.158 144.634  1.00  0.00     0.040 C 
ATOM      2  C   UNL     1      27.518  43.678 143.510  1.00  0.00    -0.066 C 
ATOM      3  C   UNL     1      27.289  44.451 142.412  1.00  0.00     0.047 C 
ATOM      4  C   UNL     1      26.382  43.869 141.369  1.00  0.00     0.159 C 
ATOM      5  O   UNL     1      26.064  44.500 140.328  1.00  0.00    -0.295 OA
ATOM      6  C   UNL     1      25.872  42.457 141.659  1.00  0.00     0.067 C 
ATOM      7  C   UNL     1      27.128  41.690 142.127  1.00  0.00     0.021 C 
ATOM      8  C   UNL     1      26.860  42.282 143.529  1.00  0.00     0.022 C 
ATOM      9  C   UNL     1      25.362  42.408 143.128  1.00  0.00    -0.019 C 
ATOM     10  C   UNL     1      24.555  43.622 143.672  1.00  0.00     0.012 C 
ATOM     11  C   UNL     1      24.559  41.116 143.430  1.00  0.00     0.012 C 
ENDROOT
TORSDOF 0
ENDMDL
MODEL 3
REMARK VINA RESULT:    -4.502     11.926     13.475
REMARK INTER + INTRA:          -4.502
REMARK INTER:                  -4.502
REMARK INTRA:                   0.000
REMARK UNBOUND:                 0.000
REMARK SMILES CC1=CC(=O)[C@H]2C[C@@H]1C2(C)C
REMARK SMILES IDX 1 1 2 2 3 3 4 4 5 5 6 6 7 7 8 8 9 9 10 10 11 11
REMARK H PARENT
REMARK Flexibility Score: inf
ROOT
ATOM      1  C   UNL     1      28.535  44.116 144.734  1.00  0.00     0.040 C 
ATOM      2  C   UNL     1      27.603  43.639 143.666  1.00  0.00    -0.066 C 
ATOM      3  C   UNL     1      28.039  42.849 142.646  1.00  0.00     0.047 C 
ATOM      4  C   UNL     1      27.014  42.463 141.621  1.00  0.00     0.159 C 
ATOM      5  O   UNL     1      27.301  41.769 140.612  1.00  0.00    -0.295 OA
ATOM      6  C   UNL     1      25.598  42.974 141.889  1.00  0.00     0.067 C 
ATOM      7  C   UNL     1      25.364  42.676 143.385  1.00  0.00     0.021 C 
ATOM      8  C   UNL     1      26.103  44.002 143.675  1.00  0.00     0.022 C 
ATOM      9  C   UNL     1      25.677  44.483 142.258  1.00  0.00    -0.019 C 
ATOM     10  C   UNL     1      26.661  45.388 141.462  1.00  0.00     0.012 C 
ATOM     11  C   UNL     1      24.285  45.164 142.259  1.00  0.00     0.012 C 
ENDROOT
TORSDOF 0
ENDMDL
MODEL 4
REMARK VINA RESULT:    -4.423     11.485     12.888
REMARK INTER + INTRA:          -4.423
REMARK INTER:                  -4.423
REMARK INTRA:                   0.000
REMARK UNBOUND:                 0.000
REMARK SMILES CC1=CC(=O)[C@H]2C[C@@H]1C2(C)C
REMARK SMILES IDX 1 1 2 2 3 3 4 4 5 5 6 6 7 7 8 8 9 9 10 10 11 11
REMARK H PARENT
REMARK Flexibility Score: inf
ROOT
ATOM      1  C   UNL     1      29.479  41.405 142.346  1.00  0.00     0.040 C 
ATOM      2  C   UNL     1      28.253  42.163 142.744  1.00  0.00    -0.066 C 
ATOM      3  C   UNL     1      27.129  41.521 143.167  1.00  0.00     0.047 C 
ATOM      4  C   UNL     1      25.956  42.391 143.508  1.00  0.00     0.159 C 
ATOM      5  O   UNL     1      24.850  41.916 143.873  1.00  0.00    -0.295 OA
ATOM      6  C   UNL     1      26.199  43.895 143.380  1.00  0.00     0.067 C 
ATOM      7  C   UNL     1      27.567  44.117 144.060  1.00  0.00     0.021 C 
ATOM      8  C   UNL     1      28.205  43.705 142.713  1.00  0.00     0.022 C 
ATOM      9  C   UNL     1      26.894  44.170 142.016  1.00  0.00    -0.019 C 
ATOM     10  C   UNL     1      26.407  43.381 140.766  1.00  0.00     0.012 C 
ATOM     11  C   UNL     1      26.918  45.679 141.659  1.00  0.00     0.012 C 
ENDROOT
TORSDOF 0
ENDMDL
MODEL 5
REMARK VINA RESULT:    -4.391      1.790      3.018
REMARK INTER + INTRA:          -4.391
REMARK INTER:                  -4.391
REMARK INTRA:                   0.000
REMARK UNBOUND:                 0.000
REMARK SMILES CC1=CC(=O)[C@H]2C[C@@H]1C2(C)C
REMARK SMILES IDX 1 1 2 2 3 3 4 4 5 5 6 6 7 7 8 8 9 9 10 10 11 11
REMARK H PARENT
REMARK Flexibility Score: inf
ROOT
ATOM      1  C   UNL     1      24.767  29.977 138.848  1.00  0.00     0.040 C 
ATOM      2  C   UNL     1      26.226  30.268 138.698  1.00  0.00    -0.066 C 
ATOM      3  C   UNL     1      27.160  29.616 139.445  1.00  0.00     0.047 C 
ATOM      4  C   UNL     1      28.587  30.020 139.225  1.00  0.00     0.159 C 
ATOM      5  O   UNL     1      29.536  29.519 139.880  1.00  0.00    -0.295 OA
ATOM      6  C   UNL     1      28.806  31.085 138.150  1.00  0.00     0.067 C 
ATOM      7  C   UNL     1      27.930  30.615 136.968  1.00  0.00     0.021 C 
ATOM      8  C   UNL     1      26.748  31.308 137.683  1.00  0.00     0.022 C 
ATOM      9  C   UNL     1      27.785  32.236 138.378  1.00  0.00    -0.019 C 
ATOM     10  C   UNL     1      27.501  32.694 139.837  1.00  0.00     0.012 C 
ATOM     11  C   UNL     1      28.114  33.492 137.530  1.00  0.00     0.012 C 
ENDROOT
TORSDOF 0
ENDMDL
MODEL 6
REMARK VINA RESULT:    -4.330      1.844      3.072
REMARK INTER + INTRA:          -4.330
REMARK INTER:                  -4.330
REMARK INTRA:                   0.000
REMARK UNBOUND:                 0.000
REMARK SMILES CC1=CC(=O)[C@H]2C[C@@H]1C2(C)C
REMARK SMILES IDX 1 1 2 2 3 3 4 4 5 5 6 6 7 7 8 8 9 9 10 10 11 11
REMARK H PARENT
REMARK Flexibility Score: inf
ROOT
ATOM      1  C   UNL     1      29.742  29.488 140.239  1.00  0.00     0.040 C 
ATOM      2  C   UNL     1      29.053  30.453 139.328  1.00  0.00    -0.066 C 
ATOM      3  C   UNL     1      29.525  31.718 139.148  1.00  0.00     0.047 C 
ATOM      4  C   UNL     1      28.727  32.600 138.234  1.00  0.00     0.159 C 
ATOM      5  O   UNL     1      29.039  33.799 138.016  1.00  0.00    -0.295 OA
ATOM      6  C   UNL     1      27.510  31.940 137.587  1.00  0.00     0.067 C 
ATOM      7  C   UNL     1      28.035  30.572 137.099  1.00  0.00     0.021 C 
ATOM      8  C   UNL     1      27.786  30.063 138.537  1.00  0.00     0.022 C 
ATOM      9  C   UNL     1      26.715  31.181 138.687  1.00  0.00    -0.019 C 
ATOM     10  C   UNL     1      26.548  31.857 140.079  1.00  0.00     0.012 C 
ATOM     11  C   UNL     1      25.315  30.727 138.198  1.00  0.00     0.012 C 
ENDROOT
TORSDOF 0
ENDMDL
MODEL 7
REMARK VINA RESULT:    -4.306     12.114     13.641
REMARK INTER + INTRA:          -4.306
REMARK INTER:                  -4.306
REMARK INTRA:                   0.000
REMARK UNBOUND:                 0.000
REMARK SMILES CC1=CC(=O)[C@H]2C[C@@H]1C2(C)C
REMARK SMILES IDX 1 1 2 2 3 3 4 4 5 5 6 6 7 7 8 8 9 9 10 10 11 11
REMARK H PARENT
REMARK Flexibility Score: inf
ROOT
ATOM      1  C   UNL     1      25.745  42.469 139.641  1.00  0.00     0.040 C 
ATOM      2  C   UNL     1      25.532  43.036 141.008  1.00  0.00    -0.066 C 
ATOM      3  C   UNL     1      24.518  43.909 141.262  1.00  0.00     0.047 C 
ATOM      4  C   UNL     1      24.428  44.431 142.665  1.00  0.00     0.159 C 
ATOM      5  O   UNL     1      23.560  45.272 143.015  1.00  0.00    -0.295 OA
ATOM      6  C   UNL     1      25.466  43.872 143.638  1.00  0.00     0.067 C 
ATOM      7  C   UNL     1      25.463  42.353 143.363  1.00  0.00     0.021 C 
ATOM      8  C   UNL     1      26.435  42.651 142.198  1.00  0.00     0.022 C 
ATOM      9  C   UNL     1      26.865  43.937 142.961  1.00  0.00    -0.019 C 
ATOM     10  C   UNL     1      27.225  45.200 142.128  1.00  0.00     0.012 C 
ATOM     11  C   UNL     1      28.018  43.671 143.963  1.00  0.00     0.012 C 
ENDROOT
TORSDOF 0
ENDMDL
MODEL 8
REMARK VINA RESULT:    -4.299      1.207      3.101
REMARK INTER + INTRA:          -4.299
REMARK INTER:                  -4.299
REMARK INTRA:                   0.000
REMARK UNBOUND:                 0.000
REMARK SMILES CC1=CC(=O)[C@H]2C[C@@H]1C2(C)C
REMARK SMILES IDX 1 1 2 2 3 3 4 4 5 5 6 6 7 7 8 8 9 9 10 10 11 11
REMARK H PARENT
REMARK Flexibility Score: inf
ROOT
ATOM      1  C   UNL     1      28.615  31.016 136.483  1.00  0.00     0.040 C 
ATOM      2  C   UNL     1      27.859  30.659 137.723  1.00  0.00    -0.066 C 
ATOM      3  C   UNL     1      26.497  30.656 137.746  1.00  0.00     0.047 C 
ATOM      4  C   UNL     1      25.857  30.312 139.058  1.00  0.00     0.159 C 
ATOM      5  O   UNL     1      24.609  30.313 139.217  1.00  0.00    -0.295 OA
ATOM      6  C   UNL     1      26.827  29.962 140.186  1.00  0.00     0.067 C 
ATOM      7  C   UNL     1      27.840  29.000 139.530  1.00  0.00     0.021 C 
ATOM      8  C   UNL     1      28.579  30.262 139.028  1.00  0.00     0.022 C 
ATOM      9  C   UNL     1      27.951  31.035 140.224  1.00  0.00    -0.019 C 
ATOM     10  C   UNL     1      27.559  32.525 140.010  1.00  0.00     0.012 C 
ATOM     11  C   UNL     1      28.816  30.940 141.508  1.00  0.00     0.012 C 
ENDROOT
TORSDOF 0
ENDMDL
MODEL 9
REMARK VINA RESULT:    -4.250      1.798      3.489
REMARK INTER + INTRA:          -4.250
REMARK INTER:                  -4.250
REMARK INTRA:                   0.000
REMARK UNBOUND:                 0.000
REMARK SMILES CC1=CC(=O)[C@H]2C[C@@H]1C2(C)C
REMARK SMILES IDX 1 1 2 2 3 3 4 4 5 5 6 6 7 7 8 8 9 9 10 10 11 11
REMARK H PARENT
REMARK Flexibility Score: inf
ROOT
ATOM      1  C   UNL     1      28.611  30.954 136.166  1.00  0.00     0.040 C 
ATOM      2  C   UNL     1      28.028  31.212 137.519  1.00  0.00    -0.066 C 
ATOM      3  C   UNL     1      28.699  31.943 138.452  1.00  0.00     0.047 C 
ATOM      4  C   UNL     1      28.022  32.104 139.781  1.00  0.00     0.159 C 
ATOM      5  O   UNL     1      28.556  32.724 140.737  1.00  0.00    -0.295 OA
ATOM      6  C   UNL     1      26.640  31.460 139.892  1.00  0.00     0.067 C 
ATOM      7  C   UNL     1      25.923  31.875 138.590  1.00  0.00     0.021 C 
ATOM      8  C   UNL     1      26.636  30.678 137.920  1.00  0.00     0.022 C 
ATOM      9  C   UNL     1      26.719  30.015 139.324  1.00  0.00    -0.019 C 
ATOM     10  C   UNL     1      27.973  29.156 139.659  1.00  0.00     0.012 C 
ATOM     11  C   UNL     1      25.456  29.179 139.658  1.00  0.00     0.012 C 
ENDROOT
TORSDOF 0
ENDMDL
