MODEL 1
REMARK VINA RESULT:    -7.085      0.000      0.000
REMARK INTER + INTRA:         -10.045
REMARK INTER:                  -9.570
REMARK INTRA:                  -0.475
REMARK UNBOUND:                -0.475
REMARK SMILES COc1ccc(-c2cc(=O)c3c(OC)c(OC)c(OC)c(OC)c3o2)cc1
REMARK SMILES IDX 7 1 8 2 9 3 10 4 11 5 24 6 25 7 21 8 18 9 15 10 12 11 6 12
REMARK SMILES IDX 3 13 4 14 27 15 5 16 26 17 2 18 1 19 22 20 23 21 13 22 14 23
REMARK SMILES IDX 19 24 20 25 16 26 17 27
REMARK H PARENT
REMARK Flexibility Score: inf
ROOT
ATOM      1  C   UNL     1     165.693 146.639 149.425  1.00  0.00     0.138 A 
ATOM      2  C   UNL     1     164.743 147.646 149.613  1.00  0.00     0.100 A 
ATOM      3  C   UNL     1     165.036 148.943 149.205  1.00  0.00     0.197 A 
ATOM      4  O   UNL     1     164.165 149.837 149.384  1.00  0.00    -0.289 OA
ATOM      5  C   UNL     1     166.289 149.230 148.612  1.00  0.00     0.115 A 
ATOM      6  C   UNL     1     167.202 148.161 148.461  1.00  0.00     0.188 A 
ATOM      7  O   UNL     1     166.860 146.939 148.863  1.00  0.00    -0.452 OA
ATOM      8  C   UNL     1     168.477 148.382 147.895  1.00  0.00     0.209 A 
ATOM      9  C   UNL     1     168.862 149.697 147.532  1.00  0.00     0.211 A 
ATOM     10  C   UNL     1     167.938 150.767 147.654  1.00  0.00     0.208 A 
ATOM     11  C   UNL     1     166.637 150.524 148.163  1.00  0.00     0.179 A 
ENDROOT
BRANCH   1  12
ATOM     12  C   UNL     1     165.422 145.234 149.820  1.00  0.00     0.018 A 
ATOM     13  C   UNL     1     164.922 142.549 150.537  1.00  0.00     0.118 A 
ATOM     14  C   UNL     1     164.495 143.593 151.363  1.00  0.00     0.047 A 
ATOM     15  C   UNL     1     165.620 142.852 149.353  1.00  0.00     0.047 A 
ATOM     16  C   UNL     1     164.741 144.924 151.014  1.00  0.00     0.016 A 
ATOM     17  C   UNL     1     165.867 144.182 149.002  1.00  0.00     0.016 A 
BRANCH  13  18
ATOM     18  O   UNL     1     164.633 141.231 150.923  1.00  0.00    -0.497 OA
ATOM     19  C   UNL     1     163.639 140.875 151.879  1.00  0.00     0.278 C 
ENDBRANCH  13  18
ENDBRANCH   1  12
BRANCH   8  20
ATOM     20  O   UNL     1     169.389 147.334 147.669  1.00  0.00    -0.490 OA
ATOM     21  C   UNL     1     170.376 146.850 148.573  1.00  0.00     0.278 C 
ENDBRANCH   8  20
BRANCH  11  22
ATOM     22  O   UNL     1     165.657 151.537 148.245  1.00  0.00    -0.492 OA
ATOM     23  C   UNL     1     165.533 152.538 149.247  1.00  0.00     0.278 C 
ENDBRANCH  11  22
BRANCH   9  24
ATOM     24  O   UNL     1     170.146 149.979 147.025  1.00  0.00    -0.490 OA
ATOM     25  C   UNL     1     171.298 150.371 147.765  1.00  0.00     0.279 C 
ENDBRANCH   9  24
BRANCH  10  26
ATOM     26  O   UNL     1     168.265 152.096 147.307  1.00  0.00    -0.490 OA
ATOM     27  C   UNL     1     168.895 153.082 148.119  1.00  0.00     0.278 C 
ENDBRANCH  10  26
TORSDOF 6
ENDMDL
MODEL 2
REMARK VINA RESULT:    -6.845      0.958      3.524
REMARK INTER + INTRA:          -9.721
REMARK INTER:                  -9.697
REMARK INTRA:                  -0.025
REMARK UNBOUND:                -0.475
REMARK SMILES COc1ccc(-c2cc(=O)c3c(OC)c(OC)c(OC)c(OC)c3o2)cc1
REMARK SMILES IDX 7 1 8 2 9 3 10 4 11 5 24 6 25 7 21 8 18 9 15 10 12 11 6 12
REMARK SMILES IDX 3 13 4 14 27 15 5 16 26 17 2 18 1 19 22 20 23 21 13 22 14 23
REMARK SMILES IDX 19 24 20 25 16 26 17 27
REMARK H PARENT
REMARK Flexibility Score: inf
ROOT
ATOM      1  C   UNL     1     166.514 146.351 149.562  1.00  0.00     0.138 A 
ATOM      2  C   UNL     1     167.814 146.106 149.112  1.00  0.00     0.100 A 
ATOM      3  C   UNL     1     168.542 147.141 148.537  1.00  0.00     0.197 A 
ATOM      4  O   UNL     1     169.713 146.899 148.138  1.00  0.00    -0.289 OA
ATOM      5  C   UNL     1     167.960 148.425 148.407  1.00  0.00     0.115 A 
ATOM      6  C   UNL     1     166.637 148.596 148.877  1.00  0.00     0.188 A 
ATOM      7  O   UNL     1     165.995 147.568 149.427  1.00  0.00    -0.452 OA
ATOM      8  C   UNL     1     165.991 149.846 148.760  1.00  0.00     0.209 A 
ATOM      9  C   UNL     1     166.654 150.918 148.112  1.00  0.00     0.211 A 
ATOM     10  C   UNL     1     167.992 150.760 147.665  1.00  0.00     0.208 A 
ATOM     11  C   UNL     1     168.656 149.520 147.846  1.00  0.00     0.179 A 
ENDROOT
BRANCH   1  12
ATOM     12  C   UNL     1     165.702 145.288 150.205  1.00  0.00     0.018 A 
ATOM     13  C   UNL     1     164.143 143.291 151.454  1.00  0.00     0.118 A 
ATOM     14  C   UNL     1     165.072 142.949 150.466  1.00  0.00     0.047 A 
ATOM     15  C   UNL     1     163.982 144.645 151.804  1.00  0.00     0.047 A 
ATOM     16  C   UNL     1     165.845 143.934 149.843  1.00  0.00     0.016 A 
ATOM     17  C   UNL     1     164.754 145.631 151.183  1.00  0.00     0.016 A 
BRANCH  13  18
ATOM     18  O   UNL     1     163.405 142.264 152.061  1.00  0.00    -0.497 OA
ATOM     19  C   UNL     1     163.651 140.875 151.863  1.00  0.00     0.278 C 
ENDBRANCH  13  18
ENDBRANCH   1  12
BRANCH   8  20
ATOM     20  O   UNL     1     164.700 150.073 149.274  1.00  0.00    -0.490 OA
ATOM     21  C   UNL     1     163.694 149.097 149.521  1.00  0.00     0.278 C 
ENDBRANCH   8  20
BRANCH  11  22
ATOM     22  O   UNL     1     170.006 149.327 147.481  1.00  0.00    -0.492 OA
ATOM     23  C   UNL     1     171.159 149.841 148.137  1.00  0.00     0.278 C 
ENDBRANCH  11  22
BRANCH   9  24
ATOM     24  O   UNL     1     166.027 152.163 147.912  1.00  0.00    -0.490 OA
ATOM     25  C   UNL     1     166.071 153.299 148.769  1.00  0.00     0.279 C 
ENDBRANCH   9  24
BRANCH  10  26
ATOM     26  O   UNL     1     168.702 151.792 147.015  1.00  0.00    -0.490 OA
ATOM     27  C   UNL     1     169.468 152.835 147.608  1.00  0.00     0.278 C 
ENDBRANCH  10  26
TORSDOF 6
ENDMDL
MODEL 3
REMARK VINA RESULT:    -6.476      4.405      7.252
REMARK INTER + INTRA:          -9.222
REMARK INTER:                  -8.520
REMARK INTRA:                  -0.701
REMARK UNBOUND:                -0.475
REMARK SMILES COc1ccc(-c2cc(=O)c3c(OC)c(OC)c(OC)c(OC)c3o2)cc1
REMARK SMILES IDX 7 1 8 2 9 3 10 4 11 5 24 6 25 7 21 8 18 9 15 10 12 11 6 12
REMARK SMILES IDX 3 13 4 14 27 15 5 16 26 17 2 18 1 19 22 20 23 21 13 22 14 23
REMARK SMILES IDX 19 24 20 25 16 26 17 27
REMARK H PARENT
REMARK Flexibility Score: inf
ROOT
ATOM      1  C   UNL     1     170.416 143.247 150.646  1.00  0.00     0.138 A 
ATOM      2  C   UNL     1     169.326 142.381 150.763  1.00  0.00     0.100 A 
ATOM      3  C   UNL     1     168.198 142.596 149.978  1.00  0.00     0.197 A 
ATOM      4  O   UNL     1     167.226 141.803 150.099  1.00  0.00    -0.289 OA
ATOM      5  C   UNL     1     168.164 143.688 149.077  1.00  0.00     0.115 A 
ATOM      6  C   UNL     1     169.302 144.525 149.019  1.00  0.00     0.188 A 
ATOM      7  O   UNL     1     170.355 144.263 149.790  1.00  0.00    -0.452 OA
ATOM      8  C   UNL     1     169.325 145.643 148.156  1.00  0.00     0.209 A 
ATOM      9  C   UNL     1     168.176 145.958 147.388  1.00  0.00     0.211 A 
ATOM     10  C   UNL     1     167.043 145.103 147.421  1.00  0.00     0.208 A 
ATOM     11  C   UNL     1     167.053 143.947 148.242  1.00  0.00     0.179 A 
ENDROOT
BRANCH   1  12
ATOM     12  C   UNL     1     171.653 143.049 151.442  1.00  0.00     0.018 A 
ATOM     13  C   UNL     1     173.998 142.707 152.978  1.00  0.00     0.118 A 
ATOM     14  C   UNL     1     173.689 141.811 151.950  1.00  0.00     0.047 A 
ATOM     15  C   UNL     1     173.117 143.770 153.250  1.00  0.00     0.047 A 
ATOM     16  C   UNL     1     172.528 141.975 151.188  1.00  0.00     0.016 A 
ATOM     17  C   UNL     1     171.957 143.936 152.488  1.00  0.00     0.016 A 
BRANCH  13  18
ATOM     18  O   UNL     1     175.184 142.509 153.701  1.00  0.00    -0.497 OA
ATOM     19  C   UNL     1     176.464 142.316 153.106  1.00  0.00     0.278 C 
ENDBRANCH  13  18
ENDBRANCH   1  12
BRANCH   8  20
ATOM     20  O   UNL     1     170.461 146.462 148.022  1.00  0.00    -0.490 OA
ATOM     21  C   UNL     1     170.764 147.634 148.772  1.00  0.00     0.278 C 
ENDBRANCH   8  20
BRANCH  11  22
ATOM     22  O   UNL     1     165.982 143.027 148.264  1.00  0.00    -0.492 OA
ATOM     23  C   UNL     1     165.531 142.204 147.196  1.00  0.00     0.278 C 
ENDBRANCH  11  22
BRANCH   9  24
ATOM     24  O   UNL     1     168.126 147.099 146.564  1.00  0.00    -0.490 OA
ATOM     25  C   UNL     1     167.667 148.400 146.918  1.00  0.00     0.279 C 
ENDBRANCH   9  24
BRANCH  10  26
ATOM     26  O   UNL     1     165.872 145.366 146.678  1.00  0.00    -0.490 OA
ATOM     27  C   UNL     1     164.728 146.112 147.082  1.00  0.00     0.278 C 
ENDBRANCH  10  26
TORSDOF 6
ENDMDL
MODEL 4
REMARK VINA RESULT:    -6.066      2.089      8.311
REMARK INTER + INTRA:          -8.668
REMARK INTER:                  -8.064
REMARK INTRA:                  -0.605
REMARK UNBOUND:                -0.475
REMARK SMILES COc1ccc(-c2cc(=O)c3c(OC)c(OC)c(OC)c(OC)c3o2)cc1
REMARK SMILES IDX 7 1 8 2 9 3 10 4 11 5 24 6 25 7 21 8 18 9 15 10 12 11 6 12
REMARK SMILES IDX 3 13 4 14 27 15 5 16 26 17 2 18 1 19 22 20 23 21 13 22 14 23
REMARK SMILES IDX 19 24 20 25 16 26 17 27
REMARK H PARENT
REMARK Flexibility Score: inf
ROOT
ATOM      1  C   UNL     1     168.652 147.432 148.423  1.00  0.00     0.138 A 
ATOM      2  C   UNL     1     169.389 146.451 147.754  1.00  0.00     0.100 A 
ATOM      3  C   UNL     1     168.896 145.152 147.694  1.00  0.00     0.197 A 
ATOM      4  O   UNL     1     169.575 144.282 147.085  1.00  0.00    -0.289 OA
ATOM      5  C   UNL     1     167.662 144.837 148.312  1.00  0.00     0.115 A 
ATOM      6  C   UNL     1     166.977 145.881 148.977  1.00  0.00     0.188 A 
ATOM      7  O   UNL     1     167.496 147.106 148.992  1.00  0.00    -0.452 OA
ATOM      8  C   UNL     1     165.751 145.630 149.631  1.00  0.00     0.209 A 
ATOM      9  C   UNL     1     165.236 144.310 149.671  1.00  0.00     0.211 A 
ATOM     10  C   UNL     1     165.905 143.266 148.979  1.00  0.00     0.208 A 
ATOM     11  C   UNL     1     167.102 143.540 148.270  1.00  0.00     0.179 A 
ENDROOT
BRANCH   1  12
ATOM     12  C   UNL     1     169.122 148.838 148.496  1.00  0.00     0.018 A 
ATOM     13  C   UNL     1     170.053 151.502 148.628  1.00  0.00     0.118 A 
ATOM     14  C   UNL     1     168.728 151.198 148.955  1.00  0.00     0.047 A 
ATOM     15  C   UNL     1     170.912 150.466 148.214  1.00  0.00     0.047 A 
ATOM     16  C   UNL     1     168.261 149.882 148.890  1.00  0.00     0.016 A 
ATOM     17  C   UNL     1     170.447 149.149 148.149  1.00  0.00     0.016 A 
BRANCH  13  18
ATOM     18  O   UNL     1     170.477 152.835 148.727  1.00  0.00    -0.497 OA
ATOM     19  C   UNL     1     170.027 153.748 149.724  1.00  0.00     0.278 C 
ENDBRANCH  13  18
ENDBRANCH   1  12
BRANCH   8  20
ATOM     20  O   UNL     1     165.008 146.654 150.248  1.00  0.00    -0.490 OA
ATOM     21  C   UNL     1     164.399 147.772 149.610  1.00  0.00     0.278 C 
ENDBRANCH   8  20
BRANCH  11  22
ATOM     22  O   UNL     1     167.772 142.556 147.512  1.00  0.00    -0.492 OA
ATOM     23  C   UNL     1     167.341 141.965 146.293  1.00  0.00     0.278 C 
ENDBRANCH  11  22
BRANCH   9  24
ATOM     24  O   UNL     1     164.052 143.997 150.366  1.00  0.00    -0.490 OA
ATOM     25  C   UNL     1     163.922 143.681 151.749  1.00  0.00     0.279 C 
ENDBRANCH   9  24
BRANCH  10  26
ATOM     26  O   UNL     1     165.439 141.934 148.983  1.00  0.00    -0.490 OA
ATOM     27  C   UNL     1     165.713 140.913 149.937  1.00  0.00     0.278 C 
ENDBRANCH  10  26
TORSDOF 6
ENDMDL
MODEL 5
REMARK VINA RESULT:    -6.047      2.741      3.987
REMARK INTER + INTRA:          -8.642
REMARK INTER:                  -8.304
REMARK INTRA:                  -0.338
REMARK UNBOUND:                -0.475
REMARK SMILES COc1ccc(-c2cc(=O)c3c(OC)c(OC)c(OC)c(OC)c3o2)cc1
REMARK SMILES IDX 7 1 8 2 9 3 10 4 11 5 24 6 25 7 21 8 18 9 15 10 12 11 6 12
REMARK SMILES IDX 3 13 4 14 27 15 5 16 26 17 2 18 1 19 22 20 23 21 13 22 14 23
REMARK SMILES IDX 19 24 20 25 16 26 17 27
REMARK H PARENT
REMARK Flexibility Score: inf
ROOT
ATOM      1  C   UNL     1     168.200 145.724 149.703  1.00  0.00     0.138 A 
ATOM      2  C   UNL     1     166.814 145.590 149.832  1.00  0.00     0.100 A 
ATOM      3  C   UNL     1     165.998 146.685 149.572  1.00  0.00     0.197 A 
ATOM      4  O   UNL     1     164.751 146.543 149.693  1.00  0.00    -0.289 OA
ATOM      5  C   UNL     1     166.575 147.920 149.189  1.00  0.00     0.115 A 
ATOM      6  C   UNL     1     167.984 147.982 149.089  1.00  0.00     0.188 A 
ATOM      7  O   UNL     1     168.711 146.896 149.341  1.00  0.00    -0.452 OA
ATOM      8  C   UNL     1     168.624 149.189 148.731  1.00  0.00     0.209 A 
ATOM      9  C   UNL     1     167.850 150.359 148.530  1.00  0.00     0.211 A 
ATOM     10  C   UNL     1     166.433 150.294 148.601  1.00  0.00     0.208 A 
ATOM     11  C   UNL     1     165.796 149.063 148.897  1.00  0.00     0.179 A 
ENDROOT
BRANCH   1  12
ATOM     12  C   UNL     1     169.114 144.581 149.945  1.00  0.00     0.018 A 
ATOM     13  C   UNL     1     170.823 142.380 150.409  1.00  0.00     0.118 A 
ATOM     14  C   UNL     1     171.348 143.670 150.286  1.00  0.00     0.047 A 
ATOM     15  C   UNL     1     169.434 142.190 150.279  1.00  0.00     0.047 A 
ATOM     16  C   UNL     1     170.507 144.763 150.055  1.00  0.00     0.016 A 
ATOM     17  C   UNL     1     168.592 143.281 150.049  1.00  0.00     0.016 A 
BRANCH  13  18
ATOM     18  O   UNL     1     171.708 141.321 150.659  1.00  0.00    -0.497 OA
ATOM     19  C   UNL     1     173.118 141.392 150.472  1.00  0.00     0.278 C 
ENDBRANCH  13  18
ENDBRANCH   1  12
BRANCH   8  20
ATOM     20  O   UNL     1     170.018 149.274 148.557  1.00  0.00    -0.490 OA
ATOM     21  C   UNL     1     170.711 149.643 147.369  1.00  0.00     0.278 C 
ENDBRANCH   8  20
BRANCH  11  22
ATOM     22  O   UNL     1     164.391 148.926 148.916  1.00  0.00    -0.492 OA
ATOM     23  C   UNL     1     163.488 149.435 149.890  1.00  0.00     0.278 C 
ENDBRANCH  11  22
BRANCH   9  24
ATOM     24  O   UNL     1     168.447 151.600 148.237  1.00  0.00    -0.490 OA
ATOM     25  C   UNL     1     168.980 152.541 149.163  1.00  0.00     0.279 C 
ENDBRANCH   9  24
BRANCH  10  26
ATOM     26  O   UNL     1     165.612 151.426 148.409  1.00  0.00    -0.490 OA
ATOM     27  C   UNL     1     165.308 152.455 149.346  1.00  0.00     0.278 C 
ENDBRANCH  10  26
TORSDOF 6
ENDMDL
MODEL 6
REMARK VINA RESULT:    -5.901      4.678      7.340
REMARK INTER + INTRA:          -8.446
REMARK INTER:                  -7.888
REMARK INTRA:                  -0.557
REMARK UNBOUND:                -0.475
REMARK SMILES COc1ccc(-c2cc(=O)c3c(OC)c(OC)c(OC)c(OC)c3o2)cc1
REMARK SMILES IDX 7 1 8 2 9 3 10 4 11 5 24 6 25 7 21 8 18 9 15 10 12 11 6 12
REMARK SMILES IDX 3 13 4 14 27 15 5 16 26 17 2 18 1 19 22 20 23 21 13 22 14 23
REMARK SMILES IDX 19 24 20 25 16 26 17 27
REMARK H PARENT
REMARK Flexibility Score: inf
ROOT
ATOM      1  C   UNL     1     170.725 143.846 150.630  1.00  0.00     0.138 A 
ATOM      2  C   UNL     1     170.815 145.222 150.402  1.00  0.00     0.100 A 
ATOM      3  C   UNL     1     169.885 145.837 149.571  1.00  0.00     0.197 A 
ATOM      4  O   UNL     1     169.984 147.079 149.379  1.00  0.00    -0.289 OA
ATOM      5  C   UNL     1     168.865 145.066 148.963  1.00  0.00     0.115 A 
ATOM      6  C   UNL     1     168.842 143.678 149.235  1.00  0.00     0.188 A 
ATOM      7  O   UNL     1     169.755 143.150 150.046  1.00  0.00    -0.452 OA
ATOM      8  C   UNL     1     167.863 142.849 148.644  1.00  0.00     0.209 A 
ATOM      9  C   UNL     1     166.935 143.405 147.728  1.00  0.00     0.211 A 
ATOM     10  C   UNL     1     166.936 144.802 147.476  1.00  0.00     0.208 A 
ATOM     11  C   UNL     1     167.882 145.637 148.123  1.00  0.00     0.179 A 
ENDROOT
BRANCH   1  12
ATOM     12  C   UNL     1     171.677 143.145 151.527  1.00  0.00     0.018 A 
ATOM     13  C   UNL     1     173.496 141.846 153.253  1.00  0.00     0.118 A 
ATOM     14  C   UNL     1     172.953 141.168 152.158  1.00  0.00     0.047 A 
ATOM     15  C   UNL     1     173.111 143.178 153.495  1.00  0.00     0.047 A 
ATOM     16  C   UNL     1     172.050 141.806 151.301  1.00  0.00     0.016 A 
ATOM     17  C   UNL     1     172.210 143.818 152.640  1.00  0.00     0.016 A 
BRANCH  13  18
ATOM     18  O   UNL     1     174.411 141.167 154.072  1.00  0.00    -0.497 OA
ATOM     19  C   UNL     1     175.600 141.746 154.599  1.00  0.00     0.278 C 
ENDBRANCH  13  18
ENDBRANCH   1  12
BRANCH   8  20
ATOM     20  O   UNL     1     167.767 141.477 148.940  1.00  0.00    -0.490 OA
ATOM     21  C   UNL     1     166.985 140.875 149.966  1.00  0.00     0.278 C 
ENDBRANCH   8  20
BRANCH  11  22
ATOM     22  O   UNL     1     167.886 147.039 147.960  1.00  0.00    -0.492 OA
ATOM     23  C   UNL     1     168.194 147.769 146.779  1.00  0.00     0.278 C 
ENDBRANCH  11  22
BRANCH   9  24
ATOM     24  O   UNL     1     165.983 142.608 147.063  1.00  0.00    -0.490 OA
ATOM     25  C   UNL     1     166.182 141.824 145.891  1.00  0.00     0.279 C 
ENDBRANCH   9  24
BRANCH  10  26
ATOM     26  O   UNL     1     166.037 145.411 146.574  1.00  0.00    -0.490 OA
ATOM     27  C   UNL     1     164.818 146.084 146.874  1.00  0.00     0.278 C 
ENDBRANCH  10  26
TORSDOF 6
ENDMDL
MODEL 7
REMARK VINA RESULT:    -5.867      2.205      7.727
REMARK INTER + INTRA:          -8.399
REMARK INTER:                  -7.765
REMARK INTRA:                  -0.634
REMARK UNBOUND:                -0.475
REMARK SMILES COc1ccc(-c2cc(=O)c3c(OC)c(OC)c(OC)c(OC)c3o2)cc1
REMARK SMILES IDX 7 1 8 2 9 3 10 4 11 5 24 6 25 7 21 8 18 9 15 10 12 11 6 12
REMARK SMILES IDX 3 13 4 14 27 15 5 16 26 17 2 18 1 19 22 20 23 21 13 22 14 23
REMARK SMILES IDX 19 24 20 25 16 26 17 27
REMARK H PARENT
REMARK Flexibility Score: inf
ROOT
ATOM      1  C   UNL     1     167.497 148.082 148.948  1.00  0.00     0.138 A 
ATOM      2  C   UNL     1     166.129 147.916 149.178  1.00  0.00     0.100 A 
ATOM      3  C   UNL     1     165.644 146.660 149.525  1.00  0.00     0.197 A 
ATOM      4  O   UNL     1     164.407 146.531 149.729  1.00  0.00    -0.289 OA
ATOM      5  C   UNL     1     166.536 145.566 149.635  1.00  0.00     0.115 A 
ATOM      6  C   UNL     1     167.906 145.809 149.379  1.00  0.00     0.188 A 
ATOM      7  O   UNL     1     168.310 147.036 149.060  1.00  0.00    -0.452 OA
ATOM      8  C   UNL     1     168.845 144.757 149.452  1.00  0.00     0.209 A 
ATOM      9  C   UNL     1     168.401 143.439 149.725  1.00  0.00     0.211 A 
ATOM     10  C   UNL     1     167.032 143.197 150.011  1.00  0.00     0.208 A 
ATOM     11  C   UNL     1     166.106 144.270 150.000  1.00  0.00     0.179 A 
ENDROOT
BRANCH   1  12
ATOM     12  C   UNL     1     168.069 149.406 148.599  1.00  0.00     0.018 A 
ATOM     13  C   UNL     1     169.120 151.942 147.932  1.00  0.00     0.118 A 
ATOM     14  C   UNL     1     169.965 150.833 148.042  1.00  0.00     0.047 A 
ATOM     15  C   UNL     1     167.743 151.782 148.175  1.00  0.00     0.047 A 
ATOM     16  C   UNL     1     169.450 149.575 148.374  1.00  0.00     0.016 A 
ATOM     17  C   UNL     1     167.226 150.527 148.506  1.00  0.00     0.016 A 
BRANCH  13  18
ATOM     18  O   UNL     1     169.684 153.177 147.579  1.00  0.00    -0.497 OA
ATOM     19  C   UNL     1     171.072 153.483 147.676  1.00  0.00     0.278 C 
ENDBRANCH  13  18
ENDBRANCH   1  12
BRANCH   8  20
ATOM     20  O   UNL     1     170.224 144.971 149.268  1.00  0.00    -0.490 OA
ATOM     21  C   UNL     1     170.924 145.027 148.030  1.00  0.00     0.278 C 
ENDBRANCH   8  20
BRANCH  11  22
ATOM     22  O   UNL     1     164.747 144.098 150.341  1.00  0.00    -0.492 OA
ATOM     23  C   UNL     1     164.210 143.812 151.626  1.00  0.00     0.278 C 
ENDBRANCH  11  22
BRANCH   9  24
ATOM     24  O   UNL     1     169.290 142.347 149.742  1.00  0.00    -0.490 OA
ATOM     25  C   UNL     1     170.254 142.035 150.743  1.00  0.00     0.279 C 
ENDBRANCH   9  24
BRANCH  10  26
ATOM     26  O   UNL     1     166.533 141.906 150.291  1.00  0.00    -0.490 OA
ATOM     27  C   UNL     1     166.032 140.943 149.369  1.00  0.00     0.278 C 
ENDBRANCH  10  26
TORSDOF 6
ENDMDL
MODEL 8
REMARK VINA RESULT:    -5.525      2.159      8.286
REMARK INTER + INTRA:          -7.938
REMARK INTER:                  -7.366
REMARK INTRA:                  -0.572
REMARK UNBOUND:                -0.475
REMARK SMILES COc1ccc(-c2cc(=O)c3c(OC)c(OC)c(OC)c(OC)c3o2)cc1
REMARK SMILES IDX 7 1 8 2 9 3 10 4 11 5 24 6 25 7 21 8 18 9 15 10 12 11 6 12
REMARK SMILES IDX 3 13 4 14 27 15 5 16 26 17 2 18 1 19 22 20 23 21 13 22 14 23
REMARK SMILES IDX 19 24 20 25 16 26 17 27
REMARK H PARENT
REMARK Flexibility Score: inf
ROOT
ATOM      1  C   UNL     1     168.378 148.153 149.165  1.00  0.00     0.138 A 
ATOM      2  C   UNL     1     169.610 147.507 149.031  1.00  0.00     0.100 A 
ATOM      3  C   UNL     1     169.670 146.123 149.150  1.00  0.00     0.197 A 
ATOM      4  O   UNL     1     170.790 145.559 149.025  1.00  0.00    -0.289 OA
ATOM      5  C   UNL     1     168.489 145.387 149.412  1.00  0.00     0.115 A 
ATOM      6  C   UNL     1     167.281 146.110 149.544  1.00  0.00     0.188 A 
ATOM      7  O   UNL     1     167.287 147.434 149.409  1.00  0.00    -0.452 OA
ATOM      8  C   UNL     1     166.071 145.438 149.825  1.00  0.00     0.209 A 
ATOM      9  C   UNL     1     166.081 144.037 150.035  1.00  0.00     0.211 A 
ATOM     10  C   UNL     1     167.286 143.303 149.874  1.00  0.00     0.208 A 
ATOM     11  C   UNL     1     168.484 143.978 149.528  1.00  0.00     0.179 A 
ENDROOT
BRANCH   1  12
ATOM     12  C   UNL     1     168.256 149.625 149.022  1.00  0.00     0.018 A 
ATOM     13  C   UNL     1     168.059 152.431 148.767  1.00  0.00     0.118 A 
ATOM     14  C   UNL     1     166.958 151.617 148.486  1.00  0.00     0.047 A 
ATOM     15  C   UNL     1     169.272 151.834 149.161  1.00  0.00     0.047 A 
ATOM     16  C   UNL     1     167.050 150.227 148.609  1.00  0.00     0.016 A 
ATOM     17  C   UNL     1     169.366 150.445 149.285  1.00  0.00     0.016 A 
BRANCH  13  18
ATOM     18  O   UNL     1     167.910 153.821 148.645  1.00  0.00    -0.497 OA
ATOM     19  C   UNL     1     166.742 154.461 148.141  1.00  0.00     0.278 C 
ENDBRANCH  13  18
ENDBRANCH   1  12
BRANCH   8  20
ATOM     20  O   UNL     1     164.839 146.115 149.899  1.00  0.00    -0.490 OA
ATOM     21  C   UNL     1     164.226 146.650 151.067  1.00  0.00     0.278 C 
ENDBRANCH   8  20
BRANCH  11  22
ATOM     22  O   UNL     1     169.695 143.292 149.291  1.00  0.00    -0.492 OA
ATOM     23  C   UNL     1     170.531 142.661 150.254  1.00  0.00     0.278 C 
ENDBRANCH  11  22
BRANCH   9  24
ATOM     24  O   UNL     1     164.913 143.332 150.383  1.00  0.00    -0.490 OA
ATOM     25  C   UNL     1     164.415 143.079 151.693  1.00  0.00     0.279 C 
ENDBRANCH   9  24
BRANCH  10  26
ATOM     26  O   UNL     1     167.356 141.907 150.069  1.00  0.00    -0.490 OA
ATOM     27  C   UNL     1     167.196 140.878 149.098  1.00  0.00     0.278 C 
ENDBRANCH  10  26
TORSDOF 6
ENDMDL
MODEL 9
REMARK VINA RESULT:    -5.472      2.457      7.638
REMARK INTER + INTRA:          -7.866
REMARK INTER:                  -7.271
REMARK INTRA:                  -0.596
REMARK UNBOUND:                -0.475
REMARK SMILES COc1ccc(-c2cc(=O)c3c(OC)c(OC)c(OC)c(OC)c3o2)cc1
REMARK SMILES IDX 7 1 8 2 9 3 10 4 11 5 24 6 25 7 21 8 18 9 15 10 12 11 6 12
REMARK SMILES IDX 3 13 4 14 27 15 5 16 26 17 2 18 1 19 22 20 23 21 13 22 14 23
REMARK SMILES IDX 19 24 20 25 16 26 17 27
REMARK H PARENT
REMARK Flexibility Score: inf
ROOT
ATOM      1  C   UNL     1     167.285 148.101 148.440  1.00  0.00     0.138 A 
ATOM      2  C   UNL     1     166.055 147.583 148.023  1.00  0.00     0.100 A 
ATOM      3  C   UNL     1     165.854 146.208 148.041  1.00  0.00     0.197 A 
ATOM      4  O   UNL     1     164.738 145.762 147.662  1.00  0.00    -0.289 OA
ATOM      5  C   UNL     1     166.893 145.349 148.473  1.00  0.00     0.115 A 
ATOM      6  C   UNL     1     168.112 145.944 148.873  1.00  0.00     0.188 A 
ATOM      7  O   UNL     1     168.241 147.268 148.842  1.00  0.00    -0.452 OA
ATOM      8  C   UNL     1     169.196 145.143 149.296  1.00  0.00     0.209 A 
ATOM      9  C   UNL     1     169.077 143.731 149.262  1.00  0.00     0.211 A 
ATOM     10  C   UNL     1     167.845 143.130 148.890  1.00  0.00     0.208 A 
ATOM     11  C   UNL     1     166.742 143.944 148.529  1.00  0.00     0.179 A 
ENDROOT
BRANCH   1  12
ATOM     12  C   UNL     1     167.544 149.562 148.463  1.00  0.00     0.018 A 
ATOM     13  C   UNL     1     168.075 152.335 148.513  1.00  0.00     0.118 A 
ATOM     14  C   UNL     1     166.759 151.868 148.448  1.00  0.00     0.047 A 
ATOM     15  C   UNL     1     169.132 151.406 148.535  1.00  0.00     0.047 A 
ATOM     16  C   UNL     1     166.490 150.496 148.421  1.00  0.00     0.016 A 
ATOM     17  C   UNL     1     168.866 150.035 148.509  1.00  0.00     0.016 A 
BRANCH  13  18
ATOM     18  O   UNL     1     168.290 153.721 148.556  1.00  0.00    -0.497 OA
ATOM     19  C   UNL     1     168.734 154.429 149.709  1.00  0.00     0.278 C 
ENDBRANCH  13  18
ENDBRANCH   1  12
BRANCH   8  20
ATOM     20  O   UNL     1     170.401 145.700 149.762  1.00  0.00    -0.490 OA
ATOM     21  C   UNL     1     170.688 146.130 151.088  1.00  0.00     0.278 C 
ENDBRANCH   8  20
BRANCH  11  22
ATOM     22  O   UNL     1     165.476 143.404 148.215  1.00  0.00    -0.492 OA
ATOM     23  C   UNL     1     165.150 142.552 147.124  1.00  0.00     0.278 C 
ENDBRANCH  11  22
BRANCH   9  24
ATOM     24  O   UNL     1     170.151 142.889 149.610  1.00  0.00    -0.490 OA
ATOM     25  C   UNL     1     170.523 142.461 150.917  1.00  0.00     0.279 C 
ENDBRANCH   9  24
BRANCH  10  26
ATOM     26  O   UNL     1     167.669 141.731 148.839  1.00  0.00    -0.490 OA
ATOM     27  C   UNL     1     167.161 140.875 149.858  1.00  0.00     0.278 C 
ENDBRANCH  10  26
TORSDOF 6
ENDMDL
