MODEL 1
REMARK VINA RESULT:    14.738      0.000      0.000
REMARK INTER + INTRA:          27.403
REMARK INTER:                  26.799
REMARK INTRA:                   0.603
REMARK UNBOUND:                 0.603
REMARK SMILES CCCCCCCCCCCCCC[C@@H](C)C(=O)[O-]
REMARK SMILES IDX 9 1 10 2 11 3 12 4 13 5 14 6 15 7 16 8 17 9 18 10 19 11 8 12
REMARK SMILES IDX 7 13 6 14 5 15 4 16 3 17 2 18 1 19
REMARK H PARENT
REMARK Flexibility Score: inf
ROOT
ATOM      1  C   UNL     1      14.794   5.264   7.414  1.00  0.00     0.000 C 
ENDROOT
BRANCH   1   2
ATOM      2  C   UNL     1      14.743   6.523   8.293  1.00  0.00     0.000 C 
BRANCH   2   3
ATOM      3  C   UNL     1      14.033   7.699   7.606  1.00  0.00     0.000 C 
BRANCH   3   4
ATOM      4  C   UNL     1      12.527   7.436   7.484  1.00  0.00     0.000 C 
BRANCH   4   5
ATOM      5  C   UNL     1      12.111   6.215   8.319  1.00  0.00     0.001 C 
BRANCH   5   6
ATOM      6  C   UNL     1      10.589   6.115   8.538  1.00  0.00     0.009 C 
BRANCH   6   7
ATOM      7  C   UNL     1       9.956   4.817   7.980  1.00  0.00     0.032 C 
ATOM      8  C   UNL     1      10.008   4.805   6.448  1.00  0.00     0.014 C 
BRANCH   7   9
ATOM      9  C   UNL     1      10.636   3.583   8.507  1.00  0.00     0.044 C 
ATOM     10  O   UNL     1      11.447   2.940   7.788  1.00  0.00    -0.550 OA
ATOM     11  O   UNL     1      10.343   3.124   9.786  1.00  0.00    -0.550 OA
ENDBRANCH   7   9
ENDBRANCH   6   7
ENDBRANCH   5   6
ENDBRANCH   4   5
ENDBRANCH   3   4
ENDBRANCH   2   3
ENDBRANCH   1   2
BRANCH   1  12
ATOM     12  C   UNL     1      15.763   5.410   6.228  1.00  0.00     0.000 C 
BRANCH  12  13
ATOM     13  C   UNL     1      17.038   4.561   6.388  1.00  0.00    -0.000 C 
BRANCH  13  14
ATOM     14  C   UNL     1      18.026   5.060   7.458  1.00  0.00    -0.000 C 
BRANCH  14  15
ATOM     15  C   UNL     1      17.459   6.211   8.307  1.00  0.00    -0.000 C 
BRANCH  15  16
ATOM     16  C   UNL     1      18.087   6.258   9.717  1.00  0.00    -0.000 C 
BRANCH  16  17
ATOM     17  C   UNL     1      18.121   7.669  10.328  1.00  0.00    -0.000 C 
BRANCH  17  18
ATOM     18  C   UNL     1      17.465   8.726   9.429  1.00  0.00    -0.003 C 
ATOM     19  C   UNL     1      17.988  10.123   9.752  1.00  0.00     0.004 C 
ENDBRANCH  17  18
ENDBRANCH  16  17
ENDBRANCH  15  16
ENDBRANCH  14  15
ENDBRANCH  13  14
ENDBRANCH  12  13
ENDBRANCH   1  12
TORSDOF 14
ENDMDL
MODEL 2
REMARK VINA RESULT:    17.136      0.977      1.636
REMARK INTER + INTRA:          31.764
REMARK INTER:                  31.605
REMARK INTRA:                   0.159
REMARK UNBOUND:                 0.603
REMARK SMILES CCCCCCCCCCCCCC[C@@H](C)C(=O)[O-]
REMARK SMILES IDX 9 1 10 2 11 3 12 4 13 5 14 6 15 7 16 8 17 9 18 10 19 11 8 12
REMARK SMILES IDX 7 13 6 14 5 15 4 16 3 17 2 18 1 19
REMARK H PARENT
REMARK Flexibility Score: inf
ROOT
ATOM      1  C   UNL     1      14.603   5.801   8.145  1.00  0.00     0.000 C 
ENDROOT
BRANCH   1   2
ATOM      2  C   UNL     1      14.062   7.191   7.781  1.00  0.00     0.000 C 
BRANCH   2   3
ATOM      3  C   UNL     1      12.646   7.141   7.186  1.00  0.00     0.000 C 
BRANCH   3   4
ATOM      4  C   UNL     1      11.630   6.660   8.230  1.00  0.00     0.000 C 
BRANCH   4   5
ATOM      5  C   UNL     1      10.558   5.767   7.586  1.00  0.00     0.001 C 
BRANCH   5   6
ATOM      6  C   UNL     1      11.074   4.363   7.219  1.00  0.00     0.009 C 
BRANCH   6   7
ATOM      7  C   UNL     1      10.327   3.210   7.934  1.00  0.00     0.032 C 
ATOM      8  C   UNL     1      10.930   1.854   7.548  1.00  0.00     0.014 C 
BRANCH   7   9
ATOM      9  C   UNL     1      10.357   3.357   9.431  1.00  0.00     0.044 C 
ATOM     10  O   UNL     1      10.055   4.453   9.975  1.00  0.00    -0.550 OA
ATOM     11  O   UNL     1      10.754   2.286  10.223  1.00  0.00    -0.550 OA
ENDBRANCH   7   9
ENDBRANCH   6   7
ENDBRANCH   5   6
ENDBRANCH   4   5
ENDBRANCH   3   4
ENDBRANCH   2   3
ENDBRANCH   1   2
BRANCH   1  12
ATOM     12  C   UNL     1      14.867   4.926   6.907  1.00  0.00     0.000 C 
BRANCH  12  13
ATOM     13  C   UNL     1      16.160   5.313   6.166  1.00  0.00    -0.000 C 
BRANCH  13  14
ATOM     14  C   UNL     1      17.410   4.513   6.574  1.00  0.00    -0.000 C 
BRANCH  14  15
ATOM     15  C   UNL     1      18.125   5.103   7.802  1.00  0.00    -0.000 C 
BRANCH  15  16
ATOM     16  C   UNL     1      17.457   6.405   8.294  1.00  0.00    -0.000 C 
BRANCH  16  17
ATOM     17  C   UNL     1      18.124   7.005   9.543  1.00  0.00    -0.000 C 
BRANCH  17  18
ATOM     18  C   UNL     1      17.226   8.011  10.274  1.00  0.00    -0.003 C 
ATOM     19  C   UNL     1      17.619   9.447   9.935  1.00  0.00     0.004 C 
ENDBRANCH  17  18
ENDBRANCH  16  17
ENDBRANCH  15  16
ENDBRANCH  14  15
ENDBRANCH  13  14
ENDBRANCH  12  13
ENDBRANCH   1  12
TORSDOF 14
ENDMDL
