MODEL 1
REMARK VINA RESULT:    -3.272      0.000      0.000
REMARK INTER + INTRA:          -6.648
REMARK INTER:                  -6.142
REMARK INTRA:                  -0.506
REMARK UNBOUND:                -0.506
REMARK SMILES CCCCCC=CCC=CCCCCCCCC(=O)OC
REMARK SMILES IDX 11 1 10 2 9 3 8 4 7 5 6 6 5 7 4 8 3 9 2 10 1 11 12 12 13 13
REMARK SMILES IDX 14 14 15 15 16 16 17 17 18 18 19 19 20 20 21 21
REMARK H PARENT
REMARK Flexibility Score: inf
ROOT
ATOM      1  C   UNL     1      14.618  15.350  26.598  1.00  0.00     0.027 C 
ENDROOT
BRANCH   1   2
ATOM      2  C   UNL     1      15.779  15.357  27.559  1.00  0.00    -0.031 C 
ATOM      3  C   UNL     1      15.661  15.488  28.894  1.00  0.00    -0.027 C 
BRANCH   3   4
ATOM      4  C   UNL     1      14.357  15.705  29.621  1.00  0.00     0.054 C 
BRANCH   4   5
ATOM      5  C   UNL     1      14.087  14.600  30.603  1.00  0.00    -0.027 C 
ATOM      6  C   UNL     1      15.050  14.121  31.405  1.00  0.00    -0.031 C 
BRANCH   6   7
ATOM      7  C   UNL     1      14.775  13.022  32.394  1.00  0.00     0.027 C 
BRANCH   7   8
ATOM      8  C   UNL     1      15.373  11.688  31.922  1.00  0.00     0.004 C 
BRANCH   8   9
ATOM      9  C   UNL     1      15.887  11.752  30.475  1.00  0.00     0.000 C 
BRANCH   9  10
ATOM     10  C   UNL     1      15.356  10.599  29.611  1.00  0.00    -0.003 C 
ATOM     11  C   UNL     1      16.089  10.531  28.274  1.00  0.00     0.004 C 
ENDBRANCH   9  10
ENDBRANCH   8   9
ENDBRANCH   7   8
ENDBRANCH   6   7
ENDBRANCH   4   5
ENDBRANCH   3   4
ENDBRANCH   1   2
BRANCH   1  12
ATOM     12  C   UNL     1      14.810  16.408  25.502  1.00  0.00     0.004 C 
BRANCH  12  13
ATOM     13  C   UNL     1      14.430  17.821  25.974  1.00  0.00     0.000 C 
BRANCH  13  14
ATOM     14  C   UNL     1      13.667  17.805  27.311  1.00  0.00     0.000 C 
BRANCH  14  15
ATOM     15  C   UNL     1      12.266  17.185  27.183  1.00  0.00     0.001 C 
BRANCH  15  16
ATOM     16  C   UNL     1      11.266  18.119  26.482  1.00  0.00     0.012 C 
BRANCH  16  17
ATOM     17  C   UNL     1      10.566  17.436  25.299  1.00  0.00     0.123 C 
BRANCH  17  18
ATOM     18  C   UNL     1      11.532  17.093  24.207  1.00  0.00     0.305 C 
ATOM     19  O   UNL     1      11.902  15.897  24.051  1.00  0.00    -0.252 OA
BRANCH  18  20
ATOM     20  O   UNL     1      11.988  18.099  23.350  1.00  0.00    -0.469 OA
ATOM     21  C   UNL     1      13.106  17.922  22.488  1.00  0.00     0.282 C 
ENDBRANCH  18  20
ENDBRANCH  17  18
ENDBRANCH  16  17
ENDBRANCH  15  16
ENDBRANCH  14  15
ENDBRANCH  13  14
ENDBRANCH  12  13
ENDBRANCH   1  12
TORSDOF 15
ENDMDL
MODEL 2
REMARK VINA RESULT:    -3.001      2.924      7.603
REMARK INTER + INTRA:          -6.140
REMARK INTER:                  -4.996
REMARK INTRA:                  -1.144
REMARK UNBOUND:                -0.506
REMARK SMILES CCCCCC=CCC=CCCCCCCCC(=O)OC
REMARK SMILES IDX 11 1 10 2 9 3 8 4 7 5 6 6 5 7 4 8 3 9 2 10 1 11 12 12 13 13
REMARK SMILES IDX 14 14 15 15 16 16 17 17 18 18 19 19 20 20 21 21
REMARK H PARENT
REMARK Flexibility Score: inf
ROOT
ATOM      1  C   UNL     1      13.206  15.523  28.113  1.00  0.00     0.027 C 
ENDROOT
BRANCH   1   2
ATOM      2  C   UNL     1      13.328  17.023  28.178  1.00  0.00    -0.031 C 
ATOM      3  C   UNL     1      14.227  17.745  27.482  1.00  0.00    -0.027 C 
BRANCH   3   4
ATOM      4  C   UNL     1      15.282  17.156  26.579  1.00  0.00     0.054 C 
BRANCH   4   5
ATOM      5  C   UNL     1      14.811  17.094  25.153  1.00  0.00    -0.027 C 
ATOM      6  C   UNL     1      14.174  18.125  24.578  1.00  0.00    -0.031 C 
BRANCH   6   7
ATOM      7  C   UNL     1      13.712  18.064  23.148  1.00  0.00     0.027 C 
BRANCH   7   8
ATOM      8  C   UNL     1      12.274  17.533  23.052  1.00  0.00     0.004 C 
BRANCH   8   9
ATOM      9  C   UNL     1      11.463  17.789  24.332  1.00  0.00     0.000 C 
BRANCH   9  10
ATOM     10  C   UNL     1      11.119  16.493  25.080  1.00  0.00    -0.003 C 
ATOM     11  C   UNL     1      12.028  15.348  24.642  1.00  0.00     0.004 C 
ENDBRANCH   9  10
ENDBRANCH   8   9
ENDBRANCH   7   8
ENDBRANCH   6   7
ENDBRANCH   4   5
ENDBRANCH   3   4
ENDBRANCH   1   2
BRANCH   1  12
ATOM     12  C   UNL     1      14.587  14.858  28.209  1.00  0.00     0.004 C 
BRANCH  12  13
ATOM     13  C   UNL     1      15.142  14.857  29.642  1.00  0.00     0.000 C 
BRANCH  13  14
ATOM     14  C   UNL     1      14.030  14.727  30.699  1.00  0.00     0.000 C 
BRANCH  14  15
ATOM     15  C   UNL     1      14.445  13.842  31.886  1.00  0.00     0.001 C 
BRANCH  15  16
ATOM     16  C   UNL     1      15.896  13.343  31.774  1.00  0.00     0.012 C 
BRANCH  16  17
ATOM     17  C   UNL     1      15.982  11.810  31.761  1.00  0.00     0.123 C 
BRANCH  17  18
ATOM     18  C   UNL     1      15.341  11.230  30.538  1.00  0.00     0.305 C 
ATOM     19  O   UNL     1      14.300  10.526  30.650  1.00  0.00    -0.252 OA
BRANCH  18  20
ATOM     20  O   UNL     1      15.887  11.502  29.280  1.00  0.00    -0.469 OA
ATOM     21  C   UNL     1      16.046  10.500  28.282  1.00  0.00     0.282 C 
ENDBRANCH  18  20
ENDBRANCH  17  18
ENDBRANCH  16  17
ENDBRANCH  15  16
ENDBRANCH  14  15
ENDBRANCH  13  14
ENDBRANCH  12  13
ENDBRANCH   1  12
TORSDOF 15
ENDMDL
MODEL 3
REMARK VINA RESULT:    -2.854      3.055      8.111
REMARK INTER + INTRA:          -5.864
REMARK INTER:                  -4.846
REMARK INTRA:                  -1.018
REMARK UNBOUND:                -0.506
REMARK SMILES CCCCCC=CCC=CCCCCCCCC(=O)OC
REMARK SMILES IDX 11 1 10 2 9 3 8 4 7 5 6 6 5 7 4 8 3 9 2 10 1 11 12 12 13 13
REMARK SMILES IDX 14 14 15 15 16 16 17 17 18 18 19 19 20 20 21 21
REMARK H PARENT
REMARK Flexibility Score: inf
ROOT
ATOM      1  C   UNL     1      14.371  15.934  26.166  1.00  0.00     0.027 C 
ENDROOT
BRANCH   1   2
ATOM      2  C   UNL     1      14.412  17.367  26.627  1.00  0.00    -0.031 C 
ATOM      3  C   UNL     1      13.323  18.125  26.856  1.00  0.00    -0.027 C 
BRANCH   3   4
ATOM      4  C   UNL     1      11.902  17.671  26.629  1.00  0.00     0.054 C 
BRANCH   4   5
ATOM      5  C   UNL     1      11.558  17.657  25.165  1.00  0.00    -0.027 C 
ATOM      6  C   UNL     1      11.786  16.579  24.401  1.00  0.00    -0.031 C 
BRANCH   6   7
ATOM      7  C   UNL     1      11.432  16.564  22.939  1.00  0.00     0.027 C 
BRANCH   7   8
ATOM      8  C   UNL     1      11.752  17.913  22.277  1.00  0.00     0.004 C 
BRANCH   8   9
ATOM      9  C   UNL     1      13.254  18.099  22.011  1.00  0.00     0.000 C 
BRANCH   9  10
ATOM     10  C   UNL     1      13.588  18.125  20.513  1.00  0.00    -0.003 C 
ATOM     11  C   UNL     1      15.097  18.103  20.286  1.00  0.00     0.004 C 
ENDBRANCH   9  10
ENDBRANCH   8   9
ENDBRANCH   7   8
ENDBRANCH   6   7
ENDBRANCH   4   5
ENDBRANCH   3   4
ENDBRANCH   1   2
BRANCH   1  12
ATOM     12  C   UNL     1      14.509  14.973  27.356  1.00  0.00     0.004 C 
BRANCH  12  13
ATOM     13  C   UNL     1      15.878  15.084  28.047  1.00  0.00     0.000 C 
BRANCH  13  14
ATOM     14  C   UNL     1      15.755  15.152  29.580  1.00  0.00     0.000 C 
BRANCH  14  15
ATOM     15  C   UNL     1      14.355  14.757  30.078  1.00  0.00     0.001 C 
BRANCH  15  16
ATOM     16  C   UNL     1      14.392  14.012  31.423  1.00  0.00     0.012 C 
BRANCH  16  17
ATOM     17  C   UNL     1      15.674  13.185  31.592  1.00  0.00     0.123 C 
BRANCH  17  18
ATOM     18  C   UNL     1      15.449  11.741  31.268  1.00  0.00     0.305 C 
ATOM     19  O   UNL     1      15.556  10.871  32.176  1.00  0.00    -0.252 OA
BRANCH  18  20
ATOM     20  O   UNL     1      15.090  11.374  29.967  1.00  0.00    -0.469 OA
ATOM     21  C   UNL     1      16.044  10.950  29.002  1.00  0.00     0.282 C 
ENDBRANCH  18  20
ENDBRANCH  17  18
ENDBRANCH  16  17
ENDBRANCH  15  16
ENDBRANCH  14  15
ENDBRANCH  13  14
ENDBRANCH  12  13
ENDBRANCH   1  12
TORSDOF 15
ENDMDL
MODEL 4
REMARK VINA RESULT:    -2.737      1.302      2.121
REMARK INTER + INTRA:          -5.644
REMARK INTER:                  -5.778
REMARK INTRA:                   0.134
REMARK UNBOUND:                -0.506
REMARK SMILES CCCCCC=CCC=CCCCCCCCC(=O)OC
REMARK SMILES IDX 11 1 10 2 9 3 8 4 7 5 6 6 5 7 4 8 3 9 2 10 1 11 12 12 13 13
REMARK SMILES IDX 14 14 15 15 16 16 17 17 18 18 19 19 20 20 21 21
REMARK H PARENT
REMARK Flexibility Score: inf
ROOT
ATOM      1  C   UNL     1      14.610  14.895  26.795  1.00  0.00     0.027 C 
ENDROOT
BRANCH   1   2
ATOM      2  C   UNL     1      15.260  15.872  27.740  1.00  0.00    -0.031 C 
ATOM      3  C   UNL     1      14.766  16.208  28.947  1.00  0.00    -0.027 C 
BRANCH   3   4
ATOM      4  C   UNL     1      13.461  15.701  29.509  1.00  0.00     0.054 C 
BRANCH   4   5
ATOM      5  C   UNL     1      13.688  14.782  30.677  1.00  0.00    -0.027 C 
ATOM      6  C   UNL     1      14.871  14.183  30.880  1.00  0.00    -0.031 C 
BRANCH   6   7
ATOM      7  C   UNL     1      15.099  13.272  32.056  1.00  0.00     0.027 C 
BRANCH   7   8
ATOM      8  C   UNL     1      15.836  11.994  31.631  1.00  0.00     0.004 C 
BRANCH   8   9
ATOM      9  C   UNL     1      15.138  11.268  30.470  1.00  0.00     0.000 C 
BRANCH   9  10
ATOM     10  C   UNL     1      15.819  11.529  29.118  1.00  0.00    -0.003 C 
ATOM     11  C   UNL     1      16.175  10.219  28.421  1.00  0.00     0.004 C 
ENDBRANCH   9  10
ENDBRANCH   8   9
ENDBRANCH   7   8
ENDBRANCH   6   7
ENDBRANCH   4   5
ENDBRANCH   3   4
ENDBRANCH   1   2
BRANCH   1  12
ATOM     12  C   UNL     1      14.212  15.586  25.483  1.00  0.00     0.004 C 
BRANCH  12  13
ATOM     13  C   UNL     1      15.121  16.777  25.145  1.00  0.00     0.000 C 
BRANCH  13  14
ATOM     14  C   UNL     1      14.319  18.058  24.847  1.00  0.00     0.000 C 
BRANCH  14  15
ATOM     15  C   UNL     1      13.295  17.863  23.717  1.00  0.00     0.001 C 
BRANCH  15  16
ATOM     16  C   UNL     1      12.256  16.775  24.039  1.00  0.00     0.012 C 
BRANCH  16  17
ATOM     17  C   UNL     1      10.888  17.369  24.401  1.00  0.00     0.123 C 
BRANCH  17  18
ATOM     18  C   UNL     1      10.662  17.379  25.881  1.00  0.00     0.305 C 
ATOM     19  O   UNL     1       9.508  17.608  26.337  1.00  0.00    -0.252 OA
BRANCH  18  20
ATOM     20  O   UNL     1      11.728  17.104  26.743  1.00  0.00    -0.469 OA
ATOM     21  C   UNL     1      12.438  18.125  27.433  1.00  0.00     0.282 C 
ENDBRANCH  18  20
ENDBRANCH  17  18
ENDBRANCH  16  17
ENDBRANCH  15  16
ENDBRANCH  14  15
ENDBRANCH  13  14
ENDBRANCH  12  13
ENDBRANCH   1  12
TORSDOF 15
ENDMDL
MODEL 5
REMARK VINA RESULT:    -2.523      1.384      2.375
REMARK INTER + INTRA:          -5.242
REMARK INTER:                  -4.482
REMARK INTRA:                  -0.760
REMARK UNBOUND:                -0.506
REMARK SMILES CCCCCC=CCC=CCCCCCCCC(=O)OC
REMARK SMILES IDX 11 1 10 2 9 3 8 4 7 5 6 6 5 7 4 8 3 9 2 10 1 11 12 12 13 13
REMARK SMILES IDX 14 14 15 15 16 16 17 17 18 18 19 19 20 20 21 21
REMARK H PARENT
REMARK Flexibility Score: inf
ROOT
ATOM      1  C   UNL     1      13.125  17.267  28.986  1.00  0.00     0.027 C 
ENDROOT
BRANCH   1   2
ATOM      2  C   UNL     1      14.550  17.413  28.519  1.00  0.00    -0.031 C 
ATOM      3  C   UNL     1      15.342  16.386  28.157  1.00  0.00    -0.027 C 
BRANCH   3   4
ATOM      4  C   UNL     1      14.941  14.933  28.221  1.00  0.00     0.054 C 
BRANCH   4   5
ATOM      5  C   UNL     1      15.299  14.324  29.548  1.00  0.00    -0.027 C 
ATOM      6  C   UNL     1      14.418  14.276  30.559  1.00  0.00    -0.031 C 
BRANCH   6   7
ATOM      7  C   UNL     1      14.774  13.657  31.883  1.00  0.00     0.027 C 
BRANCH   7   8
ATOM      8  C   UNL     1      16.027  12.775  31.763  1.00  0.00     0.004 C 
BRANCH   8   9
ATOM      9  C   UNL     1      15.687  11.283  31.623  1.00  0.00     0.000 C 
BRANCH   9  10
ATOM     10  C   UNL     1      15.005  10.958  30.286  1.00  0.00    -0.003 C 
ATOM     11  C   UNL     1      16.034  10.792  29.170  1.00  0.00     0.004 C 
ENDBRANCH   9  10
ENDBRANCH   8   9
ENDBRANCH   7   8
ENDBRANCH   6   7
ENDBRANCH   4   5
ENDBRANCH   3   4
ENDBRANCH   1   2
BRANCH   1  12
ATOM     12  C   UNL     1      12.207  16.865  27.822  1.00  0.00     0.004 C 
BRANCH  12  13
ATOM     13  C   UNL     1      11.710  18.077  27.019  1.00  0.00     0.000 C 
BRANCH  13  14
ATOM     14  C   UNL     1      10.619  17.695  26.001  1.00  0.00     0.000 C 
BRANCH  14  15
ATOM     15  C   UNL     1      11.049  17.960  24.549  1.00  0.00     0.001 C 
BRANCH  15  16
ATOM     16  C   UNL     1      11.381  16.667  23.784  1.00  0.00     0.012 C 
BRANCH  16  17
ATOM     17  C   UNL     1      12.041  15.614  24.685  1.00  0.00     0.123 C 
BRANCH  17  18
ATOM     18  C   UNL     1      13.525  15.798  24.759  1.00  0.00     0.305 C 
ATOM     19  O   UNL     1      14.240  14.912  25.302  1.00  0.00    -0.252 OA
BRANCH  18  20
ATOM     20  O   UNL     1      14.107  16.939  24.197  1.00  0.00    -0.469 OA
ATOM     21  C   UNL     1      15.189  17.628  24.812  1.00  0.00     0.282 C 
ENDBRANCH  18  20
ENDBRANCH  17  18
ENDBRANCH  16  17
ENDBRANCH  15  16
ENDBRANCH  14  15
ENDBRANCH  13  14
ENDBRANCH  12  13
ENDBRANCH   1  12
TORSDOF 15
ENDMDL
MODEL 6
REMARK VINA RESULT:    -2.432      3.370      7.457
REMARK INTER + INTRA:          -5.072
REMARK INTER:                  -4.334
REMARK INTRA:                  -0.738
REMARK UNBOUND:                -0.506
REMARK SMILES CCCCCC=CCC=CCCCCCCCC(=O)OC
REMARK SMILES IDX 11 1 10 2 9 3 8 4 7 5 6 6 5 7 4 8 3 9 2 10 1 11 12 12 13 13
REMARK SMILES IDX 14 14 15 15 16 16 17 17 18 18 19 19 20 20 21 21
REMARK H PARENT
REMARK Flexibility Score: inf
ROOT
ATOM      1  C   UNL     1      14.157  15.731  25.125  1.00  0.00     0.027 C 
ENDROOT
BRANCH   1   2
ATOM      2  C   UNL     1      14.871  17.027  24.845  1.00  0.00    -0.031 C 
ATOM      3  C   UNL     1      14.403  17.995  24.035  1.00  0.00    -0.027 C 
BRANCH   3   4
ATOM      4  C   UNL     1      13.123  17.902  23.242  1.00  0.00     0.054 C 
BRANCH   4   5
ATOM      5  C   UNL     1      11.919  18.119  24.116  1.00  0.00    -0.027 C 
ATOM      6  C   UNL     1      11.217  17.089  24.612  1.00  0.00    -0.031 C 
BRANCH   6   7
ATOM      7  C   UNL     1      10.019  17.308  25.496  1.00  0.00     0.027 C 
BRANCH   7   8
ATOM      8  C   UNL     1      10.421  17.981  26.817  1.00  0.00     0.004 C 
BRANCH   8   9
ATOM      9  C   UNL     1      11.943  18.125  26.967  1.00  0.00     0.000 C 
BRANCH   9  10
ATOM     10  C   UNL     1      12.507  17.263  28.107  1.00  0.00    -0.003 C 
ATOM     11  C   UNL     1      13.727  17.924  28.742  1.00  0.00     0.004 C 
ENDBRANCH   9  10
ENDBRANCH   8   9
ENDBRANCH   7   8
ENDBRANCH   6   7
ENDBRANCH   4   5
ENDBRANCH   3   4
ENDBRANCH   1   2
BRANCH   1  12
ATOM     12  C   UNL     1      14.426  15.258  26.561  1.00  0.00     0.004 C 
BRANCH  12  13
ATOM     13  C   UNL     1      15.717  15.852  27.145  1.00  0.00     0.000 C 
BRANCH  13  14
ATOM     14  C   UNL     1      15.935  15.446  28.614  1.00  0.00     0.000 C 
BRANCH  14  15
ATOM     15  C   UNL     1      14.909  14.408  29.098  1.00  0.00     0.001 C 
BRANCH  15  16
ATOM     16  C   UNL     1      14.385  14.706  30.513  1.00  0.00     0.012 C 
BRANCH  16  17
ATOM     17  C   UNL     1      15.404  14.331  31.598  1.00  0.00     0.123 C 
BRANCH  17  18
ATOM     18  C   UNL     1      15.106  12.991  32.198  1.00  0.00     0.305 C 
ATOM     19  O   UNL     1      14.160  12.871  33.025  1.00  0.00    -0.252 OA
BRANCH  18  20
ATOM     20  O   UNL     1      15.861  11.880  31.812  1.00  0.00    -0.469 OA
ATOM     21  C   UNL     1      15.506  11.062  30.704  1.00  0.00     0.282 C 
ENDBRANCH  18  20
ENDBRANCH  17  18
ENDBRANCH  16  17
ENDBRANCH  15  16
ENDBRANCH  14  15
ENDBRANCH  13  14
ENDBRANCH  12  13
ENDBRANCH   1  12
TORSDOF 15
ENDMDL
MODEL 7
REMARK VINA RESULT:    -2.202      3.145      8.073
REMARK INTER + INTRA:          -4.639
REMARK INTER:                  -4.067
REMARK INTRA:                  -0.572
REMARK UNBOUND:                -0.506
REMARK SMILES CCCCCC=CCC=CCCCCCCCC(=O)OC
REMARK SMILES IDX 11 1 10 2 9 3 8 4 7 5 6 6 5 7 4 8 3 9 2 10 1 11 12 12 13 13
REMARK SMILES IDX 14 14 15 15 16 16 17 17 18 18 19 19 20 20 21 21
REMARK H PARENT
REMARK Flexibility Score: inf
ROOT
ATOM      1  C   UNL     1      12.884  16.517  28.776  1.00  0.00     0.027 C 
ENDROOT
BRANCH   1   2
ATOM      2  C   UNL     1      13.847  17.618  28.416  1.00  0.00    -0.031 C 
ATOM      3  C   UNL     1      14.747  17.546  27.417  1.00  0.00    -0.027 C 
BRANCH   3   4
ATOM      4  C   UNL     1      14.967  16.332  26.549  1.00  0.00     0.054 C 
BRANCH   4   5
ATOM      5  C   UNL     1      14.282  16.479  25.218  1.00  0.00    -0.027 C 
ATOM      6  C   UNL     1      13.013  16.085  25.034  1.00  0.00    -0.031 C 
BRANCH   6   7
ATOM      7  C   UNL     1      12.327  16.243  23.704  1.00  0.00     0.027 C 
BRANCH   7   8
ATOM      8  C   UNL     1      12.487  17.672  23.164  1.00  0.00     0.004 C 
BRANCH   8   9
ATOM      9  C   UNL     1      11.285  18.122  22.320  1.00  0.00     0.000 C 
BRANCH   9  10
ATOM     10  C   UNL     1      11.558  18.032  20.811  1.00  0.00    -0.003 C 
ATOM     11  C   UNL     1      13.054  18.122  20.518  1.00  0.00     0.004 C 
ENDBRANCH   9  10
ENDBRANCH   8   9
ENDBRANCH   7   8
ENDBRANCH   6   7
ENDBRANCH   4   5
ENDBRANCH   3   4
ENDBRANCH   1   2
BRANCH   1  12
ATOM     12  C   UNL     1      13.550  15.141  28.634  1.00  0.00     0.004 C 
BRANCH  12  13
ATOM     13  C   UNL     1      14.516  14.831  29.788  1.00  0.00     0.000 C 
BRANCH  13  14
ATOM     14  C   UNL     1      13.800  14.782  31.151  1.00  0.00     0.000 C 
BRANCH  14  15
ATOM     15  C   UNL     1      14.421  13.749  32.106  1.00  0.00     0.001 C 
BRANCH  15  16
ATOM     16  C   UNL     1      15.827  13.306  31.668  1.00  0.00     0.012 C 
BRANCH  16  17
ATOM     17  C   UNL     1      15.996  11.782  31.719  1.00  0.00     0.123 C 
BRANCH  17  18
ATOM     18  C   UNL     1      15.494  11.126  30.469  1.00  0.00     0.305 C 
ATOM     19  O   UNL     1      14.371  10.552  30.471  1.00  0.00    -0.252 OA
BRANCH  18  20
ATOM     20  O   UNL     1      16.263  11.185  29.303  1.00  0.00    -0.469 OA
ATOM     21  C   UNL     1      15.882  10.527  28.101  1.00  0.00     0.282 C 
ENDBRANCH  18  20
ENDBRANCH  17  18
ENDBRANCH  16  17
ENDBRANCH  15  16
ENDBRANCH  14  15
ENDBRANCH  13  14
ENDBRANCH  12  13
ENDBRANCH   1  12
TORSDOF 15
ENDMDL
MODEL 8
REMARK VINA RESULT:    -2.171      1.817      3.536
REMARK INTER + INTRA:          -4.581
REMARK INTER:                  -3.963
REMARK INTRA:                  -0.618
REMARK UNBOUND:                -0.506
REMARK SMILES CCCCCC=CCC=CCCCCCCCC(=O)OC
REMARK SMILES IDX 11 1 10 2 9 3 8 4 7 5 6 6 5 7 4 8 3 9 2 10 1 11 12 12 13 13
REMARK SMILES IDX 14 14 15 15 16 16 17 17 18 18 19 19 20 20 21 21
REMARK H PARENT
REMARK Flexibility Score: inf
ROOT
ATOM      1  C   UNL     1      12.005  17.093  27.027  1.00  0.00     0.027 C 
ENDROOT
BRANCH   1   2
ATOM      2  C   UNL     1      12.136  15.617  27.298  1.00  0.00    -0.031 C 
ATOM      3  C   UNL     1      12.664  15.093  28.421  1.00  0.00    -0.027 C 
BRANCH   3   4
ATOM      4  C   UNL     1      13.257  15.904  29.546  1.00  0.00     0.054 C 
BRANCH   4   5
ATOM      5  C   UNL     1      13.537  15.047  30.750  1.00  0.00    -0.027 C 
ATOM      6  C   UNL     1      14.731  14.463  30.933  1.00  0.00    -0.031 C 
BRANCH   6   7
ATOM      7  C   UNL     1      15.012  13.615  32.144  1.00  0.00     0.027 C 
BRANCH   7   8
ATOM      8  C   UNL     1      15.392  12.182  31.740  1.00  0.00     0.004 C 
BRANCH   8   9
ATOM      9  C   UNL     1      15.210  11.925  30.236  1.00  0.00     0.000 C 
BRANCH   9  10
ATOM     10  C   UNL     1      15.900  10.633  29.772  1.00  0.00    -0.003 C 
ATOM     11  C   UNL     1      16.014  10.588  28.250  1.00  0.00     0.004 C 
ENDBRANCH   9  10
ENDBRANCH   8   9
ENDBRANCH   7   8
ENDBRANCH   6   7
ENDBRANCH   4   5
ENDBRANCH   3   4
ENDBRANCH   1   2
BRANCH   1  12
ATOM     12  C   UNL     1      10.751  17.385  26.190  1.00  0.00     0.004 C 
BRANCH  12  13
ATOM     13  C   UNL     1      11.036  17.385  24.680  1.00  0.00     0.000 C 
BRANCH  13  14
ATOM     14  C   UNL     1      12.442  16.848  24.352  1.00  0.00     0.000 C 
BRANCH  14  15
ATOM     15  C   UNL     1      13.399  17.953  23.877  1.00  0.00     0.001 C 
BRANCH  15  16
ATOM     16  C   UNL     1      14.750  17.924  24.613  1.00  0.00     0.012 C 
BRANCH  16  17
ATOM     17  C   UNL     1      15.086  16.527  25.152  1.00  0.00     0.123 C 
BRANCH  17  18
ATOM     18  C   UNL     1      15.300  16.542  26.634  1.00  0.00     0.305 C 
ATOM     19  O   UNL     1      15.054  17.590  27.293  1.00  0.00    -0.252 OA
BRANCH  18  20
ATOM     20  O   UNL     1      15.742  15.382  27.278  1.00  0.00    -0.469 OA
ATOM     21  C   UNL     1      16.787  15.394  28.243  1.00  0.00     0.282 C 
ENDBRANCH  18  20
ENDBRANCH  17  18
ENDBRANCH  16  17
ENDBRANCH  15  16
ENDBRANCH  14  15
ENDBRANCH  13  14
ENDBRANCH  12  13
ENDBRANCH   1  12
TORSDOF 15
ENDMDL
