MODEL 1
REMARK VINA RESULT:    -3.748      0.000      0.000
REMARK INTER + INTRA:          -3.858
REMARK INTER:                  -3.858
REMARK INTRA:                   0.000
REMARK UNBOUND:                 0.000
REMARK SMILES Nc1ncnc2nc[nH]c12
REMARK SMILES IDX 8 1 7 2 6 3 5 4 4 5 3 6 2 7 10 8 9 9 1 11
REMARK H PARENT 9 10 1 12 1 13
REMARK Flexibility Score: inf
ROOT
ATOM      1  C   UNL     1      18.234 -21.946 -11.771  1.00  0.00     0.199 A 
ATOM      2  N   UNL     1      17.502 -21.144 -12.591  1.00  0.00    -0.217 NA
ATOM      3  C   UNL     1      17.991 -21.453 -13.803  1.00  0.00     0.182 A 
ATOM      4  N   UNL     1      17.601 -20.928 -14.990  1.00  0.00    -0.215 NA
ATOM      5  C   UNL     1      18.221 -21.371 -16.125  1.00  0.00     0.226 A 
ATOM      6  N   UNL     1      19.208 -22.320 -16.055  1.00  0.00    -0.217 NA
ATOM      7  C   UNL     1      19.604 -22.850 -14.859  1.00  0.00     0.152 A 
ATOM      8  C   UNL     1      18.963 -22.390 -13.711  1.00  0.00     0.127 A 
ATOM      9  N   UNL     1      19.136 -22.720 -12.427  1.00  0.00    -0.340 N 
ATOM     10  H   UNL     1      19.803 -23.408 -12.013  1.00  0.00     0.168 HD
ENDROOT
BRANCH   7  11
ATOM     11  N   UNL     1      20.634 -23.837 -14.810  1.00  0.00    -0.382 N 
ATOM     12  H   UNL     1      20.538 -24.721 -15.359  1.00  0.00     0.158 HD
ATOM     13  H   UNL     1      21.493 -23.699 -14.234  1.00  0.00     0.158 HD
ENDBRANCH   7  11
TORSDOF 1
ENDMDL
MODEL 2
REMARK VINA RESULT:    -3.715     12.325     13.303
REMARK INTER + INTRA:          -3.824
REMARK INTER:                  -3.824
REMARK INTRA:                   0.000
REMARK UNBOUND:                 0.000
REMARK SMILES Nc1ncnc2nc[nH]c12
REMARK SMILES IDX 8 1 7 2 6 3 5 4 4 5 3 6 2 7 10 8 9 9 1 11
REMARK H PARENT 9 10 1 12 1 13
REMARK Flexibility Score: inf
ROOT
ATOM      1  C   UNL     1      28.409 -15.834 -18.958  1.00  0.00     0.199 A 
ATOM      2  N   UNL     1      27.116 -15.490 -18.708  1.00  0.00    -0.217 NA
ATOM      3  C   UNL     1      26.788 -14.795 -19.809  1.00  0.00     0.182 A 
ATOM      4  N   UNL     1      25.592 -14.217 -20.074  1.00  0.00    -0.215 NA
ATOM      5  C   UNL     1      25.447 -13.546 -21.256  1.00  0.00     0.226 A 
ATOM      6  N   UNL     1      26.490 -13.464 -22.143  1.00  0.00    -0.217 NA
ATOM      7  C   UNL     1      27.698 -14.045 -21.877  1.00  0.00     0.152 A 
ATOM      8  C   UNL     1      27.830 -14.726 -20.670  1.00  0.00     0.127 A 
ATOM      9  N   UNL     1      28.874 -15.380 -20.149  1.00  0.00    -0.340 N 
ATOM     10  H   UNL     1      29.827 -15.518 -20.554  1.00  0.00     0.168 HD
ENDROOT
BRANCH   7  11
ATOM     11  N   UNL     1      28.770 -13.947 -22.816  1.00  0.00    -0.382 N 
ATOM     12  H   UNL     1      28.976 -14.744 -23.460  1.00  0.00     0.158 HD
ATOM     13  H   UNL     1      29.362 -13.090 -22.878  1.00  0.00     0.158 HD
ENDBRANCH   7  11
TORSDOF 1
ENDMDL
MODEL 3
REMARK VINA RESULT:    -3.548      1.139      2.966
REMARK INTER + INTRA:          -3.652
REMARK INTER:                  -3.652
REMARK INTRA:                   0.000
REMARK UNBOUND:                 0.000
REMARK SMILES Nc1ncnc2nc[nH]c12
REMARK SMILES IDX 8 1 7 2 6 3 5 4 4 5 3 6 2 7 10 8 9 9 1 11
REMARK H PARENT 9 10 1 12 1 13
REMARK Flexibility Score: inf
ROOT
ATOM      1  C   UNL     1      20.318 -23.752 -15.183  1.00  0.00     0.199 A 
ATOM      2  N   UNL     1      19.854 -23.025 -16.236  1.00  0.00    -0.217 NA
ATOM      3  C   UNL     1      19.075 -22.113 -15.631  1.00  0.00     0.182 A 
ATOM      4  N   UNL     1      18.364 -21.131 -16.234  1.00  0.00    -0.215 NA
ATOM      5  C   UNL     1      17.624 -20.293 -15.446  1.00  0.00     0.226 A 
ATOM      6  N   UNL     1      17.609 -20.451 -14.084  1.00  0.00    -0.217 NA
ATOM      7  C   UNL     1      18.325 -21.443 -13.473  1.00  0.00     0.152 A 
ATOM      8  C   UNL     1      19.074 -22.287 -14.289  1.00  0.00     0.127 A 
ATOM      9  N   UNL     1      19.858 -23.325 -13.979  1.00  0.00    -0.340 N 
ATOM     10  H   UNL     1      20.075 -23.723 -13.039  1.00  0.00     0.168 HD
ENDROOT
BRANCH   7  11
ATOM     11  N   UNL     1      18.294 -21.588 -12.053  1.00  0.00    -0.382 N 
ATOM     12  H   UNL     1      18.228 -22.539 -11.626  1.00  0.00     0.158 HD
ATOM     13  H   UNL     1      18.337 -20.759 -11.421  1.00  0.00     0.158 HD
ENDBRANCH   7  11
TORSDOF 1
ENDMDL
MODEL 4
REMARK VINA RESULT:    -3.539     13.968     14.820
REMARK INTER + INTRA:          -3.642
REMARK INTER:                  -3.642
REMARK INTRA:                   0.000
REMARK UNBOUND:                 0.000
REMARK SMILES Nc1ncnc2nc[nH]c12
REMARK SMILES IDX 8 1 7 2 6 3 5 4 4 5 3 6 2 7 10 8 9 9 1 11
REMARK H PARENT 9 10 1 12 1 13
REMARK Flexibility Score: inf
ROOT
ATOM      1  C   UNL     1      28.925 -15.877 -18.422  1.00  0.00     0.199 A 
ATOM      2  N   UNL     1      29.357 -16.595 -17.350  1.00  0.00    -0.217 NA
ATOM      3  C   UNL     1      30.515 -15.987 -17.046  1.00  0.00     0.182 A 
ATOM      4  N   UNL     1      31.361 -16.315 -16.040  1.00  0.00    -0.215 NA
ATOM      5  C   UNL     1      32.499 -15.573 -15.887  1.00  0.00     0.226 A 
ATOM      6  N   UNL     1      32.768 -14.527 -16.733  1.00  0.00    -0.217 NA
ATOM      7  C   UNL     1      31.917 -14.195 -17.749  1.00  0.00     0.152 A 
ATOM      8  C   UNL     1      30.761 -14.959 -17.892  1.00  0.00     0.127 A 
ATOM      9  N   UNL     1      29.763 -14.870 -18.778  1.00  0.00    -0.340 N 
ATOM     10  H   UNL     1      29.643 -14.191 -19.561  1.00  0.00     0.168 HD
ENDROOT
BRANCH   7  11
ATOM     11  N   UNL     1      32.217 -13.102 -18.617  1.00  0.00    -0.382 N 
ATOM     12  H   UNL     1      32.643 -12.230 -18.231  1.00  0.00     0.158 HD
ATOM     13  H   UNL     1      32.022 -13.152 -19.641  1.00  0.00     0.158 HD
ENDBRANCH   7  11
TORSDOF 1
ENDMDL
MODEL 5
REMARK VINA RESULT:    -3.502      7.170      8.315
REMARK INTER + INTRA:          -3.604
REMARK INTER:                  -3.604
REMARK INTRA:                   0.000
REMARK UNBOUND:                 0.000
REMARK SMILES Nc1ncnc2nc[nH]c12
REMARK SMILES IDX 8 1 7 2 6 3 5 4 4 5 3 6 2 7 10 8 9 9 1 11
REMARK H PARENT 9 10 1 12 1 13
REMARK Flexibility Score: inf
ROOT
ATOM      1  C   UNL     1      19.299 -14.949 -15.166  1.00  0.00     0.199 A 
ATOM      2  N   UNL     1      18.528 -13.865 -14.881  1.00  0.00    -0.217 NA
ATOM      3  C   UNL     1      18.558 -13.840 -13.538  1.00  0.00     0.182 A 
ATOM      4  N   UNL     1      17.940 -12.943 -12.733  1.00  0.00    -0.215 NA
ATOM      5  C   UNL     1      18.087 -13.081 -11.381  1.00  0.00     0.226 A 
ATOM      6  N   UNL     1      18.842 -14.103 -10.863  1.00  0.00    -0.217 NA
ATOM      7  C   UNL     1      19.466 -15.010 -11.674  1.00  0.00     0.152 A 
ATOM      8  C   UNL     1      19.307 -14.855 -13.049  1.00  0.00     0.127 A 
ATOM      9  N   UNL     1      19.789 -15.576 -14.067  1.00  0.00    -0.340 N 
ATOM     10  H   UNL     1      20.400 -16.422 -14.037  1.00  0.00     0.168 HD
ENDROOT
BRANCH   7  11
ATOM     11  N   UNL     1      20.247 -16.065 -11.113  1.00  0.00    -0.382 N 
ATOM     12  H   UNL     1      20.742 -16.739 -11.739  1.00  0.00     0.158 HD
ATOM     13  H   UNL     1      20.339 -16.184 -10.080  1.00  0.00     0.158 HD
ENDBRANCH   7  11
TORSDOF 1
ENDMDL
MODEL 6
REMARK VINA RESULT:    -3.441     13.334     14.112
REMARK INTER + INTRA:          -3.542
REMARK INTER:                  -3.542
REMARK INTRA:                   0.000
REMARK UNBOUND:                 0.000
REMARK SMILES Nc1ncnc2nc[nH]c12
REMARK SMILES IDX 8 1 7 2 6 3 5 4 4 5 3 6 2 7 10 8 9 9 1 11
REMARK H PARENT 9 10 1 12 1 13
REMARK Flexibility Score: inf
ROOT
ATOM      1  C   UNL     1      28.557 -16.213 -18.156  1.00  0.00     0.199 A 
ATOM      2  N   UNL     1      29.178 -15.061 -18.529  1.00  0.00    -0.217 NA
ATOM      3  C   UNL     1      30.316 -15.107 -17.818  1.00  0.00     0.182 A 
ATOM      4  N   UNL     1      31.309 -14.185 -17.820  1.00  0.00    -0.215 NA
ATOM      5  C   UNL     1      32.398 -14.408 -17.024  1.00  0.00     0.226 A 
ATOM      6  N   UNL     1      32.475 -15.536 -16.248  1.00  0.00    -0.217 NA
ATOM      7  C   UNL     1      31.474 -16.467 -16.244  1.00  0.00     0.152 A 
ATOM      8  C   UNL     1      30.372 -16.227 -17.061  1.00  0.00     0.127 A 
ATOM      9  N   UNL     1      29.262 -16.947 -17.259  1.00  0.00    -0.340 N 
ATOM     10  H   UNL     1      28.991 -17.860 -16.831  1.00  0.00     0.168 HD
ENDROOT
BRANCH   7  11
ATOM     11  N   UNL     1      31.576 -17.635 -15.428  1.00  0.00    -0.382 N 
ATOM     12  H   UNL     1      30.974 -18.466 -15.627  1.00  0.00     0.158 HD
ATOM     13  H   UNL     1      32.244 -17.683 -14.629  1.00  0.00     0.158 HD
ENDBRANCH   7  11
TORSDOF 1
ENDMDL
MODEL 7
REMARK VINA RESULT:    -3.437      1.026      2.318
REMARK INTER + INTRA:          -3.538
REMARK INTER:                  -3.538
REMARK INTRA:                   0.000
REMARK UNBOUND:                 0.000
REMARK SMILES Nc1ncnc2nc[nH]c12
REMARK SMILES IDX 8 1 7 2 6 3 5 4 4 5 3 6 2 7 10 8 9 9 1 11
REMARK H PARENT 9 10 1 12 1 13
REMARK Flexibility Score: inf
ROOT
ATOM      1  C   UNL     1      17.174 -19.712 -14.073  1.00  0.00     0.199 A 
ATOM      2  N   UNL     1      17.535 -19.956 -15.362  1.00  0.00    -0.217 NA
ATOM      3  C   UNL     1      18.239 -21.094 -15.249  1.00  0.00     0.182 A 
ATOM      4  N   UNL     1      18.835 -21.780 -16.254  1.00  0.00    -0.215 NA
ATOM      5  C   UNL     1      19.512 -22.925 -15.942  1.00  0.00     0.226 A 
ATOM      6  N   UNL     1      19.582 -23.361 -14.643  1.00  0.00    -0.217 NA
ATOM      7  C   UNL     1      18.982 -22.671 -13.627  1.00  0.00     0.152 A 
ATOM      8  C   UNL     1      18.296 -21.507 -13.961  1.00  0.00     0.127 A 
ATOM      9  N   UNL     1      17.624 -20.641 -13.193  1.00  0.00    -0.340 N 
ATOM     10  H   UNL     1      17.474 -20.665 -12.160  1.00  0.00     0.168 HD
ENDROOT
BRANCH   7  11
ATOM     11  N   UNL     1      19.067 -23.144 -12.282  1.00  0.00    -0.382 N 
ATOM     12  H   UNL     1      19.876 -23.735 -11.986  1.00  0.00     0.158 HD
ATOM     13  H   UNL     1      18.334 -22.912 -11.577  1.00  0.00     0.158 HD
ENDBRANCH   7  11
TORSDOF 1
ENDMDL
MODEL 8
REMARK VINA RESULT:    -3.429      1.246      3.704
REMARK INTER + INTRA:          -3.529
REMARK INTER:                  -3.529
REMARK INTRA:                   0.000
REMARK UNBOUND:                 0.000
REMARK SMILES Nc1ncnc2nc[nH]c12
REMARK SMILES IDX 8 1 7 2 6 3 5 4 4 5 3 6 2 7 10 8 9 9 1 11
REMARK H PARENT 9 10 1 12 1 13
REMARK Flexibility Score: inf
ROOT
ATOM      1  C   UNL     1      20.130 -23.112 -15.301  1.00  0.00     0.199 A 
ATOM      2  N   UNL     1      19.827 -24.060 -14.373  1.00  0.00    -0.217 NA
ATOM      3  C   UNL     1      18.965 -23.411 -13.574  1.00  0.00     0.182 A 
ATOM      4  N   UNL     1      18.349 -23.909 -12.475  1.00  0.00    -0.215 NA
ATOM      5  C   UNL     1      17.500 -23.090 -11.784  1.00  0.00     0.226 A 
ATOM      6  N   UNL     1      17.283 -21.801 -12.200  1.00  0.00    -0.217 NA
ATOM      7  C   UNL     1      17.904 -21.296 -13.308  1.00  0.00     0.152 A 
ATOM      8  C   UNL     1      18.765 -22.143 -14.001  1.00  0.00     0.127 A 
ATOM      9  N   UNL     1      19.498 -21.928 -15.100  1.00  0.00    -0.340 N 
ATOM     10  H   UNL     1      19.573 -21.061 -15.677  1.00  0.00     0.168 HD
ENDROOT
BRANCH   7  11
ATOM     11  N   UNL     1      17.662 -19.951 -13.722  1.00  0.00    -0.382 N 
ATOM     12  H   UNL     1      17.811 -19.677 -14.719  1.00  0.00     0.158 HD
ATOM     13  H   UNL     1      17.337 -19.225 -13.048  1.00  0.00     0.158 HD
ENDBRANCH   7  11
TORSDOF 1
ENDMDL
MODEL 9
REMARK VINA RESULT:    -3.391     10.750     12.338
REMARK INTER + INTRA:          -3.490
REMARK INTER:                  -3.490
REMARK INTRA:                   0.000
REMARK UNBOUND:                 0.000
REMARK SMILES Nc1ncnc2nc[nH]c12
REMARK SMILES IDX 8 1 7 2 6 3 5 4 4 5 3 6 2 7 10 8 9 9 1 11
REMARK H PARENT 9 10 1 12 1 13
REMARK Flexibility Score: inf
ROOT
ATOM      1  C   UNL     1      22.672 -32.270 -22.365  1.00  0.00     0.199 A 
ATOM      2  N   UNL     1      23.097 -31.401 -23.322  1.00  0.00    -0.217 NA
ATOM      3  C   UNL     1      22.267 -30.360 -23.149  1.00  0.00     0.182 A 
ATOM      4  N   UNL     1      22.260 -29.205 -23.858  1.00  0.00    -0.215 NA
ATOM      5  C   UNL     1      21.333 -28.254 -23.534  1.00  0.00     0.226 A 
ATOM      6  N   UNL     1      20.439 -28.472 -22.517  1.00  0.00    -0.217 NA
ATOM      7  C   UNL     1      20.443 -29.636 -21.801  1.00  0.00     0.152 A 
ATOM      8  C   UNL     1      21.394 -30.594 -22.143  1.00  0.00     0.127 A 
ATOM      9  N   UNL     1      21.632 -31.806 -21.627  1.00  0.00    -0.340 N 
ATOM     10  H   UNL     1      21.142 -32.291 -20.843  1.00  0.00     0.168 HD
ENDROOT
BRANCH   7  11
ATOM     11  N   UNL     1      19.502 -29.840 -20.746  1.00  0.00    -0.382 N 
ATOM     12  H   UNL     1      18.987 -29.027 -20.340  1.00  0.00     0.158 HD
ATOM     13  H   UNL     1      19.311 -30.792 -20.365  1.00  0.00     0.158 HD
ENDBRANCH   7  11
TORSDOF 1
ENDMDL
