MODEL 1
REMARK VINA RESULT:    -6.435      0.000      0.000
REMARK INTER + INTRA:          -7.680
REMARK INTER:                  -7.564
REMARK INTRA:                  -0.116
REMARK UNBOUND:                -0.116
REMARK SMILES O=c1c(O)c(-c2ccc(O)cc2)oc2cc(O)cc(O)c12
REMARK SMILES IDX 5 1 3 2 2 3 1 4 21 5 19 6 18 7 16 8 15 9 14 10 13 11 6 12
REMARK SMILES IDX 7 13 8 14 9 15 12 16 11 17 10 18 4 20 20 22 17 24
REMARK H PARENT 10 19 4 21 20 23 17 25
REMARK Flexibility Score: inf
ROOT
ATOM      1  C   UNL     1     -35.361  -5.634   6.244  1.00  0.00     0.180 A 
ATOM      2  C   UNL     1     -35.626  -6.944   6.678  1.00  0.00     0.208 A 
ATOM      3  C   UNL     1     -35.348  -8.015   5.814  1.00  0.00     0.238 A 
ATOM      4  O   UNL     1     -35.517  -9.190   6.236  1.00  0.00    -0.285 OA
ATOM      5  C   UNL     1     -34.862  -7.763   4.509  1.00  0.00     0.111 A 
ATOM      6  C   UNL     1     -34.588  -8.769   3.534  1.00  0.00     0.134 A 
ATOM      7  C   UNL     1     -34.009  -8.407   2.311  1.00  0.00     0.093 A 
ATOM      8  C   UNL     1     -33.753  -7.072   2.002  1.00  0.00     0.123 A 
ATOM      9  C   UNL     1     -34.069  -6.075   2.925  1.00  0.00     0.094 A 
ATOM     10  C   UNL     1     -34.611  -6.407   4.169  1.00  0.00     0.146 A 
ATOM     11  O   UNL     1     -34.875  -5.429   5.026  1.00  0.00    -0.452 OA
ENDROOT
BRANCH   1  12
ATOM     12  C   UNL     1     -35.615  -4.453   7.102  1.00  0.00     0.021 A 
ATOM     13  C   UNL     1     -36.913  -4.128   7.535  1.00  0.00     0.016 A 
ATOM     14  C   UNL     1     -37.125  -3.021   8.364  1.00  0.00     0.047 A 
ATOM     15  C   UNL     1     -36.042  -2.237   8.781  1.00  0.00     0.115 A 
ATOM     16  C   UNL     1     -34.532  -3.673   7.542  1.00  0.00     0.016 A 
ATOM     17  C   UNL     1     -34.748  -2.568   8.372  1.00  0.00     0.047 A 
BRANCH  15  18
ATOM     18  O   UNL     1     -36.241  -1.133   9.607  1.00  0.00    -0.508 OA
ATOM     19  H   UNL     1     -36.794  -1.198  10.455  1.00  0.00     0.293 HD
ENDBRANCH  15  18
ENDBRANCH   1  12
BRANCH   2  20
ATOM     20  O   UNL     1     -36.178  -7.169   7.942  1.00  0.00    -0.502 OA
ATOM     21  H   UNL     1     -36.896  -7.864   8.106  1.00  0.00     0.293 HD
ENDBRANCH   2  20
BRANCH   6  22
ATOM     22  O   UNL     1     -34.886 -10.125   3.703  1.00  0.00    -0.507 OA
ATOM     23  H   UNL     1     -34.448 -10.733   4.378  1.00  0.00     0.293 HD
ENDBRANCH   6  22
BRANCH   8  24
ATOM     24  O   UNL     1     -33.193  -6.748   0.768  1.00  0.00    -0.508 OA
ATOM     25  H   UNL     1     -33.033  -7.451   0.057  1.00  0.00     0.293 HD
ENDBRANCH   8  24
TORSDOF 5
ENDMDL
MODEL 2
REMARK VINA RESULT:    -6.250      2.593      7.496
REMARK INTER + INTRA:          -7.462
REMARK INTER:                  -7.201
REMARK INTRA:                  -0.261
REMARK UNBOUND:                -0.116
REMARK SMILES O=c1c(O)c(-c2ccc(O)cc2)oc2cc(O)cc(O)c12
REMARK SMILES IDX 5 1 3 2 2 3 1 4 21 5 19 6 18 7 16 8 15 9 14 10 13 11 6 12
REMARK SMILES IDX 7 13 8 14 9 15 12 16 11 17 10 18 4 20 20 22 17 24
REMARK H PARENT 10 19 4 21 20 23 17 25
REMARK Flexibility Score: inf
ROOT
ATOM      1  C   UNL     1     -34.527  -8.053   2.953  1.00  0.00     0.180 A 
ATOM      2  C   UNL     1     -34.284  -6.715   3.309  1.00  0.00     0.208 A 
ATOM      3  C   UNL     1     -34.604  -6.288   4.607  1.00  0.00     0.238 A 
ATOM      4  O   UNL     1     -34.315  -5.109   4.943  1.00  0.00    -0.285 OA
ATOM      5  C   UNL     1     -35.215  -7.185   5.516  1.00  0.00     0.111 A 
ATOM      6  C   UNL     1     -35.623  -6.848   6.843  1.00  0.00     0.134 A 
ATOM      7  C   UNL     1     -36.119  -7.848   7.688  1.00  0.00     0.093 A 
ATOM      8  C   UNL     1     -36.283  -9.157   7.237  1.00  0.00     0.123 A 
ATOM      9  C   UNL     1     -35.940  -9.486   5.926  1.00  0.00     0.094 A 
ATOM     10  C   UNL     1     -35.406  -8.519   5.070  1.00  0.00     0.146 A 
ATOM     11  O   UNL     1     -35.072  -8.881   3.838  1.00  0.00    -0.452 OA
ENDROOT
BRANCH   1  12
ATOM     12  C   UNL     1     -34.205  -8.583   1.608  1.00  0.00     0.021 A 
ATOM     13  C   UNL     1     -33.054  -9.360   1.384  1.00  0.00     0.016 A 
ATOM     14  C   UNL     1     -32.783  -9.870   0.110  1.00  0.00     0.047 A 
ATOM     15  C   UNL     1     -33.666  -9.622  -0.949  1.00  0.00     0.115 A 
ATOM     16  C   UNL     1     -35.095  -8.357   0.545  1.00  0.00     0.016 A 
ATOM     17  C   UNL     1     -34.822  -8.869  -0.727  1.00  0.00     0.047 A 
BRANCH  15  18
ATOM     18  O   UNL     1     -33.406 -10.125  -2.222  1.00  0.00    -0.508 OA
ATOM     19  H   UNL     1     -34.145 -10.235  -2.909  1.00  0.00     0.293 HD
ENDBRANCH  15  18
ENDBRANCH   1  12
BRANCH   2  20
ATOM     20  O   UNL     1     -33.752  -5.824   2.373  1.00  0.00    -0.502 OA
ATOM     21  H   UNL     1     -32.881  -5.331   2.527  1.00  0.00     0.293 HD
ENDBRANCH   2  20
BRANCH   6  22
ATOM     22  O   UNL     1     -35.586  -5.552   7.367  1.00  0.00    -0.507 OA
ATOM     23  H   UNL     1     -34.780  -4.947   7.356  1.00  0.00     0.293 HD
ENDBRANCH   6  22
BRANCH   8  24
ATOM     24  O   UNL     1     -36.797 -10.122   8.101  1.00  0.00    -0.508 OA
ATOM     25  H   UNL     1     -37.734 -10.051   8.478  1.00  0.00     0.293 HD
ENDBRANCH   8  24
TORSDOF 5
ENDMDL
MODEL 3
REMARK VINA RESULT:    -6.151      1.758      6.847
REMARK INTER + INTRA:          -7.345
REMARK INTER:                  -7.076
REMARK INTRA:                  -0.269
REMARK UNBOUND:                -0.116
REMARK SMILES O=c1c(O)c(-c2ccc(O)cc2)oc2cc(O)cc(O)c12
REMARK SMILES IDX 5 1 3 2 2 3 1 4 21 5 19 6 18 7 16 8 15 9 14 10 13 11 6 12
REMARK SMILES IDX 7 13 8 14 9 15 12 16 11 17 10 18 4 20 20 22 17 24
REMARK H PARENT 10 19 4 21 20 23 17 25
REMARK Flexibility Score: inf
ROOT
ATOM      1  C   UNL     1     -34.651  -7.887   3.640  1.00  0.00     0.180 A 
ATOM      2  C   UNL     1     -35.274  -8.757   4.550  1.00  0.00     0.208 A 
ATOM      3  C   UNL     1     -35.790  -8.234   5.746  1.00  0.00     0.238 A 
ATOM      4  O   UNL     1     -36.413  -9.006   6.523  1.00  0.00    -0.285 OA
ATOM      5  C   UNL     1     -35.629  -6.860   6.045  1.00  0.00     0.111 A 
ATOM      6  C   UNL     1     -36.073  -6.231   7.247  1.00  0.00     0.134 A 
ATOM      7  C   UNL     1     -35.953  -4.843   7.386  1.00  0.00     0.093 A 
ATOM      8  C   UNL     1     -35.348  -4.069   6.396  1.00  0.00     0.123 A 
ATOM      9  C   UNL     1     -34.860  -4.681   5.241  1.00  0.00     0.094 A 
ATOM     10  C   UNL     1     -35.000  -6.058   5.056  1.00  0.00     0.146 A 
ATOM     11  O   UNL     1     -34.542  -6.596   3.932  1.00  0.00    -0.452 OA
ENDROOT
BRANCH   1  12
ATOM     12  C   UNL     1     -34.093  -8.359   2.352  1.00  0.00     0.021 A 
ATOM     13  C   UNL     1     -32.828  -8.971   2.282  1.00  0.00     0.016 A 
ATOM     14  C   UNL     1     -32.333  -9.431   1.058  1.00  0.00     0.047 A 
ATOM     15  C   UNL     1     -33.101  -9.300  -0.107  1.00  0.00     0.115 A 
ATOM     16  C   UNL     1     -34.865  -8.251   1.183  1.00  0.00     0.016 A 
ATOM     17  C   UNL     1     -34.367  -8.712  -0.039  1.00  0.00     0.047 A 
BRANCH  15  18
ATOM     18  O   UNL     1     -32.618  -9.754  -1.332  1.00  0.00    -0.508 OA
ATOM     19  H   UNL     1     -31.799 -10.350  -1.390  1.00  0.00     0.293 HD
ENDBRANCH  15  18
ENDBRANCH   1  12
BRANCH   2  20
ATOM     20  O   UNL     1     -35.355 -10.125   4.273  1.00  0.00    -0.502 OA
ATOM     21  H   UNL     1     -36.123 -10.528   3.751  1.00  0.00     0.293 HD
ENDBRANCH   2  20
BRANCH   6  22
ATOM     22  O   UNL     1     -36.611  -6.920   8.338  1.00  0.00    -0.507 OA
ATOM     23  H   UNL     1     -37.593  -6.974   8.560  1.00  0.00     0.293 HD
ENDBRANCH   6  22
BRANCH   8  24
ATOM     24  O   UNL     1     -35.230  -2.693   6.575  1.00  0.00    -0.508 OA
ATOM     25  H   UNL     1     -35.237  -2.053   5.790  1.00  0.00     0.293 HD
ENDBRANCH   8  24
TORSDOF 5
ENDMDL
MODEL 4
REMARK VINA RESULT:    -5.997      3.081      5.532
REMARK INTER + INTRA:          -7.165
REMARK INTER:                  -6.932
REMARK INTRA:                  -0.233
REMARK UNBOUND:                -0.116
REMARK SMILES O=c1c(O)c(-c2ccc(O)cc2)oc2cc(O)cc(O)c12
REMARK SMILES IDX 5 1 3 2 2 3 1 4 21 5 19 6 18 7 16 8 15 9 14 10 13 11 6 12
REMARK SMILES IDX 7 13 8 14 9 15 12 16 11 17 10 18 4 20 20 22 17 24
REMARK H PARENT 10 19 4 21 20 23 17 25
REMARK Flexibility Score: inf
ROOT
ATOM      1  C   UNL     1     -34.525  -8.122   2.050  1.00  0.00     0.180 A 
ATOM      2  C   UNL     1     -33.341  -8.805   1.724  1.00  0.00     0.208 A 
ATOM      3  C   UNL     1     -33.125  -9.194   0.392  1.00  0.00     0.238 A 
ATOM      4  O   UNL     1     -32.030  -9.739   0.093  1.00  0.00    -0.285 OA
ATOM      5  C   UNL     1     -34.118  -8.946  -0.586  1.00  0.00     0.111 A 
ATOM      6  C   UNL     1     -34.025  -9.335  -1.957  1.00  0.00     0.134 A 
ATOM      7  C   UNL     1     -35.023  -8.942  -2.856  1.00  0.00     0.093 A 
ATOM      8  C   UNL     1     -36.141  -8.229  -2.426  1.00  0.00     0.123 A 
ATOM      9  C   UNL     1     -36.270  -7.891  -1.079  1.00  0.00     0.094 A 
ATOM     10  C   UNL     1     -35.272  -8.236  -0.164  1.00  0.00     0.146 A 
ATOM     11  O   UNL     1     -35.424  -7.874   1.105  1.00  0.00    -0.452 OA
ENDROOT
BRANCH   1  12
ATOM     12  C   UNL     1     -34.819  -7.667   3.429  1.00  0.00     0.021 A 
ATOM     13  C   UNL     1     -35.224  -8.572   4.427  1.00  0.00     0.016 A 
ATOM     14  C   UNL     1     -35.472  -8.123   5.728  1.00  0.00     0.047 A 
ATOM     15  C   UNL     1     -35.306  -6.769   6.050  1.00  0.00     0.115 A 
ATOM     16  C   UNL     1     -34.635  -6.316   3.764  1.00  0.00     0.016 A 
ATOM     17  C   UNL     1     -34.884  -5.870   5.067  1.00  0.00     0.047 A 
BRANCH  15  18
ATOM     18  O   UNL     1     -35.551  -6.311   7.342  1.00  0.00    -0.508 OA
ATOM     19  H   UNL     1     -34.822  -5.873   7.896  1.00  0.00     0.293 HD
ENDBRANCH  15  18
ENDBRANCH   1  12
BRANCH   2  20
ATOM     20  O   UNL     1     -32.407  -9.109   2.718  1.00  0.00    -0.502 OA
ATOM     21  H   UNL     1     -31.442  -8.808   2.667  1.00  0.00     0.293 HD
ENDBRANCH   2  20
BRANCH   6  22
ATOM     22  O   UNL     1     -32.995 -10.125  -2.478  1.00  0.00    -0.507 OA
ATOM     23  H   UNL     1     -33.080 -10.730  -3.280  1.00  0.00     0.293 HD
ENDBRANCH   6  22
BRANCH   8  24
ATOM     24  O   UNL     1     -37.123  -7.869  -3.346  1.00  0.00    -0.508 OA
ATOM     25  H   UNL     1     -38.015  -7.492  -3.049  1.00  0.00     0.293 HD
ENDBRANCH   8  24
TORSDOF 5
ENDMDL
MODEL 5
REMARK VINA RESULT:    -4.590      2.796      4.559
REMARK INTER + INTRA:          -5.511
REMARK INTER:                  -5.491
REMARK INTRA:                  -0.020
REMARK UNBOUND:                -0.116
REMARK SMILES O=c1c(O)c(-c2ccc(O)cc2)oc2cc(O)cc(O)c12
REMARK SMILES IDX 5 1 3 2 2 3 1 4 21 5 19 6 18 7 16 8 15 9 14 10 13 11 6 12
REMARK SMILES IDX 7 13 8 14 9 15 12 16 11 17 10 18 4 20 20 22 17 24
REMARK H PARENT 10 19 4 21 20 23 17 25
REMARK Flexibility Score: inf
ROOT
ATOM      1  C   UNL     1     -35.087  -8.091   5.984  1.00  0.00     0.180 A 
ATOM      2  C   UNL     1     -34.877  -6.715   5.795  1.00  0.00     0.208 A 
ATOM      3  C   UNL     1     -34.477  -6.256   4.529  1.00  0.00     0.238 A 
ATOM      4  O   UNL     1     -34.363  -5.015   4.345  1.00  0.00    -0.285 OA
ATOM      5  C   UNL     1     -34.238  -7.182   3.485  1.00  0.00     0.111 A 
ATOM      6  C   UNL     1     -33.788  -6.833   2.176  1.00  0.00     0.134 A 
ATOM      7  C   UNL     1     -33.688  -7.825   1.192  1.00  0.00     0.093 A 
ATOM      8  C   UNL     1     -33.960  -9.161   1.485  1.00  0.00     0.123 A 
ATOM      9  C   UNL     1     -34.348  -9.521   2.776  1.00  0.00     0.094 A 
ATOM     10  C   UNL     1     -34.494  -8.549   3.769  1.00  0.00     0.146 A 
ATOM     11  O   UNL     1     -34.886  -8.933   4.978  1.00  0.00    -0.452 OA
ENDROOT
BRANCH   1  12
ATOM     12  C   UNL     1     -35.522  -8.650   7.285  1.00  0.00     0.021 A 
ATOM     13  C   UNL     1     -34.755  -9.619   7.958  1.00  0.00     0.016 A 
ATOM     14  C   UNL     1     -35.174 -10.115   9.197  1.00  0.00     0.047 A 
ATOM     15  C   UNL     1     -36.353  -9.638   9.784  1.00  0.00     0.115 A 
ATOM     16  C   UNL     1     -36.692  -8.162   7.891  1.00  0.00     0.016 A 
ATOM     17  C   UNL     1     -37.107  -8.660   9.130  1.00  0.00     0.047 A 
BRANCH  15  18
ATOM     18  O   UNL     1     -36.780 -10.125  11.018  1.00  0.00    -0.508 OA
ATOM     19  H   UNL     1     -37.712 -10.504  11.144  1.00  0.00     0.293 HD
ENDBRANCH  15  18
ENDBRANCH   1  12
BRANCH   2  20
ATOM     20  O   UNL     1     -35.043  -5.824   6.858  1.00  0.00    -0.502 OA
ATOM     21  H   UNL     1     -35.777  -5.126   6.873  1.00  0.00     0.293 HD
ENDBRANCH   2  20
BRANCH   6  22
ATOM     22  O   UNL     1     -33.403  -5.543   1.798  1.00  0.00    -0.507 OA
ATOM     23  H   UNL     1     -33.874  -4.979   1.108  1.00  0.00     0.293 HD
ENDBRANCH   6  22
BRANCH   8  24
ATOM     24  O   UNL     1     -33.834 -10.124   0.486  1.00  0.00    -0.508 OA
ATOM     25  H   UNL     1     -33.331 -10.989   0.644  1.00  0.00     0.293 HD
ENDBRANCH   8  24
TORSDOF 5
ENDMDL
