MODEL 1
REMARK VINA RESULT:    -5.347      0.000      0.000
REMARK INTER + INTRA:          -5.756
REMARK INTER:                  -5.659
REMARK INTRA:                  -0.096
REMARK UNBOUND:                -0.096
REMARK SMILES C=C(C)[C@H]1CC=C(C)C(=O)C1
REMARK SMILES IDX 8 1 7 2 6 3 5 4 4 5 11 6 9 7 10 8 2 9 1 10 3 11
REMARK H PARENT
REMARK Flexibility Score: inf
ROOT
ATOM      1  C   UNL     1      17.626  28.188 -14.726  1.00  0.00     0.048 C 
ATOM      2  C   UNL     1      18.540  28.153 -13.533  1.00  0.00    -0.012 C 
ATOM      3  C   UNL     1      19.679  28.868 -13.533  1.00  0.00    -0.019 C 
ATOM      4  C   UNL     1      20.664  28.803 -12.396  1.00  0.00     0.036 C 
ATOM      5  C   UNL     1      19.952  28.519 -11.059  1.00  0.00     0.025 C 
ATOM      6  C   UNL     1      19.100  27.241 -11.167  1.00  0.00     0.089 C 
ATOM      7  C   UNL     1      18.191  27.308 -12.364  1.00  0.00     0.158 C 
ATOM      8  O   UNL     1      17.148  26.601 -12.384  1.00  0.00    -0.295 OA
ENDROOT
BRANCH   5   9
ATOM      9  C   UNL     1      20.941  28.440  -9.902  1.00  0.00    -0.077 C 
ATOM     10  C   UNL     1      22.188  28.929 -10.014  1.00  0.00     0.008 C 
ATOM     11  C   UNL     1      20.530  27.802  -8.601  1.00  0.00     0.039 C 
ENDBRANCH   5   9
TORSDOF 1
ENDMDL
MODEL 2
REMARK VINA RESULT:    -5.155     13.518     15.456
REMARK INTER + INTRA:          -5.552
REMARK INTER:                  -5.456
REMARK INTRA:                  -0.096
REMARK UNBOUND:                -0.096
REMARK SMILES C=C(C)[C@H]1CC=C(C)C(=O)C1
REMARK SMILES IDX 8 1 7 2 6 3 5 4 4 5 11 6 9 7 10 8 2 9 1 10 3 11
REMARK H PARENT
REMARK Flexibility Score: inf
ROOT
ATOM      1  C   UNL     1      35.812  31.506 -14.719  1.00  0.00     0.048 C 
ATOM      2  C   UNL     1      35.061  31.331 -13.428  1.00  0.00    -0.012 C 
ATOM      3  C   UNL     1      33.884  30.680 -13.413  1.00  0.00    -0.019 C 
ATOM      4  C   UNL     1      33.058  30.549 -12.162  1.00  0.00     0.036 C 
ATOM      5  C   UNL     1      33.952  30.519 -10.906  1.00  0.00     0.025 C 
ATOM      6  C   UNL     1      34.870  31.755 -10.873  1.00  0.00     0.089 C 
ATOM      7  C   UNL     1      35.613  31.899 -12.174  1.00  0.00     0.158 C 
ATOM      8  O   UNL     1      36.692  32.550 -12.195  1.00  0.00    -0.295 OA
ENDROOT
BRANCH   5   9
ATOM      9  C   UNL     1      33.126  30.399  -9.632  1.00  0.00    -0.077 C 
ATOM     10  C   UNL     1      31.843  29.997  -9.665  1.00  0.00     0.008 C 
ATOM     11  C   UNL     1      33.742  30.732  -8.298  1.00  0.00     0.039 C 
ENDBRANCH   5   9
TORSDOF 1
ENDMDL
MODEL 3
REMARK VINA RESULT:    -4.963      1.624      4.240
REMARK INTER + INTRA:          -5.349
REMARK INTER:                  -5.254
REMARK INTRA:                  -0.095
REMARK UNBOUND:                -0.096
REMARK SMILES C=C(C)[C@H]1CC=C(C)C(=O)C1
REMARK SMILES IDX 8 1 7 2 6 3 5 4 4 5 11 6 9 7 10 8 2 9 1 10 3 11
REMARK H PARENT
REMARK Flexibility Score: inf
ROOT
ATOM      1  C   UNL     1      22.388  28.855  -9.749  1.00  0.00     0.048 C 
ATOM      2  C   UNL     1      21.205  28.647 -10.653  1.00  0.00    -0.012 C 
ATOM      3  C   UNL     1      21.086  29.361 -11.786  1.00  0.00    -0.019 C 
ATOM      4  C   UNL     1      19.881  29.246 -12.681  1.00  0.00     0.036 C 
ATOM      5  C   UNL     1      19.272  27.831 -12.614  1.00  0.00     0.025 C 
ATOM      6  C   UNL     1      18.953  27.455 -11.155  1.00  0.00     0.089 C 
ATOM      7  C   UNL     1      20.157  27.666 -10.277  1.00  0.00     0.158 C 
ATOM      8  O   UNL     1      20.244  27.032  -9.191  1.00  0.00    -0.295 OA
ENDROOT
BRANCH   5   9
ATOM      9  C   UNL     1      18.044  27.706 -13.507  1.00  0.00    -0.077 C 
ATOM     10  C   UNL     1      17.930  28.417 -14.643  1.00  0.00     0.008 C 
ATOM     11  C   UNL     1      16.926  26.771 -13.127  1.00  0.00     0.039 C 
ENDBRANCH   5   9
TORSDOF 1
ENDMDL
MODEL 4
REMARK VINA RESULT:    -4.952     13.325     15.609
REMARK INTER + INTRA:          -5.337
REMARK INTER:                  -5.242
REMARK INTRA:                  -0.095
REMARK UNBOUND:                -0.096
REMARK SMILES C=C(C)[C@H]1CC=C(C)C(=O)C1
REMARK SMILES IDX 8 1 7 2 6 3 5 4 4 5 11 6 9 7 10 8 2 9 1 10 3 11
REMARK H PARENT
REMARK Flexibility Score: inf
ROOT
ATOM      1  C   UNL     1      31.960  29.984  -9.543  1.00  0.00     0.048 C 
ATOM      2  C   UNL     1      32.984  30.343 -10.583  1.00  0.00    -0.012 C 
ATOM      3  C   UNL     1      32.924  29.795 -11.809  1.00  0.00    -0.019 C 
ATOM      4  C   UNL     1      33.971  30.061 -12.858  1.00  0.00     0.036 C 
ATOM      5  C   UNL     1      34.580  31.468 -12.690  1.00  0.00     0.025 C 
ATOM      6  C   UNL     1      35.125  31.647 -11.261  1.00  0.00     0.089 C 
ATOM      7  C   UNL     1      34.077  31.288 -10.244  1.00  0.00     0.158 C 
ATOM      8  O   UNL     1      34.162  31.765  -9.080  1.00  0.00    -0.295 OA
ENDROOT
BRANCH   5   9
ATOM      9  C   UNL     1      35.649  31.745 -13.739  1.00  0.00    -0.077 C 
ATOM     10  C   UNL     1      35.614  31.154 -14.946  1.00  0.00     0.008 C 
ATOM     11  C   UNL     1      36.776  32.697 -13.435  1.00  0.00     0.039 C 
ENDBRANCH   5   9
TORSDOF 1
ENDMDL
MODEL 5
REMARK VINA RESULT:    -4.950      2.142      4.635
REMARK INTER + INTRA:          -5.335
REMARK INTER:                  -5.237
REMARK INTRA:                  -0.098
REMARK UNBOUND:                -0.096
REMARK SMILES C=C(C)[C@H]1CC=C(C)C(=O)C1
REMARK SMILES IDX 8 1 7 2 6 3 5 4 4 5 11 6 9 7 10 8 2 9 1 10 3 11
REMARK H PARENT
REMARK Flexibility Score: inf
ROOT
ATOM      1  C   UNL     1      22.672  29.615 -10.530  1.00  0.00     0.048 C 
ATOM      2  C   UNL     1      21.529  29.038 -11.318  1.00  0.00    -0.012 C 
ATOM      3  C   UNL     1      20.503  28.443 -10.684  1.00  0.00    -0.019 C 
ATOM      4  C   UNL     1      19.377  27.780 -11.432  1.00  0.00     0.036 C 
ATOM      5  C   UNL     1      19.128  28.470 -12.788  1.00  0.00     0.025 C 
ATOM      6  C   UNL     1      20.429  28.516 -13.611  1.00  0.00     0.089 C 
ATOM      7  C   UNL     1      21.550  29.105 -12.800  1.00  0.00     0.158 C 
ATOM      8  O   UNL     1      22.535  29.619 -13.396  1.00  0.00    -0.295 OA
ENDROOT
BRANCH   5   9
ATOM      9  C   UNL     1      17.998  27.800 -13.559  1.00  0.00    -0.077 C 
ATOM     10  C   UNL     1      17.758  28.099 -14.848  1.00  0.00     0.008 C 
ATOM     11  C   UNL     1      17.121  26.780 -12.881  1.00  0.00     0.039 C 
ENDBRANCH   5   9
TORSDOF 1
ENDMDL
MODEL 6
REMARK VINA RESULT:    -4.941      5.263      6.789
REMARK INTER + INTRA:          -5.326
REMARK INTER:                  -5.233
REMARK INTRA:                  -0.093
REMARK UNBOUND:                -0.096
REMARK SMILES C=C(C)[C@H]1CC=C(C)C(=O)C1
REMARK SMILES IDX 8 1 7 2 6 3 5 4 4 5 11 6 9 7 10 8 2 9 1 10 3 11
REMARK H PARENT
REMARK Flexibility Score: inf
ROOT
ATOM      1  C   UNL     1      25.228  29.651 -18.397  1.00  0.00     0.048 C 
ATOM      2  C   UNL     1      23.995  29.096 -17.741  1.00  0.00    -0.012 C 
ATOM      3  C   UNL     1      24.088  28.047 -16.904  1.00  0.00    -0.019 C 
ATOM      4  C   UNL     1      22.873  27.406 -16.287  1.00  0.00     0.036 C 
ATOM      5  C   UNL     1      21.745  28.436 -16.082  1.00  0.00     0.025 C 
ATOM      6  C   UNL     1      21.420  29.145 -17.410  1.00  0.00     0.089 C 
ATOM      7  C   UNL     1      22.671  29.696 -18.038  1.00  0.00     0.158 C 
ATOM      8  O   UNL     1      22.578  30.648 -18.859  1.00  0.00    -0.295 OA
ENDROOT
BRANCH   5   9
ATOM      9  C   UNL     1      20.506  27.797 -15.468  1.00  0.00    -0.077 C 
ATOM     10  C   UNL     1      19.841  26.813 -16.099  1.00  0.00     0.008 C 
ATOM     11  C   UNL     1      20.000  28.265 -14.128  1.00  0.00     0.039 C 
ENDBRANCH   5   9
TORSDOF 1
ENDMDL
MODEL 7
REMARK VINA RESULT:    -4.911      5.476      7.711
REMARK INTER + INTRA:          -5.294
REMARK INTER:                  -5.200
REMARK INTRA:                  -0.094
REMARK UNBOUND:                -0.096
REMARK SMILES C=C(C)[C@H]1CC=C(C)C(=O)C1
REMARK SMILES IDX 8 1 7 2 6 3 5 4 4 5 11 6 9 7 10 8 2 9 1 10 3 11
REMARK H PARENT
REMARK Flexibility Score: inf
ROOT
ATOM      1  C   UNL     1      22.699  29.078 -14.300  1.00  0.00     0.048 C 
ATOM      2  C   UNL     1      22.435  29.222 -15.772  1.00  0.00    -0.012 C 
ATOM      3  C   UNL     1      23.153  30.091 -16.506  1.00  0.00    -0.019 C 
ATOM      4  C   UNL     1      22.871  30.329 -17.966  1.00  0.00     0.036 C 
ATOM      5  C   UNL     1      22.306  29.062 -18.637  1.00  0.00     0.025 C 
ATOM      6  C   UNL     1      21.063  28.562 -17.876  1.00  0.00     0.089 C 
ATOM      7  C   UNL     1      21.361  28.420 -16.408  1.00  0.00     0.158 C 
ATOM      8  O   UNL     1      20.656  27.641 -15.711  1.00  0.00    -0.295 OA
ENDROOT
BRANCH   5   9
ATOM      9  C   UNL     1      22.006  29.293 -20.113  1.00  0.00    -0.077 C 
ATOM     10  C   UNL     1      21.585  30.489 -20.561  1.00  0.00     0.008 C 
ATOM     11  C   UNL     1      22.178  28.172 -21.104  1.00  0.00     0.039 C 
ENDBRANCH   5   9
TORSDOF 1
ENDMDL
MODEL 8
REMARK VINA RESULT:    -4.904      4.695      6.633
REMARK INTER + INTRA:          -5.286
REMARK INTER:                  -5.191
REMARK INTRA:                  -0.095
REMARK UNBOUND:                -0.096
REMARK SMILES C=C(C)[C@H]1CC=C(C)C(=O)C1
REMARK SMILES IDX 8 1 7 2 6 3 5 4 4 5 11 6 9 7 10 8 2 9 1 10 3 11
REMARK H PARENT
REMARK Flexibility Score: inf
ROOT
ATOM      1  C   UNL     1      19.822  28.135 -13.873  1.00  0.00     0.048 C 
ATOM      2  C   UNL     1      20.662  28.471 -15.073  1.00  0.00    -0.012 C 
ATOM      3  C   UNL     1      20.102  28.536 -16.294  1.00  0.00    -0.019 C 
ATOM      4  C   UNL     1      20.915  28.789 -17.536  1.00  0.00     0.036 C 
ATOM      5  C   UNL     1      22.148  29.660 -17.224  1.00  0.00     0.025 C 
ATOM      6  C   UNL     1      22.983  29.022 -16.099  1.00  0.00     0.089 C 
ATOM      7  C   UNL     1      22.118  28.706 -14.909  1.00  0.00     0.158 C 
ATOM      8  O   UNL     1      22.652  28.597 -13.773  1.00  0.00    -0.295 OA
ENDROOT
BRANCH   5   9
ATOM      9  C   UNL     1      22.986  29.913 -18.471  1.00  0.00    -0.077 C 
ATOM     10  C   UNL     1      22.411  30.122 -19.669  1.00  0.00     0.008 C 
ATOM     11  C   UNL     1      24.489  29.934 -18.380  1.00  0.00     0.039 C 
ENDBRANCH   5   9
TORSDOF 1
ENDMDL
MODEL 9
REMARK VINA RESULT:    -4.792      4.930      6.087
REMARK INTER + INTRA:          -5.168
REMARK INTER:                  -5.072
REMARK INTRA:                  -0.096
REMARK UNBOUND:                -0.096
REMARK SMILES C=C(C)[C@H]1CC=C(C)C(=O)C1
REMARK SMILES IDX 8 1 7 2 6 3 5 4 4 5 11 6 9 7 10 8 2 9 1 10 3 11
REMARK H PARENT
REMARK Flexibility Score: inf
ROOT
ATOM      1  C   UNL     1      22.503  29.113 -19.888  1.00  0.00     0.048 C 
ATOM      2  C   UNL     1      22.208  29.098 -18.414  1.00  0.00    -0.012 C 
ATOM      3  C   UNL     1      21.030  28.629 -17.965  1.00  0.00    -0.019 C 
ATOM      4  C   UNL     1      20.657  28.667 -16.507  1.00  0.00     0.036 C 
ATOM      5  C   UNL     1      21.906  28.551 -15.611  1.00  0.00     0.025 C 
ATOM      6  C   UNL     1      22.932  29.639 -15.980  1.00  0.00     0.089 C 
ATOM      7  C   UNL     1      23.213  29.624 -17.458  1.00  0.00     0.158 C 
ATOM      8  O   UNL     1      24.297  30.108 -17.882  1.00  0.00    -0.295 OA
ENDROOT
BRANCH   5   9
ATOM      9  C   UNL     1      21.542  28.600 -14.132  1.00  0.00    -0.077 C 
ATOM     10  C   UNL     1      20.264  28.513 -13.723  1.00  0.00     0.008 C 
ATOM     11  C   UNL     1      22.622  28.749 -13.093  1.00  0.00     0.039 C 
ENDBRANCH   5   9
TORSDOF 1
ENDMDL
