MODEL 1
REMARK VINA RESULT:    -5.656      0.000      0.000
REMARK INTER + INTRA:         -17.706
REMARK INTER:                 -14.252
REMARK INTRA:                  -3.454
REMARK UNBOUND:                -3.454
REMARK SMILES CCCCCCCCCCCCCCCCCCCCCCCCCCCC(=O)[O-]
REMARK SMILES IDX 15 1 16 2 17 3 18 4 19 5 20 6 21 7 22 8 23 9 24 10 25 11
REMARK SMILES IDX 26 12 27 13 28 14 29 15 30 16 14 17 13 18 12 19 11 20 10 21
REMARK SMILES IDX 9 22 8 23 7 24 6 25 5 26 4 27 3 28 2 29 1 30
REMARK H PARENT
REMARK Flexibility Score: inf
ROOT
ATOM      1  C   UNL     1      42.401 -13.070 -35.069  1.00  0.00     0.000 C 
ENDROOT
BRANCH   1   2
ATOM      2  C   UNL     1      42.582 -12.471 -36.478  1.00  0.00     0.000 C 
BRANCH   2   3
ATOM      3  C   UNL     1      41.332 -11.778 -37.059  1.00  0.00     0.000 C 
BRANCH   3   4
ATOM      4  C   UNL     1      41.616 -10.734 -38.158  1.00  0.00     0.000 C 
BRANCH   4   5
ATOM      5  C   UNL     1      42.756  -9.752 -37.835  1.00  0.00     0.000 C 
BRANCH   5   6
ATOM      6  C   UNL     1      44.146 -10.334 -38.140  1.00  0.00     0.000 C 
BRANCH   6   7
ATOM      7  C   UNL     1      44.478 -10.319 -39.643  1.00  0.00     0.000 C 
BRANCH   7   8
ATOM      8  C   UNL     1      44.191 -11.641 -40.381  1.00  0.00     0.000 C 
BRANCH   8   9
ATOM      9  C   UNL     1      43.631 -11.487 -41.810  1.00  0.00     0.000 C 
BRANCH   9  10
ATOM     10  C   UNL     1      42.780 -10.225 -42.042  1.00  0.00     0.000 C 
BRANCH  10  11
ATOM     11  C   UNL     1      41.285 -10.459 -41.783  1.00  0.00     0.000 C 
BRANCH  11  12
ATOM     12  C   UNL     1      40.424  -9.666 -42.777  1.00  0.00     0.006 C 
BRANCH  12  13
ATOM     13  C   UNL     1      40.829  -9.924 -44.233  1.00  0.00     0.053 C 
BRANCH  13  14
ATOM     14  C   UNL     1      40.627 -11.357 -44.619  1.00  0.00     0.041 C 
ATOM     15  O   UNL     1      41.598 -12.046 -45.030  1.00  0.00    -0.550 OA
ATOM     16  O   UNL     1      39.360 -11.921 -44.558  1.00  0.00    -0.550 OA
ENDBRANCH  13  14
ENDBRANCH  12  13
ENDBRANCH  11  12
ENDBRANCH  10  11
ENDBRANCH   9  10
ENDBRANCH   8   9
ENDBRANCH   7   8
ENDBRANCH   6   7
ENDBRANCH   5   6
ENDBRANCH   4   5
ENDBRANCH   3   4
ENDBRANCH   2   3
ENDBRANCH   1   2
BRANCH   1  17
ATOM     17  C   UNL     1      43.032 -12.254 -33.928  1.00  0.00     0.000 C 
BRANCH  17  18
ATOM     18  C   UNL     1      43.911 -13.103 -32.999  1.00  0.00     0.000 C 
BRANCH  18  19
ATOM     19  C   UNL     1      43.948 -14.565 -33.469  1.00  0.00     0.000 C 
BRANCH  19  20
ATOM     20  C   UNL     1      45.143 -15.346 -32.893  1.00  0.00     0.000 C 
BRANCH  20  21
ATOM     21  C   UNL     1      46.189 -14.479 -32.164  1.00  0.00     0.000 C 
BRANCH  21  22
ATOM     22  C   UNL     1      47.648 -14.963 -32.292  1.00  0.00    -0.000 C 
BRANCH  22  23
ATOM     23  C   UNL     1      48.646 -13.910 -32.808  1.00  0.00    -0.000 C 
BRANCH  23  24
ATOM     24  C   UNL     1      49.123 -14.193 -34.242  1.00  0.00    -0.000 C 
BRANCH  24  25
ATOM     25  C   UNL     1      48.578 -13.180 -35.263  1.00  0.00    -0.000 C 
BRANCH  25  26
ATOM     26  C   UNL     1      47.210 -12.581 -34.873  1.00  0.00    -0.000 C 
BRANCH  26  27
ATOM     27  C   UNL     1      46.148 -12.814 -35.958  1.00  0.00    -0.000 C 
BRANCH  27  28
ATOM     28  C   UNL     1      46.040 -14.300 -36.316  1.00  0.00    -0.000 C 
BRANCH  28  29
ATOM     29  C   UNL     1      46.673 -14.583 -37.684  1.00  0.00    -0.003 C 
ATOM     30  C   UNL     1      46.491 -13.400 -38.630  1.00  0.00     0.004 C 
ENDBRANCH  28  29
ENDBRANCH  27  28
ENDBRANCH  26  27
ENDBRANCH  25  26
ENDBRANCH  24  25
ENDBRANCH  23  24
ENDBRANCH  22  23
ENDBRANCH  21  22
ENDBRANCH  20  21
ENDBRANCH  19  20
ENDBRANCH  18  19
ENDBRANCH  17  18
ENDBRANCH   1  17
TORSDOF 26
ENDMDL
MODEL 2
REMARK VINA RESULT:    -5.461      5.961      9.776
REMARK INTER + INTRA:         -17.215
REMARK INTER:                 -14.248
REMARK INTRA:                  -2.968
REMARK UNBOUND:                -3.454
REMARK SMILES CCCCCCCCCCCCCCCCCCCCCCCCCCCC(=O)[O-]
REMARK SMILES IDX 15 1 16 2 17 3 18 4 19 5 20 6 21 7 22 8 23 9 24 10 25 11
REMARK SMILES IDX 26 12 27 13 28 14 29 15 30 16 14 17 13 18 12 19 11 20 10 21
REMARK SMILES IDX 9 22 8 23 7 24 6 25 5 26 4 27 3 28 2 29 1 30
REMARK H PARENT
REMARK Flexibility Score: inf
ROOT
ATOM      1  C   UNL     1      47.208 -14.272 -33.080  1.00  0.00     0.000 C 
ENDROOT
BRANCH   1   2
ATOM      2  C   UNL     1      46.008 -13.686 -32.309  1.00  0.00     0.000 C 
BRANCH   2   3
ATOM      3  C   UNL     1      44.653 -14.364 -32.595  1.00  0.00     0.000 C 
BRANCH   3   4
ATOM      4  C   UNL     1      44.706 -15.900 -32.722  1.00  0.00     0.000 C 
BRANCH   4   5
ATOM      5  C   UNL     1      43.696 -16.500 -33.718  1.00  0.00     0.000 C 
BRANCH   5   6
ATOM      6  C   UNL     1      43.431 -17.993 -33.467  1.00  0.00     0.000 C 
BRANCH   6   7
ATOM      7  C   UNL     1      42.419 -18.591 -34.460  1.00  0.00     0.000 C 
BRANCH   7   8
ATOM      8  C   UNL     1      42.056 -20.067 -34.205  1.00  0.00     0.000 C 
BRANCH   8   9
ATOM      9  C   UNL     1      41.226 -20.328 -32.932  1.00  0.00     0.000 C 
BRANCH   9  10
ATOM     10  C   UNL     1      40.936 -21.811 -32.637  1.00  0.00     0.000 C 
BRANCH  10  11
ATOM     11  C   UNL     1      39.797 -22.006 -31.626  1.00  0.00     0.000 C 
BRANCH  11  12
ATOM     12  C   UNL     1      38.770 -23.024 -32.145  1.00  0.00     0.006 C 
BRANCH  12  13
ATOM     13  C   UNL     1      38.238 -22.657 -33.536  1.00  0.00     0.053 C 
BRANCH  13  14
ATOM     14  C   UNL     1      38.494 -23.746 -34.532  1.00  0.00     0.041 C 
ATOM     15  O   UNL     1      39.224 -24.725 -34.228  1.00  0.00    -0.550 OA
ATOM     16  O   UNL     1      37.952 -23.661 -35.808  1.00  0.00    -0.550 OA
ENDBRANCH  13  14
ENDBRANCH  12  13
ENDBRANCH  11  12
ENDBRANCH  10  11
ENDBRANCH   9  10
ENDBRANCH   8   9
ENDBRANCH   7   8
ENDBRANCH   6   7
ENDBRANCH   5   6
ENDBRANCH   4   5
ENDBRANCH   3   4
ENDBRANCH   2   3
ENDBRANCH   1   2
BRANCH   1  17
ATOM     17  C   UNL     1      48.115 -13.231 -33.761  1.00  0.00     0.000 C 
BRANCH  17  18
ATOM     18  C   UNL     1      48.385 -13.548 -35.239  1.00  0.00     0.000 C 
BRANCH  18  19
ATOM     19  C   UNL     1      47.174 -14.245 -35.877  1.00  0.00     0.000 C 
BRANCH  19  20
ATOM     20  C   UNL     1      45.981 -13.294 -36.085  1.00  0.00     0.000 C 
BRANCH  20  21
ATOM     21  C   UNL     1      44.626 -13.996 -36.305  1.00  0.00     0.000 C 
BRANCH  21  22
ATOM     22  C   UNL     1      43.386 -13.174 -35.896  1.00  0.00    -0.000 C 
BRANCH  22  23
ATOM     23  C   UNL     1      43.622 -11.661 -35.742  1.00  0.00    -0.000 C 
BRANCH  23  24
ATOM     24  C   UNL     1      43.562 -10.909 -37.082  1.00  0.00    -0.000 C 
BRANCH  24  25
ATOM     25  C   UNL     1      42.308 -11.254 -37.904  1.00  0.00    -0.000 C 
BRANCH  25  26
ATOM     26  C   UNL     1      42.470 -11.004 -39.418  1.00  0.00    -0.000 C 
BRANCH  26  27
ATOM     27  C   UNL     1      43.937 -10.782 -39.813  1.00  0.00    -0.000 C 
BRANCH  27  28
ATOM     28  C   UNL     1      44.491 -11.986 -40.584  1.00  0.00    -0.000 C 
BRANCH  28  29
ATOM     29  C   UNL     1      45.379 -12.853 -39.685  1.00  0.00    -0.003 C 
ATOM     30  C   UNL     1      46.812 -12.329 -39.655  1.00  0.00     0.004 C 
ENDBRANCH  28  29
ENDBRANCH  27  28
ENDBRANCH  26  27
ENDBRANCH  25  26
ENDBRANCH  24  25
ENDBRANCH  23  24
ENDBRANCH  22  23
ENDBRANCH  21  22
ENDBRANCH  20  21
ENDBRANCH  19  20
ENDBRANCH  18  19
ENDBRANCH  17  18
ENDBRANCH   1  17
TORSDOF 26
ENDMDL
MODEL 3
REMARK VINA RESULT:    -5.322      6.907      9.859
REMARK INTER + INTRA:         -16.866
REMARK INTER:                 -13.893
REMARK INTRA:                  -2.972
REMARK UNBOUND:                -3.454
REMARK SMILES CCCCCCCCCCCCCCCCCCCCCCCCCCCC(=O)[O-]
REMARK SMILES IDX 15 1 16 2 17 3 18 4 19 5 20 6 21 7 22 8 23 9 24 10 25 11
REMARK SMILES IDX 26 12 27 13 28 14 29 15 30 16 14 17 13 18 12 19 11 20 10 21
REMARK SMILES IDX 9 22 8 23 7 24 6 25 5 26 4 27 3 28 2 29 1 30
REMARK H PARENT
REMARK Flexibility Score: inf
ROOT
ATOM      1  C   UNL     1      42.559 -19.523 -34.158  1.00  0.00     0.000 C 
ENDROOT
BRANCH   1   2
ATOM      2  C   UNL     1      42.438 -18.179 -34.906  1.00  0.00     0.000 C 
BRANCH   2   3
ATOM      3  C   UNL     1      43.096 -16.977 -34.200  1.00  0.00     0.000 C 
BRANCH   3   4
ATOM      4  C   UNL     1      43.728 -17.290 -32.829  1.00  0.00     0.000 C 
BRANCH   4   5
ATOM      5  C   UNL     1      44.665 -16.195 -32.286  1.00  0.00     0.000 C 
BRANCH   5   6
ATOM      6  C   UNL     1      45.020 -15.139 -33.346  1.00  0.00     0.000 C 
BRANCH   6   7
ATOM      7  C   UNL     1      44.919 -13.701 -32.807  1.00  0.00     0.000 C 
BRANCH   7   8
ATOM      8  C   UNL     1      43.583 -12.992 -33.104  1.00  0.00     0.000 C 
BRANCH   8   9
ATOM      9  C   UNL     1      43.571 -12.121 -34.377  1.00  0.00     0.000 C 
BRANCH   9  10
ATOM     10  C   UNL     1      43.175 -12.861 -35.668  1.00  0.00     0.000 C 
BRANCH  10  11
ATOM     11  C   UNL     1      41.705 -12.641 -36.054  1.00  0.00     0.000 C 
BRANCH  11  12
ATOM     12  C   UNL     1      41.573 -11.520 -37.095  1.00  0.00     0.006 C 
BRANCH  12  13
ATOM     13  C   UNL     1      42.857 -11.329 -37.911  1.00  0.00     0.053 C 
BRANCH  13  14
ATOM     14  C   UNL     1      43.202  -9.880 -38.072  1.00  0.00     0.041 C 
ATOM     15  O   UNL     1      44.297  -9.544 -38.596  1.00  0.00    -0.550 OA
ATOM     16  O   UNL     1      42.330  -8.903 -37.613  1.00  0.00    -0.550 OA
ENDBRANCH  13  14
ENDBRANCH  12  13
ENDBRANCH  11  12
ENDBRANCH  10  11
ENDBRANCH   9  10
ENDBRANCH   8   9
ENDBRANCH   7   8
ENDBRANCH   6   7
ENDBRANCH   5   6
ENDBRANCH   4   5
ENDBRANCH   3   4
ENDBRANCH   2   3
ENDBRANCH   1   2
BRANCH   1  17
ATOM     17  C   UNL     1      41.224 -20.236 -33.880  1.00  0.00     0.000 C 
BRANCH  17  18
ATOM     18  C   UNL     1      40.920 -20.375 -32.381  1.00  0.00     0.000 C 
BRANCH  18  19
ATOM     19  C   UNL     1      40.863 -21.854 -31.971  1.00  0.00     0.000 C 
BRANCH  19  20
ATOM     20  C   UNL     1      39.610 -22.195 -31.145  1.00  0.00     0.000 C 
BRANCH  20  21
ATOM     21  C   UNL     1      38.575 -23.076 -31.874  1.00  0.00     0.000 C 
BRANCH  21  22
ATOM     22  C   UNL     1      38.982 -23.534 -33.289  1.00  0.00    -0.000 C 
BRANCH  22  23
ATOM     23  C   UNL     1      38.403 -22.696 -34.442  1.00  0.00    -0.000 C 
BRANCH  23  24
ATOM     24  C   UNL     1      36.867 -22.635 -34.423  1.00  0.00    -0.000 C 
BRANCH  24  25
ATOM     25  C   UNL     1      36.325 -21.196 -34.481  1.00  0.00    -0.000 C 
BRANCH  25  26
ATOM     26  C   UNL     1      37.339 -20.133 -34.009  1.00  0.00    -0.000 C 
BRANCH  26  27
ATOM     27  C   UNL     1      37.211 -19.837 -32.508  1.00  0.00    -0.000 C 
BRANCH  27  28
ATOM     28  C   UNL     1      35.813 -19.309 -32.166  1.00  0.00    -0.000 C 
BRANCH  28  29
ATOM     29  C   UNL     1      35.212 -20.072 -30.979  1.00  0.00    -0.003 C 
ATOM     30  C   UNL     1      34.037 -20.940 -31.419  1.00  0.00     0.004 C 
ENDBRANCH  28  29
ENDBRANCH  27  28
ENDBRANCH  26  27
ENDBRANCH  25  26
ENDBRANCH  24  25
ENDBRANCH  23  24
ENDBRANCH  22  23
ENDBRANCH  21  22
ENDBRANCH  20  21
ENDBRANCH  19  20
ENDBRANCH  18  19
ENDBRANCH  17  18
ENDBRANCH   1  17
TORSDOF 26
ENDMDL
MODEL 4
REMARK VINA RESULT:    -5.312     10.750     13.486
REMARK INTER + INTRA:         -16.841
REMARK INTER:                 -11.695
REMARK INTRA:                  -5.146
REMARK UNBOUND:                -3.454
REMARK SMILES CCCCCCCCCCCCCCCCCCCCCCCCCCCC(=O)[O-]
REMARK SMILES IDX 15 1 16 2 17 3 18 4 19 5 20 6 21 7 22 8 23 9 24 10 25 11
REMARK SMILES IDX 26 12 27 13 28 14 29 15 30 16 14 17 13 18 12 19 11 20 10 21
REMARK SMILES IDX 9 22 8 23 7 24 6 25 5 26 4 27 3 28 2 29 1 30
REMARK H PARENT
REMARK Flexibility Score: inf
ROOT
ATOM      1  C   UNL     1      40.819 -20.274 -31.641  1.00  0.00     0.000 C 
ENDROOT
BRANCH   1   2
ATOM      2  C   UNL     1      41.109 -21.375 -30.601  1.00  0.00     0.000 C 
BRANCH   2   3
ATOM      3  C   UNL     1      39.897 -21.806 -29.750  1.00  0.00     0.000 C 
BRANCH   3   4
ATOM      4  C   UNL     1      38.526 -21.347 -30.287  1.00  0.00     0.000 C 
BRANCH   4   5
ATOM      5  C   UNL     1      37.824 -22.360 -31.210  1.00  0.00     0.000 C 
BRANCH   5   6
ATOM      6  C   UNL     1      36.990 -21.681 -32.310  1.00  0.00     0.000 C 
BRANCH   6   7
ATOM      7  C   UNL     1      37.285 -20.176 -32.433  1.00  0.00     0.000 C 
BRANCH   7   8
ATOM      8  C   UNL     1      37.323 -19.640 -33.878  1.00  0.00     0.000 C 
BRANCH   8   9
ATOM      9  C   UNL     1      37.131 -20.704 -34.977  1.00  0.00     0.000 C 
BRANCH   9  10
ATOM     10  C   UNL     1      36.491 -20.186 -36.279  1.00  0.00     0.000 C 
BRANCH  10  11
ATOM     11  C   UNL     1      35.119 -20.815 -36.559  1.00  0.00     0.000 C 
BRANCH  11  12
ATOM     12  C   UNL     1      34.511 -21.400 -35.276  1.00  0.00     0.006 C 
BRANCH  12  13
ATOM     13  C   UNL     1      33.342 -20.559 -34.749  1.00  0.00     0.053 C 
BRANCH  13  14
ATOM     14  C   UNL     1      33.663 -19.928 -33.429  1.00  0.00     0.041 C 
ATOM     15  O   UNL     1      33.786 -20.642 -32.399  1.00  0.00    -0.550 OA
ATOM     16  O   UNL     1      33.793 -18.549 -33.330  1.00  0.00    -0.550 OA
ENDBRANCH  13  14
ENDBRANCH  12  13
ENDBRANCH  11  12
ENDBRANCH  10  11
ENDBRANCH   9  10
ENDBRANCH   8   9
ENDBRANCH   7   8
ENDBRANCH   6   7
ENDBRANCH   5   6
ENDBRANCH   4   5
ENDBRANCH   3   4
ENDBRANCH   2   3
ENDBRANCH   1   2
BRANCH   1  17
ATOM     17  C   UNL     1      40.945 -20.717 -33.110  1.00  0.00     0.000 C 
BRANCH  17  18
ATOM     18  C   UNL     1      41.099 -22.236 -33.266  1.00  0.00     0.000 C 
BRANCH  18  19
ATOM     19  C   UNL     1      40.267 -22.751 -34.450  1.00  0.00     0.000 C 
BRANCH  19  20
ATOM     20  C   UNL     1      39.229 -23.809 -34.033  1.00  0.00     0.000 C 
BRANCH  20  21
ATOM     21  C   UNL     1      39.299 -25.130 -34.825  1.00  0.00     0.000 C 
BRANCH  21  22
ATOM     22  C   UNL     1      38.010 -25.512 -35.581  1.00  0.00    -0.000 C 
BRANCH  22  23
ATOM     23  C   UNL     1      36.972 -24.384 -35.721  1.00  0.00    -0.000 C 
BRANCH  23  24
ATOM     24  C   UNL     1      35.962 -24.639 -36.853  1.00  0.00    -0.000 C 
BRANCH  24  25
ATOM     25  C   UNL     1      36.599 -24.552 -38.250  1.00  0.00    -0.000 C 
BRANCH  25  26
ATOM     26  C   UNL     1      35.763 -23.741 -39.263  1.00  0.00    -0.000 C 
BRANCH  26  27
ATOM     27  C   UNL     1      36.334 -22.332 -39.486  1.00  0.00    -0.000 C 
BRANCH  27  28
ATOM     28  C   UNL     1      37.725 -22.193 -38.857  1.00  0.00    -0.000 C 
BRANCH  28  29
ATOM     29  C   UNL     1      38.605 -21.239 -39.674  1.00  0.00    -0.003 C 
ATOM     30  C   UNL     1      39.363 -20.275 -38.767  1.00  0.00     0.004 C 
ENDBRANCH  28  29
ENDBRANCH  27  28
ENDBRANCH  26  27
ENDBRANCH  25  26
ENDBRANCH  24  25
ENDBRANCH  23  24
ENDBRANCH  22  23
ENDBRANCH  21  22
ENDBRANCH  20  21
ENDBRANCH  19  20
ENDBRANCH  18  19
ENDBRANCH  17  18
ENDBRANCH   1  17
TORSDOF 26
ENDMDL
MODEL 5
REMARK VINA RESULT:    -5.306      5.971      9.908
REMARK INTER + INTRA:         -16.826
REMARK INTER:                 -13.995
REMARK INTRA:                  -2.831
REMARK UNBOUND:                -3.454
REMARK SMILES CCCCCCCCCCCCCCCCCCCCCCCCCCCC(=O)[O-]
REMARK SMILES IDX 15 1 16 2 17 3 18 4 19 5 20 6 21 7 22 8 23 9 24 10 25 11
REMARK SMILES IDX 26 12 27 13 28 14 29 15 30 16 14 17 13 18 12 19 11 20 10 21
REMARK SMILES IDX 9 22 8 23 7 24 6 25 5 26 4 27 3 28 2 29 1 30
REMARK H PARENT
REMARK Flexibility Score: inf
ROOT
ATOM      1  C   UNL     1      47.220 -14.308 -33.105  1.00  0.00     0.000 C 
ENDROOT
BRANCH   1   2
ATOM      2  C   UNL     1      46.037 -13.702 -32.323  1.00  0.00     0.000 C 
BRANCH   2   3
ATOM      3  C   UNL     1      44.671 -14.367 -32.585  1.00  0.00     0.000 C 
BRANCH   3   4
ATOM      4  C   UNL     1      44.698 -15.906 -32.666  1.00  0.00     0.000 C 
BRANCH   4   5
ATOM      5  C   UNL     1      43.675 -16.519 -33.640  1.00  0.00     0.000 C 
BRANCH   5   6
ATOM      6  C   UNL     1      43.462 -18.024 -33.408  1.00  0.00     0.000 C 
BRANCH   6   7
ATOM      7  C   UNL     1      42.458 -18.640 -34.398  1.00  0.00     0.000 C 
BRANCH   7   8
ATOM      8  C   UNL     1      42.041 -20.089 -34.078  1.00  0.00     0.000 C 
BRANCH   8   9
ATOM      9  C   UNL     1      41.076 -20.246 -32.885  1.00  0.00     0.000 C 
BRANCH   9  10
ATOM     10  C   UNL     1      40.670 -21.696 -32.563  1.00  0.00     0.000 C 
BRANCH  10  11
ATOM     11  C   UNL     1      39.366 -21.785 -31.758  1.00  0.00     0.000 C 
BRANCH  11  12
ATOM     12  C   UNL     1      38.403 -20.653 -32.147  1.00  0.00     0.006 C 
BRANCH  12  13
ATOM     13  C   UNL     1      37.907 -19.867 -30.927  1.00  0.00     0.053 C 
BRANCH  13  14
ATOM     14  C   UNL     1      36.465 -20.150 -30.634  1.00  0.00     0.041 C 
ATOM     15  O   UNL     1      35.560 -19.489 -31.207  1.00  0.00    -0.550 OA
ATOM     16  O   UNL     1      36.124 -21.121 -29.702  1.00  0.00    -0.550 OA
ENDBRANCH  13  14
ENDBRANCH  12  13
ENDBRANCH  11  12
ENDBRANCH  10  11
ENDBRANCH   9  10
ENDBRANCH   8   9
ENDBRANCH   7   8
ENDBRANCH   6   7
ENDBRANCH   5   6
ENDBRANCH   4   5
ENDBRANCH   3   4
ENDBRANCH   2   3
ENDBRANCH   1   2
BRANCH   1  17
ATOM     17  C   UNL     1      48.169 -13.281 -33.748  1.00  0.00     0.000 C 
BRANCH  17  18
ATOM     18  C   UNL     1      48.441 -13.564 -35.232  1.00  0.00     0.000 C 
BRANCH  18  19
ATOM     19  C   UNL     1      47.239 -14.265 -35.883  1.00  0.00     0.000 C 
BRANCH  19  20
ATOM     20  C   UNL     1      46.019 -13.338 -36.033  1.00  0.00     0.000 C 
BRANCH  20  21
ATOM     21  C   UNL     1      44.672 -14.068 -36.206  1.00  0.00     0.000 C 
BRANCH  21  22
ATOM     22  C   UNL     1      43.420 -13.177 -36.073  1.00  0.00    -0.000 C 
BRANCH  22  23
ATOM     23  C   UNL     1      43.699 -11.671 -35.919  1.00  0.00    -0.000 C 
BRANCH  23  24
ATOM     24  C   UNL     1      43.713 -10.926 -37.264  1.00  0.00    -0.000 C 
BRANCH  24  25
ATOM     25  C   UNL     1      42.413 -11.114 -38.064  1.00  0.00    -0.000 C 
BRANCH  25  26
ATOM     26  C   UNL     1      42.572 -10.853 -39.577  1.00  0.00    -0.000 C 
BRANCH  26  27
ATOM     27  C   UNL     1      44.047 -10.789 -40.001  1.00  0.00    -0.000 C 
BRANCH  27  28
ATOM     28  C   UNL     1      44.476 -12.081 -40.706  1.00  0.00    -0.000 C 
BRANCH  28  29
ATOM     29  C   UNL     1      45.309 -12.966 -39.772  1.00  0.00    -0.003 C 
ATOM     30  C   UNL     1      46.703 -12.383 -39.558  1.00  0.00     0.004 C 
ENDBRANCH  28  29
ENDBRANCH  27  28
ENDBRANCH  26  27
ENDBRANCH  25  26
ENDBRANCH  24  25
ENDBRANCH  23  24
ENDBRANCH  22  23
ENDBRANCH  21  22
ENDBRANCH  20  21
ENDBRANCH  19  20
ENDBRANCH  18  19
ENDBRANCH  17  18
ENDBRANCH   1  17
TORSDOF 26
ENDMDL
MODEL 6
REMARK VINA RESULT:    -5.264      7.024     10.032
REMARK INTER + INTRA:         -16.718
REMARK INTER:                 -13.835
REMARK INTRA:                  -2.882
REMARK UNBOUND:                -3.454
REMARK SMILES CCCCCCCCCCCCCCCCCCCCCCCCCCCC(=O)[O-]
REMARK SMILES IDX 15 1 16 2 17 3 18 4 19 5 20 6 21 7 22 8 23 9 24 10 25 11
REMARK SMILES IDX 26 12 27 13 28 14 29 15 30 16 14 17 13 18 12 19 11 20 10 21
REMARK SMILES IDX 9 22 8 23 7 24 6 25 5 26 4 27 3 28 2 29 1 30
REMARK H PARENT
REMARK Flexibility Score: inf
ROOT
ATOM      1  C   UNL     1      41.259 -19.904 -33.984  1.00  0.00     0.000 C 
ENDROOT
BRANCH   1   2
ATOM      2  C   UNL     1      42.727 -19.500 -34.230  1.00  0.00     0.000 C 
BRANCH   2   3
ATOM      3  C   UNL     1      43.100 -18.078 -33.767  1.00  0.00     0.000 C 
BRANCH   3   4
ATOM      4  C   UNL     1      42.837 -16.965 -34.801  1.00  0.00     0.000 C 
BRANCH   4   5
ATOM      5  C   UNL     1      43.727 -15.718 -34.647  1.00  0.00     0.000 C 
BRANCH   5   6
ATOM      6  C   UNL     1      44.312 -15.578 -33.232  1.00  0.00     0.000 C 
BRANCH   6   7
ATOM      7  C   UNL     1      44.941 -14.196 -32.984  1.00  0.00     0.000 C 
BRANCH   7   8
ATOM      8  C   UNL     1      44.099 -13.250 -32.105  1.00  0.00     0.000 C 
BRANCH   8   9
ATOM      9  C   UNL     1      43.477 -12.048 -32.844  1.00  0.00     0.000 C 
BRANCH   9  10
ATOM     10  C   UNL     1      43.051 -12.327 -34.298  1.00  0.00     0.000 C 
BRANCH  10  11
ATOM     11  C   UNL     1      43.905 -11.569 -35.324  1.00  0.00     0.000 C 
BRANCH  11  12
ATOM     12  C   UNL     1      44.023 -12.363 -36.634  1.00  0.00     0.006 C 
BRANCH  12  13
ATOM     13  C   UNL     1      43.560 -11.552 -37.850  1.00  0.00     0.053 C 
BRANCH  13  14
ATOM     14  C   UNL     1      42.297 -10.799 -37.567  1.00  0.00     0.041 C 
ATOM     15  O   UNL     1      42.290  -9.540 -37.597  1.00  0.00    -0.550 OA
ATOM     16  O   UNL     1      41.137 -11.486 -37.238  1.00  0.00    -0.550 OA
ENDBRANCH  13  14
ENDBRANCH  12  13
ENDBRANCH  11  12
ENDBRANCH  10  11
ENDBRANCH   9  10
ENDBRANCH   8   9
ENDBRANCH   7   8
ENDBRANCH   6   7
ENDBRANCH   5   6
ENDBRANCH   4   5
ENDBRANCH   3   4
ENDBRANCH   2   3
ENDBRANCH   1   2
BRANCH   1  17
ATOM     17  C   UNL     1      40.872 -21.300 -34.503  1.00  0.00     0.000 C 
BRANCH  17  18
ATOM     18  C   UNL     1      41.106 -22.409 -33.468  1.00  0.00     0.000 C 
BRANCH  18  19
ATOM     19  C   UNL     1      40.481 -22.035 -32.116  1.00  0.00     0.000 C 
BRANCH  19  20
ATOM     20  C   UNL     1      39.129 -22.730 -31.871  1.00  0.00     0.000 C 
BRANCH  20  21
ATOM     21  C   UNL     1      38.020 -21.811 -31.322  1.00  0.00     0.000 C 
BRANCH  21  22
ATOM     22  C   UNL     1      38.166 -20.318 -31.680  1.00  0.00    -0.000 C 
BRANCH  22  23
ATOM     23  C   UNL     1      36.904 -19.464 -31.463  1.00  0.00    -0.000 C 
BRANCH  23  24
ATOM     24  C   UNL     1      35.805 -20.209 -30.687  1.00  0.00    -0.000 C 
BRANCH  24  25
ATOM     25  C   UNL     1      34.483 -20.304 -31.468  1.00  0.00    -0.000 C 
BRANCH  25  26
ATOM     26  C   UNL     1      34.526 -19.613 -32.848  1.00  0.00    -0.000 C 
BRANCH  26  27
ATOM     27  C   UNL     1      34.310 -20.607 -33.998  1.00  0.00    -0.000 C 
BRANCH  27  28
ATOM     28  C   UNL     1      35.626 -21.285 -34.398  1.00  0.00    -0.000 C 
BRANCH  28  29
ATOM     29  C   UNL     1      36.261 -20.583 -35.604  1.00  0.00    -0.003 C 
ATOM     30  C   UNL     1      37.494 -19.785 -35.191  1.00  0.00     0.004 C 
ENDBRANCH  28  29
ENDBRANCH  27  28
ENDBRANCH  26  27
ENDBRANCH  25  26
ENDBRANCH  24  25
ENDBRANCH  23  24
ENDBRANCH  22  23
ENDBRANCH  21  22
ENDBRANCH  20  21
ENDBRANCH  19  20
ENDBRANCH  18  19
ENDBRANCH  17  18
ENDBRANCH   1  17
TORSDOF 26
ENDMDL
MODEL 7
REMARK VINA RESULT:    -5.249     10.396     13.639
REMARK INTER + INTRA:         -16.681
REMARK INTER:                 -11.813
REMARK INTRA:                  -4.868
REMARK UNBOUND:                -3.454
REMARK SMILES CCCCCCCCCCCCCCCCCCCCCCCCCCCC(=O)[O-]
REMARK SMILES IDX 15 1 16 2 17 3 18 4 19 5 20 6 21 7 22 8 23 9 24 10 25 11
REMARK SMILES IDX 26 12 27 13 28 14 29 15 30 16 14 17 13 18 12 19 11 20 10 21
REMARK SMILES IDX 9 22 8 23 7 24 6 25 5 26 4 27 3 28 2 29 1 30
REMARK H PARENT
REMARK Flexibility Score: inf
ROOT
ATOM      1  C   UNL     1      37.341 -23.797 -41.558  1.00  0.00     0.000 C 
ENDROOT
BRANCH   1   2
ATOM      2  C   UNL     1      37.871 -24.018 -40.126  1.00  0.00     0.000 C 
BRANCH   2   3
ATOM      3  C   UNL     1      37.159 -23.199 -39.032  1.00  0.00     0.000 C 
BRANCH   3   4
ATOM      4  C   UNL     1      36.041 -22.266 -39.537  1.00  0.00     0.000 C 
BRANCH   4   5
ATOM      5  C   UNL     1      36.026 -20.868 -38.893  1.00  0.00     0.000 C 
BRANCH   5   6
ATOM      6  C   UNL     1      37.292 -20.582 -38.067  1.00  0.00     0.000 C 
BRANCH   6   7
ATOM      7  C   UNL     1      38.185 -19.504 -38.706  1.00  0.00     0.000 C 
BRANCH   7   8
ATOM      8  C   UNL     1      39.386 -20.050 -39.504  1.00  0.00     0.000 C 
BRANCH   8   9
ATOM      9  C   UNL     1      39.395 -19.690 -41.004  1.00  0.00     0.000 C 
BRANCH   9  10
ATOM     10  C   UNL     1      38.160 -20.162 -41.793  1.00  0.00     0.000 C 
BRANCH  10  11
ATOM     11  C   UNL     1      37.152 -19.034 -42.053  1.00  0.00     0.000 C 
BRANCH  11  12
ATOM     12  C   UNL     1      36.146 -19.436 -43.142  1.00  0.00     0.006 C 
BRANCH  12  13
ATOM     13  C   UNL     1      34.789 -18.745 -42.964  1.00  0.00     0.053 C 
BRANCH  13  14
ATOM     14  C   UNL     1      33.685 -19.736 -42.755  1.00  0.00     0.041 C 
ATOM     15  O   UNL     1      32.547 -19.532 -43.256  1.00  0.00    -0.550 OA
ATOM     16  O   UNL     1      33.903 -20.866 -41.978  1.00  0.00    -0.550 OA
ENDBRANCH  13  14
ENDBRANCH  12  13
ENDBRANCH  11  12
ENDBRANCH  10  11
ENDBRANCH   9  10
ENDBRANCH   8   9
ENDBRANCH   7   8
ENDBRANCH   6   7
ENDBRANCH   5   6
ENDBRANCH   4   5
ENDBRANCH   3   4
ENDBRANCH   2   3
ENDBRANCH   1   2
BRANCH   1  17
ATOM     17  C   UNL     1      38.253 -24.327 -42.679  1.00  0.00     0.000 C 
BRANCH  17  18
ATOM     18  C   UNL     1      38.583 -23.263 -43.735  1.00  0.00     0.000 C 
BRANCH  18  19
ATOM     19  C   UNL     1      39.762 -23.711 -44.611  1.00  0.00     0.000 C 
BRANCH  19  20
ATOM     20  C   UNL     1      40.750 -22.569 -44.911  1.00  0.00     0.000 C 
BRANCH  20  21
ATOM     21  C   UNL     1      40.405 -21.224 -44.239  1.00  0.00     0.000 C 
BRANCH  21  22
ATOM     22  C   UNL     1      41.252 -20.022 -44.702  1.00  0.00    -0.000 C 
BRANCH  22  23
ATOM     23  C   UNL     1      40.594 -19.124 -45.764  1.00  0.00    -0.000 C 
BRANCH  23  24
ATOM     24  C   UNL     1      39.058 -19.201 -45.741  1.00  0.00    -0.000 C 
BRANCH  24  25
ATOM     25  C   UNL     1      38.491 -20.144 -46.816  1.00  0.00    -0.000 C 
BRANCH  25  26
ATOM     26  C   UNL     1      37.389 -21.090 -46.293  1.00  0.00    -0.000 C 
BRANCH  26  27
ATOM     27  C   UNL     1      36.103 -20.995 -47.127  1.00  0.00    -0.000 C 
BRANCH  27  28
ATOM     28  C   UNL     1      35.116 -19.998 -46.509  1.00  0.00    -0.000 C 
BRANCH  28  29
ATOM     29  C   UNL     1      35.133 -18.666 -47.268  1.00  0.00    -0.003 C 
ATOM     30  C   UNL     1      35.716 -17.549 -46.408  1.00  0.00     0.004 C 
ENDBRANCH  28  29
ENDBRANCH  27  28
ENDBRANCH  26  27
ENDBRANCH  25  26
ENDBRANCH  24  25
ENDBRANCH  23  24
ENDBRANCH  22  23
ENDBRANCH  21  22
ENDBRANCH  20  21
ENDBRANCH  19  20
ENDBRANCH  18  19
ENDBRANCH  17  18
ENDBRANCH   1  17
TORSDOF 26
ENDMDL
MODEL 8
REMARK VINA RESULT:    -5.237     10.761     13.397
REMARK INTER + INTRA:         -16.651
REMARK INTER:                 -11.449
REMARK INTRA:                  -5.201
REMARK UNBOUND:                -3.454
REMARK SMILES CCCCCCCCCCCCCCCCCCCCCCCCCCCC(=O)[O-]
REMARK SMILES IDX 15 1 16 2 17 3 18 4 19 5 20 6 21 7 22 8 23 9 24 10 25 11
REMARK SMILES IDX 26 12 27 13 28 14 29 15 30 16 14 17 13 18 12 19 11 20 10 21
REMARK SMILES IDX 9 22 8 23 7 24 6 25 5 26 4 27 3 28 2 29 1 30
REMARK H PARENT
REMARK Flexibility Score: inf
ROOT
ATOM      1  C   UNL     1      39.117 -23.161 -44.906  1.00  0.00     0.000 C 
ENDROOT
BRANCH   1   2
ATOM      2  C   UNL     1      40.597 -22.735 -44.990  1.00  0.00     0.000 C 
BRANCH   2   3
ATOM      3  C   UNL     1      40.913 -21.348 -44.397  1.00  0.00     0.000 C 
BRANCH   3   4
ATOM      4  C   UNL     1      40.466 -20.151 -45.261  1.00  0.00     0.000 C 
BRANCH   4   5
ATOM      5  C   UNL     1      39.149 -19.490 -44.814  1.00  0.00     0.000 C 
BRANCH   5   6
ATOM      6  C   UNL     1      38.193 -19.221 -45.988  1.00  0.00     0.000 C 
BRANCH   6   7
ATOM      7  C   UNL     1      37.981 -20.459 -46.877  1.00  0.00     0.000 C 
BRANCH   7   8
ATOM      8  C   UNL     1      36.552 -21.036 -46.851  1.00  0.00     0.000 C 
BRANCH   8   9
ATOM      9  C   UNL     1      35.703 -20.634 -45.628  1.00  0.00     0.000 C 
BRANCH   9  10
ATOM     10  C   UNL     1      34.315 -20.057 -45.961  1.00  0.00     0.000 C 
BRANCH  10  11
ATOM     11  C   UNL     1      33.556 -19.575 -44.716  1.00  0.00     0.000 C 
BRANCH  11  12
ATOM     12  C   UNL     1      34.532 -19.143 -43.612  1.00  0.00     0.006 C 
BRANCH  12  13
ATOM     13  C   UNL     1      34.515 -17.627 -43.380  1.00  0.00     0.053 C 
BRANCH  13  14
ATOM     14  C   UNL     1      35.699 -16.956 -44.006  1.00  0.00     0.041 C 
ATOM     15  O   UNL     1      35.826 -16.935 -45.258  1.00  0.00    -0.550 OA
ATOM     16  O   UNL     1      36.678 -16.385 -43.204  1.00  0.00    -0.550 OA
ENDBRANCH  13  14
ENDBRANCH  12  13
ENDBRANCH  11  12
ENDBRANCH  10  11
ENDBRANCH   9  10
ENDBRANCH   8   9
ENDBRANCH   7   8
ENDBRANCH   6   7
ENDBRANCH   5   6
ENDBRANCH   4   5
ENDBRANCH   3   4
ENDBRANCH   2   3
ENDBRANCH   1   2
BRANCH   1  17
ATOM     17  C   UNL     1      38.802 -24.210 -43.824  1.00  0.00     0.000 C 
BRANCH  17  18
ATOM     18  C   UNL     1      37.886 -23.671 -42.717  1.00  0.00     0.000 C 
BRANCH  18  19
ATOM     19  C   UNL     1      37.593 -22.178 -42.929  1.00  0.00     0.000 C 
BRANCH  19  20
ATOM     20  C   UNL     1      37.823 -21.339 -41.658  1.00  0.00     0.000 C 
BRANCH  20  21
ATOM     21  C   UNL     1      37.517 -19.836 -41.812  1.00  0.00     0.000 C 
BRANCH  21  22
ATOM     22  C   UNL     1      37.397 -19.051 -40.491  1.00  0.00    -0.000 C 
BRANCH  22  23
ATOM     23  C   UNL     1      36.025 -19.135 -39.798  1.00  0.00    -0.000 C 
BRANCH  23  24
ATOM     24  C   UNL     1      36.128 -19.528 -38.315  1.00  0.00    -0.000 C 
BRANCH  24  25
ATOM     25  C   UNL     1      35.287 -20.768 -37.966  1.00  0.00    -0.000 C 
BRANCH  25  26
ATOM     26  C   UNL     1      35.950 -22.102 -38.368  1.00  0.00    -0.000 C 
BRANCH  26  27
ATOM     27  C   UNL     1      35.261 -22.749 -39.578  1.00  0.00    -0.000 C 
BRANCH  27  28
ATOM     28  C   UNL     1      33.842 -22.200 -39.765  1.00  0.00    -0.000 C 
BRANCH  28  29
ATOM     29  C   UNL     1      33.643 -21.666 -41.189  1.00  0.00    -0.003 C 
ATOM     30  C   UNL     1      32.166 -21.422 -41.484  1.00  0.00     0.004 C 
ENDBRANCH  28  29
ENDBRANCH  27  28
ENDBRANCH  26  27
ENDBRANCH  25  26
ENDBRANCH  24  25
ENDBRANCH  23  24
ENDBRANCH  22  23
ENDBRANCH  21  22
ENDBRANCH  20  21
ENDBRANCH  19  20
ENDBRANCH  18  19
ENDBRANCH  17  18
ENDBRANCH   1  17
TORSDOF 26
ENDMDL
MODEL 9
REMARK VINA RESULT:    -5.215     11.004     14.241
REMARK INTER + INTRA:         -16.595
REMARK INTER:                 -11.391
REMARK INTRA:                  -5.203
REMARK UNBOUND:                -3.454
REMARK SMILES CCCCCCCCCCCCCCCCCCCCCCCCCCCC(=O)[O-]
REMARK SMILES IDX 15 1 16 2 17 3 18 4 19 5 20 6 21 7 22 8 23 9 24 10 25 11
REMARK SMILES IDX 26 12 27 13 28 14 29 15 30 16 14 17 13 18 12 19 11 20 10 21
REMARK SMILES IDX 9 22 8 23 7 24 6 25 5 26 4 27 3 28 2 29 1 30
REMARK H PARENT
REMARK Flexibility Score: inf
ROOT
ATOM      1  C   UNL     1      38.328 -24.378 -34.965  1.00  0.00     0.000 C 
ENDROOT
BRANCH   1   2
ATOM      2  C   UNL     1      39.643 -24.172 -34.186  1.00  0.00     0.000 C 
BRANCH   2   3
ATOM      3  C   UNL     1      40.465 -22.937 -34.607  1.00  0.00     0.000 C 
BRANCH   3   4
ATOM      4  C   UNL     1      41.260 -22.264 -33.470  1.00  0.00     0.000 C 
BRANCH   4   5
ATOM      5  C   UNL     1      40.964 -20.766 -33.276  1.00  0.00     0.000 C 
BRANCH   5   6
ATOM      6  C   UNL     1      40.710 -20.397 -31.804  1.00  0.00     0.000 C 
BRANCH   6   7
ATOM      7  C   UNL     1      40.645 -21.631 -30.887  1.00  0.00     0.000 C 
BRANCH   7   8
ATOM      8  C   UNL     1      39.234 -21.985 -30.378  1.00  0.00     0.000 C 
BRANCH   8   9
ATOM      9  C   UNL     1      38.079 -21.228 -31.065  1.00  0.00     0.000 C 
BRANCH   9  10
ATOM     10  C   UNL     1      37.385 -21.996 -32.206  1.00  0.00     0.000 C 
BRANCH  10  11
ATOM     11  C   UNL     1      37.281 -21.176 -33.499  1.00  0.00     0.000 C 
BRANCH  11  12
ATOM     12  C   UNL     1      35.992 -21.515 -34.261  1.00  0.00     0.006 C 
BRANCH  12  13
ATOM     13  C   UNL     1      35.098 -20.286 -34.471  1.00  0.00     0.053 C 
BRANCH  13  14
ATOM     14  C   UNL     1      34.668 -19.685 -33.168  1.00  0.00     0.041 C 
ATOM     15  O   UNL     1      33.746 -20.220 -32.497  1.00  0.00    -0.550 OA
ATOM     16  O   UNL     1      35.262 -18.515 -32.713  1.00  0.00    -0.550 OA
ENDBRANCH  13  14
ENDBRANCH  12  13
ENDBRANCH  11  12
ENDBRANCH  10  11
ENDBRANCH   9  10
ENDBRANCH   8   9
ENDBRANCH   7   8
ENDBRANCH   6   7
ENDBRANCH   5   6
ENDBRANCH   4   5
ENDBRANCH   3   4
ENDBRANCH   2   3
ENDBRANCH   1   2
BRANCH   1  17
ATOM     17  C   UNL     1      38.212 -25.725 -35.702  1.00  0.00     0.000 C 
BRANCH  17  18
ATOM     18  C   UNL     1      36.842 -25.929 -36.363  1.00  0.00     0.000 C 
BRANCH  18  19
ATOM     19  C   UNL     1      35.891 -24.773 -36.018  1.00  0.00     0.000 C 
BRANCH  19  20
ATOM     20  C   UNL     1      34.418 -25.103 -36.319  1.00  0.00     0.000 C 
BRANCH  20  21
ATOM     21  C   UNL     1      33.753 -24.188 -37.367  1.00  0.00     0.000 C 
BRANCH  21  22
ATOM     22  C   UNL     1      33.049 -22.940 -36.798  1.00  0.00    -0.000 C 
BRANCH  22  23
ATOM     23  C   UNL     1      33.410 -21.611 -37.485  1.00  0.00    -0.000 C 
BRANCH  23  24
ATOM     24  C   UNL     1      34.565 -21.754 -38.491  1.00  0.00    -0.000 C 
BRANCH  24  25
ATOM     25  C   UNL     1      35.827 -20.985 -38.063  1.00  0.00    -0.000 C 
BRANCH  25  26
ATOM     26  C   UNL     1      37.057 -21.888 -37.835  1.00  0.00    -0.000 C 
BRANCH  26  27
ATOM     27  C   UNL     1      38.201 -21.563 -38.806  1.00  0.00    -0.000 C 
BRANCH  27  28
ATOM     28  C   UNL     1      39.234 -20.638 -38.153  1.00  0.00    -0.000 C 
BRANCH  28  29
ATOM     29  C   UNL     1      38.979 -20.504 -36.648  1.00  0.00    -0.003 C 
ATOM     30  C   UNL     1      39.264 -19.085 -36.164  1.00  0.00     0.004 C 
ENDBRANCH  28  29
ENDBRANCH  27  28
ENDBRANCH  26  27
ENDBRANCH  25  26
ENDBRANCH  24  25
ENDBRANCH  23  24
ENDBRANCH  22  23
ENDBRANCH  21  22
ENDBRANCH  20  21
ENDBRANCH  19  20
ENDBRANCH  18  19
ENDBRANCH  17  18
ENDBRANCH   1  17
TORSDOF 26
ENDMDL
