MODEL 1
REMARK VINA RESULT:    -4.521      0.000      0.000
REMARK INTER + INTRA:          -5.148
REMARK INTER:                  -4.918
REMARK INTRA:                  -0.231
REMARK UNBOUND:                -0.231
REMARK SMILES O=C([O-])c1ccccc1O
REMARK SMILES IDX 4 1 9 2 5 3 8 4 6 5 7 6 2 7 1 8 3 9 10 10
REMARK H PARENT 10 11
REMARK Flexibility Score: inf
ROOT
ATOM      1  C   UNL     1     -18.746  14.823 -28.897  1.00  0.00     0.039 A 
ATOM      2  C   UNL     1     -19.341  13.548 -29.049  1.00  0.00     0.124 A 
ATOM      3  C   UNL     1     -17.665  14.966 -28.007  1.00  0.00     0.014 A 
ATOM      4  C   UNL     1     -18.851  12.455 -28.317  1.00  0.00     0.047 A 
ATOM      5  C   UNL     1     -17.187  13.870 -27.284  1.00  0.00     0.001 A 
ATOM      6  C   UNL     1     -17.778  12.617 -27.439  1.00  0.00     0.004 A 
ENDROOT
BRANCH   1   7
ATOM      7  C   UNL     1     -19.228  16.010 -29.649  1.00  0.00     0.075 C 
ATOM      8  O   UNL     1     -19.707  15.895 -30.808  1.00  0.00    -0.545 OA
ATOM      9  O   UNL     1     -19.159  17.276 -29.079  1.00  0.00    -0.545 OA
ENDBRANCH   1   7
BRANCH   2  10
ATOM     10  O   UNL     1     -20.415  13.360 -29.921  1.00  0.00    -0.507 OA
ATOM     11  H   UNL     1     -20.273  13.111 -30.893  1.00  0.00     0.293 HD
ENDBRANCH   2  10
TORSDOF 2
ENDMDL
MODEL 2
REMARK VINA RESULT:    -4.381      0.961      2.695
REMARK INTER + INTRA:          -4.996
REMARK INTER:                  -4.769
REMARK INTRA:                  -0.226
REMARK UNBOUND:                -0.231
REMARK SMILES O=C([O-])c1ccccc1O
REMARK SMILES IDX 4 1 9 2 5 3 8 4 6 5 7 6 2 7 1 8 3 9 10 10
REMARK H PARENT 10 11
REMARK Flexibility Score: inf
ROOT
ATOM      1  C   UNL     1     -19.183  13.673 -28.921  1.00  0.00     0.039 A 
ATOM      2  C   UNL     1     -18.500  14.881 -28.639  1.00  0.00     0.124 A 
ATOM      3  C   UNL     1     -18.753  12.488 -28.294  1.00  0.00     0.014 A 
ATOM      4  C   UNL     1     -17.415  14.880 -27.749  1.00  0.00     0.047 A 
ATOM      5  C   UNL     1     -17.671  12.501 -27.410  1.00  0.00     0.001 A 
ATOM      6  C   UNL     1     -17.004  13.694 -27.138  1.00  0.00     0.004 A 
ENDROOT
BRANCH   1   7
ATOM      7  C   UNL     1     -20.337  13.623 -29.855  1.00  0.00     0.075 C 
ATOM      8  O   UNL     1     -21.101  14.613 -29.998  1.00  0.00    -0.545 OA
ATOM      9  O   UNL     1     -20.591  12.472 -30.592  1.00  0.00    -0.545 OA
ENDBRANCH   1   7
BRANCH   2  10
ATOM     10  O   UNL     1     -18.892  16.080 -29.237  1.00  0.00    -0.507 OA
ATOM     11  H   UNL     1     -18.313  16.544 -29.927  1.00  0.00     0.293 HD
ENDBRANCH   2  10
TORSDOF 2
ENDMDL
MODEL 3
REMARK VINA RESULT:    -4.259      1.416      2.370
REMARK INTER + INTRA:          -4.863
REMARK INTER:                  -4.626
REMARK INTRA:                  -0.238
REMARK UNBOUND:                -0.231
REMARK SMILES O=C([O-])c1ccccc1O
REMARK SMILES IDX 4 1 9 2 5 3 8 4 6 5 7 6 2 7 1 8 3 9 10 10
REMARK H PARENT 10 11
REMARK Flexibility Score: inf
ROOT
ATOM      1  C   UNL     1     -19.132  13.604 -28.948  1.00  0.00     0.039 A 
ATOM      2  C   UNL     1     -18.753  12.435 -28.246  1.00  0.00     0.124 A 
ATOM      3  C   UNL     1     -18.414  14.794 -28.722  1.00  0.00     0.014 A 
ATOM      4  C   UNL     1     -17.679  12.478 -27.343  1.00  0.00     0.047 A 
ATOM      5  C   UNL     1     -17.347  14.822 -27.820  1.00  0.00     0.001 A 
ATOM      6  C   UNL     1     -16.981  13.668 -27.132  1.00  0.00     0.004 A 
ENDROOT
BRANCH   1   7
ATOM      7  C   UNL     1     -20.260  13.609 -29.914  1.00  0.00     0.075 C 
ATOM      8  O   UNL     1     -20.992  14.624 -30.053  1.00  0.00    -0.545 OA
ATOM      9  O   UNL     1     -20.526  12.484 -30.687  1.00  0.00    -0.545 OA
ENDBRANCH   1   7
BRANCH   2  10
ATOM     10  O   UNL     1     -19.435  11.232 -28.439  1.00  0.00    -0.507 OA
ATOM     11  H   UNL     1     -19.172  10.583 -29.170  1.00  0.00     0.293 HD
ENDBRANCH   2  10
TORSDOF 2
ENDMDL
MODEL 4
REMARK VINA RESULT:    -4.217      2.286      3.414
REMARK INTER + INTRA:          -4.817
REMARK INTER:                  -4.563
REMARK INTRA:                  -0.254
REMARK UNBOUND:                -0.231
REMARK SMILES O=C([O-])c1ccccc1O
REMARK SMILES IDX 4 1 9 2 5 3 8 4 6 5 7 6 2 7 1 8 3 9 10 10
REMARK H PARENT 10 11
REMARK Flexibility Score: inf
ROOT
ATOM      1  C   UNL     1     -18.666  13.221 -28.151  1.00  0.00     0.039 A 
ATOM      2  C   UNL     1     -19.029  13.677 -29.441  1.00  0.00     0.124 A 
ATOM      3  C   UNL     1     -19.519  12.321 -27.485  1.00  0.00     0.014 A 
ATOM      4  C   UNL     1     -20.221  13.232 -30.032  1.00  0.00     0.047 A 
ATOM      5  C   UNL     1     -20.704  11.885 -28.085  1.00  0.00     0.001 A 
ATOM      6  C   UNL     1     -21.054  12.339 -29.355  1.00  0.00     0.004 A 
ENDROOT
BRANCH   1   7
ATOM      7  C   UNL     1     -17.415  13.663 -27.484  1.00  0.00     0.075 C 
ATOM      8  O   UNL     1     -16.621  12.830 -26.973  1.00  0.00    -0.545 OA
ATOM      9  O   UNL     1     -17.098  15.015 -27.414  1.00  0.00    -0.545 OA
ENDBRANCH   1   7
BRANCH   2  10
ATOM     10  O   UNL     1     -18.213  14.570 -30.138  1.00  0.00    -0.507 OA
ATOM     11  H   UNL     1     -18.337  15.572 -30.065  1.00  0.00     0.293 HD
ENDBRANCH   2  10
TORSDOF 2
ENDMDL
MODEL 5
REMARK VINA RESULT:    -4.150      1.133      2.162
REMARK INTER + INTRA:          -4.744
REMARK INTER:                  -4.515
REMARK INTRA:                  -0.229
REMARK UNBOUND:                -0.231
REMARK SMILES O=C([O-])c1ccccc1O
REMARK SMILES IDX 4 1 9 2 5 3 8 4 6 5 7 6 2 7 1 8 3 9 10 10
REMARK H PARENT 10 11
REMARK Flexibility Score: inf
ROOT
ATOM      1  C   UNL     1     -18.942  14.783 -29.089  1.00  0.00     0.039 A 
ATOM      2  C   UNL     1     -18.082  14.612 -27.978  1.00  0.00     0.124 A 
ATOM      3  C   UNL     1     -19.589  13.654 -29.626  1.00  0.00     0.014 A 
ATOM      4  C   UNL     1     -17.887  13.334 -27.433  1.00  0.00     0.047 A 
ATOM      5  C   UNL     1     -19.387  12.386 -29.073  1.00  0.00     0.001 A 
ATOM      6  C   UNL     1     -18.538  12.227 -27.980  1.00  0.00     0.004 A 
ENDROOT
BRANCH   1   7
ATOM      7  C   UNL     1     -19.181  16.115 -29.701  1.00  0.00     0.075 C 
ATOM      8  O   UNL     1     -19.436  16.230 -30.929  1.00  0.00    -0.545 OA
ATOM      9  O   UNL     1     -19.127  17.264 -28.920  1.00  0.00    -0.545 OA
ENDBRANCH   1   7
BRANCH   2  10
ATOM     10  O   UNL     1     -17.420  15.704 -27.413  1.00  0.00    -0.507 OA
ATOM     11  H   UNL     1     -17.279  16.565 -27.928  1.00  0.00     0.293 HD
ENDBRANCH   2  10
TORSDOF 2
ENDMDL
MODEL 6
REMARK VINA RESULT:    -3.985      2.406      4.181
REMARK INTER + INTRA:          -4.565
REMARK INTER:                  -4.355
REMARK INTRA:                  -0.210
REMARK UNBOUND:                -0.231
REMARK SMILES O=C([O-])c1ccccc1O
REMARK SMILES IDX 4 1 9 2 5 3 8 4 6 5 7 6 2 7 1 8 3 9 10 10
REMARK H PARENT 10 11
REMARK Flexibility Score: inf
ROOT
ATOM      1  C   UNL     1     -18.669  13.095 -28.354  1.00  0.00     0.039 A 
ATOM      2  C   UNL     1     -18.135  14.406 -28.365  1.00  0.00     0.124 A 
ATOM      3  C   UNL     1     -19.773  12.805 -29.177  1.00  0.00     0.014 A 
ATOM      4  C   UNL     1     -18.708  15.388 -29.188  1.00  0.00     0.047 A 
ATOM      5  C   UNL     1     -20.334  13.793 -29.991  1.00  0.00     0.001 A 
ATOM      6  C   UNL     1     -19.803  15.081 -29.997  1.00  0.00     0.004 A 
ENDROOT
BRANCH   1   7
ATOM      7  C   UNL     1     -18.098  12.021 -27.501  1.00  0.00     0.075 C 
ATOM      8  O   UNL     1     -18.790  11.028 -27.156  1.00  0.00    -0.545 OA
ATOM      9  O   UNL     1     -16.778  12.097 -27.069  1.00  0.00    -0.545 OA
ENDBRANCH   1   7
BRANCH   2  10
ATOM     10  O   UNL     1     -17.040  14.738 -27.566  1.00  0.00    -0.507 OA
ATOM     11  H   UNL     1     -16.399  15.479 -27.823  1.00  0.00     0.293 HD
ENDBRANCH   2  10
TORSDOF 2
ENDMDL
MODEL 7
REMARK VINA RESULT:    -3.984      2.365      3.443
REMARK INTER + INTRA:          -4.564
REMARK INTER:                  -4.344
REMARK INTRA:                  -0.221
REMARK UNBOUND:                -0.231
REMARK SMILES O=C([O-])c1ccccc1O
REMARK SMILES IDX 4 1 9 2 5 3 8 4 6 5 7 6 2 7 1 8 3 9 10 10
REMARK H PARENT 10 11
REMARK Flexibility Score: inf
ROOT
ATOM      1  C   UNL     1     -18.595  13.849 -28.383  1.00  0.00     0.039 A 
ATOM      2  C   UNL     1     -19.532  12.796 -28.246  1.00  0.00     0.124 A 
ATOM      3  C   UNL     1     -18.847  14.864 -29.325  1.00  0.00     0.014 A 
ATOM      4  C   UNL     1     -20.687  12.780 -29.044  1.00  0.00     0.047 A 
ATOM      5  C   UNL     1     -20.001  14.835 -30.113  1.00  0.00     0.001 A 
ATOM      6  C   UNL     1     -20.919  13.795 -29.973  1.00  0.00     0.004 A 
ENDROOT
BRANCH   1   7
ATOM      7  C   UNL     1     -17.359  13.911 -27.562  1.00  0.00     0.075 C 
ATOM      8  O   UNL     1     -16.808  15.012 -27.299  1.00  0.00    -0.545 OA
ATOM      9  O   UNL     1     -16.788  12.745 -27.065  1.00  0.00    -0.545 OA
ENDBRANCH   1   7
BRANCH   2  10
ATOM     10  O   UNL     1     -19.324  11.769 -27.325  1.00  0.00    -0.507 OA
ATOM     11  H   UNL     1     -18.394  11.431 -27.106  1.00  0.00     0.293 HD
ENDBRANCH   2  10
TORSDOF 2
ENDMDL
MODEL 8
REMARK VINA RESULT:    -3.850      2.209      3.729
REMARK INTER + INTRA:          -4.418
REMARK INTER:                  -4.172
REMARK INTRA:                  -0.246
REMARK UNBOUND:                -0.231
REMARK SMILES O=C([O-])c1ccccc1O
REMARK SMILES IDX 4 1 9 2 5 3 8 4 6 5 7 6 2 7 1 8 3 9 10 10
REMARK H PARENT 10 11
REMARK Flexibility Score: inf
ROOT
ATOM      1  C   UNL     1     -18.124  13.091 -27.898  1.00  0.00     0.039 A 
ATOM      2  C   UNL     1     -18.994  13.310 -28.993  1.00  0.00     0.124 A 
ATOM      3  C   UNL     1     -17.509  14.201 -27.288  1.00  0.00     0.014 A 
ATOM      4  C   UNL     1     -19.229  14.615 -29.451  1.00  0.00     0.047 A 
ATOM      5  C   UNL     1     -17.751  15.496 -27.755  1.00  0.00     0.001 A 
ATOM      6  C   UNL     1     -18.609  15.703 -28.833  1.00  0.00     0.004 A 
ENDROOT
BRANCH   1   7
ATOM      7  C   UNL     1     -17.844  11.730 -27.376  1.00  0.00     0.075 C 
ATOM      8  O   UNL     1     -18.761  10.875 -27.263  1.00  0.00    -0.545 OA
ATOM      9  O   UNL     1     -16.552  11.374 -27.002  1.00  0.00    -0.545 OA
ENDBRANCH   1   7
BRANCH   2  10
ATOM     10  O   UNL     1     -19.626  12.239 -29.627  1.00  0.00    -0.507 OA
ATOM     11  H   UNL     1     -19.116  11.408 -29.904  1.00  0.00     0.293 HD
ENDBRANCH   2  10
TORSDOF 2
ENDMDL
MODEL 9
REMARK VINA RESULT:    -3.471      1.753      2.699
REMARK INTER + INTRA:          -4.006
REMARK INTER:                  -3.773
REMARK INTRA:                  -0.232
REMARK UNBOUND:                -0.231
REMARK SMILES O=C([O-])c1ccccc1O
REMARK SMILES IDX 4 1 9 2 5 3 8 4 6 5 7 6 2 7 1 8 3 9 10 10
REMARK H PARENT 10 11
REMARK Flexibility Score: inf
ROOT
ATOM      1  C   UNL     1     -19.580  13.523 -29.156  1.00  0.00     0.039 A 
ATOM      2  C   UNL     1     -20.922  13.474 -29.603  1.00  0.00     0.124 A 
ATOM      3  C   UNL     1     -19.004  12.361 -28.609  1.00  0.00     0.014 A 
ATOM      4  C   UNL     1     -21.654  12.281 -29.494  1.00  0.00     0.047 A 
ATOM      5  C   UNL     1     -19.744  11.179 -28.507  1.00  0.00     0.001 A 
ATOM      6  C   UNL     1     -21.065  11.140 -28.948  1.00  0.00     0.004 A 
ENDROOT
BRANCH   1   7
ATOM      7  C   UNL     1     -18.765  14.761 -29.250  1.00  0.00     0.075 C 
ATOM      8  O   UNL     1     -17.868  15.015 -28.404  1.00  0.00    -0.545 OA
ATOM      9  O   UNL     1     -18.981  15.665 -30.285  1.00  0.00    -0.545 OA
ENDBRANCH   1   7
BRANCH   2  10
ATOM     10  O   UNL     1     -21.533  14.603 -30.153  1.00  0.00    -0.507 OA
ATOM     11  H   UNL     1     -21.380  14.874 -31.117  1.00  0.00     0.293 HD
ENDBRANCH   2  10
TORSDOF 2
ENDMDL
