MODEL 1
REMARK VINA RESULT:    -5.112      0.000      0.000
REMARK INTER + INTRA:         -10.512
REMARK INTER:                  -9.296
REMARK INTRA:                  -1.216
REMARK UNBOUND:                -1.216
REMARK SMILES CCCCCCCCCCCCCCCC(=O)[O-]
REMARK SMILES IDX 9 1 10 2 11 3 12 4 13 5 14 6 15 7 16 8 17 9 18 10 8 11 7 12
REMARK SMILES IDX 6 13 5 14 4 15 3 16 2 17 1 18
REMARK H PARENT
REMARK Flexibility Score: inf
ROOT
ATOM      1  C   UNL     1     -19.839  41.981  86.332  1.00  0.00     0.000 C 
ENDROOT
BRANCH   1   2
ATOM      2  C   UNL     1     -20.899  40.981  86.834  1.00  0.00     0.000 C 
BRANCH   2   3
ATOM      3  C   UNL     1     -20.312  39.826  87.675  1.00  0.00     0.000 C 
BRANCH   3   4
ATOM      4  C   UNL     1     -20.707  38.445  87.123  1.00  0.00     0.000 C 
BRANCH   4   5
ATOM      5  C   UNL     1     -20.531  38.344  85.601  1.00  0.00     0.000 C 
BRANCH   5   6
ATOM      6  C   UNL     1     -19.201  37.679  85.203  1.00  0.00     0.006 C 
BRANCH   6   7
ATOM      7  C   UNL     1     -19.132  37.379  83.700  1.00  0.00     0.053 C 
BRANCH   7   8
ATOM      8  C   UNL     1     -17.823  36.756  83.320  1.00  0.00     0.041 C 
ATOM      9  O   UNL     1     -16.789  37.467  83.216  1.00  0.00    -0.550 OA
ATOM     10  O   UNL     1     -17.740  35.385  83.113  1.00  0.00    -0.550 OA
ENDBRANCH   7   8
ENDBRANCH   6   7
ENDBRANCH   5   6
ENDBRANCH   4   5
ENDBRANCH   3   4
ENDBRANCH   2   3
ENDBRANCH   1   2
BRANCH   1  11
ATOM     11  C   UNL     1     -20.409  43.249  85.671  1.00  0.00     0.000 C 
BRANCH  11  12
ATOM     12  C   UNL     1     -20.817  44.363  86.656  1.00  0.00    -0.000 C 
BRANCH  12  13
ATOM     13  C   UNL     1     -21.086  45.722  85.975  1.00  0.00    -0.000 C 
BRANCH  13  14
ATOM     14  C   UNL     1     -21.239  45.592  84.451  1.00  0.00    -0.000 C 
BRANCH  14  15
ATOM     15  C   UNL     1     -20.242  46.468  83.670  1.00  0.00    -0.000 C 
BRANCH  15  16
ATOM     16  C   UNL     1     -18.913  45.780  83.313  1.00  0.00    -0.000 C 
BRANCH  16  17
ATOM     17  C   UNL     1     -17.750  46.224  84.212  1.00  0.00    -0.003 C 
ATOM     18  C   UNL     1     -17.293  45.087  85.120  1.00  0.00     0.004 C 
ENDBRANCH  16  17
ENDBRANCH  15  16
ENDBRANCH  14  15
ENDBRANCH  13  14
ENDBRANCH  12  13
ENDBRANCH  11  12
ENDBRANCH   1  11
TORSDOF 14
ENDMDL
MODEL 2
REMARK VINA RESULT:    -5.055      6.387      8.704
REMARK INTER + INTRA:         -10.408
REMARK INTER:                  -8.475
REMARK INTRA:                  -1.933
REMARK UNBOUND:                -1.216
REMARK SMILES CCCCCCCCCCCCCCCC(=O)[O-]
REMARK SMILES IDX 9 1 10 2 11 3 12 4 13 5 14 6 15 7 16 8 17 9 18 10 8 11 7 12
REMARK SMILES IDX 6 13 5 14 4 15 3 16 2 17 1 18
REMARK H PARENT
REMARK Flexibility Score: inf
ROOT
ATOM      1  C   UNL     1     -23.260  46.236  86.713  1.00  0.00     0.000 C 
ENDROOT
BRANCH   1   2
ATOM      2  C   UNL     1     -24.588  46.904  87.120  1.00  0.00     0.000 C 
BRANCH   2   3
ATOM      3  C   UNL     1     -25.779  45.924  87.189  1.00  0.00     0.000 C 
BRANCH   3   4
ATOM      4  C   UNL     1     -26.407  45.866  88.592  1.00  0.00     0.000 C 
BRANCH   4   5
ATOM      5  C   UNL     1     -25.412  45.398  89.665  1.00  0.00     0.000 C 
BRANCH   5   6
ATOM      6  C   UNL     1     -25.905  44.152  90.422  1.00  0.00     0.006 C 
BRANCH   6   7
ATOM      7  C   UNL     1     -27.368  44.286  90.865  1.00  0.00     0.053 C 
BRANCH   7   8
ATOM      8  C   UNL     1     -28.191  43.117  90.419  1.00  0.00     0.041 C 
ATOM      9  O   UNL     1     -29.110  42.671  91.155  1.00  0.00    -0.550 OA
ATOM     10  O   UNL     1     -27.965  42.541  89.176  1.00  0.00    -0.550 OA
ENDBRANCH   7   8
ENDBRANCH   6   7
ENDBRANCH   5   6
ENDBRANCH   4   5
ENDBRANCH   3   4
ENDBRANCH   2   3
ENDBRANCH   1   2
BRANCH   1  11
ATOM     11  C   UNL     1     -22.208  46.154  87.834  1.00  0.00     0.000 C 
BRANCH  11  12
ATOM     12  C   UNL     1     -22.027  44.752  88.448  1.00  0.00    -0.000 C 
BRANCH  12  13
ATOM     13  C   UNL     1     -22.827  43.650  87.721  1.00  0.00    -0.000 C 
BRANCH  13  14
ATOM     14  C   UNL     1     -22.053  42.325  87.638  1.00  0.00    -0.000 C 
BRANCH  14  15
ATOM     15  C   UNL     1     -20.531  42.525  87.514  1.00  0.00    -0.000 C 
BRANCH  15  16
ATOM     16  C   UNL     1     -19.982  42.461  86.078  1.00  0.00    -0.000 C 
BRANCH  16  17
ATOM     17  C   UNL     1     -19.392  43.797  85.604  1.00  0.00    -0.003 C 
ATOM     18  C   UNL     1     -20.444  44.638  84.886  1.00  0.00     0.004 C 
ENDBRANCH  16  17
ENDBRANCH  15  16
ENDBRANCH  14  15
ENDBRANCH  13  14
ENDBRANCH  12  13
ENDBRANCH  11  12
ENDBRANCH   1  11
TORSDOF 14
ENDMDL
MODEL 3
REMARK VINA RESULT:    -5.034      6.082      8.205
REMARK INTER + INTRA:         -10.371
REMARK INTER:                  -9.184
REMARK INTRA:                  -1.187
REMARK UNBOUND:                -1.216
REMARK SMILES CCCCCCCCCCCCCCCC(=O)[O-]
REMARK SMILES IDX 9 1 10 2 11 3 12 4 13 5 14 6 15 7 16 8 17 9 18 10 8 11 7 12
REMARK SMILES IDX 6 13 5 14 4 15 3 16 2 17 1 18
REMARK H PARENT
REMARK Flexibility Score: inf
ROOT
ATOM      1  C   UNL     1     -22.044  45.678  86.100  1.00  0.00     0.000 C 
ENDROOT
BRANCH   1   2
ATOM      2  C   UNL     1     -23.347  45.947  86.877  1.00  0.00     0.000 C 
BRANCH   2   3
ATOM      3  C   UNL     1     -23.138  46.118  88.398  1.00  0.00     0.000 C 
BRANCH   3   4
ATOM      4  C   UNL     1     -24.469  46.156  89.168  1.00  0.00     0.000 C 
BRANCH   4   5
ATOM      5  C   UNL     1     -25.363  44.945  88.862  1.00  0.00     0.000 C 
BRANCH   5   6
ATOM      6  C   UNL     1     -26.704  44.996  89.617  1.00  0.00     0.006 C 
BRANCH   6   7
ATOM      7  C   UNL     1     -26.873  43.811  90.577  1.00  0.00     0.053 C 
BRANCH   7   8
ATOM      8  C   UNL     1     -28.081  42.992  90.239  1.00  0.00     0.041 C 
ATOM      9  O   UNL     1     -28.942  42.738  91.122  1.00  0.00    -0.550 OA
ATOM     10  O   UNL     1     -28.271  42.537  88.941  1.00  0.00    -0.550 OA
ENDBRANCH   7   8
ENDBRANCH   6   7
ENDBRANCH   5   6
ENDBRANCH   4   5
ENDBRANCH   3   4
ENDBRANCH   2   3
ENDBRANCH   1   2
BRANCH   1  11
ATOM     11  C   UNL     1     -20.921  45.026  86.928  1.00  0.00     0.000 C 
BRANCH  11  12
ATOM     12  C   UNL     1     -20.532  43.603  86.479  1.00  0.00    -0.000 C 
BRANCH  12  13
ATOM     13  C   UNL     1     -19.614  43.575  85.237  1.00  0.00    -0.000 C 
BRANCH  13  14
ATOM     14  C   UNL     1     -18.427  44.542  85.367  1.00  0.00    -0.000 C 
BRANCH  14  15
ATOM     15  C   UNL     1     -18.151  45.333  84.075  1.00  0.00    -0.000 C 
BRANCH  15  16
ATOM     16  C   UNL     1     -18.728  46.759  84.050  1.00  0.00    -0.000 C 
BRANCH  16  17
ATOM     17  C   UNL     1     -19.493  47.071  82.755  1.00  0.00    -0.003 C 
ATOM     18  C   UNL     1     -20.677  46.126  82.576  1.00  0.00     0.004 C 
ENDBRANCH  16  17
ENDBRANCH  15  16
ENDBRANCH  14  15
ENDBRANCH  13  14
ENDBRANCH  12  13
ENDBRANCH  11  12
ENDBRANCH   1  11
TORSDOF 14
ENDMDL
MODEL 4
REMARK VINA RESULT:    -5.016      3.209      3.834
REMARK INTER + INTRA:         -10.337
REMARK INTER:                  -9.005
REMARK INTRA:                  -1.332
REMARK UNBOUND:                -1.216
REMARK SMILES CCCCCCCCCCCCCCCC(=O)[O-]
REMARK SMILES IDX 9 1 10 2 11 3 12 4 13 5 14 6 15 7 16 8 17 9 18 10 8 11 7 12
REMARK SMILES IDX 6 13 5 14 4 15 3 16 2 17 1 18
REMARK H PARENT
REMARK Flexibility Score: inf
ROOT
ATOM      1  C   UNL     1     -20.371  43.439  86.092  1.00  0.00     0.000 C 
ENDROOT
BRANCH   1   2
ATOM      2  C   UNL     1     -20.424  42.448  87.272  1.00  0.00     0.000 C 
BRANCH   2   3
ATOM      3  C   UNL     1     -21.206  41.154  86.960  1.00  0.00     0.000 C 
BRANCH   3   4
ATOM      4  C   UNL     1     -20.277  39.942  86.771  1.00  0.00     0.000 C 
BRANCH   4   5
ATOM      5  C   UNL     1     -20.940  38.619  87.182  1.00  0.00     0.000 C 
BRANCH   5   6
ATOM      6  C   UNL     1     -20.229  37.947  88.369  1.00  0.00     0.006 C 
BRANCH   6   7
ATOM      7  C   UNL     1     -20.371  38.760  89.664  1.00  0.00     0.053 C 
BRANCH   7   8
ATOM      8  C   UNL     1     -19.051  39.289  90.133  1.00  0.00     0.041 C 
ATOM      9  O   UNL     1     -18.181  38.504  90.595  1.00  0.00    -0.550 OA
ATOM     10  O   UNL     1     -18.769  40.645  90.030  1.00  0.00    -0.550 OA
ENDBRANCH   7   8
ENDBRANCH   6   7
ENDBRANCH   5   6
ENDBRANCH   4   5
ENDBRANCH   3   4
ENDBRANCH   2   3
ENDBRANCH   1   2
BRANCH   1  11
ATOM     11  C   UNL     1     -20.680  44.901  86.461  1.00  0.00     0.000 C 
BRANCH  11  12
ATOM     12  C   UNL     1     -21.813  45.549  85.641  1.00  0.00    -0.000 C 
BRANCH  12  13
ATOM     13  C   UNL     1     -21.332  46.685  84.712  1.00  0.00    -0.000 C 
BRANCH  13  14
ATOM     14  C   UNL     1     -21.192  46.225  83.252  1.00  0.00    -0.000 C 
BRANCH  14  15
ATOM     15  C   UNL     1     -19.766  46.404  82.699  1.00  0.00    -0.000 C 
BRANCH  15  16
ATOM     16  C   UNL     1     -18.721  45.427  83.267  1.00  0.00    -0.000 C 
BRANCH  16  17
ATOM     17  C   UNL     1     -17.746  46.098  84.244  1.00  0.00    -0.003 C 
ATOM     18  C   UNL     1     -17.136  45.076  85.200  1.00  0.00     0.004 C 
ENDBRANCH  16  17
ENDBRANCH  15  16
ENDBRANCH  14  15
ENDBRANCH  13  14
ENDBRANCH  12  13
ENDBRANCH  11  12
ENDBRANCH   1  11
TORSDOF 14
ENDMDL
MODEL 5
REMARK VINA RESULT:    -4.996      6.431      8.662
REMARK INTER + INTRA:         -10.302
REMARK INTER:                  -9.380
REMARK INTRA:                  -0.922
REMARK UNBOUND:                -1.216
REMARK SMILES CCCCCCCCCCCCCCCC(=O)[O-]
REMARK SMILES IDX 9 1 10 2 11 3 12 4 13 5 14 6 15 7 16 8 17 9 18 10 8 11 7 12
REMARK SMILES IDX 6 13 5 14 4 15 3 16 2 17 1 18
REMARK H PARENT
REMARK Flexibility Score: inf
ROOT
ATOM      1  C   UNL     1     -23.409  46.736  85.540  1.00  0.00     0.000 C 
ENDROOT
BRANCH   1   2
ATOM      2  C   UNL     1     -24.136  46.975  86.878  1.00  0.00     0.000 C 
BRANCH   2   3
ATOM      3  C   UNL     1     -25.616  46.534  86.867  1.00  0.00     0.000 C 
BRANCH   3   4
ATOM      4  C   UNL     1     -26.274  46.664  88.251  1.00  0.00     0.000 C 
BRANCH   4   5
ATOM      5  C   UNL     1     -26.161  45.377  89.082  1.00  0.00     0.000 C 
BRANCH   5   6
ATOM      6  C   UNL     1     -27.181  45.327  90.233  1.00  0.00     0.006 C 
BRANCH   6   7
ATOM      7  C   UNL     1     -27.146  43.986  90.979  1.00  0.00     0.053 C 
BRANCH   7   8
ATOM      8  C   UNL     1     -28.242  43.071  90.527  1.00  0.00     0.041 C 
ATOM      9  O   UNL     1     -29.113  42.673  91.344  1.00  0.00    -0.550 OA
ATOM     10  O   UNL     1     -28.321  42.686  89.195  1.00  0.00    -0.550 OA
ENDBRANCH   7   8
ENDBRANCH   6   7
ENDBRANCH   5   6
ENDBRANCH   4   5
ENDBRANCH   3   4
ENDBRANCH   2   3
ENDBRANCH   1   2
BRANCH   1  11
ATOM     11  C   UNL     1     -21.956  46.243  85.673  1.00  0.00     0.000 C 
BRANCH  11  12
ATOM     12  C   UNL     1     -21.699  45.307  86.870  1.00  0.00    -0.000 C 
BRANCH  12  13
ATOM     13  C   UNL     1     -20.821  44.085  86.523  1.00  0.00    -0.000 C 
BRANCH  13  14
ATOM     14  C   UNL     1     -20.164  44.213  85.139  1.00  0.00    -0.000 C 
BRANCH  14  15
ATOM     15  C   UNL     1     -18.640  44.425  85.216  1.00  0.00    -0.000 C 
BRANCH  15  16
ATOM     16  C   UNL     1     -18.041  45.257  84.068  1.00  0.00    -0.000 C 
BRANCH  16  17
ATOM     17  C   UNL     1     -18.657  46.659  83.962  1.00  0.00    -0.003 C 
ATOM     18  C   UNL     1     -19.493  46.798  82.693  1.00  0.00     0.004 C 
ENDBRANCH  16  17
ENDBRANCH  15  16
ENDBRANCH  14  15
ENDBRANCH  13  14
ENDBRANCH  12  13
ENDBRANCH  11  12
ENDBRANCH   1  11
TORSDOF 14
ENDMDL
MODEL 6
REMARK VINA RESULT:    -4.950      6.406      8.504
REMARK INTER + INTRA:         -10.218
REMARK INTER:                  -9.024
REMARK INTRA:                  -1.194
REMARK UNBOUND:                -1.216
REMARK SMILES CCCCCCCCCCCCCCCC(=O)[O-]
REMARK SMILES IDX 9 1 10 2 11 3 12 4 13 5 14 6 15 7 16 8 17 9 18 10 8 11 7 12
REMARK SMILES IDX 6 13 5 14 4 15 3 16 2 17 1 18
REMARK H PARENT
REMARK Flexibility Score: inf
ROOT
ATOM      1  C   UNL     1     -23.567  46.886  86.304  1.00  0.00     0.000 C 
ENDROOT
BRANCH   1   2
ATOM      2  C   UNL     1     -25.053  47.084  86.664  1.00  0.00     0.000 C 
BRANCH   2   3
ATOM      3  C   UNL     1     -25.733  45.810  87.213  1.00  0.00     0.000 C 
BRANCH   3   4
ATOM      4  C   UNL     1     -25.871  45.837  88.745  1.00  0.00     0.000 C 
BRANCH   4   5
ATOM      5  C   UNL     1     -25.315  44.570  89.411  1.00  0.00     0.000 C 
BRANCH   5   6
ATOM      6  C   UNL     1     -26.097  44.177  90.677  1.00  0.00     0.006 C 
BRANCH   6   7
ATOM      7  C   UNL     1     -27.597  44.477  90.545  1.00  0.00     0.053 C 
BRANCH   7   8
ATOM      8  C   UNL     1     -28.386  43.237  90.254  1.00  0.00     0.041 C 
ATOM      9  O   UNL     1     -28.319  42.695  89.119  1.00  0.00    -0.550 OA
ATOM     10  O   UNL     1     -29.168  42.661  91.246  1.00  0.00    -0.550 OA
ENDBRANCH   7   8
ENDBRANCH   6   7
ENDBRANCH   5   6
ENDBRANCH   4   5
ENDBRANCH   3   4
ENDBRANCH   2   3
ENDBRANCH   1   2
BRANCH   1  11
ATOM     11  C   UNL     1     -22.599  46.940  87.501  1.00  0.00     0.000 C 
BRANCH  11  12
ATOM     12  C   UNL     1     -21.711  45.692  87.670  1.00  0.00    -0.000 C 
BRANCH  12  13
ATOM     13  C   UNL     1     -21.577  44.849  86.383  1.00  0.00    -0.000 C 
BRANCH  13  14
ATOM     14  C   UNL     1     -20.531  43.732  86.524  1.00  0.00    -0.000 C 
BRANCH  14  15
ATOM     15  C   UNL     1     -19.443  43.786  85.436  1.00  0.00    -0.000 C 
BRANCH  15  16
ATOM     16  C   UNL     1     -19.578  44.952  84.440  1.00  0.00    -0.000 C 
BRANCH  16  17
ATOM     17  C   UNL     1     -18.327  45.841  84.389  1.00  0.00    -0.003 C 
ATOM     18  C   UNL     1     -17.157  45.186  85.117  1.00  0.00     0.004 C 
ENDBRANCH  16  17
ENDBRANCH  15  16
ENDBRANCH  14  15
ENDBRANCH  13  14
ENDBRANCH  12  13
ENDBRANCH  11  12
ENDBRANCH   1  11
TORSDOF 14
ENDMDL
MODEL 7
REMARK VINA RESULT:    -4.908      6.347      8.865
REMARK INTER + INTRA:         -10.141
REMARK INTER:                  -8.262
REMARK INTRA:                  -1.879
REMARK UNBOUND:                -1.216
REMARK SMILES CCCCCCCCCCCCCCCC(=O)[O-]
REMARK SMILES IDX 9 1 10 2 11 3 12 4 13 5 14 6 15 7 16 8 17 9 18 10 8 11 7 12
REMARK SMILES IDX 6 13 5 14 4 15 3 16 2 17 1 18
REMARK H PARENT
REMARK Flexibility Score: inf
ROOT
ATOM      1  C   UNL     1     -22.355  46.625  87.055  1.00  0.00     0.000 C 
ENDROOT
BRANCH   1   2
ATOM      2  C   UNL     1     -23.664  46.584  87.868  1.00  0.00     0.000 C 
BRANCH   2   3
ATOM      3  C   UNL     1     -24.906  46.222  87.024  1.00  0.00     0.000 C 
BRANCH   3   4
ATOM      4  C   UNL     1     -26.029  45.605  87.876  1.00  0.00     0.000 C 
BRANCH   4   5
ATOM      5  C   UNL     1     -25.815  45.819  89.381  1.00  0.00     0.000 C 
BRANCH   5   6
ATOM      6  C   UNL     1     -26.119  44.555  90.206  1.00  0.00     0.006 C 
BRANCH   6   7
ATOM      7  C   UNL     1     -27.569  44.528  90.708  1.00  0.00     0.053 C 
BRANCH   7   8
ATOM      8  C   UNL     1     -28.260  43.252  90.337  1.00  0.00     0.041 C 
ATOM      9  O   UNL     1     -28.043  42.716  89.219  1.00  0.00    -0.550 OA
ATOM     10  O   UNL     1     -29.118  42.638  91.240  1.00  0.00    -0.550 OA
ENDBRANCH   7   8
ENDBRANCH   6   7
ENDBRANCH   5   6
ENDBRANCH   4   5
ENDBRANCH   3   4
ENDBRANCH   2   3
ENDBRANCH   1   2
BRANCH   1  11
ATOM     11  C   UNL     1     -22.489  46.173  85.589  1.00  0.00     0.000 C 
BRANCH  11  12
ATOM     12  C   UNL     1     -21.156  45.841  84.891  1.00  0.00    -0.000 C 
BRANCH  12  13
ATOM     13  C   UNL     1     -20.153  45.093  85.796  1.00  0.00    -0.000 C 
BRANCH  13  14
ATOM     14  C   UNL     1     -19.922  43.643  85.338  1.00  0.00    -0.000 C 
BRANCH  14  15
ATOM     15  C   UNL     1     -20.498  42.604  86.317  1.00  0.00    -0.000 C 
BRANCH  15  16
ATOM     16  C   UNL     1     -20.910  43.164  87.691  1.00  0.00    -0.000 C 
BRANCH  16  17
ATOM     17  C   UNL     1     -22.411  43.011  87.971  1.00  0.00    -0.003 C 
ATOM     18  C   UNL     1     -22.737  43.360  89.421  1.00  0.00     0.004 C 
ENDBRANCH  16  17
ENDBRANCH  15  16
ENDBRANCH  14  15
ENDBRANCH  13  14
ENDBRANCH  12  13
ENDBRANCH  11  12
ENDBRANCH   1  11
TORSDOF 14
ENDMDL
MODEL 8
REMARK VINA RESULT:    -4.908      2.926      4.520
REMARK INTER + INTRA:         -10.140
REMARK INTER:                  -8.304
REMARK INTRA:                  -1.836
REMARK UNBOUND:                -1.216
REMARK SMILES CCCCCCCCCCCCCCCC(=O)[O-]
REMARK SMILES IDX 9 1 10 2 11 3 12 4 13 5 14 6 15 7 16 8 17 9 18 10 8 11 7 12
REMARK SMILES IDX 6 13 5 14 4 15 3 16 2 17 1 18
REMARK H PARENT
REMARK Flexibility Score: inf
ROOT
ATOM      1  C   UNL     1     -20.662  44.698  86.783  1.00  0.00     0.000 C 
ENDROOT
BRANCH   1   2
ATOM      2  C   UNL     1     -22.079  45.242  87.049  1.00  0.00     0.000 C 
BRANCH   2   3
ATOM      3  C   UNL     1     -22.750  44.637  88.301  1.00  0.00     0.000 C 
BRANCH   3   4
ATOM      4  C   UNL     1     -22.662  43.101  88.325  1.00  0.00     0.000 C 
BRANCH   4   5
ATOM      5  C   UNL     1     -21.742  42.579  89.438  1.00  0.00     0.000 C 
BRANCH   5   6
ATOM      6  C   UNL     1     -20.673  41.604  88.910  1.00  0.00     0.006 C 
BRANCH   6   7
ATOM      7  C   UNL     1     -21.155  40.831  87.675  1.00  0.00     0.053 C 
BRANCH   7   8
ATOM      8  C   UNL     1     -20.868  39.365  87.792  1.00  0.00     0.041 C 
ATOM      9  O   UNL     1     -20.781  38.825  88.926  1.00  0.00    -0.550 OA
ATOM     10  O   UNL     1     -20.730  38.591  86.648  1.00  0.00    -0.550 OA
ENDBRANCH   7   8
ENDBRANCH   6   7
ENDBRANCH   5   6
ENDBRANCH   4   5
ENDBRANCH   3   4
ENDBRANCH   2   3
ENDBRANCH   1   2
BRANCH   1  11
ATOM     11  C   UNL     1     -20.541  43.786  85.548  1.00  0.00     0.000 C 
BRANCH  11  12
ATOM     12  C   UNL     1     -19.120  43.681  84.959  1.00  0.00    -0.000 C 
BRANCH  12  13
ATOM     13  C   UNL     1     -18.182  44.824  85.402  1.00  0.00    -0.000 C 
BRANCH  13  14
ATOM     14  C   UNL     1     -17.739  45.705  84.222  1.00  0.00    -0.000 C 
BRANCH  14  15
ATOM     15  C   UNL     1     -18.782  46.775  83.847  1.00  0.00    -0.000 C 
BRANCH  15  16
ATOM     16  C   UNL     1     -19.417  46.603  82.456  1.00  0.00    -0.000 C 
BRANCH  16  17
ATOM     17  C   UNL     1     -20.916  46.279  82.520  1.00  0.00    -0.003 C 
ATOM     18  C   UNL     1     -21.540  46.817  83.805  1.00  0.00     0.004 C 
ENDBRANCH  16  17
ENDBRANCH  15  16
ENDBRANCH  14  15
ENDBRANCH  13  14
ENDBRANCH  12  13
ENDBRANCH  11  12
ENDBRANCH   1  11
TORSDOF 14
ENDMDL
MODEL 9
REMARK VINA RESULT:    -4.907      6.059      8.351
REMARK INTER + INTRA:         -10.139
REMARK INTER:                  -8.887
REMARK INTRA:                  -1.253
REMARK UNBOUND:                -1.216
REMARK SMILES CCCCCCCCCCCCCCCC(=O)[O-]
REMARK SMILES IDX 9 1 10 2 11 3 12 4 13 5 14 6 15 7 16 8 17 9 18 10 8 11 7 12
REMARK SMILES IDX 6 13 5 14 4 15 3 16 2 17 1 18
REMARK H PARENT
REMARK Flexibility Score: inf
ROOT
ATOM      1  C   UNL     1     -22.387  46.160  85.628  1.00  0.00     0.000 C 
ENDROOT
BRANCH   1   2
ATOM      2  C   UNL     1     -22.084  46.065  87.136  1.00  0.00     0.000 C 
BRANCH   2   3
ATOM      3  C   UNL     1     -23.290  46.414  88.034  1.00  0.00     0.000 C 
BRANCH   3   4
ATOM      4  C   UNL     1     -24.029  45.159  88.531  1.00  0.00     0.000 C 
BRANCH   4   5
ATOM      5  C   UNL     1     -25.441  45.472  89.049  1.00  0.00     0.000 C 
BRANCH   5   6
ATOM      6  C   UNL     1     -25.950  44.415  90.046  1.00  0.00     0.006 C 
BRANCH   6   7
ATOM      7  C   UNL     1     -27.444  44.581  90.352  1.00  0.00     0.053 C 
BRANCH   7   8
ATOM      8  C   UNL     1     -28.188  43.290  90.199  1.00  0.00     0.041 C 
ATOM      9  O   UNL     1     -28.242  42.718  89.079  1.00  0.00    -0.550 OA
ATOM     10  O   UNL     1     -28.794  42.702  91.302  1.00  0.00    -0.550 OA
ENDBRANCH   7   8
ENDBRANCH   6   7
ENDBRANCH   5   6
ENDBRANCH   4   5
ENDBRANCH   3   4
ENDBRANCH   2   3
ENDBRANCH   1   2
BRANCH   1  11
ATOM     11  C   UNL     1     -21.315  46.891  84.798  1.00  0.00     0.000 C 
BRANCH  11  12
ATOM     12  C   UNL     1     -21.254  46.476  83.315  1.00  0.00    -0.000 C 
BRANCH  12  13
ATOM     13  C   UNL     1     -19.819  46.426  82.745  1.00  0.00    -0.000 C 
BRANCH  13  14
ATOM     14  C   UNL     1     -18.752  46.447  83.851  1.00  0.00    -0.000 C 
BRANCH  14  15
ATOM     15  C   UNL     1     -18.205  45.047  84.185  1.00  0.00    -0.000 C 
BRANCH  15  16
ATOM     16  C   UNL     1     -18.699  44.457  85.518  1.00  0.00    -0.000 C 
BRANCH  16  17
ATOM     17  C   UNL     1     -19.830  43.435  85.336  1.00  0.00    -0.003 C 
ATOM     18  C   UNL     1     -20.238  42.823  86.673  1.00  0.00     0.004 C 
ENDBRANCH  16  17
ENDBRANCH  15  16
ENDBRANCH  14  15
ENDBRANCH  13  14
ENDBRANCH  12  13
ENDBRANCH  11  12
ENDBRANCH   1  11
TORSDOF 14
ENDMDL
