MODEL 1
REMARK VINA RESULT:     7.807      0.000      0.000
REMARK INTER + INTRA:           9.244
REMARK INTER:                   8.492
REMARK INTRA:                   0.753
REMARK UNBOUND:                 0.753
REMARK SMILES CC1=C[C@H]2[C@@H](C(C)C)CC[C@](C)(O)[C@@H]2CC1
REMARK SMILES IDX 1 1 2 2 3 3 4 4 5 5 9 6 10 7 11 8 14 9 15 10 16 11 12 12
REMARK SMILES IDX 6 13 7 14 8 15 13 16
REMARK H PARENT 13 17
REMARK Flexibility Score: inf
ROOT
ATOM      1  C   UNL     1     -17.003 -10.932   9.482  1.00  0.00     0.039 C 
ATOM      2  C   UNL     1     -17.609 -12.276   9.776  1.00  0.00    -0.077 C 
ATOM      3  C   UNL     1     -16.985 -13.397   9.362  1.00  0.00    -0.024 C 
ATOM      4  C   UNL     1     -17.583 -14.742   9.724  1.00  0.00     0.021 C 
ATOM      5  C   UNL     1     -16.744 -16.020   9.347  1.00  0.00    -0.001 C 
ATOM      6  C   UNL     1     -15.905 -16.480  10.561  1.00  0.00     0.007 C 
ATOM      7  C   UNL     1     -16.796 -16.854  11.773  1.00  0.00     0.035 C 
ATOM      8  C   UNL     1     -18.136 -16.059  11.865  1.00  0.00     0.065 C 
ATOM      9  C   UNL     1     -17.909 -14.651  11.241  1.00  0.00     0.028 C 
ATOM     10  C   UNL     1     -19.039 -13.610  11.466  1.00  0.00     0.011 C 
ATOM     11  C   UNL     1     -18.931 -12.374  10.527  1.00  0.00     0.031 C 
ATOM     12  C   UNL     1     -18.554 -15.966  13.350  1.00  0.00     0.042 C 
ENDROOT
BRANCH   5  13
ATOM     13  C   UNL     1     -15.922 -15.916   8.016  1.00  0.00    -0.014 C 
ATOM     14  C   UNL     1     -14.937 -17.096   7.875  1.00  0.00     0.007 C 
ATOM     15  C   UNL     1     -15.117 -14.605   7.927  1.00  0.00     0.007 C 
ENDBRANCH   5  13
BRANCH   8  16
ATOM     16  O   UNL     1     -19.117 -16.770  11.144  1.00  0.00    -0.390 OA
ATOM     17  H   UNL     1     -19.282 -17.635  11.600  1.00  0.00     0.211 HD
ENDBRANCH   8  16
TORSDOF 2
ENDMDL
