MODEL 1
REMARK VINA RESULT:     0.000      0.000      0.000
REMARK INTER + INTRA:          -0.104
REMARK INTER:                   0.000
REMARK INTRA:                  -0.104
REMARK UNBOUND:                -0.104
REMARK SMILES COc1cc(C(=O)[O-])ccc1O
REMARK SMILES IDX 5 1 9 2 4 3 10 4 3 5 11 6 6 7 7 8 8 9 2 10 1 11 12 12
REMARK H PARENT 12 13
REMARK Flexibility Score: inf
ROOT
ATOM      1  C   UNL     1      14.822 116.371  91.793  1.00  0.00     0.001 A 
ATOM      2  C   UNL     1      16.015 116.374  92.534  1.00  0.00     0.014 A 
ATOM      3  C   UNL     1      14.578 115.318  90.892  1.00  0.00     0.060 A 
ATOM      4  C   UNL     1      16.946 115.344  92.378  1.00  0.00     0.051 A 
ATOM      5  C   UNL     1      15.516 114.277  90.732  1.00  0.00     0.161 A 
ATOM      6  C   UNL     1      16.700 114.297  91.481  1.00  0.00     0.157 A 
ENDROOT
BRANCH   1   7
ATOM      7  C   UNL     1      13.839 117.465  91.961  1.00  0.00     0.072 C 
ATOM      8  O   UNL     1      14.045 118.391  92.791  1.00  0.00    -0.545 OA
ATOM      9  O   UNL     1      12.673 117.486  91.204  1.00  0.00    -0.545 OA
ENDBRANCH   1   7
BRANCH   5  10
ATOM     10  O   UNL     1      15.306 113.210  89.843  1.00  0.00    -0.493 OA
ATOM     11  C   UNL     1      14.453 112.100  90.103  1.00  0.00     0.278 C 
ENDBRANCH   5  10
BRANCH   6  12
ATOM     12  O   UNL     1      17.631 113.271  91.327  1.00  0.00    -0.504 OA
ATOM     13  H   UNL     1      17.872 112.908  90.413  1.00  0.00     0.293 HD
ENDBRANCH   6  12
TORSDOF 3
ENDMDL
MODEL 2
REMARK VINA RESULT:     0.000      3.318      5.183
REMARK INTER + INTRA:          -0.104
REMARK INTER:                   0.000
REMARK INTRA:                  -0.104
REMARK UNBOUND:                -0.104
REMARK SMILES COc1cc(C(=O)[O-])ccc1O
REMARK SMILES IDX 5 1 9 2 4 3 10 4 3 5 11 6 6 7 7 8 8 9 2 10 1 11 12 12
REMARK H PARENT 12 13
REMARK Flexibility Score: inf
ROOT
ATOM      1  C   UNL     1      17.434 112.966  91.381  1.00  0.00     0.001 A 
ATOM      2  C   UNL     1      16.531 112.079  90.773  1.00  0.00     0.014 A 
ATOM      3  C   UNL     1      18.339 112.471  92.338  1.00  0.00     0.060 A 
ATOM      4  C   UNL     1      16.532 110.725  91.115  1.00  0.00     0.051 A 
ATOM      5  C   UNL     1      18.342 111.105  92.686  1.00  0.00     0.161 A 
ATOM      6  C   UNL     1      17.434 110.236  92.068  1.00  0.00     0.157 A 
ENDROOT
BRANCH   1   7
ATOM      7  C   UNL     1      17.429 114.400  91.016  1.00  0.00     0.072 C 
ATOM      8  O   UNL     1      16.640 114.835  90.135  1.00  0.00    -0.545 OA
ATOM      9  O   UNL     1      18.297 115.289  91.641  1.00  0.00    -0.545 OA
ENDBRANCH   1   7
BRANCH   5  10
ATOM     10  O   UNL     1      19.231 110.576  93.636  1.00  0.00    -0.493 OA
ATOM     11  C   UNL     1      20.602 110.286  93.385  1.00  0.00     0.278 C 
ENDBRANCH   5  10
BRANCH   6  12
ATOM     12  O   UNL     1      17.432 108.884  92.407  1.00  0.00    -0.504 OA
ATOM     13  H   UNL     1      16.755 108.502  93.056  1.00  0.00     0.293 HD
ENDBRANCH   6  12
TORSDOF 3
ENDMDL
MODEL 3
REMARK VINA RESULT:     0.000      4.533      5.585
REMARK INTER + INTRA:          -0.104
REMARK INTER:                   0.000
REMARK INTRA:                  -0.104
REMARK UNBOUND:                -0.104
REMARK SMILES COc1cc(C(=O)[O-])ccc1O
REMARK SMILES IDX 5 1 9 2 4 3 10 4 3 5 11 6 6 7 7 8 8 9 2 10 1 11 12 12
REMARK H PARENT 12 13
REMARK Flexibility Score: inf
ROOT
ATOM      1  C   UNL     1      16.268 113.441  94.237  1.00  0.00     0.001 A 
ATOM      2  C   UNL     1      17.157 114.476  94.564  1.00  0.00     0.014 A 
ATOM      3  C   UNL     1      16.102 112.370  95.135  1.00  0.00     0.060 A 
ATOM      4  C   UNL     1      17.867 114.444  95.766  1.00  0.00     0.051 A 
ATOM      5  C   UNL     1      16.818 112.334  96.349  1.00  0.00     0.161 A 
ATOM      6  C   UNL     1      17.700 113.377  96.659  1.00  0.00     0.157 A 
ENDROOT
BRANCH   1   7
ATOM      7  C   UNL     1      15.517 113.479  92.961  1.00  0.00     0.072 C 
ATOM      8  O   UNL     1      15.643 114.454  92.172  1.00  0.00    -0.545 OA
ATOM      9  O   UNL     1      14.663 112.439  92.615  1.00  0.00    -0.545 OA
ENDBRANCH   1   7
BRANCH   5  10
ATOM     10  O   UNL     1      16.678 111.283  97.270  1.00  0.00    -0.493 OA
ATOM     11  C   UNL     1      15.584 111.139  98.169  1.00  0.00     0.278 C 
ENDBRANCH   5  10
BRANCH   6  12
ATOM     12  O   UNL     1      18.411 113.347  97.857  1.00  0.00    -0.504 OA
ATOM     13  H   UNL     1      18.354 114.106  98.526  1.00  0.00     0.293 HD
ENDBRANCH   6  12
TORSDOF 3
ENDMDL
MODEL 4
REMARK VINA RESULT:     0.000      3.661      5.249
REMARK INTER + INTRA:          -0.104
REMARK INTER:                   0.000
REMARK INTRA:                  -0.104
REMARK UNBOUND:                -0.104
REMARK SMILES COc1cc(C(=O)[O-])ccc1O
REMARK SMILES IDX 5 1 9 2 4 3 10 4 3 5 11 6 6 7 7 8 8 9 2 10 1 11 12 12
REMARK H PARENT 12 13
REMARK Flexibility Score: inf
ROOT
ATOM      1  C   UNL     1      16.295 115.820  94.332  1.00  0.00     0.001 A 
ATOM      2  C   UNL     1      17.026 115.373  93.220  1.00  0.00     0.014 A 
ATOM      3  C   UNL     1      16.252 117.199  94.614  1.00  0.00     0.060 A 
ATOM      4  C   UNL     1      17.701 116.284  92.405  1.00  0.00     0.051 A 
ATOM      5  C   UNL     1      16.933 118.121  93.793  1.00  0.00     0.161 A 
ATOM      6  C   UNL     1      17.656 117.655  92.688  1.00  0.00     0.157 A 
ENDROOT
BRANCH   1   7
ATOM      7  C   UNL     1      15.581 114.851  95.194  1.00  0.00     0.072 C 
ATOM      8  O   UNL     1      15.594 113.620  94.922  1.00  0.00    -0.545 OA
ATOM      9  O   UNL     1      14.886 115.285  96.317  1.00  0.00    -0.545 OA
ENDBRANCH   1   7
BRANCH   5  10
ATOM     10  O   UNL     1      16.913 119.503  94.044  1.00  0.00    -0.493 OA
ATOM     11  C   UNL     1      15.825 120.364  93.726  1.00  0.00     0.278 C 
ENDBRANCH   5  10
BRANCH   6  12
ATOM     12  O   UNL     1      18.332 118.562  91.873  1.00  0.00    -0.504 OA
ATOM     13  H   UNL     1      18.935 118.251  91.121  1.00  0.00     0.293 HD
ENDBRANCH   6  12
TORSDOF 3
ENDMDL
MODEL 5
REMARK VINA RESULT:     0.000      9.788     11.609
REMARK INTER + INTRA:          -0.104
REMARK INTER:                   0.000
REMARK INTRA:                  -0.104
REMARK UNBOUND:                -0.104
REMARK SMILES COc1cc(C(=O)[O-])ccc1O
REMARK SMILES IDX 5 1 9 2 4 3 10 4 3 5 11 6 6 7 7 8 8 9 2 10 1 11 12 12
REMARK H PARENT 12 13
REMARK Flexibility Score: inf
ROOT
ATOM      1  C   UNL     1      17.841 106.588  97.632  1.00  0.00     0.001 A 
ATOM      2  C   UNL     1      17.778 105.829  98.811  1.00  0.00     0.014 A 
ATOM      3  C   UNL     1      17.341 107.904  97.638  1.00  0.00     0.060 A 
ATOM      4  C   UNL     1      17.228 106.374  99.974  1.00  0.00     0.051 A 
ATOM      5  C   UNL     1      16.785 108.456  98.810  1.00  0.00     0.161 A 
ATOM      6  C   UNL     1      16.732 107.683  99.976  1.00  0.00     0.157 A 
ENDROOT
BRANCH   1   7
ATOM      7  C   UNL     1      18.425 106.007  96.402  1.00  0.00     0.072 C 
ATOM      8  O   UNL     1      18.900 104.840  96.407  1.00  0.00    -0.545 OA
ATOM      9  O   UNL     1      18.455 106.742  95.222  1.00  0.00    -0.545 OA
ENDBRANCH   1   7
BRANCH   5  10
ATOM     10  O   UNL     1      16.277 109.765  98.853  1.00  0.00    -0.493 OA
ATOM     11  C   UNL     1      17.078 110.938  98.948  1.00  0.00     0.278 C 
ENDBRANCH   5  10
BRANCH   6  12
ATOM     12  O   UNL     1      16.183 108.223 101.138  1.00  0.00    -0.504 OA
ATOM     13  H   UNL     1      15.569 107.683 101.735  1.00  0.00     0.293 HD
ENDBRANCH   6  12
TORSDOF 3
ENDMDL
MODEL 6
REMARK VINA RESULT:     0.000      9.335     10.805
REMARK INTER + INTRA:          -0.104
REMARK INTER:                   0.000
REMARK INTRA:                  -0.104
REMARK UNBOUND:                -0.104
REMARK SMILES COc1cc(C(=O)[O-])ccc1O
REMARK SMILES IDX 5 1 9 2 4 3 10 4 3 5 11 6 6 7 7 8 8 9 2 10 1 11 12 12
REMARK H PARENT 12 13
REMARK Flexibility Score: inf
ROOT
ATOM      1  C   UNL     1      23.696 113.597  85.998  1.00  0.00     0.001 A 
ATOM      2  C   UNL     1      24.436 113.571  84.805  1.00  0.00     0.014 A 
ATOM      3  C   UNL     1      23.338 112.380  86.608  1.00  0.00     0.060 A 
ATOM      4  C   UNL     1      24.814 112.354  84.234  1.00  0.00     0.051 A 
ATOM      5  C   UNL     1      23.718 111.150  86.033  1.00  0.00     0.161 A 
ATOM      6  C   UNL     1      24.457 111.145  84.844  1.00  0.00     0.157 A 
ENDROOT
BRANCH   1   7
ATOM      7  C   UNL     1      23.298 114.889  86.600  1.00  0.00     0.072 C 
ATOM      8  O   UNL     1      23.646 115.978  86.069  1.00  0.00    -0.545 OA
ATOM      9  O   UNL     1      22.533 114.920  87.761  1.00  0.00    -0.545 OA
ENDBRANCH   1   7
BRANCH   5  10
ATOM     10  O   UNL     1      23.379 109.916  86.614  1.00  0.00    -0.493 OA
ATOM     11  C   UNL     1      24.045 109.343  87.734  1.00  0.00     0.278 C 
ENDBRANCH   5  10
BRANCH   6  12
ATOM     12  O   UNL     1      24.835 109.932  84.270  1.00  0.00    -0.504 OA
ATOM     13  H   UNL     1      24.401 109.059  84.544  1.00  0.00     0.293 HD
ENDBRANCH   6  12
TORSDOF 3
ENDMDL
MODEL 7
REMARK VINA RESULT:     0.000      7.585      8.054
REMARK INTER + INTRA:          -0.104
REMARK INTER:                   0.000
REMARK INTRA:                  -0.104
REMARK UNBOUND:                -0.104
REMARK SMILES COc1cc(C(=O)[O-])ccc1O
REMARK SMILES IDX 5 1 9 2 4 3 10 4 3 5 11 6 6 7 7 8 8 9 2 10 1 11 12 12
REMARK H PARENT 12 13
REMARK Flexibility Score: inf
ROOT
ATOM      1  C   UNL     1      20.905 119.516  87.282  1.00  0.00     0.001 A 
ATOM      2  C   UNL     1      22.102 120.116  87.704  1.00  0.00     0.014 A 
ATOM      3  C   UNL     1      20.769 118.118  87.380  1.00  0.00     0.060 A 
ATOM      4  C   UNL     1      23.142 119.337  88.214  1.00  0.00     0.051 A 
ATOM      5  C   UNL     1      21.818 117.329  87.894  1.00  0.00     0.161 A 
ATOM      6  C   UNL     1      23.003 117.947  88.311  1.00  0.00     0.157 A 
ENDROOT
BRANCH   1   7
ATOM      7  C   UNL     1      19.805 120.346  86.741  1.00  0.00     0.072 C 
ATOM      8  O   UNL     1      19.917 121.600  86.683  1.00  0.00    -0.545 OA
ATOM      9  O   UNL     1      18.632 119.752  86.288  1.00  0.00    -0.545 OA
ENDBRANCH   1   7
BRANCH   5  10
ATOM     10  O   UNL     1      21.717 115.932  88.007  1.00  0.00    -0.493 OA
ATOM     11  C   UNL     1      21.002 115.255  89.035  1.00  0.00     0.278 C 
ENDBRANCH   5  10
BRANCH   6  12
ATOM     12  O   UNL     1      24.044 117.171  88.820  1.00  0.00    -0.504 OA
ATOM     13  H   UNL     1      24.863 116.954  88.266  1.00  0.00     0.293 HD
ENDBRANCH   6  12
TORSDOF 3
ENDMDL
MODEL 8
REMARK VINA RESULT:     0.000      5.461      6.766
REMARK INTER + INTRA:          -0.104
REMARK INTER:                   0.000
REMARK INTRA:                  -0.104
REMARK UNBOUND:                -0.104
REMARK SMILES COc1cc(C(=O)[O-])ccc1O
REMARK SMILES IDX 5 1 9 2 4 3 10 4 3 5 11 6 6 7 7 8 8 9 2 10 1 11 12 12
REMARK H PARENT 12 13
REMARK Flexibility Score: inf
ROOT
ATOM      1  C   UNL     1      19.957 117.149  88.387  1.00  0.00     0.001 A 
ATOM      2  C   UNL     1      19.390 117.906  89.424  1.00  0.00     0.014 A 
ATOM      3  C   UNL     1      19.162 116.799  87.280  1.00  0.00     0.060 A 
ATOM      4  C   UNL     1      18.053 118.306  89.357  1.00  0.00     0.051 A 
ATOM      5  C   UNL     1      17.812 117.201  87.210  1.00  0.00     0.161 A 
ATOM      6  C   UNL     1      17.264 117.956  88.255  1.00  0.00     0.157 A 
ENDROOT
BRANCH   1   7
ATOM      7  C   UNL     1      21.374 116.727  88.462  1.00  0.00     0.072 C 
ATOM      8  O   UNL     1      22.094 117.068  89.439  1.00  0.00    -0.545 OA
ATOM      9  O   UNL     1      21.931 115.946  87.455  1.00  0.00    -0.545 OA
ENDBRANCH   1   7
BRANCH   5  10
ATOM     10  O   UNL     1      16.988 116.870  86.122  1.00  0.00    -0.493 OA
ATOM     11  C   UNL     1      17.017 117.528  84.859  1.00  0.00     0.278 C 
ENDBRANCH   5  10
BRANCH   6  12
ATOM     12  O   UNL     1      15.930 118.356  88.191  1.00  0.00    -0.504 OA
ATOM     13  H   UNL     1      15.266 117.892  87.584  1.00  0.00     0.293 HD
ENDBRANCH   6  12
TORSDOF 3
ENDMDL
MODEL 9
REMARK VINA RESULT:     0.000      8.813      9.385
REMARK INTER + INTRA:          -0.104
REMARK INTER:                   0.000
REMARK INTRA:                  -0.104
REMARK UNBOUND:                -0.104
REMARK SMILES COc1cc(C(=O)[O-])ccc1O
REMARK SMILES IDX 5 1 9 2 4 3 10 4 3 5 11 6 6 7 7 8 8 9 2 10 1 11 12 12
REMARK H PARENT 12 13
REMARK Flexibility Score: inf
ROOT
ATOM      1  C   UNL     1      16.271 108.628  96.967  1.00  0.00     0.001 A 
ATOM      2  C   UNL     1      16.928 108.016  95.887  1.00  0.00     0.014 A 
ATOM      3  C   UNL     1      17.006 109.459  97.833  1.00  0.00     0.060 A 
ATOM      4  C   UNL     1      18.291 108.231  95.675  1.00  0.00     0.051 A 
ATOM      5  C   UNL     1      18.383 109.677  97.622  1.00  0.00     0.161 A 
ATOM      6  C   UNL     1      19.020 109.059  96.538  1.00  0.00     0.157 A 
ENDROOT
BRANCH   1   7
ATOM      7  C   UNL     1      14.826 108.397  97.188  1.00  0.00     0.072 C 
ATOM      8  O   UNL     1      14.163 107.677  96.394  1.00  0.00    -0.545 OA
ATOM      9  O   UNL     1      14.179 108.971  98.277  1.00  0.00    -0.545 OA
ENDBRANCH   1   7
BRANCH   5  10
ATOM     10  O   UNL     1      19.149 110.500  98.464  1.00  0.00    -0.493 OA
ATOM     11  C   UNL     1      19.144 111.923  98.422  1.00  0.00     0.278 C 
ENDBRANCH   5  10
BRANCH   6  12
ATOM     12  O   UNL     1      20.381 109.271  96.324  1.00  0.00    -0.504 OA
ATOM     13  H   UNL     1      20.744 109.497  95.406  1.00  0.00     0.293 HD
ENDBRANCH   6  12
TORSDOF 3
ENDMDL
