MODEL 1
REMARK VINA RESULT:    -4.138      0.000      0.000
REMARK INTER + INTRA:          -8.620
REMARK INTER:                  -7.283
REMARK INTRA:                  -1.336
REMARK UNBOUND:                -1.336
REMARK SMILES CCCCCCCCCCCCCCC(=O)[O-]
REMARK SMILES IDX 9 1 10 2 11 3 12 4 13 5 14 6 15 7 16 8 17 9 8 10 7 11 6 12
REMARK SMILES IDX 5 13 4 14 3 15 2 16 1 17
REMARK H PARENT
REMARK Flexibility Score: inf
ROOT
ATOM      1  C   UNL     1      -0.276   8.302  -1.744  1.00  0.00     0.000 C 
ENDROOT
BRANCH   1   2
ATOM      2  C   UNL     1      -0.534   8.871  -0.336  1.00  0.00     0.000 C 
BRANCH   2   3
ATOM      3  C   UNL     1       0.489   8.445   0.735  1.00  0.00     0.000 C 
BRANCH   3   4
ATOM      4  C   UNL     1       1.057   7.040   0.492  1.00  0.00     0.000 C 
BRANCH   4   5
ATOM      5  C   UNL     1       1.412   6.355   1.821  1.00  0.00     0.006 C 
BRANCH   5   6
ATOM      6  C   UNL     1       0.166   5.930   2.606  1.00  0.00     0.053 C 
BRANCH   6   7
ATOM      7  C   UNL     1       0.095   4.442   2.774  1.00  0.00     0.041 C 
ATOM      8  O   UNL     1      -1.021   3.861   2.807  1.00  0.00    -0.550 OA
ATOM      9  O   UNL     1       1.261   3.704   2.926  1.00  0.00    -0.550 OA
ENDBRANCH   6   7
ENDBRANCH   5   6
ENDBRANCH   4   5
ENDBRANCH   3   4
ENDBRANCH   2   3
ENDBRANCH   1   2
BRANCH   1  10
ATOM     10  C   UNL     1       0.553   9.208  -2.673  1.00  0.00     0.000 C 
BRANCH  10  11
ATOM     11  C   UNL     1       1.456   8.433  -3.658  1.00  0.00    -0.000 C 
BRANCH  11  12
ATOM     12  C   UNL     1       1.618   6.952  -3.271  1.00  0.00    -0.000 C 
BRANCH  12  13
ATOM     13  C   UNL     1       2.772   6.273  -4.043  1.00  0.00    -0.000 C 
BRANCH  13  14
ATOM     14  C   UNL     1       4.129   6.361  -3.325  1.00  0.00    -0.000 C 
BRANCH  14  15
ATOM     15  C   UNL     1       3.989   6.578  -1.811  1.00  0.00    -0.000 C 
BRANCH  15  16
ATOM     16  C   UNL     1       5.122   5.911  -1.013  1.00  0.00    -0.003 C 
ATOM     17  C   UNL     1       4.933   6.035   0.499  1.00  0.00     0.004 C 
ENDBRANCH  15  16
ENDBRANCH  14  15
ENDBRANCH  13  14
ENDBRANCH  12  13
ENDBRANCH  11  12
ENDBRANCH  10  11
ENDBRANCH   1  10
TORSDOF 13
ENDMDL
MODEL 2
REMARK VINA RESULT:    -4.117      1.388      2.190
REMARK INTER + INTRA:          -8.581
REMARK INTER:                  -6.530
REMARK INTRA:                  -2.051
REMARK UNBOUND:                -1.336
REMARK SMILES CCCCCCCCCCCCCCC(=O)[O-]
REMARK SMILES IDX 9 1 10 2 11 3 12 4 13 5 14 6 15 7 16 8 17 9 8 10 7 11 6 12
REMARK SMILES IDX 5 13 4 14 3 15 2 16 1 17
REMARK H PARENT
REMARK Flexibility Score: inf
ROOT
ATOM      1  C   UNL     1       0.991   7.183  -2.656  1.00  0.00     0.000 C 
ENDROOT
BRANCH   1   2
ATOM      2  C   UNL     1      -0.025   7.944  -1.782  1.00  0.00     0.000 C 
BRANCH   2   3
ATOM      3  C   UNL     1       0.313   7.990  -0.281  1.00  0.00     0.000 C 
BRANCH   3   4
ATOM      4  C   UNL     1       1.065   6.741   0.201  1.00  0.00     0.000 C 
BRANCH   4   5
ATOM      5  C   UNL     1       1.735   6.993   1.560  1.00  0.00     0.006 C 
BRANCH   5   6
ATOM      6  C   UNL     1       1.736   5.743   2.448  1.00  0.00     0.053 C 
BRANCH   6   7
ATOM      7  C   UNL     1       0.348   5.229   2.685  1.00  0.00     0.041 C 
ATOM      8  O   UNL     1       0.015   4.088   2.269  1.00  0.00    -0.550 OA
ATOM      9  O   UNL     1      -0.585   6.025   3.337  1.00  0.00    -0.550 OA
ENDBRANCH   6   7
ENDBRANCH   5   6
ENDBRANCH   4   5
ENDBRANCH   3   4
ENDBRANCH   2   3
ENDBRANCH   1   2
BRANCH   1  10
ATOM     10  C   UNL     1       1.679   8.028  -3.744  1.00  0.00     0.000 C 
BRANCH  10  11
ATOM     11  C   UNL     1       1.871   9.510  -3.356  1.00  0.00    -0.000 C 
BRANCH  11  12
ATOM     12  C   UNL     1       3.329   9.842  -2.991  1.00  0.00    -0.000 C 
BRANCH  12  13
ATOM     13  C   UNL     1       3.707   9.330  -1.583  1.00  0.00    -0.000 C 
BRANCH  13  14
ATOM     14  C   UNL     1       4.844   8.295  -1.588  1.00  0.00    -0.000 C 
BRANCH  14  15
ATOM     15  C   UNL     1       4.380   6.898  -1.147  1.00  0.00    -0.000 C 
BRANCH  15  16
ATOM     16  C   UNL     1       4.758   5.805  -2.159  1.00  0.00    -0.003 C 
ATOM     17  C   UNL     1       4.925   6.344  -3.579  1.00  0.00     0.004 C 
ENDBRANCH  15  16
ENDBRANCH  14  15
ENDBRANCH  13  14
ENDBRANCH  12  13
ENDBRANCH  11  12
ENDBRANCH  10  11
ENDBRANCH   1  10
TORSDOF 13
ENDMDL
MODEL 3
REMARK VINA RESULT:    -4.063      1.350      4.054
REMARK INTER + INTRA:          -8.488
REMARK INTER:                  -6.800
REMARK INTRA:                  -1.688
REMARK UNBOUND:                -1.336
REMARK SMILES CCCCCCCCCCCCCCC(=O)[O-]
REMARK SMILES IDX 9 1 10 2 11 3 12 4 13 5 14 6 15 7 16 8 17 9 8 10 7 11 6 12
REMARK SMILES IDX 5 13 4 14 3 15 2 16 1 17
REMARK H PARENT
REMARK Flexibility Score: inf
ROOT
ATOM      1  C   UNL     1       4.505   5.913  -2.008  1.00  0.00     0.000 C 
ENDROOT
BRANCH   1   2
ATOM      2  C   UNL     1       4.985   6.952  -0.977  1.00  0.00     0.000 C 
BRANCH   2   3
ATOM      3  C   UNL     1       3.863   7.760  -0.298  1.00  0.00     0.000 C 
BRANCH   3   4
ATOM      4  C   UNL     1       3.619   7.336   1.158  1.00  0.00     0.000 C 
BRANCH   4   5
ATOM      5  C   UNL     1       2.162   7.595   1.568  1.00  0.00     0.006 C 
BRANCH   5   6
ATOM      6  C   UNL     1       1.213   6.503   1.059  1.00  0.00     0.053 C 
BRANCH   6   7
ATOM      7  C   UNL     1       0.449   5.864   2.178  1.00  0.00     0.041 C 
ATOM      8  O   UNL     1      -0.036   6.571   3.100  1.00  0.00    -0.550 OA
ATOM      9  O   UNL     1       0.300   4.484   2.219  1.00  0.00    -0.550 OA
ENDBRANCH   6   7
ENDBRANCH   5   6
ENDBRANCH   4   5
ENDBRANCH   3   4
ENDBRANCH   2   3
ENDBRANCH   1   2
BRANCH   1  10
ATOM     10  C   UNL     1       4.339   6.446  -3.444  1.00  0.00     0.000 C 
BRANCH  10  11
ATOM     11  C   UNL     1       2.879   6.437  -3.947  1.00  0.00    -0.000 C 
BRANCH  11  12
ATOM     12  C   UNL     1       1.887   5.945  -2.877  1.00  0.00    -0.000 C 
BRANCH  12  13
ATOM     13  C   UNL     1       0.854   7.030  -2.500  1.00  0.00    -0.000 C 
BRANCH  13  14
ATOM     14  C   UNL     1       1.317   8.460  -2.820  1.00  0.00    -0.000 C 
BRANCH  14  15
ATOM     15  C   UNL     1       0.243   9.517  -2.519  1.00  0.00    -0.000 C 
BRANCH  15  16
ATOM     16  C   UNL     1      -0.549   9.204  -1.239  1.00  0.00    -0.003 C 
ATOM     17  C   UNL     1      -2.052   9.078  -1.488  1.00  0.00     0.004 C 
ENDBRANCH  15  16
ENDBRANCH  14  15
ENDBRANCH  13  14
ENDBRANCH  12  13
ENDBRANCH  11  12
ENDBRANCH  10  11
ENDBRANCH   1  10
TORSDOF 13
ENDMDL
MODEL 4
REMARK VINA RESULT:    -4.049      1.477      2.144
REMARK INTER + INTRA:          -8.462
REMARK INTER:                  -7.124
REMARK INTRA:                  -1.338
REMARK UNBOUND:                -1.336
REMARK SMILES CCCCCCCCCCCCCCC(=O)[O-]
REMARK SMILES IDX 9 1 10 2 11 3 12 4 13 5 14 6 15 7 16 8 17 9 8 10 7 11 6 12
REMARK SMILES IDX 5 13 4 14 3 15 2 16 1 17
REMARK H PARENT
REMARK Flexibility Score: inf
ROOT
ATOM      1  C   UNL     1       1.087   7.856  -0.146  1.00  0.00     0.000 C 
ENDROOT
BRANCH   1   2
ATOM      2  C   UNL     1       0.978   6.770   0.942  1.00  0.00     0.000 C 
BRANCH   2   3
ATOM      3  C   UNL     1       0.423   7.256   2.294  1.00  0.00     0.000 C 
BRANCH   3   4
ATOM      4  C   UNL     1      -0.238   6.134   3.108  1.00  0.00     0.000 C 
BRANCH   4   5
ATOM      5  C   UNL     1       0.211   4.754   2.605  1.00  0.00     0.006 C 
BRANCH   5   6
ATOM      6  C   UNL     1       1.378   4.189   3.423  1.00  0.00     0.053 C 
BRANCH   6   7
ATOM      7  C   UNL     1       1.023   4.046   4.872  1.00  0.00     0.041 C 
ATOM      8  O   UNL     1       0.053   3.321   5.218  1.00  0.00    -0.550 OA
ATOM      9  O   UNL     1       1.744   4.739   5.835  1.00  0.00    -0.550 OA
ENDBRANCH   6   7
ENDBRANCH   5   6
ENDBRANCH   4   5
ENDBRANCH   3   4
ENDBRANCH   2   3
ENDBRANCH   1   2
BRANCH   1  10
ATOM     10  C   UNL     1       0.229   7.611  -1.401  1.00  0.00     0.000 C 
BRANCH  10  11
ATOM     11  C   UNL     1       1.038   7.590  -2.716  1.00  0.00    -0.000 C 
BRANCH  11  12
ATOM     12  C   UNL     1       1.728   6.237  -2.965  1.00  0.00    -0.000 C 
BRANCH  12  13
ATOM     13  C   UNL     1       2.824   6.334  -4.050  1.00  0.00    -0.000 C 
BRANCH  13  14
ATOM     14  C   UNL     1       4.250   6.408  -3.481  1.00  0.00    -0.000 C 
BRANCH  14  15
ATOM     15  C   UNL     1       4.311   6.085  -1.980  1.00  0.00    -0.000 C 
BRANCH  15  16
ATOM     16  C   UNL     1       4.974   7.206  -1.162  1.00  0.00    -0.003 C 
ATOM     17  C   UNL     1       4.476   8.597  -1.552  1.00  0.00     0.004 C 
ENDBRANCH  15  16
ENDBRANCH  14  15
ENDBRANCH  13  14
ENDBRANCH  12  13
ENDBRANCH  11  12
ENDBRANCH  10  11
ENDBRANCH   1  10
TORSDOF 13
ENDMDL
MODEL 5
REMARK VINA RESULT:    -3.988      2.921      6.495
REMARK INTER + INTRA:          -8.355
REMARK INTER:                  -7.155
REMARK INTRA:                  -1.200
REMARK UNBOUND:                -1.336
REMARK SMILES CCCCCCCCCCCCCCC(=O)[O-]
REMARK SMILES IDX 9 1 10 2 11 3 12 4 13 5 14 6 15 7 16 8 17 9 8 10 7 11 6 12
REMARK SMILES IDX 5 13 4 14 3 15 2 16 1 17
REMARK H PARENT
REMARK Flexibility Score: inf
ROOT
ATOM      1  C   UNL     1      -0.791   8.292   2.260  1.00  0.00     0.000 C 
ENDROOT
BRANCH   1   2
ATOM      2  C   UNL     1      -0.105   8.593   0.913  1.00  0.00     0.000 C 
BRANCH   2   3
ATOM      3  C   UNL     1      -1.000   9.287  -0.131  1.00  0.00     0.000 C 
BRANCH   3   4
ATOM      4  C   UNL     1      -0.890   8.655  -1.527  1.00  0.00     0.000 C 
BRANCH   4   5
ATOM      5  C   UNL     1       0.151   7.526  -1.537  1.00  0.00     0.006 C 
BRANCH   5   6
ATOM      6  C   UNL     1       1.172   7.687  -2.670  1.00  0.00     0.053 C 
BRANCH   6   7
ATOM      7  C   UNL     1       1.674   6.362  -3.159  1.00  0.00     0.041 C 
ATOM      8  O   UNL     1       1.264   5.295  -2.631  1.00  0.00    -0.550 OA
ATOM      9  O   UNL     1       2.618   6.310  -4.176  1.00  0.00    -0.550 OA
ENDBRANCH   6   7
ENDBRANCH   5   6
ENDBRANCH   4   5
ENDBRANCH   3   4
ENDBRANCH   2   3
ENDBRANCH   1   2
BRANCH   1  10
ATOM     10  C   UNL     1      -0.349   6.983   2.939  1.00  0.00     0.000 C 
BRANCH  10  11
ATOM     11  C   UNL     1       0.844   6.291   2.244  1.00  0.00    -0.000 C 
BRANCH  11  12
ATOM     12  C   UNL     1       0.978   4.808   2.636  1.00  0.00    -0.000 C 
BRANCH  12  13
ATOM     13  C   UNL     1      -0.394   4.149   2.898  1.00  0.00    -0.000 C 
BRANCH  13  14
ATOM     14  C   UNL     1      -0.444   3.323   4.194  1.00  0.00    -0.000 C 
BRANCH  14  15
ATOM     15  C   UNL     1       0.234   4.030   5.378  1.00  0.00    -0.000 C 
BRANCH  15  16
ATOM     16  C   UNL     1      -0.773   4.490   6.445  1.00  0.00    -0.003 C 
ATOM     17  C   UNL     1      -0.828   6.010   6.591  1.00  0.00     0.004 C 
ENDBRANCH  15  16
ENDBRANCH  14  15
ENDBRANCH  13  14
ENDBRANCH  12  13
ENDBRANCH  11  12
ENDBRANCH  10  11
ENDBRANCH   1  10
TORSDOF 13
ENDMDL
MODEL 6
REMARK VINA RESULT:    -3.975      2.480      5.544
REMARK INTER + INTRA:          -8.332
REMARK INTER:                  -7.066
REMARK INTRA:                  -1.266
REMARK UNBOUND:                -1.336
REMARK SMILES CCCCCCCCCCCCCCC(=O)[O-]
REMARK SMILES IDX 9 1 10 2 11 3 12 4 13 5 14 6 15 7 16 8 17 9 8 10 7 11 6 12
REMARK SMILES IDX 5 13 4 14 3 15 2 16 1 17
REMARK H PARENT
REMARK Flexibility Score: inf
ROOT
ATOM      1  C   UNL     1       1.379   6.365  -2.594  1.00  0.00     0.000 C 
ENDROOT
BRANCH   1   2
ATOM      2  C   UNL     1       2.494   6.283  -3.654  1.00  0.00     0.000 C 
BRANCH   2   3
ATOM      3  C   UNL     1       3.852   6.863  -3.216  1.00  0.00     0.000 C 
BRANCH   3   4
ATOM      4  C   UNL     1       4.563   5.993  -2.170  1.00  0.00     0.000 C 
BRANCH   4   5
ATOM      5  C   UNL     1       4.832   6.790  -0.885  1.00  0.00     0.006 C 
BRANCH   5   6
ATOM      6  C   UNL     1       4.953   5.884   0.347  1.00  0.00     0.053 C 
BRANCH   6   7
ATOM      7  C   UNL     1       6.275   5.181   0.391  1.00  0.00     0.041 C 
ATOM      8  O   UNL     1       6.343   3.982   0.771  1.00  0.00    -0.550 OA
ATOM      9  O   UNL     1       7.435   5.860   0.045  1.00  0.00    -0.550 OA
ENDBRANCH   6   7
ENDBRANCH   5   6
ENDBRANCH   4   5
ENDBRANCH   3   4
ENDBRANCH   2   3
ENDBRANCH   1   2
BRANCH   1  10
ATOM     10  C   UNL     1       0.960   7.792  -2.195  1.00  0.00     0.000 C 
BRANCH  10  11
ATOM     11  C   UNL     1       0.333   7.888  -0.787  1.00  0.00    -0.000 C 
BRANCH  11  12
ATOM     12  C   UNL     1       1.332   7.540   0.331  1.00  0.00    -0.000 C 
BRANCH  12  13
ATOM     13  C   UNL     1       0.831   6.378   1.217  1.00  0.00    -0.000 C 
BRANCH  13  14
ATOM     14  C   UNL     1       0.675   6.757   2.699  1.00  0.00    -0.000 C 
BRANCH  14  15
ATOM     15  C   UNL     1       0.000   5.653   3.528  1.00  0.00    -0.000 C 
BRANCH  15  16
ATOM     16  C   UNL     1       0.401   4.242   3.068  1.00  0.00    -0.003 C 
ATOM     17  C   UNL     1      -0.804   3.371   2.711  1.00  0.00     0.004 C 
ENDBRANCH  15  16
ENDBRANCH  14  15
ENDBRANCH  13  14
ENDBRANCH  12  13
ENDBRANCH  11  12
ENDBRANCH  10  11
ENDBRANCH   1  10
TORSDOF 13
ENDMDL
MODEL 7
REMARK VINA RESULT:    -3.974      1.080      3.459
REMARK INTER + INTRA:          -8.330
REMARK INTER:                  -6.337
REMARK INTRA:                  -1.993
REMARK UNBOUND:                -1.336
REMARK SMILES CCCCCCCCCCCCCCC(=O)[O-]
REMARK SMILES IDX 9 1 10 2 11 3 12 4 13 5 14 6 15 7 16 8 17 9 8 10 7 11 6 12
REMARK SMILES IDX 5 13 4 14 3 15 2 16 1 17
REMARK H PARENT
REMARK Flexibility Score: inf
ROOT
ATOM      1  C   UNL     1       4.208   8.007  -0.574  1.00  0.00     0.000 C 
ENDROOT
BRANCH   1   2
ATOM      2  C   UNL     1       3.025   8.205   0.392  1.00  0.00     0.000 C 
BRANCH   2   3
ATOM      3  C   UNL     1       2.523   6.919   1.076  1.00  0.00     0.000 C 
BRANCH   3   4
ATOM      4  C   UNL     1       1.004   6.728   0.947  1.00  0.00     0.000 C 
BRANCH   4   5
ATOM      5  C   UNL     1       0.295   7.062   2.268  1.00  0.00     0.006 C 
BRANCH   5   6
ATOM      6  C   UNL     1       0.690   6.104   3.398  1.00  0.00     0.053 C 
BRANCH   6   7
ATOM      7  C   UNL     1       0.406   4.677   3.041  1.00  0.00     0.041 C 
ATOM      8  O   UNL     1      -0.780   4.288   2.878  1.00  0.00    -0.550 OA
ATOM      9  O   UNL     1       1.451   3.770   2.920  1.00  0.00    -0.550 OA
ENDBRANCH   6   7
ENDBRANCH   5   6
ENDBRANCH   4   5
ENDBRANCH   3   4
ENDBRANCH   2   3
ENDBRANCH   1   2
BRANCH   1  10
ATOM     10  C   UNL     1       4.659   6.547  -0.766  1.00  0.00     0.000 C 
BRANCH  10  11
ATOM     11  C   UNL     1       4.531   6.040  -2.218  1.00  0.00    -0.000 C 
BRANCH  11  12
ATOM     12  C   UNL     1       3.490   6.830  -3.032  1.00  0.00    -0.000 C 
BRANCH  12  13
ATOM     13  C   UNL     1       2.118   6.122  -3.065  1.00  0.00    -0.000 C 
BRANCH  13  14
ATOM     14  C   UNL     1       0.948   7.022  -2.634  1.00  0.00    -0.000 C 
BRANCH  14  15
ATOM     15  C   UNL     1       1.243   8.517  -2.829  1.00  0.00    -0.000 C 
BRANCH  15  16
ATOM     16  C   UNL     1       0.105   9.414  -2.315  1.00  0.00    -0.003 C 
ATOM     17  C   UNL     1      -0.955   8.638  -1.535  1.00  0.00     0.004 C 
ENDBRANCH  15  16
ENDBRANCH  14  15
ENDBRANCH  13  14
ENDBRANCH  12  13
ENDBRANCH  11  12
ENDBRANCH  10  11
ENDBRANCH   1  10
TORSDOF 13
ENDMDL
MODEL 8
REMARK VINA RESULT:    -3.958      0.931      1.888
REMARK INTER + INTRA:          -8.302
REMARK INTER:                  -6.687
REMARK INTRA:                  -1.615
REMARK UNBOUND:                -1.336
REMARK SMILES CCCCCCCCCCCCCCC(=O)[O-]
REMARK SMILES IDX 9 1 10 2 11 3 12 4 13 5 14 6 15 7 16 8 17 9 8 10 7 11 6 12
REMARK SMILES IDX 5 13 4 14 3 15 2 16 1 17
REMARK H PARENT
REMARK Flexibility Score: inf
ROOT
ATOM      1  C   UNL     1      -0.755   8.645   0.618  1.00  0.00     0.000 C 
ENDROOT
BRANCH   1   2
ATOM      2  C   UNL     1       0.665   9.096   1.011  1.00  0.00     0.000 C 
BRANCH   2   3
ATOM      3  C   UNL     1       1.674   7.953   1.228  1.00  0.00     0.000 C 
BRANCH   3   4
ATOM      4  C   UNL     1       1.035   6.562   1.109  1.00  0.00     0.000 C 
BRANCH   4   5
ATOM      5  C   UNL     1       1.257   5.745   2.391  1.00  0.00     0.006 C 
BRANCH   5   6
ATOM      6  C   UNL     1      -0.047   5.506   3.160  1.00  0.00     0.053 C 
BRANCH   6   7
ATOM      7  C   UNL     1      -0.350   4.045   3.300  1.00  0.00     0.041 C 
ATOM      8  O   UNL     1      -0.545   3.336   2.277  1.00  0.00    -0.550 OA
ATOM      9  O   UNL     1      -0.449   3.474   4.562  1.00  0.00    -0.550 OA
ENDBRANCH   6   7
ENDBRANCH   5   6
ENDBRANCH   4   5
ENDBRANCH   3   4
ENDBRANCH   2   3
ENDBRANCH   1   2
BRANCH   1  10
ATOM     10  C   UNL     1      -1.171   8.980  -0.826  1.00  0.00     0.000 C 
BRANCH  10  11
ATOM     11  C   UNL     1      -0.359   8.224  -1.900  1.00  0.00    -0.000 C 
BRANCH  11  12
ATOM     12  C   UNL     1       0.553   9.156  -2.718  1.00  0.00    -0.000 C 
BRANCH  12  13
ATOM     13  C   UNL     1       1.578   8.370  -3.566  1.00  0.00    -0.000 C 
BRANCH  13  14
ATOM     14  C   UNL     1       1.664   6.879  -3.202  1.00  0.00    -0.000 C 
BRANCH  14  15
ATOM     15  C   UNL     1       3.106   6.407  -2.959  1.00  0.00    -0.000 C 
BRANCH  15  16
ATOM     16  C   UNL     1       3.882   7.342  -2.018  1.00  0.00    -0.003 C 
ATOM     17  C   UNL     1       4.438   6.620  -0.791  1.00  0.00     0.004 C 
ENDBRANCH  15  16
ENDBRANCH  14  15
ENDBRANCH  13  14
ENDBRANCH  12  13
ENDBRANCH  11  12
ENDBRANCH  10  11
ENDBRANCH   1  10
TORSDOF 13
ENDMDL
MODEL 9
REMARK VINA RESULT:    -3.947      2.721      6.097
REMARK INTER + INTRA:          -8.284
REMARK INTER:                  -6.616
REMARK INTRA:                  -1.667
REMARK UNBOUND:                -1.336
REMARK SMILES CCCCCCCCCCCCCCC(=O)[O-]
REMARK SMILES IDX 9 1 10 2 11 3 12 4 13 5 14 6 15 7 16 8 17 9 8 10 7 11 6 12
REMARK SMILES IDX 5 13 4 14 3 15 2 16 1 17
REMARK H PARENT
REMARK Flexibility Score: inf
ROOT
ATOM      1  C   UNL     1      -0.131   7.452   2.339  1.00  0.00     0.000 C 
ENDROOT
BRANCH   1   2
ATOM      2  C   UNL     1      -0.473   8.866   1.831  1.00  0.00     0.000 C 
BRANCH   2   3
ATOM      3  C   UNL     1       0.039   9.189   0.415  1.00  0.00     0.000 C 
BRANCH   3   4
ATOM      4  C   UNL     1      -1.070   9.146  -0.647  1.00  0.00     0.000 C 
BRANCH   4   5
ATOM      5  C   UNL     1      -0.674   8.234  -1.817  1.00  0.00     0.006 C 
BRANCH   5   6
ATOM      6  C   UNL     1       0.846   8.142  -1.994  1.00  0.00     0.053 C 
BRANCH   6   7
ATOM      7  C   UNL     1       1.251   6.867  -2.669  1.00  0.00     0.041 C 
ATOM      8  O   UNL     1       1.000   5.757  -2.131  1.00  0.00    -0.550 OA
ATOM      9  O   UNL     1       1.935   6.908  -3.877  1.00  0.00    -0.550 OA
ENDBRANCH   6   7
ENDBRANCH   5   6
ENDBRANCH   4   5
ENDBRANCH   3   4
ENDBRANCH   2   3
ENDBRANCH   1   2
BRANCH   1  10
ATOM     10  C   UNL     1       0.884   6.676   1.479  1.00  0.00     0.000 C 
BRANCH  10  11
ATOM     11  C   UNL     1       2.108   6.163   2.268  1.00  0.00    -0.000 C 
BRANCH  11  12
ATOM     12  C   UNL     1       2.296   6.894   3.610  1.00  0.00    -0.000 C 
BRANCH  12  13
ATOM     13  C   UNL     1       1.989   5.981   4.818  1.00  0.00    -0.000 C 
BRANCH  13  14
ATOM     14  C   UNL     1       2.152   4.482   4.514  1.00  0.00    -0.000 C 
BRANCH  14  15
ATOM     15  C   UNL     1       0.874   3.675   4.790  1.00  0.00    -0.000 C 
BRANCH  15  16
ATOM     16  C   UNL     1      -0.366   4.287   4.118  1.00  0.00    -0.003 C 
ATOM     17  C   UNL     1      -0.758   3.563   2.830  1.00  0.00     0.004 C 
ENDBRANCH  15  16
ENDBRANCH  14  15
ENDBRANCH  13  14
ENDBRANCH  12  13
ENDBRANCH  11  12
ENDBRANCH  10  11
ENDBRANCH   1  10
TORSDOF 13
ENDMDL
