MODEL 1
REMARK VINA RESULT:    -4.227      0.000      0.000
REMARK INTER + INTRA:          -5.194
REMARK INTER:                  -5.092
REMARK INTRA:                  -0.102
REMARK UNBOUND:                -0.102
REMARK SMILES CC[C@@H](C)[C@H]([NH3+])C(=O)[O-]
REMARK SMILES IDX 3 1 4 2 5 3 6 4 7 8 8 9 9 10 2 11 1 12
REMARK H PARENT 6 5 6 6 6 7
REMARK Flexibility Score: inf
ROOT
ATOM      1  C   UNL     1       2.632 -23.568 -27.266  1.00  0.00     0.050 C 
ATOM      2  C   UNL     1       2.457 -23.223 -25.775  1.00  0.00     0.014 C 
ENDROOT
BRANCH   1   3
ATOM      3  C   UNL     1       4.041 -24.163 -27.591  1.00  0.00     0.230 C 
BRANCH   3   4
ATOM      4  N   UNL     1       5.136 -23.456 -26.910  1.00  0.00    -0.350 N 
ATOM      5  H   UNL     1       5.126 -22.447 -27.188  1.00  0.00     0.345 HD
ATOM      6  H   UNL     1       6.059 -23.849 -27.200  1.00  0.00     0.345 HD
ATOM      7  H   UNL     1       5.041 -23.515 -25.871  1.00  0.00     0.345 HD
ENDBRANCH   3   4
BRANCH   3   8
ATOM      8  C   UNL     1       4.278 -24.207 -29.082  1.00  0.00     0.099 C 
ATOM      9  O   UNL     1       4.390 -23.135 -29.733  1.00  0.00    -0.544 OA
ATOM     10  O   UNL     1       4.423 -25.423 -29.742  1.00  0.00    -0.544 OA
ENDBRANCH   3   8
ENDBRANCH   1   3
BRANCH   1  11
ATOM     11  C   UNL     1       1.454 -24.464 -27.726  1.00  0.00     0.006 C 
ATOM     12  C   UNL     1       0.232 -23.672 -28.194  1.00  0.00     0.004 C 
ENDBRANCH   1  11
TORSDOF 4
ENDMDL
MODEL 2
REMARK VINA RESULT:    -4.133      2.371      2.925
REMARK INTER + INTRA:          -5.081
REMARK INTER:                  -5.109
REMARK INTRA:                   0.028
REMARK UNBOUND:                -0.102
REMARK SMILES CC[C@@H](C)[C@H]([NH3+])C(=O)[O-]
REMARK SMILES IDX 3 1 4 2 5 3 6 4 7 8 8 9 9 10 2 11 1 12
REMARK H PARENT 6 5 6 6 6 7
REMARK Flexibility Score: inf
ROOT
ATOM      1  C   UNL     1       1.993 -25.387 -28.291  1.00  0.00     0.050 C 
ATOM      2  C   UNL     1       2.131 -25.162 -29.808  1.00  0.00     0.014 C 
ENDROOT
BRANCH   1   3
ATOM      3  C   UNL     1       3.333 -25.829 -27.617  1.00  0.00     0.230 C 
BRANCH   3   4
ATOM      4  N   UNL     1       3.176 -26.996 -26.736  1.00  0.00    -0.350 N 
ATOM      5  H   UNL     1       2.503 -26.766 -25.969  1.00  0.00     0.345 HD
ATOM      6  H   UNL     1       4.087 -27.239 -26.287  1.00  0.00     0.345 HD
ATOM      7  H   UNL     1       2.813 -27.824 -27.259  1.00  0.00     0.345 HD
ENDBRANCH   3   4
BRANCH   3   8
ATOM      8  C   UNL     1       3.970 -24.680 -26.874  1.00  0.00     0.099 C 
ATOM      9  O   UNL     1       3.848 -24.594 -25.624  1.00  0.00    -0.544 OA
ATOM     10  O   UNL     1       4.735 -23.734 -27.550  1.00  0.00    -0.544 OA
ENDBRANCH   3   8
ENDBRANCH   1   3
BRANCH   1  11
ATOM     11  C   UNL     1       1.353 -24.133 -27.644  1.00  0.00     0.006 C 
ATOM     12  C   UNL     1       0.033 -23.717 -28.295  1.00  0.00     0.004 C 
ENDBRANCH   1  11
TORSDOF 4
ENDMDL
MODEL 3
REMARK VINA RESULT:    -4.080      2.210      2.553
REMARK INTER + INTRA:          -5.016
REMARK INTER:                  -4.899
REMARK INTRA:                  -0.118
REMARK UNBOUND:                -0.102
REMARK SMILES CC[C@@H](C)[C@H]([NH3+])C(=O)[O-]
REMARK SMILES IDX 3 1 4 2 5 3 6 4 7 8 8 9 9 10 2 11 1 12
REMARK H PARENT 6 5 6 6 6 7
REMARK Flexibility Score: inf
ROOT
ATOM      1  C   UNL     1       2.944 -24.632 -27.501  1.00  0.00     0.050 C 
ATOM      2  C   UNL     1       3.944 -24.625 -26.330  1.00  0.00     0.014 C 
ENDROOT
BRANCH   1   3
ATOM      3  C   UNL     1       2.525 -26.075 -27.934  1.00  0.00     0.230 C 
BRANCH   3   4
ATOM      4  N   UNL     1       2.981 -27.113 -26.997  1.00  0.00    -0.350 N 
ATOM      5  H   UNL     1       2.331 -27.153 -26.178  1.00  0.00     0.345 HD
ATOM      6  H   UNL     1       3.930 -26.879 -26.628  1.00  0.00     0.345 HD
ATOM      7  H   UNL     1       3.004 -28.054 -27.450  1.00  0.00     0.345 HD
ENDBRANCH   3   4
BRANCH   3   8
ATOM      8  C   UNL     1       2.995 -26.376 -29.337  1.00  0.00     0.099 C 
ATOM      9  O   UNL     1       3.992 -27.125 -29.518  1.00  0.00    -0.544 OA
ATOM     10  O   UNL     1       2.311 -25.874 -30.439  1.00  0.00    -0.544 OA
ENDBRANCH   3   8
ENDBRANCH   1   3
BRANCH   1  11
ATOM     11  C   UNL     1       1.746 -23.711 -27.157  1.00  0.00     0.006 C 
ATOM     12  C   UNL     1       0.575 -23.844 -28.131  1.00  0.00     0.004 C 
ENDBRANCH   1  11
TORSDOF 4
ENDMDL
MODEL 4
REMARK VINA RESULT:    -4.061      1.521      2.667
REMARK INTER + INTRA:          -4.994
REMARK INTER:                  -4.901
REMARK INTRA:                  -0.093
REMARK UNBOUND:                -0.102
REMARK SMILES CC[C@@H](C)[C@H]([NH3+])C(=O)[O-]
REMARK SMILES IDX 3 1 4 2 5 3 6 4 7 8 8 9 9 10 2 11 1 12
REMARK H PARENT 6 5 6 6 6 7
REMARK Flexibility Score: inf
ROOT
ATOM      1  C   UNL     1       2.411 -23.767 -26.149  1.00  0.00     0.050 C 
ATOM      2  C   UNL     1       1.630 -23.228 -27.361  1.00  0.00     0.014 C 
ENDROOT
BRANCH   1   3
ATOM      3  C   UNL     1       3.772 -24.426 -26.546  1.00  0.00     0.230 C 
BRANCH   3   4
ATOM      4  N   UNL     1       4.791 -23.445 -26.950  1.00  0.00    -0.350 N 
ATOM      5  H   UNL     1       4.413 -22.478 -26.824  1.00  0.00     0.345 HD
ATOM      6  H   UNL     1       5.023 -23.557 -27.963  1.00  0.00     0.345 HD
ATOM      7  H   UNL     1       5.661 -23.540 -26.380  1.00  0.00     0.345 HD
ENDBRANCH   3   4
BRANCH   3   8
ATOM      8  C   UNL     1       3.575 -25.467 -27.622  1.00  0.00     0.099 C 
ATOM      9  O   UNL     1       4.004 -25.256 -28.787  1.00  0.00    -0.544 OA
ATOM     10  O   UNL     1       2.965 -26.683 -27.331  1.00  0.00    -0.544 OA
ENDBRANCH   3   8
ENDBRANCH   1   3
BRANCH   1  11
ATOM     11  C   UNL     1       2.547 -22.646 -25.087  1.00  0.00     0.006 C 
ATOM     12  C   UNL     1       2.836 -23.171 -23.680  1.00  0.00     0.004 C 
ENDBRANCH   1  11
TORSDOF 4
ENDMDL
MODEL 5
REMARK VINA RESULT:    -3.976      2.944      3.323
REMARK INTER + INTRA:          -4.892
REMARK INTER:                  -4.796
REMARK INTRA:                  -0.096
REMARK UNBOUND:                -0.102
REMARK SMILES CC[C@@H](C)[C@H]([NH3+])C(=O)[O-]
REMARK SMILES IDX 3 1 4 2 5 3 6 4 7 8 8 9 9 10 2 11 1 12
REMARK H PARENT 6 5 6 6 6 7
REMARK Flexibility Score: inf
ROOT
ATOM      1  C   UNL     1       2.456 -24.614 -27.036  1.00  0.00     0.050 C 
ATOM      2  C   UNL     1       3.360 -25.852 -27.187  1.00  0.00     0.014 C 
ENDROOT
BRANCH   1   3
ATOM      3  C   UNL     1       3.232 -23.350 -26.544  1.00  0.00     0.230 C 
BRANCH   3   4
ATOM      4  N   UNL     1       4.692 -23.491 -26.656  1.00  0.00    -0.350 N 
ATOM      5  H   UNL     1       4.943 -24.506 -26.690  1.00  0.00     0.345 HD
ATOM      6  H   UNL     1       5.163 -23.082 -25.818  1.00  0.00     0.345 HD
ATOM      7  H   UNL     1       5.055 -23.030 -27.520  1.00  0.00     0.345 HD
ENDBRANCH   3   4
BRANCH   3   8
ATOM      8  C   UNL     1       2.837 -22.987 -25.132  1.00  0.00     0.099 C 
ATOM      9  O   UNL     1       2.086 -21.997 -24.924  1.00  0.00    -0.544 OA
ATOM     10  O   UNL     1       3.254 -23.763 -24.056  1.00  0.00    -0.544 OA
ENDBRANCH   3   8
ENDBRANCH   1   3
BRANCH   1  11
ATOM     11  C   UNL     1       1.669 -24.391 -28.352  1.00  0.00     0.006 C 
ATOM     12  C   UNL     1       0.272 -23.809 -28.137  1.00  0.00     0.004 C 
ENDBRANCH   1  11
TORSDOF 4
ENDMDL
MODEL 6
REMARK VINA RESULT:    -3.946      2.878      3.833
REMARK INTER + INTRA:          -4.856
REMARK INTER:                  -4.729
REMARK INTRA:                  -0.127
REMARK UNBOUND:                -0.102
REMARK SMILES CC[C@@H](C)[C@H]([NH3+])C(=O)[O-]
REMARK SMILES IDX 3 1 4 2 5 3 6 4 7 8 8 9 9 10 2 11 1 12
REMARK H PARENT 6 5 6 6 6 7
REMARK Flexibility Score: inf
ROOT
ATOM      1  C   UNL     1       3.192 -25.636 -28.874  1.00  0.00     0.050 C 
ATOM      2  C   UNL     1       2.749 -26.904 -29.628  1.00  0.00     0.014 C 
ENDROOT
BRANCH   1   3
ATOM      3  C   UNL     1       3.471 -25.897 -27.358  1.00  0.00     0.230 C 
BRANCH   3   4
ATOM      4  N   UNL     1       2.833 -27.124 -26.857  1.00  0.00    -0.350 N 
ATOM      5  H   UNL     1       1.821 -26.939 -26.667  1.00  0.00     0.345 HD
ATOM      6  H   UNL     1       3.270 -27.420 -25.955  1.00  0.00     0.345 HD
ATOM      7  H   UNL     1       2.905 -27.902 -27.551  1.00  0.00     0.345 HD
ENDBRANCH   3   4
BRANCH   3   8
ATOM      8  C   UNL     1       3.069 -24.706 -26.521  1.00  0.00     0.099 C 
ATOM      9  O   UNL     1       2.071 -24.013 -26.853  1.00  0.00    -0.544 OA
ATOM     10  O   UNL     1       3.762 -24.389 -25.358  1.00  0.00    -0.544 OA
ENDBRANCH   3   8
ENDBRANCH   1   3
BRANCH   1  11
ATOM     11  C   UNL     1       4.380 -24.983 -29.624  1.00  0.00     0.006 C 
ATOM     12  C   UNL     1       4.210 -23.479 -29.844  1.00  0.00     0.004 C 
ENDBRANCH   1  11
TORSDOF 4
ENDMDL
MODEL 7
REMARK VINA RESULT:    -3.943      2.253      3.274
REMARK INTER + INTRA:          -4.852
REMARK INTER:                  -4.911
REMARK INTRA:                   0.059
REMARK UNBOUND:                -0.102
REMARK SMILES CC[C@@H](C)[C@H]([NH3+])C(=O)[O-]
REMARK SMILES IDX 3 1 4 2 5 3 6 4 7 8 8 9 9 10 2 11 1 12
REMARK H PARENT 6 5 6 6 6 7
REMARK Flexibility Score: inf
ROOT
ATOM      1  C   UNL     1       4.523 -24.069 -29.331  1.00  0.00     0.050 C 
ATOM      2  C   UNL     1       4.110 -22.944 -30.298  1.00  0.00     0.014 C 
ENDROOT
BRANCH   1   3
ATOM      3  C   UNL     1       4.068 -23.804 -27.859  1.00  0.00     0.230 C 
BRANCH   3   4
ATOM      4  N   UNL     1       5.195 -23.658 -26.926  1.00  0.00    -0.350 N 
ATOM      5  H   UNL     1       5.768 -22.826 -27.198  1.00  0.00     0.345 HD
ATOM      6  H   UNL     1       5.819 -24.495 -26.975  1.00  0.00     0.345 HD
ATOM      7  H   UNL     1       4.864 -23.527 -25.944  1.00  0.00     0.345 HD
ENDBRANCH   3   4
BRANCH   3   8
ATOM      8  C   UNL     1       3.116 -24.875 -27.386  1.00  0.00     0.099 C 
ATOM      9  O   UNL     1       3.552 -25.858 -26.729  1.00  0.00    -0.544 OA
ATOM     10  O   UNL     1       1.750 -24.769 -27.625  1.00  0.00    -0.544 OA
ENDBRANCH   3   8
ENDBRANCH   1   3
BRANCH   1  11
ATOM     11  C   UNL     1       4.045 -25.430 -29.897  1.00  0.00     0.006 C 
ATOM     12  C   UNL     1       3.040 -25.296 -31.042  1.00  0.00     0.004 C 
ENDBRANCH   1  11
TORSDOF 4
ENDMDL
MODEL 8
REMARK VINA RESULT:    -3.921      2.536      3.000
REMARK INTER + INTRA:          -4.825
REMARK INTER:                  -4.734
REMARK INTRA:                  -0.092
REMARK UNBOUND:                -0.102
REMARK SMILES CC[C@@H](C)[C@H]([NH3+])C(=O)[O-]
REMARK SMILES IDX 3 1 4 2 5 3 6 4 7 8 8 9 9 10 2 11 1 12
REMARK H PARENT 6 5 6 6 6 7
REMARK Flexibility Score: inf
ROOT
ATOM      1  C   UNL     1       1.867 -24.300 -29.324  1.00  0.00     0.050 C 
ATOM      2  C   UNL     1       2.150 -22.803 -29.545  1.00  0.00     0.014 C 
ENDROOT
BRANCH   1   3
ATOM      3  C   UNL     1       1.649 -24.661 -27.818  1.00  0.00     0.230 C 
BRANCH   3   4
ATOM      4  N   UNL     1       1.343 -23.490 -26.984  1.00  0.00    -0.350 N 
ATOM      5  H   UNL     1       1.692 -23.653 -26.011  1.00  0.00     0.345 HD
ATOM      6  H   UNL     1       0.309 -23.347 -26.922  1.00  0.00     0.345 HD
ATOM      7  H   UNL     1       1.793 -22.625 -27.358  1.00  0.00     0.345 HD
ENDBRANCH   3   4
BRANCH   3   8
ATOM      8  C   UNL     1       2.835 -25.416 -27.266  1.00  0.00     0.099 C 
ATOM      9  O   UNL     1       3.789 -24.788 -26.735  1.00  0.00    -0.544 OA
ATOM     10  O   UNL     1       2.867 -26.806 -27.294  1.00  0.00    -0.544 OA
ENDBRANCH   3   8
ENDBRANCH   1   3
BRANCH   1  11
ATOM     11  C   UNL     1       0.705 -24.743 -30.247  1.00  0.00     0.006 C 
ATOM     12  C   UNL     1      -0.519 -23.829 -30.169  1.00  0.00     0.004 C 
ENDBRANCH   1  11
TORSDOF 4
ENDMDL
MODEL 9
REMARK VINA RESULT:    -3.917      2.577      3.039
REMARK INTER + INTRA:          -4.820
REMARK INTER:                  -4.707
REMARK INTRA:                  -0.114
REMARK UNBOUND:                -0.102
REMARK SMILES CC[C@@H](C)[C@H]([NH3+])C(=O)[O-]
REMARK SMILES IDX 3 1 4 2 5 3 6 4 7 8 8 9 9 10 2 11 1 12
REMARK H PARENT 6 5 6 6 6 7
REMARK Flexibility Score: inf
ROOT
ATOM      1  C   UNL     1       2.316 -24.638 -28.561  1.00  0.00     0.050 C 
ATOM      2  C   UNL     1       1.121 -24.151 -27.721  1.00  0.00     0.014 C 
ENDROOT
BRANCH   1   3
ATOM      3  C   UNL     1       3.365 -25.436 -27.720  1.00  0.00     0.230 C 
BRANCH   3   4
ATOM      4  N   UNL     1       2.776 -26.567 -26.988  1.00  0.00    -0.350 N 
ATOM      5  H   UNL     1       2.636 -26.300 -25.987  1.00  0.00     0.345 HD
ATOM      6  H   UNL     1       3.424 -27.388 -27.003  1.00  0.00     0.345 HD
ATOM      7  H   UNL     1       1.853 -26.844 -27.391  1.00  0.00     0.345 HD
ENDBRANCH   3   4
BRANCH   3   8
ATOM      8  C   UNL     1       4.113 -24.521 -26.779  1.00  0.00     0.099 C 
ATOM      9  O   UNL     1       5.024 -23.773 -27.222  1.00  0.00    -0.544 OA
ATOM     10  O   UNL     1       3.777 -24.460 -25.431  1.00  0.00    -0.544 OA
ENDBRANCH   3   8
ENDBRANCH   1   3
BRANCH   1  11
ATOM     11  C   UNL     1       1.792 -25.408 -29.799  1.00  0.00     0.006 C 
ATOM     12  C   UNL     1       2.905 -26.005 -30.662  1.00  0.00     0.004 C 
ENDBRANCH   1  11
TORSDOF 4
ENDMDL
