MODEL 1
REMARK VINA RESULT:    -2.635      0.000      0.000
REMARK INTER + INTRA:          -3.325
REMARK INTER:                  -3.867
REMARK INTRA:                   0.542
REMARK UNBOUND:                 0.542
REMARK SMILES O=C([O-])CCCCCCCC(=O)[O-]
REMARK SMILES IDX 7 1 6 2 5 3 4 4 2 5 1 6 3 7 8 8 9 9 10 10 11 11 12 12 13 13
REMARK H PARENT
REMARK Flexibility Score: inf
ROOT
ATOM      1  C   UNL     1     -18.505   2.946 -18.660  1.00  0.00     0.000 C 
ENDROOT
BRANCH   1   2
ATOM      2  C   UNL     1     -17.139   3.244 -18.016  1.00  0.00     0.000 C 
BRANCH   2   3
ATOM      3  C   UNL     1     -15.964   2.951 -18.962  1.00  0.00     0.006 C 
BRANCH   3   4
ATOM      4  C   UNL     1     -15.406   4.220 -19.618  1.00  0.00     0.053 C 
BRANCH   4   5
ATOM      5  C   UNL     1     -14.343   4.829 -18.760  1.00  0.00     0.041 C 
ATOM      6  O   UNL     1     -13.875   5.964 -19.040  1.00  0.00    -0.550 OA
ATOM      7  O   UNL     1     -13.904   4.165 -17.621  1.00  0.00    -0.550 OA
ENDBRANCH   4   5
ENDBRANCH   3   4
ENDBRANCH   2   3
ENDBRANCH   1   2
BRANCH   1   8
ATOM      8  C   UNL     1     -19.653   2.947 -17.638  1.00  0.00     0.000 C 
BRANCH   8   9
ATOM      9  C   UNL     1     -20.965   3.488 -18.226  1.00  0.00     0.006 C 
BRANCH   9  10
ATOM     10  C   UNL     1     -20.744   4.042 -19.637  1.00  0.00     0.053 C 
BRANCH  10  11
ATOM     11  C   UNL     1     -20.130   5.405 -19.574  1.00  0.00     0.041 C 
ATOM     12  O   UNL     1     -20.852   6.417 -19.373  1.00  0.00    -0.550 OA
ATOM     13  O   UNL     1     -18.766   5.563 -19.787  1.00  0.00    -0.550 OA
ENDBRANCH  10  11
ENDBRANCH   9  10
ENDBRANCH   8   9
ENDBRANCH   1   8
TORSDOF 8
ENDMDL
MODEL 2
REMARK VINA RESULT:    -0.016     19.565     21.793
REMARK INTER + INTRA:           0.518
REMARK INTER:                   0.833
REMARK INTRA:                  -0.315
REMARK UNBOUND:                 0.542
REMARK SMILES O=C([O-])CCCCCCCC(=O)[O-]
REMARK SMILES IDX 7 1 6 2 5 3 4 4 2 5 1 6 3 7 8 8 9 9 10 10 11 11 12 12 13 13
REMARK H PARENT
REMARK Flexibility Score: inf
ROOT
ATOM      1  C   UNL     1     -31.894  17.864 -10.149  1.00  0.00     0.000 C 
ENDROOT
BRANCH   1   2
ATOM      2  C   UNL     1     -31.992  16.405 -10.630  1.00  0.00     0.000 C 
BRANCH   2   3
ATOM      3  C   UNL     1     -30.685  15.904 -11.263  1.00  0.00     0.006 C 
BRANCH   3   4
ATOM      4  C   UNL     1     -29.593  16.981 -11.292  1.00  0.00     0.053 C 
BRANCH   4   5
ATOM      5  C   UNL     1     -29.255  17.345 -12.704  1.00  0.00     0.041 C 
ATOM      6  O   UNL     1     -28.891  18.517 -12.985  1.00  0.00    -0.550 OA
ATOM      7  O   UNL     1     -29.293  16.378 -13.700  1.00  0.00    -0.550 OA
ENDBRANCH   4   5
ENDBRANCH   3   4
ENDBRANCH   2   3
ENDBRANCH   1   2
BRANCH   1   8
ATOM      8  C   UNL     1     -32.983  18.762 -10.758  1.00  0.00     0.000 C 
BRANCH   8   9
ATOM      9  C   UNL     1     -33.108  20.111 -10.034  1.00  0.00     0.006 C 
BRANCH   9  10
ATOM     10  C   UNL     1     -32.466  21.233 -10.856  1.00  0.00     0.053 C 
BRANCH  10  11
ATOM     11  C   UNL     1     -32.645  22.551 -10.172  1.00  0.00     0.041 C 
ATOM     12  O   UNL     1     -31.662  23.125  -9.632  1.00  0.00    -0.550 OA
ATOM     13  O   UNL     1     -33.908  23.124 -10.086  1.00  0.00    -0.550 OA
ENDBRANCH  10  11
ENDBRANCH   9  10
ENDBRANCH   8   9
ENDBRANCH   1   8
TORSDOF 8
ENDMDL
MODEL 3
REMARK VINA RESULT:     0.155     19.606     22.179
REMARK INTER + INTRA:           0.770
REMARK INTER:                   1.079
REMARK INTRA:                  -0.309
REMARK UNBOUND:                 0.542
REMARK SMILES O=C([O-])CCCCCCCC(=O)[O-]
REMARK SMILES IDX 7 1 6 2 5 3 4 4 2 5 1 6 3 7 8 8 9 9 10 10 11 11 12 12 13 13
REMARK H PARENT
REMARK Flexibility Score: inf
ROOT
ATOM      1  C   UNL     1     -31.982  18.030 -10.359  1.00  0.00     0.000 C 
ENDROOT
BRANCH   1   2
ATOM      2  C   UNL     1     -33.360  18.694 -10.532  1.00  0.00     0.000 C 
BRANCH   2   3
ATOM      3  C   UNL     1     -33.391  20.135 -10.000  1.00  0.00     0.006 C 
BRANCH   3   4
ATOM      4  C   UNL     1     -32.416  21.059 -10.741  1.00  0.00     0.053 C 
BRANCH   4   5
ATOM      5  C   UNL     1     -32.582  22.472 -10.280  1.00  0.00     0.041 C 
ATOM      6  O   UNL     1     -31.587  23.124  -9.866  1.00  0.00    -0.550 OA
ATOM      7  O   UNL     1     -33.825  23.088 -10.356  1.00  0.00    -0.550 OA
ENDBRANCH   4   5
ENDBRANCH   3   4
ENDBRANCH   2   3
ENDBRANCH   1   2
BRANCH   1   8
ATOM      8  C   UNL     1     -31.997  16.536 -10.720  1.00  0.00     0.000 C 
BRANCH   8   9
ATOM      9  C   UNL     1     -30.609  16.012 -11.119  1.00  0.00     0.006 C 
BRANCH   9  10
ATOM     10  C   UNL     1     -29.598  17.158 -11.211  1.00  0.00     0.053 C 
BRANCH  10  11
ATOM     11  C   UNL     1     -29.264  17.449 -12.640  1.00  0.00     0.041 C 
ATOM     12  O   UNL     1     -29.370  16.547 -13.513  1.00  0.00    -0.550 OA
ATOM     13  O   UNL     1     -28.788  18.703 -13.001  1.00  0.00    -0.550 OA
ENDBRANCH  10  11
ENDBRANCH   9  10
ENDBRANCH   8   9
ENDBRANCH   1   8
TORSDOF 8
ENDMDL
MODEL 4
REMARK VINA RESULT:     0.361     19.730     22.299
REMARK INTER + INTRA:           1.072
REMARK INTER:                   1.154
REMARK INTRA:                  -0.082
REMARK UNBOUND:                 0.542
REMARK SMILES O=C([O-])CCCCCCCC(=O)[O-]
REMARK SMILES IDX 7 1 6 2 5 3 4 4 2 5 1 6 3 7 8 8 9 9 10 10 11 11 12 12 13 13
REMARK H PARENT
REMARK Flexibility Score: inf
ROOT
ATOM      1  C   UNL     1     -32.932  18.004  -9.972  1.00  0.00     0.000 C 
ENDROOT
BRANCH   1   2
ATOM      2  C   UNL     1     -33.008  19.275 -10.838  1.00  0.00     0.000 C 
BRANCH   2   3
ATOM      3  C   UNL     1     -32.004  20.350 -10.396  1.00  0.00     0.006 C 
BRANCH   3   4
ATOM      4  C   UNL     1     -32.236  21.696 -11.095  1.00  0.00     0.053 C 
BRANCH   4   5
ATOM      5  C   UNL     1     -32.838  22.682 -10.145  1.00  0.00     0.041 C 
ATOM      6  O   UNL     1     -34.022  23.077 -10.308  1.00  0.00    -0.550 OA
ATOM      7  O   UNL     1     -32.110  23.125  -9.048  1.00  0.00    -0.550 OA
ENDBRANCH   4   5
ENDBRANCH   3   4
ENDBRANCH   2   3
ENDBRANCH   1   2
BRANCH   1   8
ATOM      8  C   UNL     1     -31.990  16.942 -10.562  1.00  0.00     0.000 C 
BRANCH   8   9
ATOM      9  C   UNL     1     -30.552  17.455 -10.725  1.00  0.00     0.006 C 
BRANCH   9  10
ATOM     10  C   UNL     1     -29.713  16.475 -11.551  1.00  0.00     0.053 C 
BRANCH  10  11
ATOM     11  C   UNL     1     -29.330  17.087 -12.861  1.00  0.00     0.041 C 
ATOM     12  O   UNL     1     -29.345  16.394 -13.913  1.00  0.00    -0.550 OA
ATOM     13  O   UNL     1     -28.908  18.409 -12.913  1.00  0.00    -0.550 OA
ENDBRANCH  10  11
ENDBRANCH   9  10
ENDBRANCH   8   9
ENDBRANCH   1   8
TORSDOF 8
ENDMDL
