MODEL 1
REMARK VINA RESULT:    -3.322      0.000      0.000
REMARK INTER + INTRA:          -7.250
REMARK INTER:                  -5.069
REMARK INTRA:                  -2.181
REMARK UNBOUND:                -2.181
REMARK SMILES CC(=O)CCC=C(C)CCC=C(C)CCC=C(C)C
REMARK SMILES IDX 10 1 11 2 12 3 13 4 14 5 15 6 16 7 18 8 17 9 19 10 9 11 7 12
REMARK SMILES IDX 6 13 8 14 5 15 4 16 2 17 3 18 1 19
REMARK H PARENT
REMARK Flexibility Score: inf
ROOT
ATOM      1  C   UNL     1      67.976  15.920  43.298  1.00  0.00     0.032 C 
ENDROOT
BRANCH   1   2
ATOM      2  C   UNL     1      68.407  15.014  44.429  1.00  0.00    -0.028 C 
ATOM      3  C   UNL     1      68.765  15.435  45.664  1.00  0.00    -0.077 C 
ATOM      4  C   UNL     1      68.824  16.900  46.024  1.00  0.00     0.039 C 
BRANCH   3   5
ATOM      5  C   UNL     1      69.105  14.404  46.719  1.00  0.00     0.034 C 
BRANCH   5   6
ATOM      6  C   UNL     1      67.865  13.589  47.109  1.00  0.00     0.032 C 
BRANCH   6   7
ATOM      7  C   UNL     1      66.652  14.475  47.251  1.00  0.00    -0.028 C 
ATOM      8  C   UNL     1      65.371  13.140  45.573  1.00  0.00     0.039 C 
ATOM      9  C   UNL     1      65.511  14.279  46.555  1.00  0.00    -0.080 C 
ATOM     10  C   UNL     1      64.358  15.224  46.773  1.00  0.00     0.039 C 
ENDBRANCH   6   7
ENDBRANCH   5   6
ENDBRANCH   3   5
ENDBRANCH   1   2
BRANCH   1  11
ATOM     11  C   UNL     1      66.521  16.375  43.471  1.00  0.00     0.034 C 
BRANCH  11  12
ATOM     12  C   UNL     1      65.574  15.573  42.605  1.00  0.00    -0.077 C 
ATOM     13  C   UNL     1      64.281  15.445  42.981  1.00  0.00    -0.028 C 
ATOM     14  C   UNL     1      66.093  14.984  41.314  1.00  0.00     0.039 C 
BRANCH  13  15
ATOM     15  C   UNL     1      63.237  14.680  42.207  1.00  0.00     0.035 C 
BRANCH  15  16
ATOM     16  C   UNL     1      62.699  13.504  43.035  1.00  0.00     0.079 C 
BRANCH  16  17
ATOM     17  C   UNL     1      61.668  13.923  44.056  1.00  0.00     0.130 C 
ATOM     18  O   UNL     1      60.876  14.823  43.819  1.00  0.00    -0.300 OA
ATOM     19  C   UNL     1      61.609  13.235  45.386  1.00  0.00     0.087 C 
ENDBRANCH  16  17
ENDBRANCH  15  16
ENDBRANCH  13  15
ENDBRANCH  11  12
ENDBRANCH   1  11
TORSDOF 9
ENDMDL
MODEL 2
REMARK VINA RESULT:    -3.309      1.593      4.486
REMARK INTER + INTRA:          -7.231
REMARK INTER:                  -4.925
REMARK INTRA:                  -2.306
REMARK UNBOUND:                -2.181
REMARK SMILES CC(=O)CCC=C(C)CCC=C(C)CCC=C(C)C
REMARK SMILES IDX 10 1 11 2 12 3 13 4 14 5 15 6 16 7 18 8 17 9 19 10 9 11 7 12
REMARK SMILES IDX 6 13 8 14 5 15 4 16 2 17 3 18 1 19
REMARK H PARENT
REMARK Flexibility Score: inf
ROOT
ATOM      1  C   UNL     1      68.762  15.853  44.446  1.00  0.00     0.032 C 
ENDROOT
BRANCH   1   2
ATOM      2  C   UNL     1      67.528  16.246  43.666  1.00  0.00    -0.028 C 
ATOM      3  C   UNL     1      66.553  15.392  43.278  1.00  0.00    -0.077 C 
ATOM      4  C   UNL     1      66.634  13.909  43.549  1.00  0.00     0.039 C 
BRANCH   3   5
ATOM      5  C   UNL     1      65.339  15.944  42.562  1.00  0.00     0.034 C 
BRANCH   5   6
ATOM      6  C   UNL     1      64.311  14.838  42.294  1.00  0.00     0.032 C 
BRANCH   6   7
ATOM      7  C   UNL     1      63.017  15.107  43.023  1.00  0.00    -0.028 C 
ATOM      8  C   UNL     1      62.343  12.705  42.894  1.00  0.00     0.039 C 
ATOM      9  C   UNL     1      62.114  14.142  43.300  1.00  0.00    -0.080 C 
ATOM     10  C   UNL     1      60.853  14.519  44.034  1.00  0.00     0.039 C 
ENDBRANCH   6   7
ENDBRANCH   5   6
ENDBRANCH   3   5
ENDBRANCH   1   2
BRANCH   1  11
ATOM     11  C   UNL     1      68.707  16.388  45.883  1.00  0.00     0.034 C 
BRANCH  11  12
ATOM     12  C   UNL     1      67.533  15.818  46.651  1.00  0.00    -0.077 C 
ATOM     13  C   UNL     1      66.436  16.584  46.846  1.00  0.00    -0.028 C 
ATOM     14  C   UNL     1      67.607  14.388  47.134  1.00  0.00     0.039 C 
BRANCH  13  15
ATOM     15  C   UNL     1      65.200  16.135  47.586  1.00  0.00     0.035 C 
BRANCH  15  16
ATOM     16  C   UNL     1      64.171  15.538  46.616  1.00  0.00     0.079 C 
BRANCH  16  17
ATOM     17  C   UNL     1      63.750  14.138  46.990  1.00  0.00     0.130 C 
ATOM     18  O   UNL     1      63.038  13.932  47.963  1.00  0.00    -0.300 OA
ATOM     19  C   UNL     1      64.208  12.973  46.167  1.00  0.00     0.087 C 
ENDBRANCH  16  17
ENDBRANCH  15  16
ENDBRANCH  13  15
ENDBRANCH  11  12
ENDBRANCH   1  11
TORSDOF 9
ENDMDL
MODEL 3
REMARK VINA RESULT:    -3.308      1.916      4.404
REMARK INTER + INTRA:          -7.228
REMARK INTER:                  -4.606
REMARK INTRA:                  -2.623
REMARK UNBOUND:                -2.181
REMARK SMILES CC(=O)CCC=C(C)CCC=C(C)CCC=C(C)C
REMARK SMILES IDX 10 1 11 2 12 3 13 4 14 5 15 6 16 7 18 8 17 9 19 10 9 11 7 12
REMARK SMILES IDX 6 13 8 14 5 15 4 16 2 17 3 18 1 19
REMARK H PARENT
REMARK Flexibility Score: inf
ROOT
ATOM      1  C   UNL     1      68.704  16.227  44.181  1.00  0.00     0.032 C 
ENDROOT
BRANCH   1   2
ATOM      2  C   UNL     1      67.308  16.371  43.617  1.00  0.00    -0.028 C 
ATOM      3  C   UNL     1      66.554  15.350  43.148  1.00  0.00    -0.077 C 
ATOM      4  C   UNL     1      67.072  13.933  43.091  1.00  0.00     0.039 C 
BRANCH   3   5
ATOM      5  C   UNL     1      65.144  15.638  42.679  1.00  0.00     0.034 C 
BRANCH   5   6
ATOM      6  C   UNL     1      64.123  14.815  43.475  1.00  0.00     0.032 C 
BRANCH   6   7
ATOM      7  C   UNL     1      64.083  15.245  44.921  1.00  0.00    -0.028 C 
ATOM      8  C   UNL     1      61.721  14.475  45.176  1.00  0.00     0.039 C 
ATOM      9  C   UNL     1      62.993  15.095  45.704  1.00  0.00    -0.080 C 
ATOM     10  C   UNL     1      63.060  15.559  47.136  1.00  0.00     0.039 C 
ENDBRANCH   6   7
ENDBRANCH   5   6
ENDBRANCH   3   5
ENDBRANCH   1   2
BRANCH   1  11
ATOM     11  C   UNL     1      68.762  16.675  45.647  1.00  0.00     0.034 C 
BRANCH  11  12
ATOM     12  C   UNL     1      67.725  15.967  46.493  1.00  0.00    -0.077 C 
ATOM     13  C   UNL     1      67.822  14.631  46.678  1.00  0.00    -0.028 C 
ATOM     14  C   UNL     1      66.639  16.788  47.149  1.00  0.00     0.039 C 
BRANCH  13  15
ATOM     15  C   UNL     1      66.862  13.809  47.500  1.00  0.00     0.035 C 
BRANCH  15  16
ATOM     16  C   UNL     1      66.123  12.791  46.618  1.00  0.00     0.079 C 
BRANCH  16  17
ATOM     17  C   UNL     1      64.848  12.282  47.246  1.00  0.00     0.130 C 
ATOM     18  O   UNL     1      64.014  11.682  46.583  1.00  0.00    -0.300 OA
ATOM     19  C   UNL     1      64.587  12.513  48.704  1.00  0.00     0.087 C 
ENDBRANCH  16  17
ENDBRANCH  15  16
ENDBRANCH  13  15
ENDBRANCH  11  12
ENDBRANCH   1  11
TORSDOF 9
ENDMDL
MODEL 4
REMARK VINA RESULT:    -3.279     17.525     19.316
REMARK INTER + INTRA:          -7.185
REMARK INTER:                  -4.729
REMARK INTRA:                  -2.457
REMARK UNBOUND:                -2.181
REMARK SMILES CC(=O)CCC=C(C)CCC=C(C)CCC=C(C)C
REMARK SMILES IDX 10 1 11 2 12 3 13 4 14 5 15 6 16 7 18 8 17 9 19 10 9 11 7 12
REMARK SMILES IDX 6 13 8 14 5 15 4 16 2 17 3 18 1 19
REMARK H PARENT
REMARK Flexibility Score: inf
ROOT
ATOM      1  C   UNL     1      70.727  -0.938  38.372  1.00  0.00     0.032 C 
ENDROOT
BRANCH   1   2
ATOM      2  C   UNL     1      69.882  -1.940  37.618  1.00  0.00    -0.028 C 
ATOM      3  C   UNL     1      68.697  -1.665  37.025  1.00  0.00    -0.077 C 
ATOM      4  C   UNL     1      68.059  -0.299  37.111  1.00  0.00     0.039 C 
BRANCH   3   5
ATOM      5  C   UNL     1      67.999  -2.756  36.243  1.00  0.00     0.034 C 
BRANCH   5   6
ATOM      6  C   UNL     1      68.023  -2.454  34.740  1.00  0.00     0.032 C 
BRANCH   6   7
ATOM      7  C   UNL     1      69.373  -2.768  34.141  1.00  0.00    -0.028 C 
ATOM      8  C   UNL     1      69.837  -0.354  33.699  1.00  0.00     0.039 C 
ATOM      9  C   UNL     1      70.205  -1.819  33.664  1.00  0.00    -0.080 C 
ATOM     10  C   UNL     1      71.532  -2.242  33.087  1.00  0.00     0.039 C 
ENDBRANCH   6   7
ENDBRANCH   5   6
ENDBRANCH   3   5
ENDBRANCH   1   2
BRANCH   1  11
ATOM     11  C   UNL     1      72.152  -0.873  37.808  1.00  0.00     0.034 C 
BRANCH  11  12
ATOM     12  C   UNL     1      72.262   0.118  36.669  1.00  0.00    -0.077 C 
ATOM     13  C   UNL     1      73.130  -0.127  35.661  1.00  0.00    -0.028 C 
ATOM     14  C   UNL     1      71.356   1.327  36.669  1.00  0.00     0.039 C 
BRANCH  13  15
ATOM     15  C   UNL     1      73.331   0.774  34.468  1.00  0.00     0.035 C 
BRANCH  15  16
ATOM     16  C   UNL     1      74.353   1.875  34.783  1.00  0.00     0.079 C 
BRANCH  16  17
ATOM     17  C   UNL     1      73.839   3.262  34.482  1.00  0.00     0.130 C 
ATOM     18  O   UNL     1      74.365   4.250  34.974  1.00  0.00    -0.300 OA
ATOM     19  C   UNL     1      72.664   3.443  33.569  1.00  0.00     0.087 C 
ENDBRANCH  16  17
ENDBRANCH  15  16
ENDBRANCH  13  15
ENDBRANCH  11  12
ENDBRANCH   1  11
TORSDOF 9
ENDMDL
MODEL 5
REMARK VINA RESULT:    -3.254      2.071      3.450
REMARK INTER + INTRA:          -7.146
REMARK INTER:                  -4.701
REMARK INTRA:                  -2.445
REMARK UNBOUND:                -2.181
REMARK SMILES CC(=O)CCC=C(C)CCC=C(C)CCC=C(C)C
REMARK SMILES IDX 10 1 11 2 12 3 13 4 14 5 15 6 16 7 18 8 17 9 19 10 9 11 7 12
REMARK SMILES IDX 6 13 8 14 5 15 4 16 2 17 3 18 1 19
REMARK H PARENT
REMARK Flexibility Score: inf
ROOT
ATOM      1  C   UNL     1      65.837  15.336  42.483  1.00  0.00     0.032 C 
ENDROOT
BRANCH   1   2
ATOM      2  C   UNL     1      66.924  16.045  43.258  1.00  0.00    -0.028 C 
ATOM      3  C   UNL     1      68.155  15.539  43.504  1.00  0.00    -0.077 C 
ATOM      4  C   UNL     1      68.553  14.152  43.060  1.00  0.00     0.039 C 
BRANCH   3   5
ATOM      5  C   UNL     1      69.166  16.397  44.234  1.00  0.00     0.034 C 
BRANCH   5   6
ATOM      6  C   UNL     1      68.744  16.621  45.691  1.00  0.00     0.032 C 
BRANCH   6   7
ATOM      7  C   UNL     1      68.459  15.312  46.386  1.00  0.00    -0.028 C 
ATOM      8  C   UNL     1      66.127  16.013  46.941  1.00  0.00     0.039 C 
ATOM      9  C   UNL     1      67.271  15.026  46.959  1.00  0.00    -0.080 C 
ATOM     10  C   UNL     1      67.092  13.687  47.627  1.00  0.00     0.039 C 
ENDBRANCH   6   7
ENDBRANCH   5   6
ENDBRANCH   3   5
ENDBRANCH   1   2
BRANCH   1  11
ATOM     11  C   UNL     1      64.455  15.593  43.099  1.00  0.00     0.034 C 
BRANCH  11  12
ATOM     12  C   UNL     1      64.125  14.588  44.181  1.00  0.00    -0.077 C 
ATOM     13  C   UNL     1      63.029  14.780  44.950  1.00  0.00    -0.028 C 
ATOM     14  C   UNL     1      65.006  13.370  44.334  1.00  0.00     0.039 C 
BRANCH  13  15
ATOM     15  C   UNL     1      62.587  13.854  46.055  1.00  0.00     0.035 C 
BRANCH  15  16
ATOM     16  C   UNL     1      62.723  14.536  47.424  1.00  0.00     0.079 C 
BRANCH  16  17
ATOM     17  C   UNL     1      63.483  13.701  48.427  1.00  0.00     0.130 C 
ATOM     18  O   UNL     1      63.986  14.210  49.418  1.00  0.00    -0.300 OA
ATOM     19  C   UNL     1      63.634  12.226  48.211  1.00  0.00     0.087 C 
ENDBRANCH  16  17
ENDBRANCH  15  16
ENDBRANCH  13  15
ENDBRANCH  11  12
ENDBRANCH   1  11
TORSDOF 9
ENDMDL
MODEL 6
REMARK VINA RESULT:    -3.253     16.744     18.303
REMARK INTER + INTRA:          -7.145
REMARK INTER:                  -4.744
REMARK INTRA:                  -2.401
REMARK UNBOUND:                -2.181
REMARK SMILES CC(=O)CCC=C(C)CCC=C(C)CCC=C(C)C
REMARK SMILES IDX 10 1 11 2 12 3 13 4 14 5 15 6 16 7 18 8 17 9 19 10 9 11 7 12
REMARK SMILES IDX 6 13 8 14 5 15 4 16 2 17 3 18 1 19
REMARK H PARENT
REMARK Flexibility Score: inf
ROOT
ATOM      1  C   UNL     1      70.720   2.619  31.355  1.00  0.00     0.032 C 
ENDROOT
BRANCH   1   2
ATOM      2  C   UNL     1      70.657   1.116  31.503  1.00  0.00    -0.028 C 
ATOM      3  C   UNL     1      70.763   0.449  32.676  1.00  0.00    -0.077 C 
ATOM      4  C   UNL     1      71.017   1.162  33.982  1.00  0.00     0.039 C 
BRANCH   3   5
ATOM      5  C   UNL     1      70.609  -1.057  32.678  1.00  0.00     0.034 C 
BRANCH   5   6
ATOM      6  C   UNL     1      70.640  -1.609  34.108  1.00  0.00     0.032 C 
BRANCH   6   7
ATOM      7  C   UNL     1      69.298  -2.175  34.504  1.00  0.00    -0.028 C 
ATOM      8  C   UNL     1      69.655  -1.576  36.902  1.00  0.00     0.039 C 
ATOM      9  C   UNL     1      68.841  -2.165  35.774  1.00  0.00    -0.080 C 
ATOM     10  C   UNL     1      67.485  -2.757  36.061  1.00  0.00     0.039 C 
ENDBRANCH   6   7
ENDBRANCH   5   6
ENDBRANCH   3   5
ENDBRANCH   1   2
BRANCH   1  11
ATOM     11  C   UNL     1      69.347   3.201  30.992  1.00  0.00     0.034 C 
BRANCH  11  12
ATOM     12  C   UNL     1      68.377   3.119  32.151  1.00  0.00    -0.077 C 
ATOM     13  C   UNL     1      67.498   2.093  32.206  1.00  0.00    -0.028 C 
ATOM     14  C   UNL     1      68.457   4.163  33.240  1.00  0.00     0.039 C 
BRANCH  13  15
ATOM     15  C   UNL     1      66.485   1.892  33.306  1.00  0.00     0.035 C 
BRANCH  15  16
ATOM     16  C   UNL     1      66.824   0.646  34.137  1.00  0.00     0.079 C 
BRANCH  16  17
ATOM     17  C   UNL     1      66.885   0.923  35.620  1.00  0.00     0.130 C 
ATOM     18  O   UNL     1      66.026   0.494  36.377  1.00  0.00    -0.300 OA
ATOM     19  C   UNL     1      68.008   1.739  36.183  1.00  0.00     0.087 C 
ENDBRANCH  16  17
ENDBRANCH  15  16
ENDBRANCH  13  15
ENDBRANCH  11  12
ENDBRANCH   1  11
TORSDOF 9
ENDMDL
MODEL 7
REMARK VINA RESULT:    -3.242      2.039      3.595
REMARK INTER + INTRA:          -7.129
REMARK INTER:                  -4.689
REMARK INTRA:                  -2.440
REMARK UNBOUND:                -2.181
REMARK SMILES CC(=O)CCC=C(C)CCC=C(C)CCC=C(C)C
REMARK SMILES IDX 10 1 11 2 12 3 13 4 14 5 15 6 16 7 18 8 17 9 19 10 9 11 7 12
REMARK SMILES IDX 6 13 8 14 5 15 4 16 2 17 3 18 1 19
REMARK H PARENT
REMARK Flexibility Score: inf
ROOT
ATOM      1  C   UNL     1      68.699  14.522  46.262  1.00  0.00     0.032 C 
ENDROOT
BRANCH   1   2
ATOM      2  C   UNL     1      68.462  13.695  47.505  1.00  0.00    -0.028 C 
ATOM      3  C   UNL     1      67.790  12.521  47.538  1.00  0.00    -0.077 C 
ATOM      4  C   UNL     1      67.145  11.934  46.305  1.00  0.00     0.039 C 
BRANCH   3   5
ATOM      5  C   UNL     1      67.694  11.769  48.847  1.00  0.00     0.034 C 
BRANCH   5   6
ATOM      6  C   UNL     1      66.245  11.367  49.144  1.00  0.00     0.032 C 
BRANCH   6   7
ATOM      7  C   UNL     1      65.388  12.578  49.421  1.00  0.00    -0.028 C 
ATOM      8  C   UNL     1      63.581  11.757  47.905  1.00  0.00     0.039 C 
ATOM      9  C   UNL     1      64.174  12.765  48.861  1.00  0.00    -0.080 C 
ATOM     10  C   UNL     1      63.400  14.011  49.207  1.00  0.00     0.039 C 
ENDBRANCH   6   7
ENDBRANCH   5   6
ENDBRANCH   3   5
ENDBRANCH   1   2
BRANCH   1  11
ATOM     11  C   UNL     1      68.063  15.913  46.387  1.00  0.00     0.034 C 
BRANCH  11  12
ATOM     12  C   UNL     1      66.574  15.829  46.647  1.00  0.00    -0.077 C 
ATOM     13  C   UNL     1      65.765  15.308  45.696  1.00  0.00    -0.028 C 
ATOM     14  C   UNL     1      66.043  16.285  47.986  1.00  0.00     0.039 C 
BRANCH  13  15
ATOM     15  C   UNL     1      64.270  15.163  45.830  1.00  0.00     0.035 C 
BRANCH  15  16
ATOM     16  C   UNL     1      63.747  14.048  44.912  1.00  0.00     0.079 C 
BRANCH  16  17
ATOM     17  C   UNL     1      62.729  14.538  43.910  1.00  0.00     0.130 C 
ATOM     18  O   UNL     1      61.546  14.627  44.206  1.00  0.00    -0.300 OA
ATOM     19  C   UNL     1      63.163  14.918  42.527  1.00  0.00     0.087 C 
ENDBRANCH  16  17
ENDBRANCH  15  16
ENDBRANCH  13  15
ENDBRANCH  11  12
ENDBRANCH   1  11
TORSDOF 9
ENDMDL
MODEL 8
REMARK VINA RESULT:    -3.228      3.225      6.839
REMARK INTER + INTRA:          -7.107
REMARK INTER:                  -4.703
REMARK INTRA:                  -2.404
REMARK UNBOUND:                -2.181
REMARK SMILES CC(=O)CCC=C(C)CCC=C(C)CCC=C(C)C
REMARK SMILES IDX 10 1 11 2 12 3 13 4 14 5 15 6 16 7 18 8 17 9 19 10 9 11 7 12
REMARK SMILES IDX 6 13 8 14 5 15 4 16 2 17 3 18 1 19
REMARK H PARENT
REMARK Flexibility Score: inf
ROOT
ATOM      1  C   UNL     1      64.355  10.232  48.820  1.00  0.00     0.032 C 
ENDROOT
BRANCH   1   2
ATOM      2  C   UNL     1      63.106  10.685  48.098  1.00  0.00    -0.028 C 
ATOM      3  C   UNL     1      63.037  10.975  46.778  1.00  0.00    -0.077 C 
ATOM      4  C   UNL     1      64.253  10.924  45.884  1.00  0.00     0.039 C 
BRANCH   3   5
ATOM      5  C   UNL     1      61.698  11.348  46.179  1.00  0.00     0.034 C 
BRANCH   5   6
ATOM      6  C   UNL     1      61.795  12.663  45.396  1.00  0.00     0.032 C 
BRANCH   6   7
ATOM      7  C   UNL     1      62.028  13.833  46.320  1.00  0.00    -0.028 C 
ATOM      8  C   UNL     1      63.701  14.842  44.765  1.00  0.00     0.039 C 
ATOM      9  C   UNL     1      62.894  14.830  46.042  1.00  0.00    -0.080 C 
ATOM     10  C   UNL     1      63.050  15.953  47.034  1.00  0.00     0.039 C 
ENDBRANCH   6   7
ENDBRANCH   5   6
ENDBRANCH   3   5
ENDBRANCH   1   2
BRANCH   1  11
ATOM     11  C   UNL     1      64.758  11.228  49.915  1.00  0.00     0.034 C 
BRANCH  11  12
ATOM     12  C   UNL     1      64.921  12.630  49.368  1.00  0.00    -0.077 C 
ATOM     13  C   UNL     1      65.898  12.879  48.466  1.00  0.00    -0.028 C 
ATOM     14  C   UNL     1      63.950  13.700  49.810  1.00  0.00     0.039 C 
BRANCH  13  15
ATOM     15  C   UNL     1      66.163  14.225  47.841  1.00  0.00     0.035 C 
BRANCH  15  16
ATOM     16  C   UNL     1      66.944  14.072  46.528  1.00  0.00     0.079 C 
BRANCH  16  17
ATOM     17  C   UNL     1      68.229  14.864  46.509  1.00  0.00     0.130 C 
ATOM     18  O   UNL     1      69.308  14.320  46.696  1.00  0.00    -0.300 OA
ATOM     19  C   UNL     1      68.194  16.342  46.264  1.00  0.00     0.087 C 
ENDBRANCH  16  17
ENDBRANCH  15  16
ENDBRANCH  13  15
ENDBRANCH  11  12
ENDBRANCH   1  11
TORSDOF 9
ENDMDL
MODEL 9
REMARK VINA RESULT:    -3.206     16.392     18.493
REMARK INTER + INTRA:          -7.073
REMARK INTER:                  -4.203
REMARK INTRA:                  -2.870
REMARK UNBOUND:                -2.181
REMARK SMILES CC(=O)CCC=C(C)CCC=C(C)CCC=C(C)C
REMARK SMILES IDX 10 1 11 2 12 3 13 4 14 5 15 6 16 7 18 8 17 9 19 10 9 11 7 12
REMARK SMILES IDX 6 13 8 14 5 15 4 16 2 17 3 18 1 19
REMARK H PARENT
REMARK Flexibility Score: inf
ROOT
ATOM      1  C   UNL     1      68.308   2.960  31.552  1.00  0.00     0.032 C 
ENDROOT
BRANCH   1   2
ATOM      2  C   UNL     1      68.413   1.755  32.459  1.00  0.00    -0.028 C 
ATOM      3  C   UNL     1      68.605   1.807  33.798  1.00  0.00    -0.077 C 
ATOM      4  C   UNL     1      68.794   3.116  34.528  1.00  0.00     0.039 C 
BRANCH   3   5
ATOM      5  C   UNL     1      68.618   0.516  34.586  1.00  0.00     0.034 C 
BRANCH   5   6
ATOM      6  C   UNL     1      69.402  -0.573  33.844  1.00  0.00     0.032 C 
BRANCH   6   7
ATOM      7  C   UNL     1      70.890  -0.393  34.024  1.00  0.00    -0.028 C 
ATOM      8  C   UNL     1      71.268  -0.314  31.556  1.00  0.00     0.039 C 
ATOM      9  C   UNL     1      71.748  -0.275  32.988  1.00  0.00    -0.080 C 
ATOM     10  C   UNL     1      73.216  -0.100  33.280  1.00  0.00     0.039 C 
ENDBRANCH   6   7
ENDBRANCH   5   6
ENDBRANCH   3   5
ENDBRANCH   1   2
BRANCH   1  11
ATOM     11  C   UNL     1      69.582   3.142  30.717  1.00  0.00     0.034 C 
BRANCH  11  12
ATOM     12  C   UNL     1      70.619   3.970  31.445  1.00  0.00    -0.077 C 
ATOM     13  C   UNL     1      71.618   3.345  32.109  1.00  0.00    -0.028 C 
ATOM     14  C   UNL     1      70.534   5.476  31.362  1.00  0.00     0.039 C 
BRANCH  13  15
ATOM     15  C   UNL     1      72.714   4.051  32.867  1.00  0.00     0.035 C 
BRANCH  15  16
ATOM     16  C   UNL     1      72.371   4.142  34.361  1.00  0.00     0.079 C 
BRANCH  16  17
ATOM     17  C   UNL     1      73.038   3.068  35.187  1.00  0.00     0.130 C 
ATOM     18  O   UNL     1      74.228   2.821  35.056  1.00  0.00    -0.300 OA
ATOM     19  C   UNL     1      72.237   2.283  36.181  1.00  0.00     0.087 C 
ENDBRANCH  16  17
ENDBRANCH  15  16
ENDBRANCH  13  15
ENDBRANCH  11  12
ENDBRANCH   1  11
TORSDOF 9
ENDMDL
