MODEL 1
REMARK VINA RESULT:    -5.843      0.000      0.000
REMARK INTER + INTRA:         -13.967
REMARK INTER:                 -11.308
REMARK INTRA:                  -2.659
REMARK UNBOUND:                -2.659
REMARK SMILES CCCCCCCCCCCCCCCCCC(=O)[O-]
REMARK SMILES IDX 10 1 11 2 12 3 13 4 14 5 15 6 16 7 17 8 18 9 19 10 20 11
REMARK SMILES IDX 9 12 8 13 7 14 6 15 5 16 4 17 3 18 2 19 1 20
REMARK H PARENT
REMARK Flexibility Score: inf
ROOT
ATOM      1  C   UNL     1      11.687 -13.738  37.400  1.00  0.00     0.000 C 
ENDROOT
BRANCH   1   2
ATOM      2  C   UNL     1      13.086 -13.587  36.785  1.00  0.00     0.000 C 
BRANCH   2   3
ATOM      3  C   UNL     1      13.046 -13.219  35.292  1.00  0.00     0.000 C 
BRANCH   3   4
ATOM      4  C   UNL     1      14.095 -12.181  34.845  1.00  0.00     0.000 C 
BRANCH   4   5
ATOM      5  C   UNL     1      13.785 -10.726  35.242  1.00  0.00     0.000 C 
BRANCH   5   6
ATOM      6  C   UNL     1      12.279 -10.438  35.323  1.00  0.00     0.000 C 
BRANCH   6   7
ATOM      7  C   UNL     1      11.891  -9.932  36.720  1.00  0.00     0.006 C 
BRANCH   7   8
ATOM      8  C   UNL     1      13.023 -10.120  37.741  1.00  0.00     0.053 C 
BRANCH   8   9
ATOM      9  C   UNL     1      12.492 -10.359  39.121  1.00  0.00     0.041 C 
ATOM     10  O   UNL     1      11.286 -10.681  39.288  1.00  0.00    -0.550 OA
ATOM     11  O   UNL     1      13.336 -10.261  40.219  1.00  0.00    -0.550 OA
ENDBRANCH   8   9
ENDBRANCH   7   8
ENDBRANCH   6   7
ENDBRANCH   5   6
ENDBRANCH   4   5
ENDBRANCH   3   4
ENDBRANCH   2   3
ENDBRANCH   1   2
BRANCH   1  12
ATOM     12  C   UNL     1      10.867 -14.794  36.642  1.00  0.00     0.000 C 
BRANCH  12  13
ATOM     13  C   UNL     1      10.113 -15.752  37.583  1.00  0.00    -0.000 C 
BRANCH  13  14
ATOM     14  C   UNL     1       9.503 -15.089  38.834  1.00  0.00    -0.000 C 
BRANCH  14  15
ATOM     15  C   UNL     1       8.192 -14.316  38.594  1.00  0.00    -0.000 C 
BRANCH  15  16
ATOM     16  C   UNL     1       8.349 -12.788  38.489  1.00  0.00    -0.000 C 
BRANCH  16  17
ATOM     17  C   UNL     1       7.919 -12.237  37.122  1.00  0.00    -0.000 C 
BRANCH  17  18
ATOM     18  C   UNL     1       7.351 -13.354  36.235  1.00  0.00    -0.000 C 
BRANCH  18  19
ATOM     19  C   UNL     1       7.974 -13.367  34.830  1.00  0.00    -0.003 C 
ATOM     20  C   UNL     1       9.027 -12.275  34.640  1.00  0.00     0.004 C 
ENDBRANCH  18  19
ENDBRANCH  17  18
ENDBRANCH  16  17
ENDBRANCH  15  16
ENDBRANCH  14  15
ENDBRANCH  13  14
ENDBRANCH  12  13
ENDBRANCH   1  12
TORSDOF 16
ENDMDL
MODEL 2
REMARK VINA RESULT:    -5.720      2.408      5.713
REMARK INTER + INTRA:         -13.728
REMARK INTER:                 -10.743
REMARK INTRA:                  -2.986
REMARK UNBOUND:                -2.659
REMARK SMILES CCCCCCCCCCCCCCCCCC(=O)[O-]
REMARK SMILES IDX 10 1 11 2 12 3 13 4 14 5 15 6 16 7 17 8 18 9 19 10 20 11
REMARK SMILES IDX 9 12 8 13 7 14 6 15 5 16 4 17 3 18 2 19 1 20
REMARK H PARENT
REMARK Flexibility Score: inf
ROOT
ATOM      1  C   UNL     1      13.254 -13.735  36.961  1.00  0.00     0.000 C 
ENDROOT
BRANCH   1   2
ATOM      2  C   UNL     1      12.000 -14.506  37.397  1.00  0.00     0.000 C 
BRANCH   2   3
ATOM      3  C   UNL     1      10.947 -14.616  36.280  1.00  0.00     0.000 C 
BRANCH   3   4
ATOM      4  C   UNL     1       9.508 -14.891  36.760  1.00  0.00     0.000 C 
BRANCH   4   5
ATOM      5  C   UNL     1       9.067 -14.085  37.996  1.00  0.00     0.000 C 
BRANCH   5   6
ATOM      6  C   UNL     1       7.851 -13.189  37.720  1.00  0.00     0.000 C 
BRANCH   6   7
ATOM      7  C   UNL     1       7.252 -13.487  36.338  1.00  0.00     0.006 C 
BRANCH   7   8
ATOM      8  C   UNL     1       7.383 -12.297  35.378  1.00  0.00     0.053 C 
BRANCH   8   9
ATOM      9  C   UNL     1       8.059 -12.686  34.100  1.00  0.00     0.041 C 
ATOM     10  O   UNL     1       9.080 -12.062  33.708  1.00  0.00    -0.550 OA
ATOM     11  O   UNL     1       7.582 -13.759  33.358  1.00  0.00    -0.550 OA
ENDBRANCH   8   9
ENDBRANCH   7   8
ENDBRANCH   6   7
ENDBRANCH   5   6
ENDBRANCH   4   5
ENDBRANCH   3   4
ENDBRANCH   2   3
ENDBRANCH   1   2
BRANCH   1  12
ATOM     12  C   UNL     1      13.171 -13.349  35.477  1.00  0.00     0.000 C 
BRANCH  12  13
ATOM     13  C   UNL     1      14.221 -12.297  35.074  1.00  0.00    -0.000 C 
BRANCH  13  14
ATOM     14  C   UNL     1      13.705 -10.844  35.041  1.00  0.00    -0.000 C 
BRANCH  14  15
ATOM     15  C   UNL     1      12.201 -10.688  34.743  1.00  0.00    -0.000 C 
BRANCH  15  16
ATOM     16  C   UNL     1      11.396  -9.955  35.831  1.00  0.00    -0.000 C 
BRANCH  16  17
ATOM     17  C   UNL     1      10.508 -10.899  36.654  1.00  0.00    -0.000 C 
BRANCH  17  18
ATOM     18  C   UNL     1      11.054 -11.060  38.080  1.00  0.00    -0.000 C 
BRANCH  18  19
ATOM     19  C   UNL     1      12.043  -9.948  38.464  1.00  0.00    -0.003 C 
ATOM     20  C   UNL     1      13.233 -10.468  39.271  1.00  0.00     0.004 C 
ENDBRANCH  18  19
ENDBRANCH  17  18
ENDBRANCH  16  17
ENDBRANCH  15  16
ENDBRANCH  14  15
ENDBRANCH  13  14
ENDBRANCH  12  13
ENDBRANCH   1  12
TORSDOF 16
ENDMDL
MODEL 3
REMARK VINA RESULT:    -5.686      2.255      5.843
REMARK INTER + INTRA:         -13.664
REMARK INTER:                 -10.921
REMARK INTRA:                  -2.743
REMARK UNBOUND:                -2.659
REMARK SMILES CCCCCCCCCCCCCCCCCC(=O)[O-]
REMARK SMILES IDX 10 1 11 2 12 3 13 4 14 5 15 6 16 7 17 8 18 9 19 10 20 11
REMARK SMILES IDX 9 12 8 13 7 14 6 15 5 16 4 17 3 18 2 19 1 20
REMARK H PARENT
REMARK Flexibility Score: inf
ROOT
ATOM      1  C   UNL     1      11.144 -14.844  36.236  1.00  0.00     0.000 C 
ENDROOT
BRANCH   1   2
ATOM      2  C   UNL     1      10.325 -15.668  37.241  1.00  0.00     0.000 C 
BRANCH   2   3
ATOM      3  C   UNL     1       9.928 -14.863  38.491  1.00  0.00     0.000 C 
BRANCH   3   4
ATOM      4  C   UNL     1       8.431 -14.920  38.859  1.00  0.00     0.000 C 
BRANCH   4   5
ATOM      5  C   UNL     1       7.594 -13.722  38.374  1.00  0.00     0.000 C 
BRANCH   5   6
ATOM      6  C   UNL     1       8.447 -12.480  38.076  1.00  0.00     0.000 C 
BRANCH   6   7
ATOM      7  C   UNL     1       8.197 -11.972  36.649  1.00  0.00     0.006 C 
BRANCH   7   8
ATOM      8  C   UNL     1       7.643 -13.069  35.730  1.00  0.00     0.053 C 
BRANCH   8   9
ATOM      9  C   UNL     1       8.152 -12.929  34.328  1.00  0.00     0.041 C 
ATOM     10  O   UNL     1       9.111 -12.152  34.077  1.00  0.00    -0.550 OA
ATOM     11  O   UNL     1       7.590 -13.682  33.304  1.00  0.00    -0.550 OA
ENDBRANCH   8   9
ENDBRANCH   7   8
ENDBRANCH   6   7
ENDBRANCH   5   6
ENDBRANCH   4   5
ENDBRANCH   3   4
ENDBRANCH   2   3
ENDBRANCH   1   2
BRANCH   1  12
ATOM     12  C   UNL     1      11.732 -13.593  36.905  1.00  0.00     0.000 C 
BRANCH  12  13
ATOM     13  C   UNL     1      13.218 -13.377  36.568  1.00  0.00    -0.000 C 
BRANCH  13  14
ATOM     14  C   UNL     1      13.485 -12.709  35.204  1.00  0.00    -0.000 C 
BRANCH  14  15
ATOM     15  C   UNL     1      13.447 -11.168  35.210  1.00  0.00    -0.000 C 
BRANCH  15  16
ATOM     16  C   UNL     1      12.108 -10.551  34.769  1.00  0.00    -0.000 C 
BRANCH  16  17
ATOM     17  C   UNL     1      11.288 -10.001  35.945  1.00  0.00    -0.000 C 
BRANCH  17  18
ATOM     18  C   UNL     1      12.206  -9.563  37.095  1.00  0.00    -0.000 C 
BRANCH  18  19
ATOM     19  C   UNL     1      11.847 -10.238  38.428  1.00  0.00    -0.003 C 
ATOM     20  C   UNL     1      13.049 -10.374  39.364  1.00  0.00     0.004 C 
ENDBRANCH  18  19
ENDBRANCH  17  18
ENDBRANCH  16  17
ENDBRANCH  15  16
ENDBRANCH  14  15
ENDBRANCH  13  14
ENDBRANCH  12  13
ENDBRANCH   1  12
TORSDOF 16
ENDMDL
MODEL 4
REMARK VINA RESULT:    -5.604      2.397      5.499
REMARK INTER + INTRA:         -13.504
REMARK INTER:                 -10.506
REMARK INTRA:                  -2.998
REMARK UNBOUND:                -2.659
REMARK SMILES CCCCCCCCCCCCCCCCCC(=O)[O-]
REMARK SMILES IDX 10 1 11 2 12 3 13 4 14 5 15 6 16 7 17 8 18 9 19 10 20 11
REMARK SMILES IDX 9 12 8 13 7 14 6 15 5 16 4 17 3 18 2 19 1 20
REMARK H PARENT
REMARK Flexibility Score: inf
ROOT
ATOM      1  C   UNL     1      11.305 -13.780  36.306  1.00  0.00     0.000 C 
ENDROOT
BRANCH   1   2
ATOM      2  C   UNL     1      10.240 -14.817  36.692  1.00  0.00     0.000 C 
BRANCH   2   3
ATOM      3  C   UNL     1      10.008 -14.898  38.211  1.00  0.00     0.000 C 
BRANCH   3   4
ATOM      4  C   UNL     1       8.578 -14.552  38.673  1.00  0.00     0.000 C 
BRANCH   4   5
ATOM      5  C   UNL     1       7.818 -13.567  37.766  1.00  0.00     0.000 C 
BRANCH   5   6
ATOM      6  C   UNL     1       8.301 -12.118  37.922  1.00  0.00     0.000 C 
BRANCH   6   7
ATOM      7  C   UNL     1       8.378 -11.416  36.559  1.00  0.00     0.006 C 
BRANCH   7   8
ATOM      8  C   UNL     1       7.392 -12.009  35.543  1.00  0.00     0.053 C 
BRANCH   8   9
ATOM      9  C   UNL     1       8.100 -12.635  34.382  1.00  0.00     0.041 C 
ATOM     10  O   UNL     1       7.711 -13.743  33.926  1.00  0.00    -0.550 OA
ATOM     11  O   UNL     1       9.167 -11.981  33.780  1.00  0.00    -0.550 OA
ENDBRANCH   8   9
ENDBRANCH   7   8
ENDBRANCH   6   7
ENDBRANCH   5   6
ENDBRANCH   4   5
ENDBRANCH   3   4
ENDBRANCH   2   3
ENDBRANCH   1   2
BRANCH   1  12
ATOM     12  C   UNL     1      12.564 -13.940  37.171  1.00  0.00     0.000 C 
BRANCH  12  13
ATOM     13  C   UNL     1      13.001 -12.623  37.839  1.00  0.00    -0.000 C 
BRANCH  13  14
ATOM     14  C   UNL     1      11.849 -11.665  38.202  1.00  0.00    -0.000 C 
BRANCH  14  15
ATOM     15  C   UNL     1      12.206 -10.166  38.162  1.00  0.00    -0.000 C 
BRANCH  15  16
ATOM     16  C   UNL     1      12.682  -9.648  36.793  1.00  0.00    -0.000 C 
BRANCH  16  17
ATOM     17  C   UNL     1      11.705  -9.981  35.656  1.00  0.00    -0.000 C 
BRANCH  17  18
ATOM     18  C   UNL     1      12.422 -10.718  34.516  1.00  0.00    -0.000 C 
BRANCH  18  19
ATOM     19  C   UNL     1      13.931 -10.868  34.764  1.00  0.00    -0.003 C 
ATOM     20  C   UNL     1      14.427 -12.297  34.547  1.00  0.00     0.004 C 
ENDBRANCH  18  19
ENDBRANCH  17  18
ENDBRANCH  16  17
ENDBRANCH  15  16
ENDBRANCH  14  15
ENDBRANCH  13  14
ENDBRANCH  12  13
ENDBRANCH   1  12
TORSDOF 16
ENDMDL
MODEL 5
REMARK VINA RESULT:    -5.573      0.723      3.600
REMARK INTER + INTRA:         -13.444
REMARK INTER:                 -10.700
REMARK INTRA:                  -2.744
REMARK UNBOUND:                -2.659
REMARK SMILES CCCCCCCCCCCCCCCCCC(=O)[O-]
REMARK SMILES IDX 10 1 11 2 12 3 13 4 14 5 15 6 16 7 17 8 18 9 19 10 20 11
REMARK SMILES IDX 9 12 8 13 7 14 6 15 5 16 4 17 3 18 2 19 1 20
REMARK H PARENT
REMARK Flexibility Score: inf
ROOT
ATOM      1  C   UNL     1       7.288 -13.735  35.880  1.00  0.00     0.000 C 
ENDROOT
BRANCH   1   2
ATOM      2  C   UNL     1       8.204 -13.497  34.671  1.00  0.00     0.000 C 
BRANCH   2   3
ATOM      3  C   UNL     1       8.694 -12.042  34.569  1.00  0.00     0.000 C 
BRANCH   3   4
ATOM      4  C   UNL     1      10.188 -11.829  34.888  1.00  0.00     0.000 C 
BRANCH   4   5
ATOM      5  C   UNL     1      10.479 -10.813  36.008  1.00  0.00     0.000 C 
BRANCH   5   6
ATOM      6  C   UNL     1      11.564  -9.797  35.624  1.00  0.00     0.000 C 
BRANCH   6   7
ATOM      7  C   UNL     1      12.223  -9.199  36.875  1.00  0.00     0.006 C 
BRANCH   7   8
ATOM      8  C   UNL     1      13.024 -10.242  37.666  1.00  0.00     0.053 C 
BRANCH   8   9
ATOM      9  C   UNL     1      12.560 -10.339  39.086  1.00  0.00     0.041 C 
ATOM     10  O   UNL     1      13.366 -10.130  40.032  1.00  0.00    -0.550 OA
ATOM     11  O   UNL     1      11.230 -10.625  39.368  1.00  0.00    -0.550 OA
ENDBRANCH   8   9
ENDBRANCH   7   8
ENDBRANCH   6   7
ENDBRANCH   5   6
ENDBRANCH   4   5
ENDBRANCH   3   4
ENDBRANCH   2   3
ENDBRANCH   1   2
BRANCH   1  12
ATOM     12  C   UNL     1       7.303 -12.524  36.825  1.00  0.00     0.000 C 
BRANCH  12  13
ATOM     13  C   UNL     1       8.117 -12.777  38.108  1.00  0.00    -0.000 C 
BRANCH  13  14
ATOM     14  C   UNL     1       8.240 -14.258  38.518  1.00  0.00    -0.000 C 
BRANCH  14  15
ATOM     15  C   UNL     1       9.660 -14.850  38.418  1.00  0.00    -0.000 C 
BRANCH  15  16
ATOM     16  C   UNL     1      10.736 -13.873  37.912  1.00  0.00    -0.000 C 
BRANCH  16  17
ATOM     17  C   UNL     1      11.664 -14.499  36.861  1.00  0.00    -0.000 C 
BRANCH  17  18
ATOM     18  C   UNL     1      12.942 -13.664  36.691  1.00  0.00    -0.000 C 
BRANCH  18  19
ATOM     19  C   UNL     1      13.395 -13.568  35.226  1.00  0.00    -0.003 C 
ATOM     20  C   UNL     1      14.105 -12.251  34.912  1.00  0.00     0.004 C 
ENDBRANCH  18  19
ENDBRANCH  17  18
ENDBRANCH  16  17
ENDBRANCH  15  16
ENDBRANCH  14  15
ENDBRANCH  13  14
ENDBRANCH  12  13
ENDBRANCH   1  12
TORSDOF 16
ENDMDL
MODEL 6
REMARK VINA RESULT:    -5.566      2.509      6.054
REMARK INTER + INTRA:         -13.432
REMARK INTER:                 -11.576
REMARK INTRA:                  -1.855
REMARK UNBOUND:                -2.659
REMARK SMILES CCCCCCCCCCCCCCCCCC(=O)[O-]
REMARK SMILES IDX 10 1 11 2 12 3 13 4 14 5 15 6 16 7 17 8 18 9 19 10 20 11
REMARK SMILES IDX 9 12 8 13 7 14 6 15 5 16 4 17 3 18 2 19 1 20
REMARK H PARENT
REMARK Flexibility Score: inf
ROOT
ATOM      1  C   UNL     1      12.894 -10.206  39.151  1.00  0.00     0.000 C 
ENDROOT
BRANCH   1   2
ATOM      2  C   UNL     1      11.373 -10.390  39.262  1.00  0.00     0.000 C 
BRANCH   2   3
ATOM      3  C   UNL     1      10.801 -11.305  38.164  1.00  0.00     0.000 C 
BRANCH   3   4
ATOM      4  C   UNL     1       9.682 -12.260  38.625  1.00  0.00     0.000 C 
BRANCH   4   5
ATOM      5  C   UNL     1       8.333 -12.083  37.905  1.00  0.00     0.000 C 
BRANCH   5   6
ATOM      6  C   UNL     1       7.611 -13.415  37.655  1.00  0.00     0.000 C 
BRANCH   6   7
ATOM      7  C   UNL     1       7.211 -13.555  36.179  1.00  0.00     0.006 C 
BRANCH   7   8
ATOM      8  C   UNL     1       7.533 -12.293  35.368  1.00  0.00     0.053 C 
BRANCH   8   9
ATOM      9  C   UNL     1       8.130 -12.626  34.036  1.00  0.00     0.041 C 
ATOM     10  O   UNL     1       9.111 -11.967  33.599  1.00  0.00    -0.550 OA
ATOM     11  O   UNL     1       7.627 -13.685  33.291  1.00  0.00    -0.550 OA
ENDBRANCH   8   9
ENDBRANCH   7   8
ENDBRANCH   6   7
ENDBRANCH   5   6
ENDBRANCH   4   5
ENDBRANCH   3   4
ENDBRANCH   2   3
ENDBRANCH   1   2
BRANCH   1  12
ATOM     12  C   UNL     1      13.432 -10.855  37.867  1.00  0.00     0.000 C 
BRANCH  12  13
ATOM     13  C   UNL     1      13.357  -9.918  36.648  1.00  0.00    -0.000 C 
BRANCH  13  14
ATOM     14  C   UNL     1      13.026 -10.614  35.313  1.00  0.00    -0.000 C 
BRANCH  14  15
ATOM     15  C   UNL     1      14.173 -11.443  34.703  1.00  0.00    -0.000 C 
BRANCH  15  16
ATOM     16  C   UNL     1      14.003 -12.969  34.818  1.00  0.00    -0.000 C 
BRANCH  16  17
ATOM     17  C   UNL     1      12.699 -13.373  35.520  1.00  0.00    -0.000 C 
BRANCH  17  18
ATOM     18  C   UNL     1      12.989 -14.047  36.869  1.00  0.00    -0.000 C 
BRANCH  18  19
ATOM     19  C   UNL     1      11.789 -14.847  37.401  1.00  0.00    -0.003 C 
ATOM     20  C   UNL     1      10.681 -15.012  36.360  1.00  0.00     0.004 C 
ENDBRANCH  18  19
ENDBRANCH  17  18
ENDBRANCH  16  17
ENDBRANCH  15  16
ENDBRANCH  14  15
ENDBRANCH  13  14
ENDBRANCH  12  13
ENDBRANCH   1  12
TORSDOF 16
ENDMDL
MODEL 7
REMARK VINA RESULT:    -5.492      1.439      4.446
REMARK INTER + INTRA:         -13.288
REMARK INTER:                 -10.852
REMARK INTRA:                  -2.435
REMARK UNBOUND:                -2.659
REMARK SMILES CCCCCCCCCCCCCCCCCC(=O)[O-]
REMARK SMILES IDX 10 1 11 2 12 3 13 4 14 5 15 6 16 7 17 8 18 9 19 10 20 11
REMARK SMILES IDX 9 12 8 13 7 14 6 15 5 16 4 17 3 18 2 19 1 20
REMARK H PARENT
REMARK Flexibility Score: inf
ROOT
ATOM      1  C   UNL     1       8.101 -12.821  38.421  1.00  0.00     0.000 C 
ENDROOT
BRANCH   1   2
ATOM      2  C   UNL     1       7.385 -12.401  37.128  1.00  0.00     0.000 C 
BRANCH   2   3
ATOM      3  C   UNL     1       7.184 -13.572  36.150  1.00  0.00     0.000 C 
BRANCH   3   4
ATOM      4  C   UNL     1       8.153 -13.596  34.950  1.00  0.00     0.000 C 
BRANCH   4   5
ATOM      5  C   UNL     1       8.713 -12.224  34.535  1.00  0.00     0.000 C 
BRANCH   5   6
ATOM      6  C   UNL     1      10.207 -12.068  34.855  1.00  0.00     0.000 C 
BRANCH   6   7
ATOM      7  C   UNL     1      10.431 -10.972  35.907  1.00  0.00     0.006 C 
BRANCH   7   8
ATOM      8  C   UNL     1      11.337  -9.846  35.390  1.00  0.00     0.053 C 
BRANCH   8   9
ATOM      9  C   UNL     1      11.631  -8.836  36.455  1.00  0.00     0.041 C 
ATOM     10  O   UNL     1      12.131  -9.199  37.553  1.00  0.00    -0.550 OA
ATOM     11  O   UNL     1      11.384  -7.488  36.225  1.00  0.00    -0.550 OA
ENDBRANCH   8   9
ENDBRANCH   7   8
ENDBRANCH   6   7
ENDBRANCH   5   6
ENDBRANCH   4   5
ENDBRANCH   3   4
ENDBRANCH   2   3
ENDBRANCH   1   2
BRANCH   1  12
ATOM     12  C   UNL     1       7.701 -14.246  38.830  1.00  0.00     0.000 C 
BRANCH  12  13
ATOM     13  C   UNL     1       8.890 -15.224  38.830  1.00  0.00    -0.000 C 
BRANCH  13  14
ATOM     14  C   UNL     1      10.211 -14.640  38.291  1.00  0.00    -0.000 C 
BRANCH  14  15
ATOM     15  C   UNL     1      10.852 -15.428  37.131  1.00  0.00    -0.000 C 
BRANCH  15  16
ATOM     16  C   UNL     1      11.852 -14.627  36.278  1.00  0.00    -0.000 C 
BRANCH  16  17
ATOM     17  C   UNL     1      13.019 -14.062  37.100  1.00  0.00    -0.000 C 
BRANCH  17  18
ATOM     18  C   UNL     1      13.452 -12.689  36.565  1.00  0.00    -0.000 C 
BRANCH  18  19
ATOM     19  C   UNL     1      13.919 -12.744  35.102  1.00  0.00    -0.003 C 
ATOM     20  C   UNL     1      14.354 -11.379  34.570  1.00  0.00     0.004 C 
ENDBRANCH  18  19
ENDBRANCH  17  18
ENDBRANCH  16  17
ENDBRANCH  15  16
ENDBRANCH  14  15
ENDBRANCH  13  14
ENDBRANCH  12  13
ENDBRANCH   1  12
TORSDOF 16
ENDMDL
MODEL 8
REMARK VINA RESULT:    -5.424      1.264      2.638
REMARK INTER + INTRA:         -13.155
REMARK INTER:                 -10.532
REMARK INTRA:                  -2.624
REMARK UNBOUND:                -2.659
REMARK SMILES CCCCCCCCCCCCCCCCCC(=O)[O-]
REMARK SMILES IDX 10 1 11 2 12 3 13 4 14 5 15 6 16 7 17 8 18 9 19 10 20 11
REMARK SMILES IDX 9 12 8 13 7 14 6 15 5 16 4 17 3 18 2 19 1 20
REMARK H PARENT
REMARK Flexibility Score: inf
ROOT
ATOM      1  C   UNL     1      10.138 -15.090  38.358  1.00  0.00     0.000 C 
ENDROOT
BRANCH   1   2
ATOM      2  C   UNL     1      10.157 -15.087  36.822  1.00  0.00     0.000 C 
BRANCH   2   3
ATOM      3  C   UNL     1      11.540 -14.741  36.243  1.00  0.00     0.000 C 
BRANCH   3   4
ATOM      4  C   UNL     1      12.580 -14.258  37.273  1.00  0.00     0.000 C 
BRANCH   4   5
ATOM      5  C   UNL     1      13.064 -12.809  37.083  1.00  0.00     0.000 C 
BRANCH   5   6
ATOM      6  C   UNL     1      13.402 -12.480  35.622  1.00  0.00     0.000 C 
BRANCH   6   7
ATOM      7  C   UNL     1      13.218 -10.982  35.340  1.00  0.00     0.006 C 
BRANCH   7   8
ATOM      8  C   UNL     1      13.563 -10.114  36.558  1.00  0.00     0.053 C 
BRANCH   8   9
ATOM      9  C   UNL     1      12.355  -9.418  37.105  1.00  0.00     0.041 C 
ATOM     10  O   UNL     1      11.707  -8.613  36.384  1.00  0.00    -0.550 OA
ATOM     11  O   UNL     1      11.922  -9.683  38.398  1.00  0.00    -0.550 OA
ENDBRANCH   8   9
ENDBRANCH   7   8
ENDBRANCH   6   7
ENDBRANCH   5   6
ENDBRANCH   4   5
ENDBRANCH   3   4
ENDBRANCH   2   3
ENDBRANCH   1   2
BRANCH   1  12
ATOM     12  C   UNL     1       8.697 -15.109  38.888  1.00  0.00     0.000 C 
BRANCH  12  13
ATOM     13  C   UNL     1       7.814 -14.016  38.257  1.00  0.00    -0.000 C 
BRANCH  13  14
ATOM     14  C   UNL     1       8.013 -12.603  38.840  1.00  0.00    -0.000 C 
BRANCH  14  15
ATOM     15  C   UNL     1       9.050 -11.730  38.105  1.00  0.00    -0.000 C 
BRANCH  15  16
ATOM     16  C   UNL     1       8.681 -11.367  36.655  1.00  0.00    -0.000 C 
BRANCH  16  17
ATOM     17  C   UNL     1       9.841 -11.581  35.673  1.00  0.00    -0.000 C 
BRANCH  17  18
ATOM     18  C   UNL     1       9.339 -12.189  34.355  1.00  0.00    -0.000 C 
BRANCH  18  19
ATOM     19  C   UNL     1       7.992 -12.911  34.513  1.00  0.00    -0.003 C 
ATOM     20  C   UNL     1       7.646 -13.787  33.308  1.00  0.00     0.004 C 
ENDBRANCH  18  19
ENDBRANCH  17  18
ENDBRANCH  16  17
ENDBRANCH  15  16
ENDBRANCH  14  15
ENDBRANCH  13  14
ENDBRANCH  12  13
ENDBRANCH   1  12
TORSDOF 16
ENDMDL
MODEL 9
REMARK VINA RESULT:    -5.363      1.893      3.414
REMARK INTER + INTRA:         -13.037
REMARK INTER:                 -10.870
REMARK INTRA:                  -2.167
REMARK UNBOUND:                -2.659
REMARK SMILES CCCCCCCCCCCCCCCCCC(=O)[O-]
REMARK SMILES IDX 10 1 11 2 12 3 13 4 14 5 15 6 16 7 17 8 18 9 19 10 20 11
REMARK SMILES IDX 9 12 8 13 7 14 6 15 5 16 4 17 3 18 2 19 1 20
REMARK H PARENT
REMARK Flexibility Score: inf
ROOT
ATOM      1  C   UNL     1      11.914  -9.962  38.490  1.00  0.00     0.000 C 
ENDROOT
BRANCH   1   2
ATOM      2  C   UNL     1      13.222 -10.264  37.743  1.00  0.00     0.000 C 
BRANCH   2   3
ATOM      3  C   UNL     1      13.247  -9.678  36.320  1.00  0.00     0.000 C 
BRANCH   3   4
ATOM      4  C   UNL     1      12.919 -10.679  35.194  1.00  0.00     0.000 C 
BRANCH   4   5
ATOM      5  C   UNL     1      14.085 -11.591  34.771  1.00  0.00     0.000 C 
BRANCH   5   6
ATOM      6  C   UNL     1      13.828 -13.072  35.089  1.00  0.00     0.000 C 
BRANCH   6   7
ATOM      7  C   UNL     1      12.476 -13.255  35.793  1.00  0.00     0.006 C 
BRANCH   7   8
ATOM      8  C   UNL     1      12.540 -14.304  36.912  1.00  0.00     0.053 C 
BRANCH   8   9
ATOM      9  C   UNL     1      11.201 -14.923  37.171  1.00  0.00     0.041 C 
ATOM     10  O   UNL     1      10.523 -15.387  36.217  1.00  0.00    -0.550 OA
ATOM     11  O   UNL     1      10.717 -15.020  38.469  1.00  0.00    -0.550 OA
ENDBRANCH   8   9
ENDBRANCH   7   8
ENDBRANCH   6   7
ENDBRANCH   5   6
ENDBRANCH   4   5
ENDBRANCH   3   4
ENDBRANCH   2   3
ENDBRANCH   1   2
BRANCH   1  12
ATOM     12  C   UNL     1      11.141 -11.256  38.786  1.00  0.00     0.000 C 
BRANCH  12  13
ATOM     13  C   UNL     1      10.073 -11.570  37.722  1.00  0.00    -0.000 C 
BRANCH  13  14
ATOM     14  C   UNL     1       8.642 -11.744  38.269  1.00  0.00    -0.000 C 
BRANCH  14  15
ATOM     15  C   UNL     1       8.251 -13.190  38.635  1.00  0.00    -0.000 C 
BRANCH  15  16
ATOM     16  C   UNL     1       7.297 -13.875  37.640  1.00  0.00    -0.000 C 
BRANCH  16  17
ATOM     17  C   UNL     1       7.022 -13.023  36.393  1.00  0.00    -0.000 C 
BRANCH  17  18
ATOM     18  C   UNL     1       7.713 -13.619  35.158  1.00  0.00    -0.000 C 
BRANCH  18  19
ATOM     19  C   UNL     1       8.054 -12.558  34.101  1.00  0.00    -0.003 C 
ATOM     20  C   UNL     1       9.458 -11.978  34.277  1.00  0.00     0.004 C 
ENDBRANCH  18  19
ENDBRANCH  17  18
ENDBRANCH  16  17
ENDBRANCH  15  16
ENDBRANCH  14  15
ENDBRANCH  13  14
ENDBRANCH  12  13
ENDBRANCH   1  12
TORSDOF 16
ENDMDL
