MODEL 1
REMARK VINA RESULT:    -7.496      0.000      0.000
REMARK INTER + INTRA:         -11.124
REMARK INTER:                  -9.906
REMARK INTRA:                  -1.218
REMARK UNBOUND:                -1.218
REMARK SMILES CC[C@@H](C=C[C@@H](C)[C@H]1CC[C@H]2[C@@H]3CC=C4C[C@H](O)CC[C@@]4(C)[C@H]3CC[C@]12C)C(C)C
REMARK SMILES IDX 6 1 7 2 5 3 4 4 3 5 2 6 1 7 28 8 29 9 30 10 8 11 9 12 26 13
REMARK SMILES IDX 10 14 11 15 25 16 27 17 12 18 24 19 23 20 13 21 21 22 14 23
REMARK SMILES IDX 15 24 20 25 22 26 16 27 19 28 17 29 18 30
REMARK H PARENT 18 31
REMARK Flexibility Score: inf
ROOT
ATOM      1  C   UNL     1      19.064  23.611  39.391  1.00  0.00     0.012 C 
ATOM      2  C   UNL     1      20.106  22.531  39.048  1.00  0.00     0.012 C 
ENDROOT
BRANCH   1   3
ATOM      3  C   UNL     1      18.958  24.600  38.249  1.00  0.00    -0.028 C 
ATOM      4  C   UNL     1      19.316  24.299  36.988  1.00  0.00    -0.027 C 
BRANCH   4   5
ATOM      5  C   UNL     1      19.136  25.296  35.859  1.00  0.00     0.014 C 
BRANCH   5   6
ATOM      6  C   UNL     1      20.411  25.354  34.980  1.00  0.00     0.004 C 
ATOM      7  C   UNL     1      21.226  24.065  35.046  1.00  0.00     0.004 C 
ENDBRANCH   5   6
BRANCH   5   8
ATOM      8  C   UNL     1      18.720  26.686  36.431  1.00  0.00    -0.011 C 
ATOM      9  C   UNL     1      19.727  27.801  36.092  1.00  0.00     0.008 C 
ATOM     10  C   UNL     1      17.301  27.090  35.993  1.00  0.00     0.008 C 
ENDBRANCH   5   8
ENDBRANCH   4   5
ENDBRANCH   1   3
BRANCH   1  11
ATOM     11  C   UNL     1      19.350  24.333  40.751  1.00  0.00     0.002 C 
ATOM     12  C   UNL     1      19.540  25.863  40.567  1.00  0.00     0.005 C 
ATOM     13  C   UNL     1      18.271  24.223  41.870  1.00  0.00    -0.026 C 
ATOM     14  C   UNL     1      18.966  26.549  41.815  1.00  0.00     0.005 C 
ATOM     15  C   UNL     1      18.677  25.405  42.770  1.00  0.00    -0.001 C 
ATOM     16  C   UNL     1      18.370  22.953  42.748  1.00  0.00     0.007 C 
ATOM     17  C   UNL     1      16.834  24.383  41.275  1.00  0.00     0.012 C 
ATOM     18  C   UNL     1      17.685  25.652  43.924  1.00  0.00     0.000 C 
ATOM     19  C   UNL     1      17.418  23.047  43.962  1.00  0.00     0.005 C 
ATOM     20  C   UNL     1      17.577  24.364  44.794  1.00  0.00     0.003 C 
ATOM     21  C   UNL     1      18.165  26.789  44.834  1.00  0.00     0.031 C 
ATOM     22  C   UNL     1      16.501  24.532  45.940  1.00  0.00    -0.008 C 
ATOM     23  C   UNL     1      17.236  26.967  46.003  1.00  0.00    -0.027 C 
ATOM     24  C   UNL     1      16.527  25.953  46.543  1.00  0.00    -0.065 C 
ATOM     25  C   UNL     1      15.048  24.312  45.395  1.00  0.00     0.014 C 
ATOM     26  C   UNL     1      16.811  23.487  47.070  1.00  0.00     0.016 C 
ATOM     27  C   UNL     1      15.482  26.278  47.588  1.00  0.00     0.063 C 
ATOM     28  C   UNL     1      13.937  24.672  46.403  1.00  0.00     0.033 C 
ATOM     29  C   UNL     1      14.081  26.093  46.971  1.00  0.00     0.118 C 
BRANCH  29  30
ATOM     30  O   UNL     1      13.074  26.293  47.934  1.00  0.00    -0.393 OA
ATOM     31  H   UNL     1      12.207  26.392  47.450  1.00  0.00     0.210 HD
ENDBRANCH  29  30
ENDBRANCH   1  11
TORSDOF 6
ENDMDL
MODEL 2
REMARK VINA RESULT:    -7.463      3.099      9.483
REMARK INTER + INTRA:         -11.081
REMARK INTER:                 -10.229
REMARK INTRA:                  -0.852
REMARK UNBOUND:                -1.218
REMARK SMILES CC[C@@H](C=C[C@@H](C)[C@H]1CC[C@H]2[C@@H]3CC=C4C[C@H](O)CC[C@@]4(C)[C@H]3CC[C@]12C)C(C)C
REMARK SMILES IDX 6 1 7 2 5 3 4 4 3 5 2 6 1 7 28 8 29 9 30 10 8 11 9 12 26 13
REMARK SMILES IDX 10 14 11 15 25 16 27 17 12 18 24 19 23 20 13 21 21 22 14 23
REMARK SMILES IDX 15 24 20 25 22 26 16 27 19 28 17 29 18 30
REMARK H PARENT 18 31
REMARK Flexibility Score: inf
ROOT
ATOM      1  C   UNL     1      16.023  25.068  46.217  1.00  0.00     0.012 C 
ATOM      2  C   UNL     1      14.681  24.379  45.915  1.00  0.00     0.012 C 
ENDROOT
BRANCH   1   3
ATOM      3  C   UNL     1      15.926  25.826  47.524  1.00  0.00    -0.028 C 
ATOM      4  C   UNL     1      15.032  26.809  47.733  1.00  0.00    -0.027 C 
BRANCH   4   5
ATOM      5  C   UNL     1      14.923  27.501  49.078  1.00  0.00     0.014 C 
BRANCH   5   6
ATOM      6  C   UNL     1      15.629  26.666  50.176  1.00  0.00     0.004 C 
ATOM      7  C   UNL     1      15.900  27.477  51.442  1.00  0.00     0.004 C 
ENDBRANCH   5   6
BRANCH   5   8
ATOM      8  C   UNL     1      13.428  27.807  49.405  1.00  0.00    -0.011 C 
ATOM      9  C   UNL     1      12.702  28.544  48.264  1.00  0.00     0.008 C 
ATOM     10  C   UNL     1      12.653  26.540  49.808  1.00  0.00     0.008 C 
ENDBRANCH   5   8
ENDBRANCH   4   5
ENDBRANCH   1   3
BRANCH   1  11
ATOM     11  C   UNL     1      16.516  25.994  45.053  1.00  0.00     0.002 C 
ATOM     12  C   UNL     1      17.882  26.657  45.377  1.00  0.00     0.005 C 
ATOM     13  C   UNL     1      16.739  25.344  43.655  1.00  0.00    -0.026 C 
ATOM     14  C   UNL     1      18.657  26.778  44.057  1.00  0.00     0.005 C 
ATOM     15  C   UNL     1      17.642  26.401  42.993  1.00  0.00    -0.001 C 
ATOM     16  C   UNL     1      15.471  25.241  42.774  1.00  0.00     0.007 C 
ATOM     17  C   UNL     1      17.440  23.953  43.794  1.00  0.00     0.012 C 
ATOM     18  C   UNL     1      18.164  25.966  41.609  1.00  0.00     0.000 C 
ATOM     19  C   UNL     1      15.833  24.805  41.337  1.00  0.00     0.005 C 
ATOM     20  C   UNL     1      16.955  25.673  40.673  1.00  0.00     0.003 C 
ATOM     21  C   UNL     1      18.998  27.076  40.957  1.00  0.00     0.031 C 
ATOM     22  C   UNL     1      17.434  25.132  39.265  1.00  0.00    -0.008 C 
ATOM     23  C   UNL     1      19.432  26.677  39.575  1.00  0.00    -0.027 C 
ATOM     24  C   UNL     1      18.713  25.851  38.785  1.00  0.00    -0.065 C 
ATOM     25  C   UNL     1      17.784  23.607  39.330  1.00  0.00     0.014 C 
ATOM     26  C   UNL     1      16.285  25.373  38.223  1.00  0.00     0.016 C 
ATOM     27  C   UNL     1      19.333  25.364  37.493  1.00  0.00     0.063 C 
ATOM     28  C   UNL     1      18.462  23.063  38.055  1.00  0.00     0.033 C 
ATOM     29  C   UNL     1      19.701  23.875  37.643  1.00  0.00     0.118 C 
BRANCH  29  30
ATOM     30  O   UNL     1      20.195  23.351  36.434  1.00  0.00    -0.393 OA
ATOM     31  H   UNL     1      20.644  24.096  35.943  1.00  0.00     0.210 HD
ENDBRANCH  29  30
ENDBRANCH   1  11
TORSDOF 6
ENDMDL
MODEL 3
REMARK VINA RESULT:    -7.408      2.086      3.727
REMARK INTER + INTRA:         -11.008
REMARK INTER:                  -9.760
REMARK INTRA:                  -1.249
REMARK UNBOUND:                -1.218
REMARK SMILES CC[C@@H](C=C[C@@H](C)[C@H]1CC[C@H]2[C@@H]3CC=C4C[C@H](O)CC[C@@]4(C)[C@H]3CC[C@]12C)C(C)C
REMARK SMILES IDX 6 1 7 2 5 3 4 4 3 5 2 6 1 7 28 8 29 9 30 10 8 11 9 12 26 13
REMARK SMILES IDX 10 14 11 15 25 16 27 17 12 18 24 19 23 20 13 21 21 22 14 23
REMARK SMILES IDX 15 24 20 25 22 26 16 27 19 28 17 29 18 30
REMARK H PARENT 18 31
REMARK Flexibility Score: inf
ROOT
ATOM      1  C   UNL     1      19.288  25.858  40.027  1.00  0.00     0.012 C 
ATOM      2  C   UNL     1      19.890  27.194  39.557  1.00  0.00     0.012 C 
ENDROOT
BRANCH   1   3
ATOM      3  C   UNL     1      19.245  24.882  38.870  1.00  0.00    -0.028 C 
ATOM      4  C   UNL     1      19.738  23.633  38.951  1.00  0.00    -0.027 C 
BRANCH   4   5
ATOM      5  C   UNL     1      19.619  22.663  37.792  1.00  0.00     0.014 C 
BRANCH   5   6
ATOM      6  C   UNL     1      18.129  22.402  37.454  1.00  0.00     0.004 C 
ATOM      7  C   UNL     1      17.720  23.002  36.111  1.00  0.00     0.004 C 
ENDBRANCH   5   6
BRANCH   5   8
ATOM      8  C   UNL     1      20.417  21.358  38.098  1.00  0.00    -0.011 C 
ATOM      9  C   UNL     1      20.760  21.200  39.591  1.00  0.00     0.008 C 
ATOM     10  C   UNL     1      19.696  20.103  37.575  1.00  0.00     0.008 C 
ENDBRANCH   5   8
ENDBRANCH   4   5
ENDBRANCH   1   3
BRANCH   1  11
ATOM     11  C   UNL     1      17.881  26.017  40.696  1.00  0.00     0.002 C 
ATOM     12  C   UNL     1      16.782  25.233  39.930  1.00  0.00     0.005 C 
ATOM     13  C   UNL     1      17.722  25.539  42.171  1.00  0.00    -0.026 C 
ATOM     14  C   UNL     1      15.777  24.718  40.971  1.00  0.00     0.005 C 
ATOM     15  C   UNL     1      16.190  25.405  42.260  1.00  0.00    -0.001 C 
ATOM     16  C   UNL     1      18.131  26.579  43.241  1.00  0.00     0.007 C 
ATOM     17  C   UNL     1      18.461  24.179  42.398  1.00  0.00     0.012 C 
ATOM     18  C   UNL     1      15.716  24.797  43.595  1.00  0.00     0.000 C 
ATOM     19  C   UNL     1      17.722  26.105  44.654  1.00  0.00     0.005 C 
ATOM     20  C   UNL     1      16.218  25.685  44.772  1.00  0.00     0.003 C 
ATOM     21  C   UNL     1      14.185  24.749  43.669  1.00  0.00     0.031 C 
ATOM     22  C   UNL     1      15.836  25.055  46.172  1.00  0.00    -0.008 C 
ATOM     23  C   UNL     1      13.730  24.233  45.006  1.00  0.00    -0.027 C 
ATOM     24  C   UNL     1      14.433  24.412  46.144  1.00  0.00    -0.065 C 
ATOM     25  C   UNL     1      16.835  23.916  46.575  1.00  0.00     0.014 C 
ATOM     26  C   UNL     1      15.861  26.194  47.252  1.00  0.00     0.016 C 
ATOM     27  C   UNL     1      13.982  23.689  47.394  1.00  0.00     0.063 C 
ATOM     28  C   UNL     1      16.402  23.113  47.819  1.00  0.00     0.033 C 
ATOM     29  C   UNL     1      14.976  22.552  47.703  1.00  0.00     0.118 C 
BRANCH  29  30
ATOM     30  O   UNL     1      14.649  21.909  48.912  1.00  0.00    -0.393 OA
ATOM     31  H   UNL     1      13.683  21.662  48.873  1.00  0.00     0.210 HD
ENDBRANCH  29  30
ENDBRANCH   1  11
TORSDOF 6
ENDMDL
MODEL 4
REMARK VINA RESULT:    -7.269      1.823      3.822
REMARK INTER + INTRA:         -10.825
REMARK INTER:                  -9.608
REMARK INTRA:                  -1.216
REMARK UNBOUND:                -1.218
REMARK SMILES CC[C@@H](C=C[C@@H](C)[C@H]1CC[C@H]2[C@@H]3CC=C4C[C@H](O)CC[C@@]4(C)[C@H]3CC[C@]12C)C(C)C
REMARK SMILES IDX 6 1 7 2 5 3 4 4 3 5 2 6 1 7 28 8 29 9 30 10 8 11 9 12 26 13
REMARK SMILES IDX 10 14 11 15 25 16 27 17 12 18 24 19 23 20 13 21 21 22 14 23
REMARK SMILES IDX 15 24 20 25 22 26 16 27 19 28 17 29 18 30
REMARK H PARENT 18 31
REMARK Flexibility Score: inf
ROOT
ATOM      1  C   UNL     1      19.291  26.181  41.007  1.00  0.00     0.012 C 
ATOM      2  C   UNL     1      19.886  27.542  40.607  1.00  0.00     0.012 C 
ENDROOT
BRANCH   1   3
ATOM      3  C   UNL     1      19.312  25.244  39.818  1.00  0.00    -0.028 C 
ATOM      4  C   UNL     1      20.197  24.237  39.697  1.00  0.00    -0.027 C 
BRANCH   4   5
ATOM      5  C   UNL     1      20.146  23.280  38.522  1.00  0.00     0.014 C 
BRANCH   5   6
ATOM      6  C   UNL     1      19.034  23.702  37.528  1.00  0.00     0.004 C 
ATOM      7  C   UNL     1      19.598  24.231  36.211  1.00  0.00     0.004 C 
ENDBRANCH   5   6
BRANCH   5   8
ATOM      8  C   UNL     1      19.993  21.813  39.030  1.00  0.00    -0.011 C 
ATOM      9  C   UNL     1      20.206  20.768  37.919  1.00  0.00     0.008 C 
ATOM     10  C   UNL     1      20.908  21.518  40.231  1.00  0.00     0.008 C 
ENDBRANCH   5   8
ENDBRANCH   4   5
ENDBRANCH   1   3
BRANCH   1  11
ATOM     11  C   UNL     1      17.855  26.292  41.623  1.00  0.00     0.002 C 
ATOM     12  C   UNL     1      16.789  25.588  40.742  1.00  0.00     0.005 C 
ATOM     13  C   UNL     1      17.627  25.688  43.041  1.00  0.00    -0.026 C 
ATOM     14  C   UNL     1      15.735  24.993  41.687  1.00  0.00     0.005 C 
ATOM     15  C   UNL     1      16.092  25.560  43.049  1.00  0.00    -0.001 C 
ATOM     16  C   UNL     1      17.991  26.625  44.216  1.00  0.00     0.007 C 
ATOM     17  C   UNL     1      18.348  24.307  43.180  1.00  0.00     0.012 C 
ATOM     18  C   UNL     1      15.554  24.840  44.302  1.00  0.00     0.000 C 
ATOM     19  C   UNL     1      17.516  26.033  45.562  1.00  0.00     0.005 C 
ATOM     20  C   UNL     1      16.006  25.617  45.574  1.00  0.00     0.003 C 
ATOM     21  C   UNL     1      14.021  24.799  44.302  1.00  0.00     0.031 C 
ATOM     22  C   UNL     1      15.558  24.869  46.895  1.00  0.00    -0.008 C 
ATOM     23  C   UNL     1      13.503  24.172  45.566  1.00  0.00    -0.027 C 
ATOM     24  C   UNL     1      14.155  24.244  46.747  1.00  0.00    -0.065 C 
ATOM     25  C   UNL     1      16.531  23.691  47.240  1.00  0.00     0.014 C 
ATOM     26  C   UNL     1      15.538  25.909  48.071  1.00  0.00     0.016 C 
ATOM     27  C   UNL     1      13.643  23.418  47.907  1.00  0.00     0.063 C 
ATOM     28  C   UNL     1      16.038  22.785  48.388  1.00  0.00     0.033 C 
ATOM     29  C   UNL     1      14.616  22.249  48.158  1.00  0.00     0.118 C 
BRANCH  29  30
ATOM     30  O   UNL     1      14.232  21.505  49.290  1.00  0.00    -0.393 OA
ATOM     31  H   UNL     1      14.472  20.551  49.121  1.00  0.00     0.210 HD
ENDBRANCH  29  30
ENDBRANCH   1  11
TORSDOF 6
ENDMDL
MODEL 5
REMARK VINA RESULT:    -7.227      3.207      5.245
REMARK INTER + INTRA:         -10.769
REMARK INTER:                 -10.696
REMARK INTRA:                  -0.073
REMARK UNBOUND:                -1.218
REMARK SMILES CC[C@@H](C=C[C@@H](C)[C@H]1CC[C@H]2[C@@H]3CC=C4C[C@H](O)CC[C@@]4(C)[C@H]3CC[C@]12C)C(C)C
REMARK SMILES IDX 6 1 7 2 5 3 4 4 3 5 2 6 1 7 28 8 29 9 30 10 8 11 9 12 26 13
REMARK SMILES IDX 10 14 11 15 25 16 27 17 12 18 24 19 23 20 13 21 21 22 14 23
REMARK SMILES IDX 15 24 20 25 22 26 16 27 19 28 17 29 18 30
REMARK H PARENT 18 31
REMARK Flexibility Score: inf
ROOT
ATOM      1  C   UNL     1      16.485  25.858  42.504  1.00  0.00     0.012 C 
ATOM      2  C   UNL     1      15.222  25.190  41.934  1.00  0.00     0.012 C 
ENDROOT
BRANCH   1   3
ATOM      3  C   UNL     1      17.512  26.031  41.403  1.00  0.00    -0.028 C 
ATOM      4  C   UNL     1      18.755  25.524  41.480  1.00  0.00    -0.027 C 
BRANCH   4   5
ATOM      5  C   UNL     1      19.735  25.663  40.331  1.00  0.00     0.014 C 
BRANCH   5   6
ATOM      6  C   UNL     1      20.446  24.313  40.058  1.00  0.00     0.004 C 
ATOM      7  C   UNL     1      19.788  23.148  40.794  1.00  0.00     0.004 C 
ENDBRANCH   5   6
BRANCH   5   8
ATOM      8  C   UNL     1      20.727  26.834  40.609  1.00  0.00    -0.011 C 
ATOM      9  C   UNL     1      20.417  28.095  39.781  1.00  0.00     0.008 C 
ATOM     10  C   UNL     1      20.809  27.180  42.107  1.00  0.00     0.008 C 
ENDBRANCH   5   8
ENDBRANCH   4   5
ENDBRANCH   1   3
BRANCH   1  11
ATOM     11  C   UNL     1      17.086  25.095  43.733  1.00  0.00     0.002 C 
ATOM     12  C   UNL     1      16.947  25.909  45.047  1.00  0.00     0.005 C 
ATOM     13  C   UNL     1      16.479  23.705  44.088  1.00  0.00    -0.026 C 
ATOM     14  C   UNL     1      16.719  24.905  46.186  1.00  0.00     0.005 C 
ATOM     15  C   UNL     1      16.960  23.551  45.543  1.00  0.00    -0.001 C 
ATOM     16  C   UNL     1      17.076  22.512  43.304  1.00  0.00     0.007 C 
ATOM     17  C   UNL     1      14.920  23.732  43.968  1.00  0.00     0.012 C 
ATOM     18  C   UNL     1      16.385  22.301  46.239  1.00  0.00     0.000 C 
ATOM     19  C   UNL     1      16.584  21.168  43.886  1.00  0.00     0.005 C 
ATOM     20  C   UNL     1      16.791  21.032  45.433  1.00  0.00     0.003 C 
ATOM     21  C   UNL     1      16.946  22.149  47.658  1.00  0.00     0.031 C 
ATOM     22  C   UNL     1      16.149  19.726  46.053  1.00  0.00    -0.008 C 
ATOM     23  C   UNL     1      16.447  20.885  48.299  1.00  0.00    -0.027 C 
ATOM     24  C   UNL     1      16.140  19.773  47.595  1.00  0.00    -0.065 C 
ATOM     25  C   UNL     1      14.656  19.559  45.608  1.00  0.00     0.014 C 
ATOM     26  C   UNL     1      16.989  18.487  45.580  1.00  0.00     0.016 C 
ATOM     27  C   UNL     1      15.466  18.626  48.316  1.00  0.00     0.063 C 
ATOM     28  C   UNL     1      13.903  18.431  46.344  1.00  0.00     0.033 C 
ATOM     29  C   UNL     1      13.991  18.551  47.874  1.00  0.00     0.118 C 
BRANCH  29  30
ATOM     30  O   UNL     1      13.346  17.439  48.446  1.00  0.00    -0.393 OA
ATOM     31  H   UNL     1      13.235  16.752  47.731  1.00  0.00     0.210 HD
ENDBRANCH  29  30
ENDBRANCH   1  11
TORSDOF 6
ENDMDL
MODEL 6
REMARK VINA RESULT:    -7.184      3.176      5.225
REMARK INTER + INTRA:         -10.713
REMARK INTER:                 -10.619
REMARK INTRA:                  -0.094
REMARK UNBOUND:                -1.218
REMARK SMILES CC[C@@H](C=C[C@@H](C)[C@H]1CC[C@H]2[C@@H]3CC=C4C[C@H](O)CC[C@@]4(C)[C@H]3CC[C@]12C)C(C)C
REMARK SMILES IDX 6 1 7 2 5 3 4 4 3 5 2 6 1 7 28 8 29 9 30 10 8 11 9 12 26 13
REMARK SMILES IDX 10 14 11 15 25 16 27 17 12 18 24 19 23 20 13 21 21 22 14 23
REMARK SMILES IDX 15 24 20 25 22 26 16 27 19 28 17 29 18 30
REMARK H PARENT 18 31
REMARK Flexibility Score: inf
ROOT
ATOM      1  C   UNL     1      16.727  25.938  42.538  1.00  0.00     0.012 C 
ATOM      2  C   UNL     1      15.454  25.334  41.919  1.00  0.00     0.012 C 
ENDROOT
BRANCH   1   3
ATOM      3  C   UNL     1      17.798  26.072  41.476  1.00  0.00    -0.028 C 
ATOM      4  C   UNL     1      19.027  25.541  41.609  1.00  0.00    -0.027 C 
BRANCH   4   5
ATOM      5  C   UNL     1      20.052  25.641  40.496  1.00  0.00     0.014 C 
BRANCH   5   6
ATOM      6  C   UNL     1      19.707  26.815  39.545  1.00  0.00     0.004 C 
ATOM      7  C   UNL     1      20.422  28.109  39.931  1.00  0.00     0.004 C 
ENDBRANCH   5   6
BRANCH   5   8
ATOM      8  C   UNL     1      20.182  24.272  39.760  1.00  0.00    -0.011 C 
ATOM      9  C   UNL     1      19.905  23.067  40.678  1.00  0.00     0.008 C 
ATOM     10  C   UNL     1      19.298  24.206  38.502  1.00  0.00     0.008 C 
ENDBRANCH   5   8
ENDBRANCH   4   5
ENDBRANCH   1   3
BRANCH   1  11
ATOM     11  C   UNL     1      17.248  25.138  43.780  1.00  0.00     0.002 C 
ATOM     12  C   UNL     1      17.054  25.927  45.103  1.00  0.00     0.005 C 
ATOM     13  C   UNL     1      16.598  23.752  44.073  1.00  0.00    -0.026 C 
ATOM     14  C   UNL     1      16.749  24.904  46.206  1.00  0.00     0.005 C 
ATOM     15  C   UNL     1      17.000  23.559  45.548  1.00  0.00    -0.001 C 
ATOM     16  C   UNL     1      17.215  22.565  43.296  1.00  0.00     0.007 C 
ATOM     17  C   UNL     1      15.048  23.811  43.873  1.00  0.00     0.012 C 
ATOM     18  C   UNL     1      16.367  22.306  46.185  1.00  0.00     0.000 C 
ATOM     19  C   UNL     1      16.669  21.219  43.822  1.00  0.00     0.005 C 
ATOM     20  C   UNL     1      16.792  21.047  45.374  1.00  0.00     0.003 C 
ATOM     21  C   UNL     1      16.850  22.115  47.628  1.00  0.00     0.031 C 
ATOM     22  C   UNL     1      16.095  19.741  45.931  1.00  0.00    -0.008 C 
ATOM     23  C   UNL     1      16.295  20.846  48.214  1.00  0.00    -0.027 C 
ATOM     24  C   UNL     1      16.005  19.756  47.472  1.00  0.00    -0.065 C 
ATOM     25  C   UNL     1      14.624  19.611  45.405  1.00  0.00     0.014 C 
ATOM     26  C   UNL     1      16.936  18.496  45.476  1.00  0.00     0.016 C 
ATOM     27  C   UNL     1      15.274  18.606  48.131  1.00  0.00     0.063 C 
ATOM     28  C   UNL     1      13.814  18.483  46.076  1.00  0.00     0.033 C 
ATOM     29  C   UNL     1      13.823  18.569  47.610  1.00  0.00     0.118 C 
BRANCH  29  30
ATOM     30  O   UNL     1      13.130  17.457  48.124  1.00  0.00    -0.393 OA
ATOM     31  H   UNL     1      12.169  17.557  47.873  1.00  0.00     0.210 HD
ENDBRANCH  29  30
ENDBRANCH   1  11
TORSDOF 6
ENDMDL
MODEL 7
REMARK VINA RESULT:    -6.950      2.981      9.274
REMARK INTER + INTRA:         -10.402
REMARK INTER:                  -9.465
REMARK INTRA:                  -0.937
REMARK UNBOUND:                -1.218
REMARK SMILES CC[C@@H](C=C[C@@H](C)[C@H]1CC[C@H]2[C@@H]3CC=C4C[C@H](O)CC[C@@]4(C)[C@H]3CC[C@]12C)C(C)C
REMARK SMILES IDX 6 1 7 2 5 3 4 4 3 5 2 6 1 7 28 8 29 9 30 10 8 11 9 12 26 13
REMARK SMILES IDX 10 14 11 15 25 16 27 17 12 18 24 19 23 20 13 21 21 22 14 23
REMARK SMILES IDX 15 24 20 25 22 26 16 27 19 28 17 29 18 30
REMARK H PARENT 18 31
REMARK Flexibility Score: inf
ROOT
ATOM      1  C   UNL     1      16.949  24.680  45.534  1.00  0.00     0.012 C 
ATOM      2  C   UNL     1      16.955  23.557  46.586  1.00  0.00     0.012 C 
ENDROOT
BRANCH   1   3
ATOM      3  C   UNL     1      16.229  25.893  46.085  1.00  0.00    -0.028 C 
ATOM      4  C   UNL     1      15.709  25.931  47.325  1.00  0.00    -0.027 C 
BRANCH   4   5
ATOM      5  C   UNL     1      15.051  27.186  47.864  1.00  0.00     0.014 C 
BRANCH   5   6
ATOM      6  C   UNL     1      15.760  27.655  49.161  1.00  0.00     0.004 C 
ATOM      7  C   UNL     1      15.487  26.729  50.344  1.00  0.00     0.004 C 
ENDBRANCH   5   6
BRANCH   5   8
ATOM      8  C   UNL     1      13.520  26.953  48.052  1.00  0.00    -0.011 C 
ATOM      9  C   UNL     1      12.717  28.265  48.124  1.00  0.00     0.008 C 
ATOM     10  C   UNL     1      12.940  26.024  46.971  1.00  0.00     0.008 C 
ENDBRANCH   5   8
ENDBRANCH   4   5
ENDBRANCH   1   3
BRANCH   1  11
ATOM     11  C   UNL     1      16.346  24.232  44.159  1.00  0.00     0.002 C 
ATOM     12  C   UNL     1      14.905  24.770  43.953  1.00  0.00     0.005 C 
ATOM     13  C   UNL     1      17.096  24.666  42.864  1.00  0.00    -0.026 C 
ATOM     14  C   UNL     1      14.736  25.065  42.455  1.00  0.00     0.005 C 
ATOM     15  C   UNL     1      15.983  24.479  41.817  1.00  0.00    -0.001 C 
ATOM     16  C   UNL     1      18.255  23.735  42.437  1.00  0.00     0.007 C 
ATOM     17  C   UNL     1      17.579  26.150  42.972  1.00  0.00     0.012 C 
ATOM     18  C   UNL     1      16.385  24.976  40.414  1.00  0.00     0.000 C 
ATOM     19  C   UNL     1      18.778  24.113  41.034  1.00  0.00     0.005 C 
ATOM     20  C   UNL     1      17.658  24.212  39.944  1.00  0.00     0.003 C 
ATOM     21  C   UNL     1      15.276  24.704  39.391  1.00  0.00     0.031 C 
ATOM     22  C   UNL     1      18.169  24.749  38.546  1.00  0.00    -0.008 C 
ATOM     23  C   UNL     1      15.708  25.115  38.011  1.00  0.00    -0.027 C 
ATOM     24  C   UNL     1      16.995  25.086  37.602  1.00  0.00    -0.065 C 
ATOM     25  C   UNL     1      18.995  26.070  38.711  1.00  0.00     0.014 C 
ATOM     26  C   UNL     1      19.062  23.640  37.884  1.00  0.00     0.016 C 
ATOM     27  C   UNL     1      17.343  25.699  36.263  1.00  0.00     0.063 C 
ATOM     28  C   UNL     1      19.339  26.766  37.378  1.00  0.00     0.033 C 
ATOM     29  C   UNL     1      18.105  27.019  36.498  1.00  0.00     0.118 C 
BRANCH  29  30
ATOM     30  O   UNL     1      18.532  27.579  35.280  1.00  0.00    -0.393 OA
ATOM     31  H   UNL     1      18.267  26.954  34.549  1.00  0.00     0.210 HD
ENDBRANCH  29  30
ENDBRANCH   1  11
TORSDOF 6
ENDMDL
MODEL 8
REMARK VINA RESULT:    -6.838      3.374      8.986
REMARK INTER + INTRA:         -10.255
REMARK INTER:                  -8.873
REMARK INTRA:                  -1.383
REMARK UNBOUND:                -1.218
REMARK SMILES CC[C@@H](C=C[C@@H](C)[C@H]1CC[C@H]2[C@@H]3CC=C4C[C@H](O)CC[C@@]4(C)[C@H]3CC[C@]12C)C(C)C
REMARK SMILES IDX 6 1 7 2 5 3 4 4 3 5 2 6 1 7 28 8 29 9 30 10 8 11 9 12 26 13
REMARK SMILES IDX 10 14 11 15 25 16 27 17 12 18 24 19 23 20 13 21 21 22 14 23
REMARK SMILES IDX 15 24 20 25 22 26 16 27 19 28 17 29 18 30
REMARK H PARENT 18 31
REMARK Flexibility Score: inf
ROOT
ATOM      1  C   UNL     1      15.826  24.434  45.642  1.00  0.00     0.012 C 
ATOM      2  C   UNL     1      16.059  25.428  46.793  1.00  0.00     0.012 C 
ENDROOT
BRANCH   1   3
ATOM      3  C   UNL     1      15.194  23.167  46.180  1.00  0.00    -0.028 C 
ATOM      4  C   UNL     1      14.184  22.534  45.556  1.00  0.00    -0.027 C 
BRANCH   4   5
ATOM      5  C   UNL     1      13.619  21.233  46.093  1.00  0.00     0.014 C 
BRANCH   5   6
ATOM      6  C   UNL     1      14.444  20.747  47.312  1.00  0.00     0.004 C 
ATOM      7  C   UNL     1      13.679  19.741  48.170  1.00  0.00     0.004 C 
ENDBRANCH   5   6
BRANCH   5   8
ATOM      8  C   UNL     1      13.530  20.174  44.950  1.00  0.00    -0.011 C 
ATOM      9  C   UNL     1      12.113  20.048  44.358  1.00  0.00     0.008 C 
ATOM     10  C   UNL     1      14.559  20.437  43.836  1.00  0.00     0.008 C 
ENDBRANCH   5   8
ENDBRANCH   4   5
ENDBRANCH   1   3
BRANCH   1  11
ATOM     11  C   UNL     1      17.125  24.123  44.823  1.00  0.00     0.002 C 
ATOM     12  C   UNL     1      17.427  22.601  44.769  1.00  0.00     0.005 C 
ATOM     13  C   UNL     1      17.162  24.565  43.329  1.00  0.00    -0.026 C 
ATOM     14  C   UNL     1      18.056  22.308  43.400  1.00  0.00     0.005 C 
ATOM     15  C   UNL     1      18.308  23.681  42.803  1.00  0.00    -0.001 C 
ATOM     16  C   UNL     1      17.599  26.030  43.093  1.00  0.00     0.007 C 
ATOM     17  C   UNL     1      15.797  24.265  42.627  1.00  0.00     0.012 C 
ATOM     18  C   UNL     1      18.499  23.788  41.277  1.00  0.00     0.000 C 
ATOM     19  C   UNL     1      17.829  26.300  41.589  1.00  0.00     0.005 C 
ATOM     20  C   UNL     1      18.786  25.271  40.898  1.00  0.00     0.003 C 
ATOM     21  C   UNL     1      19.694  22.949  40.807  1.00  0.00     0.031 C 
ATOM     22  C   UNL     1      18.899  25.454  39.331  1.00  0.00    -0.008 C 
ATOM     23  C   UNL     1      19.925  23.125  39.332  1.00  0.00    -0.027 C 
ATOM     24  C   UNL     1      19.625  24.263  38.670  1.00  0.00    -0.065 C 
ATOM     25  C   UNL     1      17.484  25.533  38.663  1.00  0.00     0.014 C 
ATOM     26  C   UNL     1      19.702  26.772  39.041  1.00  0.00     0.016 C 
ATOM     27  C   UNL     1      19.719  24.266  37.159  1.00  0.00     0.063 C 
ATOM     28  C   UNL     1      17.514  25.493  37.121  1.00  0.00     0.033 C 
ATOM     29  C   UNL     1      18.295  24.290  36.568  1.00  0.00     0.118 C 
BRANCH  29  30
ATOM     30  O   UNL     1      18.332  24.389  35.164  1.00  0.00    -0.393 OA
ATOM     31  H   UNL     1      19.211  24.029  34.858  1.00  0.00     0.210 HD
ENDBRANCH  29  30
ENDBRANCH   1  11
TORSDOF 6
ENDMDL
MODEL 9
REMARK VINA RESULT:    -6.788      3.106      5.297
REMARK INTER + INTRA:         -10.189
REMARK INTER:                  -9.079
REMARK INTRA:                  -1.110
REMARK UNBOUND:                -1.218
REMARK SMILES CC[C@@H](C=C[C@@H](C)[C@H]1CC[C@H]2[C@@H]3CC=C4C[C@H](O)CC[C@@]4(C)[C@H]3CC[C@]12C)C(C)C
REMARK SMILES IDX 6 1 7 2 5 3 4 4 3 5 2 6 1 7 28 8 29 9 30 10 8 11 9 12 26 13
REMARK SMILES IDX 10 14 11 15 25 16 27 17 12 18 24 19 23 20 13 21 21 22 14 23
REMARK SMILES IDX 15 24 20 25 22 26 16 27 19 28 17 29 18 30
REMARK H PARENT 18 31
REMARK Flexibility Score: inf
ROOT
ATOM      1  C   UNL     1      16.709  25.373  42.575  1.00  0.00     0.012 C 
ATOM      2  C   UNL     1      15.594  25.977  41.703  1.00  0.00     0.012 C 
ENDROOT
BRANCH   1   3
ATOM      3  C   UNL     1      18.057  25.648  41.942  1.00  0.00    -0.028 C 
ATOM      4  C   UNL     1      18.230  25.761  40.613  1.00  0.00    -0.027 C 
BRANCH   4   5
ATOM      5  C   UNL     1      19.583  26.100  40.020  1.00  0.00     0.014 C 
BRANCH   5   6
ATOM      6  C   UNL     1      20.565  24.913  40.197  1.00  0.00     0.004 C 
ATOM      7  C   UNL     1      20.024  23.615  39.602  1.00  0.00     0.004 C 
ENDBRANCH   5   6
BRANCH   5   8
ATOM      8  C   UNL     1      20.118  27.434  40.627  1.00  0.00    -0.011 C 
ATOM      9  C   UNL     1      21.326  27.229  41.559  1.00  0.00     0.008 C 
ATOM     10  C   UNL     1      20.444  28.474  39.541  1.00  0.00     0.008 C 
ENDBRANCH   5   8
ENDBRANCH   4   5
ENDBRANCH   1   3
BRANCH   1  11
ATOM     11  C   UNL     1      16.511  23.846  42.860  1.00  0.00     0.002 C 
ATOM     12  C   UNL     1      17.771  23.018  42.492  1.00  0.00     0.005 C 
ATOM     13  C   UNL     1      16.197  23.418  44.326  1.00  0.00    -0.026 C 
ATOM     14  C   UNL     1      17.873  21.865  43.501  1.00  0.00     0.005 C 
ATOM     15  C   UNL     1      16.563  21.923  44.267  1.00  0.00    -0.001 C 
ATOM     16  C   UNL     1      14.703  23.485  44.719  1.00  0.00     0.007 C 
ATOM     17  C   UNL     1      17.082  24.215  45.339  1.00  0.00     0.012 C 
ATOM     18  C   UNL     1      16.491  21.231  45.642  1.00  0.00     0.000 C 
ATOM     19  C   UNL     1      14.466  22.827  46.096  1.00  0.00     0.005 C 
ATOM     20  C   UNL     1      15.052  21.380  46.218  1.00  0.00     0.003 C 
ATOM     21  C   UNL     1      16.791  19.731  45.524  1.00  0.00     0.031 C 
ATOM     22  C   UNL     1      14.947  20.766  47.672  1.00  0.00    -0.008 C 
ATOM     23  C   UNL     1      16.637  19.049  46.855  1.00  0.00    -0.027 C 
ATOM     24  C   UNL     1      15.774  19.469  47.804  1.00  0.00    -0.065 C 
ATOM     25  C   UNL     1      15.506  21.756  48.750  1.00  0.00     0.014 C 
ATOM     26  C   UNL     1      13.438  20.448  47.970  1.00  0.00     0.016 C 
ATOM     27  C   UNL     1      15.837  18.829  49.174  1.00  0.00     0.063 C 
ATOM     28  C   UNL     1      15.636  21.143  50.160  1.00  0.00     0.033 C 
ATOM     29  C   UNL     1      16.443  19.835  50.172  1.00  0.00     0.118 C 
BRANCH  29  30
ATOM     30  O   UNL     1      16.435  19.317  51.480  1.00  0.00    -0.393 OA
ATOM     31  H   UNL     1      15.839  19.898  52.032  1.00  0.00     0.210 HD
ENDBRANCH  29  30
ENDBRANCH   1  11
TORSDOF 6
ENDMDL
