MODEL 1
REMARK VINA RESULT:    -7.486      0.000      0.000
REMARK INTER + INTRA:          -9.603
REMARK INTER:                  -9.236
REMARK INTRA:                  -0.367
REMARK UNBOUND:                -0.367
REMARK SMILES Oc1cc(O)c2cc(O)c(-c3cc(O)c(O)c(O)c3)[o+]c2c1
REMARK SMILES IDX 10 1 20 2 21 3 22 4 2 5 3 6 4 7 6 8 7 9 8 10 11 11 12 12
REMARK SMILES IDX 13 13 19 14 15 15 17 16 14 17 16 19 18 21 9 23 1 25 5 27
REMARK H PARENT 14 18 16 20 18 22 9 24 1 26 5 28
REMARK Flexibility Score: inf
ROOT
ATOM      1  C   UNL     1     -37.792  12.004   8.470  1.00  0.00     0.402 A 
ATOM      2  O   UNL     1     -37.961  11.648   7.200  1.00  0.00    -0.202 OA
ATOM      3  C   UNL     1     -37.048  11.854   6.256  1.00  0.00     0.368 A 
ATOM      4  C   UNL     1     -37.316  11.442   4.948  1.00  0.00     0.162 A 
ATOM      5  C   UNL     1     -36.371  11.644   3.937  1.00  0.00     0.128 A 
ATOM      6  C   UNL     1     -35.153  12.259   4.237  1.00  0.00     0.093 A 
ATOM      7  C   UNL     1     -34.860  12.680   5.539  1.00  0.00     0.136 A 
ATOM      8  C   UNL     1     -35.816  12.480   6.569  1.00  0.00     0.125 A 
ATOM      9  C   UNL     1     -35.614  12.882   7.899  1.00  0.00     0.078 A 
ATOM     10  C   UNL     1     -36.606  12.655   8.858  1.00  0.00     0.223 A 
ENDROOT
BRANCH   1  11
ATOM     11  C   UNL     1     -38.880  11.711   9.430  1.00  0.00     0.091 A 
ATOM     12  C   UNL     1     -40.030  12.517   9.436  1.00  0.00     0.068 A 
ATOM     13  C   UNL     1     -41.083  12.250  10.322  1.00  0.00     0.162 A 
ATOM     14  C   UNL     1     -38.814  10.609  10.299  1.00  0.00     0.068 A 
ATOM     15  C   UNL     1     -41.000  11.158  11.202  1.00  0.00     0.200 A 
ATOM     16  C   UNL     1     -39.862  10.335  11.184  1.00  0.00     0.162 A 
BRANCH  13  17
ATOM     17  O   UNL     1     -42.214  13.067  10.327  1.00  0.00    -0.504 OA
ATOM     18  H   UNL     1     -43.149  12.679  10.333  1.00  0.00     0.293 HD
ENDBRANCH  13  17
BRANCH  15  19
ATOM     19  O   UNL     1     -42.039  10.879  12.091  1.00  0.00    -0.502 OA
ATOM     20  H   UNL     1     -42.136   9.977  12.543  1.00  0.00     0.293 HD
ENDBRANCH  15  19
BRANCH  16  21
ATOM     21  O   UNL     1     -39.755   9.235  12.035  1.00  0.00    -0.504 OA
ATOM     22  H   UNL     1     -40.481   8.531  12.101  1.00  0.00     0.293 HD
ENDBRANCH  16  21
ENDBRANCH   1  11
BRANCH  10  23
ATOM     23  O   UNL     1     -36.427  13.098  10.169  1.00  0.00    -0.500 OA
ATOM     24  H   UNL     1     -37.014  13.819  10.572  1.00  0.00     0.294 HD
ENDBRANCH  10  23
BRANCH   5  25
ATOM     25  O   UNL     1     -36.633  11.237   2.631  1.00  0.00    -0.507 OA
ATOM     26  H   UNL     1     -35.924  11.289   1.908  1.00  0.00     0.293 HD
ENDBRANCH   5  25
BRANCH   7  27
ATOM     27  O   UNL     1     -33.618  13.283   5.756  1.00  0.00    -0.507 OA
ATOM     28  H   UNL     1     -32.944  12.971   6.440  1.00  0.00     0.293 HD
ENDBRANCH   7  27
TORSDOF 7
ENDMDL
MODEL 2
REMARK VINA RESULT:    -7.455      0.123      1.795
REMARK INTER + INTRA:          -9.565
REMARK INTER:                  -9.253
REMARK INTRA:                  -0.312
REMARK UNBOUND:                -0.367
REMARK SMILES Oc1cc(O)c2cc(O)c(-c3cc(O)c(O)c(O)c3)[o+]c2c1
REMARK SMILES IDX 10 1 20 2 21 3 22 4 2 5 3 6 4 7 6 8 7 9 8 10 11 11 12 12
REMARK SMILES IDX 13 13 19 14 15 15 17 16 14 17 16 19 18 21 9 23 1 25 5 27
REMARK H PARENT 14 18 16 20 18 22 9 24 1 26 5 28
REMARK Flexibility Score: inf
ROOT
ATOM      1  C   UNL     1     -37.856  11.947   8.422  1.00  0.00     0.402 A 
ATOM      2  O   UNL     1     -37.989  11.604   7.145  1.00  0.00    -0.202 OA
ATOM      3  C   UNL     1     -37.056  11.834   6.226  1.00  0.00     0.368 A 
ATOM      4  C   UNL     1     -37.286  11.434   4.907  1.00  0.00     0.162 A 
ATOM      5  C   UNL     1     -36.321  11.661   3.922  1.00  0.00     0.128 A 
ATOM      6  C   UNL     1     -35.119  12.289   4.258  1.00  0.00     0.093 A 
ATOM      7  C   UNL     1     -34.864  12.699   5.572  1.00  0.00     0.136 A 
ATOM      8  C   UNL     1     -35.842  12.474   6.575  1.00  0.00     0.125 A 
ATOM      9  C   UNL     1     -35.677  12.863   7.915  1.00  0.00     0.078 A 
ATOM     10  C   UNL     1     -36.689  12.611   8.847  1.00  0.00     0.223 A 
ENDROOT
BRANCH   1  11
ATOM     11  C   UNL     1     -38.962  11.628   9.352  1.00  0.00     0.091 A 
ATOM     12  C   UNL     1     -38.799  10.596  10.290  1.00  0.00     0.068 A 
ATOM     13  C   UNL     1     -39.823  10.286  11.195  1.00  0.00     0.162 A 
ATOM     14  C   UNL     1     -40.153  12.372   9.357  1.00  0.00     0.068 A 
ATOM     15  C   UNL     1     -41.020  11.023  11.180  1.00  0.00     0.200 A 
ATOM     16  C   UNL     1     -41.180  12.071  10.259  1.00  0.00     0.162 A 
BRANCH  13  17
ATOM     17  O   UNL     1     -39.654   9.248  12.112  1.00  0.00    -0.504 OA
ATOM     18  H   UNL     1     -39.832   8.283  11.861  1.00  0.00     0.293 HD
ENDBRANCH  13  17
BRANCH  15  19
ATOM     19  O   UNL     1     -42.050  10.726  12.073  1.00  0.00    -0.502 OA
ATOM     20  H   UNL     1     -41.874  10.497  13.044  1.00  0.00     0.293 HD
ENDBRANCH  15  19
BRANCH  16  21
ATOM     21  O   UNL     1     -42.349  12.830  10.228  1.00  0.00    -0.504 OA
ATOM     22  H   UNL     1     -42.427  13.679   9.681  1.00  0.00     0.293 HD
ENDBRANCH  16  21
ENDBRANCH   1  11
BRANCH  10  23
ATOM     23  O   UNL     1     -36.548  13.041  10.166  1.00  0.00    -0.500 OA
ATOM     24  H   UNL     1     -37.338  13.083  10.800  1.00  0.00     0.294 HD
ENDBRANCH  10  23
BRANCH   5  25
ATOM     25  O   UNL     1     -36.544  11.265   2.605  1.00  0.00    -0.507 OA
ATOM     26  H   UNL     1     -36.704  10.293   2.363  1.00  0.00     0.293 HD
ENDBRANCH   5  25
BRANCH   7  27
ATOM     27  O   UNL     1     -33.637  13.317   5.826  1.00  0.00    -0.507 OA
ATOM     28  H   UNL     1     -33.081  13.165   6.655  1.00  0.00     0.293 HD
ENDBRANCH   7  27
TORSDOF 7
ENDMDL
MODEL 3
REMARK VINA RESULT:    -7.180      5.891     11.143
REMARK INTER + INTRA:          -9.226
REMARK INTER:                  -8.919
REMARK INTRA:                  -0.308
REMARK UNBOUND:                -0.367
REMARK SMILES Oc1cc(O)c2cc(O)c(-c3cc(O)c(O)c(O)c3)[o+]c2c1
REMARK SMILES IDX 10 1 20 2 21 3 22 4 2 5 3 6 4 7 6 8 7 9 8 10 11 11 12 12
REMARK SMILES IDX 13 13 19 14 15 15 17 16 14 17 16 19 18 21 9 23 1 25 5 27
REMARK H PARENT 14 18 16 20 18 22 9 24 1 26 5 28
REMARK Flexibility Score: inf
ROOT
ATOM      1  C   UNL     1     -31.558  14.128   2.230  1.00  0.00     0.402 A 
ATOM      2  O   UNL     1     -32.625  13.399   1.917  1.00  0.00    -0.202 OA
ATOM      3  C   UNL     1     -33.746  13.401   2.632  1.00  0.00     0.368 A 
ATOM      4  C   UNL     1     -34.817  12.602   2.222  1.00  0.00     0.162 A 
ATOM      5  C   UNL     1     -36.008  12.589   2.954  1.00  0.00     0.128 A 
ATOM      6  C   UNL     1     -36.129  13.380   4.099  1.00  0.00     0.093 A 
ATOM      7  C   UNL     1     -35.072  14.190   4.530  1.00  0.00     0.136 A 
ATOM      8  C   UNL     1     -33.859  14.205   3.793  1.00  0.00     0.125 A 
ATOM      9  C   UNL     1     -32.743  14.975   4.158  1.00  0.00     0.078 A 
ATOM     10  C   UNL     1     -31.579  14.934   3.384  1.00  0.00     0.223 A 
ENDROOT
BRANCH   1  11
ATOM     11  C   UNL     1     -30.371  14.046   1.348  1.00  0.00     0.091 A 
ATOM     12  C   UNL     1     -30.046  15.137   0.527  1.00  0.00     0.068 A 
ATOM     13  C   UNL     1     -28.917  15.094  -0.303  1.00  0.00     0.162 A 
ATOM     14  C   UNL     1     -29.528  12.922   1.356  1.00  0.00     0.068 A 
ATOM     15  C   UNL     1     -28.090  13.957  -0.303  1.00  0.00     0.200 A 
ATOM     16  C   UNL     1     -28.398  12.872   0.533  1.00  0.00     0.162 A 
BRANCH  13  17
ATOM     17  O   UNL     1     -28.613  16.179  -1.125  1.00  0.00    -0.504 OA
ATOM     18  H   UNL     1     -27.692  16.298  -1.528  1.00  0.00     0.293 HD
ENDBRANCH  13  17
BRANCH  15  19
ATOM     19  O   UNL     1     -26.964  13.897  -1.124  1.00  0.00    -0.502 OA
ATOM     20  H   UNL     1     -26.022  13.952  -0.754  1.00  0.00     0.293 HD
ENDBRANCH  15  19
BRANCH  16  21
ATOM     21  O   UNL     1     -27.590  11.736   0.566  1.00  0.00    -0.504 OA
ATOM     22  H   UNL     1     -27.716  10.965  -0.079  1.00  0.00     0.293 HD
ENDBRANCH  16  21
ENDBRANCH   1  11
BRANCH  10  23
ATOM     23  O   UNL     1     -30.453  15.659   3.773  1.00  0.00    -0.500 OA
ATOM     24  H   UNL     1     -30.532  16.531   4.284  1.00  0.00     0.294 HD
ENDBRANCH  10  23
BRANCH   5  25
ATOM     25  O   UNL     1     -37.079  11.795   2.551  1.00  0.00    -0.507 OA
ATOM     26  H   UNL     1     -37.907  11.690   3.126  1.00  0.00     0.293 HD
ENDBRANCH   5  25
BRANCH   7  27
ATOM     27  O   UNL     1     -35.274  14.952   5.683  1.00  0.00    -0.507 OA
ATOM     28  H   UNL     1     -35.265  15.962   5.709  1.00  0.00     0.293 HD
ENDBRANCH   7  27
TORSDOF 7
ENDMDL
MODEL 4
REMARK VINA RESULT:    -7.111      0.971      2.524
REMARK INTER + INTRA:          -9.140
REMARK INTER:                  -8.761
REMARK INTRA:                  -0.379
REMARK UNBOUND:                -0.367
REMARK SMILES Oc1cc(O)c2cc(O)c(-c3cc(O)c(O)c(O)c3)[o+]c2c1
REMARK SMILES IDX 10 1 20 2 21 3 22 4 2 5 3 6 4 7 6 8 7 9 8 10 11 11 12 12
REMARK SMILES IDX 13 13 19 14 15 15 17 16 14 17 16 19 18 21 9 23 1 25 5 27
REMARK H PARENT 14 18 16 20 18 22 9 24 1 26 5 28
REMARK Flexibility Score: inf
ROOT
ATOM      1  C   UNL     1     -38.346  11.570   7.932  1.00  0.00     0.402 A 
ATOM      2  O   UNL     1     -37.246  12.311   8.020  1.00  0.00    -0.202 OA
ATOM      3  C   UNL     1     -36.393  12.475   7.014  1.00  0.00     0.368 A 
ATOM      4  C   UNL     1     -35.265  13.277   7.201  1.00  0.00     0.162 A 
ATOM      5  C   UNL     1     -34.354  13.467   6.158  1.00  0.00     0.128 A 
ATOM      6  C   UNL     1     -34.574  12.855   4.922  1.00  0.00     0.093 A 
ATOM      7  C   UNL     1     -35.697  12.048   4.708  1.00  0.00     0.136 A 
ATOM      8  C   UNL     1     -36.624  11.848   5.764  1.00  0.00     0.125 A 
ATOM      9  C   UNL     1     -37.769  11.045   5.645  1.00  0.00     0.078 A 
ATOM     10  C   UNL     1     -38.635  10.892   6.733  1.00  0.00     0.223 A 
ENDROOT
BRANCH   1  11
ATOM     11  C   UNL     1     -39.223  11.473   9.121  1.00  0.00     0.091 A 
ATOM     12  C   UNL     1     -40.271  12.394   9.282  1.00  0.00     0.068 A 
ATOM     13  C   UNL     1     -41.128  12.313  10.388  1.00  0.00     0.162 A 
ATOM     14  C   UNL     1     -39.067  10.445  10.066  1.00  0.00     0.068 A 
ATOM     15  C   UNL     1     -40.952  11.294  11.339  1.00  0.00     0.200 A 
ATOM     16  C   UNL     1     -39.919  10.356  11.171  1.00  0.00     0.162 A 
BRANCH  13  17
ATOM     17  O   UNL     1     -42.156  13.243  10.543  1.00  0.00    -0.504 OA
ATOM     18  H   UNL     1     -41.973  14.193  10.841  1.00  0.00     0.293 HD
ENDBRANCH  13  17
BRANCH  15  19
ATOM     19  O   UNL     1     -41.795  11.200  12.447  1.00  0.00    -0.502 OA
ATOM     20  H   UNL     1     -42.578  10.556  12.477  1.00  0.00     0.293 HD
ENDBRANCH  15  19
BRANCH  16  21
ATOM     21  O   UNL     1     -39.727   9.325  12.090  1.00  0.00    -0.504 OA
ATOM     22  H   UNL     1     -39.621   8.359  11.803  1.00  0.00     0.293 HD
ENDBRANCH  16  21
ENDBRANCH   1  11
BRANCH  10  23
ATOM     23  O   UNL     1     -39.746  10.055   6.631  1.00  0.00    -0.500 OA
ATOM     24  H   UNL     1     -39.649   9.051   6.529  1.00  0.00     0.294 HD
ENDBRANCH  10  23
BRANCH   5  25
ATOM     25  O   UNL     1     -33.226  14.265   6.339  1.00  0.00    -0.507 OA
ATOM     26  H   UNL     1     -33.168  14.939   7.095  1.00  0.00     0.293 HD
ENDBRANCH   5  25
BRANCH   7  27
ATOM     27  O   UNL     1     -35.846  11.475   3.443  1.00  0.00    -0.507 OA
ATOM     28  H   UNL     1     -35.835  10.482   3.261  1.00  0.00     0.293 HD
ENDBRANCH   7  27
TORSDOF 7
ENDMDL
MODEL 5
REMARK VINA RESULT:    -7.088      5.684      9.399
REMARK INTER + INTRA:          -9.112
REMARK INTER:                  -8.972
REMARK INTRA:                  -0.140
REMARK UNBOUND:                -0.367
REMARK SMILES Oc1cc(O)c2cc(O)c(-c3cc(O)c(O)c(O)c3)[o+]c2c1
REMARK SMILES IDX 10 1 20 2 21 3 22 4 2 5 3 6 4 7 6 8 7 9 8 10 11 11 12 12
REMARK SMILES IDX 13 13 19 14 15 15 17 16 14 17 16 19 18 21 9 23 1 25 5 27
REMARK H PARENT 14 18 16 20 18 22 9 24 1 26 5 28
REMARK Flexibility Score: inf
ROOT
ATOM      1  C   UNL     1     -32.146  14.512   2.011  1.00  0.00     0.402 A 
ATOM      2  O   UNL     1     -30.969  14.451   2.627  1.00  0.00    -0.202 OA
ATOM      3  C   UNL     1     -29.828  14.834   2.063  1.00  0.00     0.368 A 
ATOM      4  C   UNL     1     -28.641  14.735   2.793  1.00  0.00     0.162 A 
ATOM      5  C   UNL     1     -27.428  15.134   2.224  1.00  0.00     0.128 A 
ATOM      6  C   UNL     1     -27.403  15.637   0.921  1.00  0.00     0.093 A 
ATOM      7  C   UNL     1     -28.579  15.747   0.169  1.00  0.00     0.136 A 
ATOM      8  C   UNL     1     -29.813  15.341   0.740  1.00  0.00     0.125 A 
ATOM      9  C   UNL     1     -31.038  15.403   0.057  1.00  0.00     0.078 A 
ATOM     10  C   UNL     1     -32.213  14.979   0.685  1.00  0.00     0.223 A 
ENDROOT
BRANCH   1  11
ATOM     11  C   UNL     1     -33.348  14.064   2.750  1.00  0.00     0.091 A 
ATOM     12  C   UNL     1     -34.109  12.997   2.247  1.00  0.00     0.068 A 
ATOM     13  C   UNL     1     -35.240  12.539   2.936  1.00  0.00     0.162 A 
ATOM     14  C   UNL     1     -33.714  14.645   3.975  1.00  0.00     0.068 A 
ATOM     15  C   UNL     1     -35.611  13.140   4.151  1.00  0.00     0.200 A 
ATOM     16  C   UNL     1     -34.840  14.193   4.671  1.00  0.00     0.162 A 
BRANCH  13  17
ATOM     17  O   UNL     1     -35.996  11.488   2.418  1.00  0.00    -0.504 OA
ATOM     18  H   UNL     1     -36.304  10.718   2.999  1.00  0.00     0.293 HD
ENDBRANCH  13  17
BRANCH  15  19
ATOM     19  O   UNL     1     -36.736  12.699   4.850  1.00  0.00    -0.502 OA
ATOM     20  H   UNL     1     -36.713  12.507   5.845  1.00  0.00     0.293 HD
ENDBRANCH  15  19
BRANCH  16  21
ATOM     21  O   UNL     1     -35.174  14.801   5.881  1.00  0.00    -0.504 OA
ATOM     22  H   UNL     1     -35.481  15.765   5.935  1.00  0.00     0.293 HD
ENDBRANCH  16  21
ENDBRANCH   1  11
BRANCH  10  23
ATOM     23  O   UNL     1     -33.423  14.994  -0.010  1.00  0.00    -0.500 OA
ATOM     24  H   UNL     1     -33.735  14.196  -0.552  1.00  0.00     0.294 HD
ENDBRANCH  10  23
BRANCH   5  25
ATOM     25  O   UNL     1     -26.240  15.037   2.945  1.00  0.00    -0.507 OA
ATOM     26  H   UNL     1     -26.140  15.460   3.861  1.00  0.00     0.293 HD
ENDBRANCH   5  25
BRANCH   7  27
ATOM     27  O   UNL     1     -28.469  16.263  -1.125  1.00  0.00    -0.507 OA
ATOM     28  H   UNL     1     -28.300  17.234  -1.340  1.00  0.00     0.293 HD
ENDBRANCH   7  27
TORSDOF 7
ENDMDL
MODEL 6
REMARK VINA RESULT:    -7.058      5.776      9.413
REMARK INTER + INTRA:          -9.075
REMARK INTER:                  -8.877
REMARK INTRA:                  -0.197
REMARK UNBOUND:                -0.367
REMARK SMILES Oc1cc(O)c2cc(O)c(-c3cc(O)c(O)c(O)c3)[o+]c2c1
REMARK SMILES IDX 10 1 20 2 21 3 22 4 2 5 3 6 4 7 6 8 7 9 8 10 11 11 12 12
REMARK SMILES IDX 13 13 19 14 15 15 17 16 14 17 16 19 18 21 9 23 1 25 5 27
REMARK H PARENT 14 18 16 20 18 22 9 24 1 26 5 28
REMARK Flexibility Score: inf
ROOT
ATOM      1  C   UNL     1     -32.117  14.459   1.941  1.00  0.00     0.402 A 
ATOM      2  O   UNL     1     -30.948  14.406   2.572  1.00  0.00    -0.202 OA
ATOM      3  C   UNL     1     -29.805  14.812   2.027  1.00  0.00     0.368 A 
ATOM      4  C   UNL     1     -28.626  14.719   2.772  1.00  0.00     0.162 A 
ATOM      5  C   UNL     1     -27.411  15.141   2.224  1.00  0.00     0.128 A 
ATOM      6  C   UNL     1     -27.376  15.660   0.927  1.00  0.00     0.093 A 
ATOM      7  C   UNL     1     -28.543  15.764   0.161  1.00  0.00     0.136 A 
ATOM      8  C   UNL     1     -29.779  15.334   0.711  1.00  0.00     0.125 A 
ATOM      9  C   UNL     1     -30.996  15.389   0.012  1.00  0.00     0.078 A 
ATOM     10  C   UNL     1     -32.173  14.941   0.619  1.00  0.00     0.223 A 
ENDROOT
BRANCH   1  11
ATOM     11  C   UNL     1     -33.323  13.986   2.658  1.00  0.00     0.091 A 
ATOM     12  C   UNL     1     -33.767  14.682   3.794  1.00  0.00     0.068 A 
ATOM     13  C   UNL     1     -34.917  14.267   4.480  1.00  0.00     0.162 A 
ATOM     14  C   UNL     1     -34.068  12.889   2.195  1.00  0.00     0.068 A 
ATOM     15  C   UNL     1     -35.644  13.156   4.022  1.00  0.00     0.200 A 
ATOM     16  C   UNL     1     -35.217  12.470   2.873  1.00  0.00     0.162 A 
BRANCH  13  17
ATOM     17  O   UNL     1     -35.339  14.959   5.616  1.00  0.00    -0.504 OA
ATOM     18  H   UNL     1     -35.591  14.475   6.469  1.00  0.00     0.293 HD
ENDBRANCH  13  17
BRANCH  15  19
ATOM     19  O   UNL     1     -36.790  12.729   4.695  1.00  0.00    -0.502 OA
ATOM     20  H   UNL     1     -36.750  12.313   5.618  1.00  0.00     0.293 HD
ENDBRANCH  15  19
BRANCH  16  21
ATOM     21  O   UNL     1     -35.926  11.372   2.385  1.00  0.00    -0.504 OA
ATOM     22  H   UNL     1     -36.203  11.297   1.414  1.00  0.00     0.293 HD
ENDBRANCH  16  21
ENDBRANCH   1  11
BRANCH  10  23
ATOM     23  O   UNL     1     -33.374  14.948  -0.091  1.00  0.00    -0.500 OA
ATOM     24  H   UNL     1     -34.189  14.441   0.235  1.00  0.00     0.294 HD
ENDBRANCH  10  23
BRANCH   5  25
ATOM     25  O   UNL     1     -26.232  15.051   2.960  1.00  0.00    -0.507 OA
ATOM     26  H   UNL     1     -26.237  15.068   3.973  1.00  0.00     0.293 HD
ENDBRANCH   5  25
BRANCH   7  27
ATOM     27  O   UNL     1     -28.423  16.296  -1.125  1.00  0.00    -0.507 OA
ATOM     28  H   UNL     1     -29.195  16.430  -1.762  1.00  0.00     0.293 HD
ENDBRANCH   7  27
TORSDOF 7
ENDMDL
MODEL 7
REMARK VINA RESULT:    -7.014      1.459      7.201
REMARK INTER + INTRA:          -9.022
REMARK INTER:                  -8.724
REMARK INTRA:                  -0.298
REMARK UNBOUND:                -0.367
REMARK SMILES Oc1cc(O)c2cc(O)c(-c3cc(O)c(O)c(O)c3)[o+]c2c1
REMARK SMILES IDX 10 1 20 2 21 3 22 4 2 5 3 6 4 7 6 8 7 9 8 10 11 11 12 12
REMARK SMILES IDX 13 13 19 14 15 15 17 16 14 17 16 19 18 21 9 23 1 25 5 27
REMARK H PARENT 14 18 16 20 18 22 9 24 1 26 5 28
REMARK Flexibility Score: inf
ROOT
ATOM      1  C   UNL     1     -38.355  11.901   8.644  1.00  0.00     0.402 A 
ATOM      2  O   UNL     1     -39.088  12.972   8.931  1.00  0.00    -0.202 OA
ATOM      3  C   UNL     1     -40.040  12.979   9.859  1.00  0.00     0.368 A 
ATOM      4  C   UNL     1     -40.756  14.156  10.091  1.00  0.00     0.162 A 
ATOM      5  C   UNL     1     -41.760  14.191  11.063  1.00  0.00     0.128 A 
ATOM      6  C   UNL     1     -42.049  13.044  11.806  1.00  0.00     0.093 A 
ATOM      7  C   UNL     1     -41.346  11.853  11.593  1.00  0.00     0.136 A 
ATOM      8  C   UNL     1     -40.327  11.810  10.606  1.00  0.00     0.125 A 
ATOM      9  C   UNL     1     -39.581  10.657  10.315  1.00  0.00     0.078 A 
ATOM     10  C   UNL     1     -38.595  10.691   9.324  1.00  0.00     0.223 A 
ENDROOT
BRANCH   1  11
ATOM     11  C   UNL     1     -37.317  12.022   7.596  1.00  0.00     0.091 A 
ATOM     12  C   UNL     1     -37.544  11.456   6.332  1.00  0.00     0.068 A 
ATOM     13  C   UNL     1     -36.586  11.573   5.315  1.00  0.00     0.162 A 
ATOM     14  C   UNL     1     -36.131  12.740   7.819  1.00  0.00     0.068 A 
ATOM     15  C   UNL     1     -35.393  12.276   5.553  1.00  0.00     0.200 A 
ATOM     16  C   UNL     1     -35.170  12.863   6.810  1.00  0.00     0.162 A 
BRANCH  13  17
ATOM     17  O   UNL     1     -36.818  10.994   4.067  1.00  0.00    -0.504 OA
ATOM     18  H   UNL     1     -36.137  10.385   3.629  1.00  0.00     0.293 HD
ENDBRANCH  13  17
BRANCH  15  19
ATOM     19  O   UNL     1     -34.428  12.400   4.553  1.00  0.00    -0.502 OA
ATOM     20  H   UNL     1     -34.085  13.302   4.242  1.00  0.00     0.293 HD
ENDBRANCH  15  19
BRANCH  16  21
ATOM     21  O   UNL     1     -34.003  13.579   7.073  1.00  0.00    -0.504 OA
ATOM     22  H   UNL     1     -33.083  13.198   6.888  1.00  0.00     0.293 HD
ENDBRANCH  16  21
ENDBRANCH   1  11
BRANCH  10  23
ATOM     23  O   UNL     1     -37.888   9.534   9.000  1.00  0.00    -0.500 OA
ATOM     24  H   UNL     1     -37.157   9.170   9.601  1.00  0.00     0.294 HD
ENDBRANCH  10  23
BRANCH   5  25
ATOM     25  O   UNL     1     -42.478  15.362  11.299  1.00  0.00    -0.507 OA
ATOM     26  H   UNL     1     -42.670  15.685  12.240  1.00  0.00     0.293 HD
ENDBRANCH   5  25
BRANCH   7  27
ATOM     27  O   UNL     1     -41.693  10.752  12.381  1.00  0.00    -0.507 OA
ATOM     28  H   UNL     1     -41.093   9.956  12.546  1.00  0.00     0.293 HD
ENDBRANCH   7  27
TORSDOF 7
ENDMDL
MODEL 8
REMARK VINA RESULT:    -6.989      1.185      7.166
REMARK INTER + INTRA:          -8.990
REMARK INTER:                  -8.624
REMARK INTRA:                  -0.367
REMARK UNBOUND:                -0.367
REMARK SMILES Oc1cc(O)c2cc(O)c(-c3cc(O)c(O)c(O)c3)[o+]c2c1
REMARK SMILES IDX 10 1 20 2 21 3 22 4 2 5 3 6 4 7 6 8 7 9 8 10 11 11 12 12
REMARK SMILES IDX 13 13 19 14 15 15 17 16 14 17 16 19 18 21 9 23 1 25 5 27
REMARK H PARENT 14 18 16 20 18 22 9 24 1 26 5 28
REMARK Flexibility Score: inf
ROOT
ATOM      1  C   UNL     1     -37.753  11.621   8.054  1.00  0.00     0.402 A 
ATOM      2  O   UNL     1     -38.776  12.380   8.433  1.00  0.00    -0.202 OA
ATOM      3  C   UNL     1     -39.592  12.061   9.433  1.00  0.00     0.368 A 
ATOM      4  C   UNL     1     -40.640  12.925   9.759  1.00  0.00     0.162 A 
ATOM      5  C   UNL     1     -41.510  12.614  10.808  1.00  0.00     0.128 A 
ATOM      6  C   UNL     1     -41.329  11.436  11.536  1.00  0.00     0.093 A 
ATOM      7  C   UNL     1     -40.286  10.554  11.229  1.00  0.00     0.136 A 
ATOM      8  C   UNL     1     -39.402  10.862  10.163  1.00  0.00     0.125 A 
ATOM      9  C   UNL     1     -38.338  10.031   9.777  1.00  0.00     0.078 A 
ATOM     10  C   UNL     1     -37.511  10.400   8.712  1.00  0.00     0.223 A 
ENDROOT
BRANCH   1  11
ATOM     11  C   UNL     1     -36.910  12.091   6.930  1.00  0.00     0.091 A 
ATOM     12  C   UNL     1     -35.834  12.954   7.189  1.00  0.00     0.068 A 
ATOM     13  C   UNL     1     -35.009  13.398   6.147  1.00  0.00     0.162 A 
ATOM     14  C   UNL     1     -37.128  11.646   5.616  1.00  0.00     0.068 A 
ATOM     15  C   UNL     1     -35.246  12.964   4.831  1.00  0.00     0.200 A 
ATOM     16  C   UNL     1     -36.308  12.082   4.570  1.00  0.00     0.162 A 
BRANCH  13  17
ATOM     17  O   UNL     1     -33.952  14.267   6.416  1.00  0.00    -0.504 OA
ATOM     18  H   UNL     1     -33.656  14.967   5.746  1.00  0.00     0.293 HD
ENDBRANCH  13  17
BRANCH  15  19
ATOM     19  O   UNL     1     -34.435  13.398   3.782  1.00  0.00    -0.502 OA
ATOM     20  H   UNL     1     -34.133  12.776   3.041  1.00  0.00     0.293 HD
ENDBRANCH  15  19
BRANCH  16  21
ATOM     21  O   UNL     1     -36.560  11.622   3.278  1.00  0.00    -0.504 OA
ATOM     22  H   UNL     1     -35.815  11.388   2.633  1.00  0.00     0.293 HD
ENDBRANCH  16  21
ENDBRANCH   1  11
BRANCH  10  23
ATOM     23  O   UNL     1     -36.485   9.552   8.295  1.00  0.00    -0.500 OA
ATOM     24  H   UNL     1     -36.676   8.685   7.807  1.00  0.00     0.294 HD
ENDBRANCH  10  23
BRANCH   5  25
ATOM     25  O   UNL     1     -42.557  13.472  11.138  1.00  0.00    -0.507 OA
ATOM     26  H   UNL     1     -43.234  13.773  10.446  1.00  0.00     0.293 HD
ENDBRANCH   5  25
BRANCH   7  27
ATOM     27  O   UNL     1     -40.172   9.398  12.006  1.00  0.00    -0.507 OA
ATOM     28  H   UNL     1     -39.313   9.076  12.429  1.00  0.00     0.293 HD
ENDBRANCH   7  27
TORSDOF 7
ENDMDL
MODEL 9
REMARK VINA RESULT:    -6.828      2.601      8.091
REMARK INTER + INTRA:          -8.791
REMARK INTER:                  -8.434
REMARK INTRA:                  -0.357
REMARK UNBOUND:                -0.367
REMARK SMILES Oc1cc(O)c2cc(O)c(-c3cc(O)c(O)c(O)c3)[o+]c2c1
REMARK SMILES IDX 10 1 20 2 21 3 22 4 2 5 3 6 4 7 6 8 7 9 8 10 11 11 12 12
REMARK SMILES IDX 13 13 19 14 15 15 17 16 14 17 16 19 18 21 9 23 1 25 5 27
REMARK H PARENT 14 18 16 20 18 22 9 24 1 26 5 28
REMARK Flexibility Score: inf
ROOT
ATOM      1  C   UNL     1     -35.368  13.024   5.501  1.00  0.00     0.402 A 
ATOM      2  O   UNL     1     -36.018  13.791   6.371  1.00  0.00    -0.202 OA
ATOM      3  C   UNL     1     -36.701  13.306   7.403  1.00  0.00     0.368 A 
ATOM      4  C   UNL     1     -37.351  14.192   8.266  1.00  0.00     0.162 A 
ATOM      5  C   UNL     1     -38.073  13.708   9.361  1.00  0.00     0.128 A 
ATOM      6  C   UNL     1     -38.142  12.333   9.596  1.00  0.00     0.093 A 
ATOM      7  C   UNL     1     -37.499  11.425   8.747  1.00  0.00     0.136 A 
ATOM      8  C   UNL     1     -36.768  11.909   7.632  1.00  0.00     0.125 A 
ATOM      9  C   UNL     1     -36.103  11.072   6.721  1.00  0.00     0.078 A 
ATOM     10  C   UNL     1     -35.406  11.624   5.642  1.00  0.00     0.223 A 
ENDROOT
BRANCH   1  11
ATOM     11  C   UNL     1     -34.635  13.685   4.396  1.00  0.00     0.091 A 
ATOM     12  C   UNL     1     -35.249  13.811   3.140  1.00  0.00     0.068 A 
ATOM     13  C   UNL     1     -34.586  14.449   2.083  1.00  0.00     0.162 A 
ATOM     14  C   UNL     1     -33.359  14.239   4.591  1.00  0.00     0.068 A 
ATOM     15  C   UNL     1     -33.301  14.983   2.281  1.00  0.00     0.200 A 
ATOM     16  C   UNL     1     -32.691  14.879   3.542  1.00  0.00     0.162 A 
BRANCH  13  17
ATOM     17  O   UNL     1     -35.202  14.555   0.836  1.00  0.00    -0.504 OA
ATOM     18  H   UNL     1     -36.176  14.314   0.702  1.00  0.00     0.293 HD
ENDBRANCH  13  17
BRANCH  15  19
ATOM     19  O   UNL     1     -32.626  15.619   1.239  1.00  0.00    -0.502 OA
ATOM     20  H   UNL     1     -33.115  16.116   0.503  1.00  0.00     0.293 HD
ENDBRANCH  15  19
BRANCH  16  21
ATOM     21  O   UNL     1     -31.423  15.411   3.775  1.00  0.00    -0.504 OA
ATOM     22  H   UNL     1     -30.714  15.450   3.053  1.00  0.00     0.293 HD
ENDBRANCH  16  21
ENDBRANCH   1  11
BRANCH  10  23
ATOM     23  O   UNL     1     -34.787  10.792   4.709  1.00  0.00    -0.500 OA
ATOM     24  H   UNL     1     -35.324  10.192   4.092  1.00  0.00     0.294 HD
ENDBRANCH  10  23
BRANCH   5  25
ATOM     25  O   UNL     1     -38.724  14.587  10.225  1.00  0.00    -0.507 OA
ATOM     26  H   UNL     1     -39.335  15.317   9.877  1.00  0.00     0.293 HD
ENDBRANCH   5  25
BRANCH   7  27
ATOM     27  O   UNL     1     -37.615  10.066   9.052  1.00  0.00    -0.507 OA
ATOM     28  H   UNL     1     -37.310   9.317   8.448  1.00  0.00     0.293 HD
ENDBRANCH   7  27
TORSDOF 7
ENDMDL
