MODEL 1
REMARK VINA RESULT:    -6.316      0.000      0.000
REMARK INTER + INTRA:          -7.761
REMARK INTER:                  -7.609
REMARK INTRA:                  -0.152
REMARK UNBOUND:                -0.152
REMARK SMILES O=c1c(O)c(-c2ccc(O)c(O)c2)oc2cc(O)cc(O)c12
REMARK SMILES IDX 5 1 3 2 2 3 1 4 22 5 20 6 19 7 17 8 16 9 15 10 14 11 6 12
REMARK SMILES IDX 7 13 8 14 9 15 13 16 11 17 10 18 12 20 4 22 21 24 18 26
REMARK H PARENT 10 19 12 21 4 23 21 25 18 27
REMARK Flexibility Score: inf
ROOT
ATOM      1  C   UNL     1      18.403  -1.224 -16.563  1.00  0.00     0.180 A 
ATOM      2  C   UNL     1      17.691  -0.372 -15.702  1.00  0.00     0.208 A 
ATOM      3  C   UNL     1      16.931  -0.935 -14.663  1.00  0.00     0.238 A 
ATOM      4  O   UNL     1      16.340  -0.164 -13.862  1.00  0.00    -0.285 OA
ATOM      5  C   UNL     1      16.880  -2.341 -14.508  1.00  0.00     0.111 A 
ATOM      6  C   UNL     1      16.110  -3.020 -13.516  1.00  0.00     0.134 A 
ATOM      7  C   UNL     1      16.238  -4.407 -13.374  1.00  0.00     0.093 A 
ATOM      8  C   UNL     1      17.057  -5.147 -14.230  1.00  0.00     0.123 A 
ATOM      9  C   UNL     1      17.766  -4.500 -15.240  1.00  0.00     0.094 A 
ATOM     10  C   UNL     1      17.688  -3.113 -15.384  1.00  0.00     0.146 A 
ATOM     11  O   UNL     1      18.388  -2.535 -16.353  1.00  0.00    -0.452 OA
ENDROOT
BRANCH   1  12
ATOM     12  C   UNL     1      19.205  -0.708 -17.695  1.00  0.00     0.025 A 
ATOM     13  C   UNL     1      18.803  -0.985 -19.011  1.00  0.00     0.016 A 
ATOM     14  C   UNL     1      19.532  -0.490 -20.094  1.00  0.00     0.051 A 
ATOM     15  C   UNL     1      20.666   0.302 -19.881  1.00  0.00     0.157 A 
ATOM     16  C   UNL     1      20.333   0.107 -17.483  1.00  0.00     0.062 A 
ATOM     17  C   UNL     1      21.066   0.605 -18.570  1.00  0.00     0.158 A 
BRANCH  15  18
ATOM     18  O   UNL     1      21.376   0.779 -20.982  1.00  0.00    -0.504 OA
ATOM     19  H   UNL     1      21.383   0.289 -21.869  1.00  0.00     0.293 HD
ENDBRANCH  15  18
BRANCH  17  20
ATOM     20  O   UNL     1      22.186   1.406 -18.349  1.00  0.00    -0.504 OA
ATOM     21  H   UNL     1      23.060   1.016 -18.016  1.00  0.00     0.293 HD
ENDBRANCH  17  20
ENDBRANCH   1  12
BRANCH   2  22
ATOM     22  O   UNL     1      17.772   1.014 -15.858  1.00  0.00    -0.502 OA
ATOM     23  H   UNL     1      18.516   1.460 -16.382  1.00  0.00     0.293 HD
ENDBRANCH   2  22
BRANCH   6  24
ATOM     24  O   UNL     1      15.194  -2.387 -12.672  1.00  0.00    -0.507 OA
ATOM     25  H   UNL     1      14.297  -2.029 -12.961  1.00  0.00     0.293 HD
ENDBRANCH   6  24
BRANCH   8  26
ATOM     26  O   UNL     1      17.166  -6.529 -14.091  1.00  0.00    -0.508 OA
ATOM     27  H   UNL     1      17.517  -6.951 -13.240  1.00  0.00     0.293 HD
ENDBRANCH   8  26
TORSDOF 6
ENDMDL
MODEL 2
REMARK VINA RESULT:    -6.151      2.272      6.889
REMARK INTER + INTRA:          -7.562
REMARK INTER:                  -7.239
REMARK INTRA:                  -0.322
REMARK UNBOUND:                -0.152
REMARK SMILES O=c1c(O)c(-c2ccc(O)c(O)c2)oc2cc(O)cc(O)c12
REMARK SMILES IDX 5 1 3 2 2 3 1 4 22 5 20 6 19 7 17 8 16 9 15 10 14 11 6 12
REMARK SMILES IDX 7 13 8 14 9 15 13 16 11 17 10 18 12 20 4 22 21 24 18 26
REMARK H PARENT 10 19 12 21 4 23 21 25 18 27
REMARK Flexibility Score: inf
ROOT
ATOM      1  C   UNL     1      17.587  -0.183 -15.205  1.00  0.00     0.180 A 
ATOM      2  C   UNL     1      18.592   0.625 -14.646  1.00  0.00     0.208 A 
ATOM      3  C   UNL     1      19.728   0.927 -15.414  1.00  0.00     0.238 A 
ATOM      4  O   UNL     1      20.598   1.697 -14.928  1.00  0.00    -0.285 OA
ATOM      5  C   UNL     1      19.853   0.406 -16.724  1.00  0.00     0.111 A 
ATOM      6  C   UNL     1      20.980   0.614 -17.575  1.00  0.00     0.134 A 
ATOM      7  C   UNL     1      20.938   0.158 -18.898  1.00  0.00     0.093 A 
ATOM      8  C   UNL     1      19.838  -0.555 -19.381  1.00  0.00     0.123 A 
ATOM      9  C   UNL     1      18.760  -0.816 -18.539  1.00  0.00     0.094 A 
ATOM     10  C   UNL     1      18.756  -0.342 -17.224  1.00  0.00     0.146 A 
ATOM     11  O   UNL     1      17.703  -0.605 -16.459  1.00  0.00    -0.452 OA
ENDROOT
BRANCH   1  12
ATOM     12  C   UNL     1      16.373  -0.566 -14.449  1.00  0.00     0.025 A 
ATOM     13  C   UNL     1      16.385  -1.729 -13.664  1.00  0.00     0.016 A 
ATOM     14  C   UNL     1      15.258  -2.098 -12.926  1.00  0.00     0.051 A 
ATOM     15  C   UNL     1      14.107  -1.303 -12.948  1.00  0.00     0.157 A 
ATOM     16  C   UNL     1      15.222   0.243 -14.453  1.00  0.00     0.062 A 
ATOM     17  C   UNL     1      14.090  -0.125 -13.711  1.00  0.00     0.158 A 
BRANCH  15  18
ATOM     18  O   UNL     1      12.996  -1.699 -12.204  1.00  0.00    -0.504 OA
ATOM     19  H   UNL     1      12.845  -2.665 -11.938  1.00  0.00     0.293 HD
ENDBRANCH  15  18
BRANCH  17  20
ATOM     20  O   UNL     1      12.952   0.680 -13.727  1.00  0.00    -0.504 OA
ATOM     21  H   UNL     1      12.112   0.404 -14.223  1.00  0.00     0.293 HD
ENDBRANCH  17  20
ENDBRANCH   1  12
BRANCH   2  22
ATOM     22  O   UNL     1      18.439   1.148 -13.359  1.00  0.00    -0.502 OA
ATOM     23  H   UNL     1      18.168   0.576 -12.567  1.00  0.00     0.293 HD
ENDBRANCH   2  22
BRANCH   6  24
ATOM     24  O   UNL     1      22.163   1.234 -17.165  1.00  0.00    -0.507 OA
ATOM     25  H   UNL     1      22.324   2.230 -17.173  1.00  0.00     0.293 HD
ENDBRANCH   6  24
BRANCH   8  26
ATOM     26  O   UNL     1      19.812  -1.019 -20.694  1.00  0.00    -0.508 OA
ATOM     27  H   UNL     1      19.990  -1.990 -20.917  1.00  0.00     0.293 HD
ENDBRANCH   8  26
TORSDOF 6
ENDMDL
MODEL 3
REMARK VINA RESULT:    -6.107      6.935      9.574
REMARK INTER + INTRA:          -7.509
REMARK INTER:                  -7.289
REMARK INTRA:                  -0.220
REMARK UNBOUND:                -0.152
REMARK SMILES O=c1c(O)c(-c2ccc(O)c(O)c2)oc2cc(O)cc(O)c12
REMARK SMILES IDX 5 1 3 2 2 3 1 4 22 5 20 6 19 7 17 8 16 9 15 10 14 11 6 12
REMARK SMILES IDX 7 13 8 14 9 15 13 16 11 17 10 18 12 20 4 22 21 24 18 26
REMARK H PARENT 10 19 12 21 4 23 21 25 18 27
REMARK Flexibility Score: inf
ROOT
ATOM      1  C   UNL     1      19.010  -2.568  -8.548  1.00  0.00     0.180 A 
ATOM      2  C   UNL     1      18.953  -2.791  -7.162  1.00  0.00     0.208 A 
ATOM      3  C   UNL     1      20.151  -2.973  -6.452  1.00  0.00     0.238 A 
ATOM      4  O   UNL     1      20.096  -3.117  -5.203  1.00  0.00    -0.285 OA
ATOM      5  C   UNL     1      21.389  -2.945  -7.138  1.00  0.00     0.111 A 
ATOM      6  C   UNL     1      22.660  -3.157  -6.525  1.00  0.00     0.134 A 
ATOM      7  C   UNL     1      23.827  -2.977  -7.278  1.00  0.00     0.093 A 
ATOM      8  C   UNL     1      23.767  -2.657  -8.637  1.00  0.00     0.123 A 
ATOM      9  C   UNL     1      22.529  -2.507  -9.257  1.00  0.00     0.094 A 
ATOM     10  C   UNL     1      21.347  -2.644  -8.525  1.00  0.00     0.146 A 
ATOM     11  O   UNL     1      20.189  -2.482  -9.153  1.00  0.00    -0.452 OA
ENDROOT
BRANCH   1  12
ATOM     12  C   UNL     1      17.790  -2.393  -9.369  1.00  0.00     0.025 A 
ATOM     13  C   UNL     1      17.556  -1.165 -10.007  1.00  0.00     0.016 A 
ATOM     14  C   UNL     1      16.423  -0.985 -10.803  1.00  0.00     0.051 A 
ATOM     15  C   UNL     1      15.513  -2.032 -10.987  1.00  0.00     0.157 A 
ATOM     16  C   UNL     1      16.885  -3.451  -9.572  1.00  0.00     0.062 A 
ATOM     17  C   UNL     1      15.747  -3.273 -10.372  1.00  0.00     0.158 A 
BRANCH  15  18
ATOM     18  O   UNL     1      14.390  -1.821 -11.785  1.00  0.00    -0.504 OA
ATOM     19  H   UNL     1      14.108  -2.481 -12.500  1.00  0.00     0.293 HD
ENDBRANCH  15  18
BRANCH  17  20
ATOM     20  O   UNL     1      14.853  -4.325 -10.561  1.00  0.00    -0.504 OA
ATOM     21  H   UNL     1      13.953  -4.348 -10.097  1.00  0.00     0.293 HD
ENDBRANCH  17  20
ENDBRANCH   1  12
BRANCH   2  22
ATOM     22  O   UNL     1      17.722  -2.794  -6.500  1.00  0.00    -0.502 OA
ATOM     23  H   UNL     1      17.095  -3.590  -6.520  1.00  0.00     0.293 HD
ENDBRANCH   2  22
BRANCH   6  24
ATOM     24  O   UNL     1      22.829  -3.568  -5.200  1.00  0.00    -0.507 OA
ATOM     25  H   UNL     1      22.075  -3.778  -4.563  1.00  0.00     0.293 HD
ENDBRANCH   6  24
BRANCH   8  26
ATOM     26  O   UNL     1      24.933  -2.495  -9.381  1.00  0.00    -0.508 OA
ATOM     27  H   UNL     1      25.846  -2.496  -8.943  1.00  0.00     0.293 HD
ENDBRANCH   8  26
TORSDOF 6
ENDMDL
MODEL 4
REMARK VINA RESULT:    -6.079      7.111     10.637
REMARK INTER + INTRA:          -7.476
REMARK INTER:                  -7.173
REMARK INTRA:                  -0.302
REMARK UNBOUND:                -0.152
REMARK SMILES O=c1c(O)c(-c2ccc(O)c(O)c2)oc2cc(O)cc(O)c12
REMARK SMILES IDX 5 1 3 2 2 3 1 4 22 5 20 6 19 7 17 8 16 9 15 10 14 11 6 12
REMARK SMILES IDX 7 13 8 14 9 15 13 16 11 17 10 18 12 20 4 22 21 24 18 26
REMARK H PARENT 10 19 12 21 4 23 21 25 18 27
REMARK Flexibility Score: inf
ROOT
ATOM      1  C   UNL     1      11.343  -6.108 -10.774  1.00  0.00     0.180 A 
ATOM      2  C   UNL     1      11.120  -6.335  -9.405  1.00  0.00     0.208 A 
ATOM      3  C   UNL     1       9.954  -7.011  -9.008  1.00  0.00     0.238 A 
ATOM      4  O   UNL     1       9.787  -7.259  -7.785  1.00  0.00    -0.285 OA
ATOM      5  C   UNL     1       9.020  -7.437  -9.982  1.00  0.00     0.111 A 
ATOM      6  C   UNL     1       7.787  -8.095  -9.690  1.00  0.00     0.134 A 
ATOM      7  C   UNL     1       7.002  -8.587 -10.740  1.00  0.00     0.093 A 
ATOM      8  C   UNL     1       7.373  -8.388 -12.072  1.00  0.00     0.123 A 
ATOM      9  C   UNL     1       8.544  -7.695 -12.368  1.00  0.00     0.094 A 
ATOM     10  C   UNL     1       9.368  -7.224 -11.342  1.00  0.00     0.146 A 
ATOM     11  O   UNL     1      10.480  -6.577 -11.668  1.00  0.00    -0.452 OA
ENDROOT
BRANCH   1  12
ATOM     12  C   UNL     1      12.534  -5.381 -11.267  1.00  0.00     0.025 A 
ATOM     13  C   UNL     1      13.741  -6.073 -11.447  1.00  0.00     0.016 A 
ATOM     14  C   UNL     1      14.872  -5.413 -11.932  1.00  0.00     0.051 A 
ATOM     15  C   UNL     1      14.811  -4.054 -12.259  1.00  0.00     0.157 A 
ATOM     16  C   UNL     1      12.469  -4.020 -11.617  1.00  0.00     0.062 A 
ATOM     17  C   UNL     1      13.603  -3.354 -12.106  1.00  0.00     0.158 A 
BRANCH  15  18
ATOM     18  O   UNL     1      15.957  -3.420 -12.738  1.00  0.00    -0.504 OA
ATOM     19  H   UNL     1      16.172  -3.375 -13.728  1.00  0.00     0.293 HD
ENDBRANCH  15  18
BRANCH  17  20
ATOM     20  O   UNL     1      13.531  -2.004 -12.443  1.00  0.00    -0.504 OA
ATOM     21  H   UNL     1      14.191  -1.580 -13.084  1.00  0.00     0.293 HD
ENDBRANCH  17  20
ENDBRANCH   1  12
BRANCH   2  22
ATOM     22  O   UNL     1      12.065  -5.925  -8.461  1.00  0.00    -0.502 OA
ATOM     23  H   UNL     1      13.045  -6.171  -8.530  1.00  0.00     0.293 HD
ENDBRANCH   2  22
BRANCH   6  24
ATOM     24  O   UNL     1       7.280  -8.264  -8.399  1.00  0.00    -0.507 OA
ATOM     25  H   UNL     1       7.205  -9.150  -7.922  1.00  0.00     0.293 HD
ENDBRANCH   6  24
BRANCH   8  26
ATOM     26  O   UNL     1       6.578  -8.868 -13.110  1.00  0.00    -0.508 OA
ATOM     27  H   UNL     1       6.887  -8.837 -14.074  1.00  0.00     0.293 HD
ENDBRANCH   8  26
TORSDOF 6
ENDMDL
MODEL 5
REMARK VINA RESULT:    -5.778      2.501      4.259
REMARK INTER + INTRA:          -7.112
REMARK INTER:                  -6.820
REMARK INTRA:                  -0.293
REMARK UNBOUND:                -0.152
REMARK SMILES O=c1c(O)c(-c2ccc(O)c(O)c2)oc2cc(O)cc(O)c12
REMARK SMILES IDX 5 1 3 2 2 3 1 4 22 5 20 6 19 7 17 8 16 9 15 10 14 11 6 12
REMARK SMILES IDX 7 13 8 14 9 15 13 16 11 17 10 18 12 20 4 22 21 24 18 26
REMARK H PARENT 10 19 12 21 4 23 21 25 18 27
REMARK Flexibility Score: inf
ROOT
ATOM      1  C   UNL     1      17.108  -0.421 -15.280  1.00  0.00     0.180 A 
ATOM      2  C   UNL     1      17.024  -1.535 -14.428  1.00  0.00     0.208 A 
ATOM      3  C   UNL     1      15.867  -1.714 -13.654  1.00  0.00     0.238 A 
ATOM      4  O   UNL     1      15.775  -2.743 -12.934  1.00  0.00    -0.285 OA
ATOM      5  C   UNL     1      14.815  -0.769 -13.729  1.00  0.00     0.111 A 
ATOM      6  C   UNL     1      13.615  -0.830 -12.959  1.00  0.00     0.134 A 
ATOM      7  C   UNL     1      12.587   0.087 -13.210  1.00  0.00     0.093 A 
ATOM      8  C   UNL     1      12.742   1.103 -14.158  1.00  0.00     0.123 A 
ATOM      9  C   UNL     1      13.934   1.206 -14.871  1.00  0.00     0.094 A 
ATOM     10  C   UNL     1      14.964   0.284 -14.669  1.00  0.00     0.146 A 
ATOM     11  O   UNL     1      16.079   0.413 -15.378  1.00  0.00    -0.452 OA
ENDROOT
BRANCH   1  12
ATOM     12  C   UNL     1      18.306  -0.151 -16.109  1.00  0.00     0.025 A 
ATOM     13  C   UNL     1      19.277   0.750 -15.646  1.00  0.00     0.016 A 
ATOM     14  C   UNL     1      20.424   1.004 -16.401  1.00  0.00     0.051 A 
ATOM     15  C   UNL     1      20.627   0.350 -17.621  1.00  0.00     0.157 A 
ATOM     16  C   UNL     1      18.521  -0.823 -17.326  1.00  0.00     0.062 A 
ATOM     17  C   UNL     1      19.674  -0.571 -18.085  1.00  0.00     0.158 A 
BRANCH  15  18
ATOM     18  O   UNL     1      21.781   0.626 -18.354  1.00  0.00    -0.504 OA
ATOM     19  H   UNL     1      22.700   0.628 -17.927  1.00  0.00     0.293 HD
ENDBRANCH  15  18
BRANCH  17  20
ATOM     20  O   UNL     1      19.875  -1.236 -19.292  1.00  0.00    -0.504 OA
ATOM     21  H   UNL     1      20.389  -0.810 -20.055  1.00  0.00     0.293 HD
ENDBRANCH  17  20
ENDBRANCH   1  12
BRANCH   2  22
ATOM     22  O   UNL     1      18.065  -2.467 -14.385  1.00  0.00    -0.502 OA
ATOM     23  H   UNL     1      18.078  -3.238 -13.728  1.00  0.00     0.293 HD
ENDBRANCH   2  22
BRANCH   6  24
ATOM     24  O   UNL     1      13.395  -1.746 -11.927  1.00  0.00    -0.507 OA
ATOM     25  H   UNL     1      13.678  -1.612 -10.968  1.00  0.00     0.293 HD
ENDBRANCH   6  24
BRANCH   8  26
ATOM     26  O   UNL     1      11.720   2.020 -14.389  1.00  0.00    -0.508 OA
ATOM     27  H   UNL     1      11.130   1.961 -15.210  1.00  0.00     0.293 HD
ENDBRANCH   8  26
TORSDOF 6
ENDMDL
MODEL 6
REMARK VINA RESULT:    -5.735      4.566      6.878
REMARK INTER + INTRA:          -7.061
REMARK INTER:                  -6.799
REMARK INTRA:                  -0.262
REMARK UNBOUND:                -0.152
REMARK SMILES O=c1c(O)c(-c2ccc(O)c(O)c2)oc2cc(O)cc(O)c12
REMARK SMILES IDX 5 1 3 2 2 3 1 4 22 5 20 6 19 7 17 8 16 9 15 10 14 11 6 12
REMARK SMILES IDX 7 13 8 14 9 15 13 16 11 17 10 18 12 20 4 22 21 24 18 26
REMARK H PARENT 10 19 12 21 4 23 21 25 18 27
REMARK Flexibility Score: inf
ROOT
ATOM      1  C   UNL     1      16.212  -1.068 -11.767  1.00  0.00     0.180 A 
ATOM      2  C   UNL     1      15.868  -2.384 -11.412  1.00  0.00     0.208 A 
ATOM      3  C   UNL     1      16.407  -2.935 -10.238  1.00  0.00     0.238 A 
ATOM      4  O   UNL     1      16.053  -4.094  -9.897  1.00  0.00    -0.285 OA
ATOM      5  C   UNL     1      17.293  -2.170  -9.442  1.00  0.00     0.111 A 
ATOM      6  C   UNL     1      17.929  -2.643  -8.255  1.00  0.00     0.134 A 
ATOM      7  C   UNL     1      18.684  -1.756  -7.477  1.00  0.00     0.093 A 
ATOM      8  C   UNL     1      18.880  -0.432  -7.879  1.00  0.00     0.123 A 
ATOM      9  C   UNL     1      18.313   0.021  -9.067  1.00  0.00     0.094 A 
ATOM     10  C   UNL     1      17.524  -0.829  -9.846  1.00  0.00     0.146 A 
ATOM     11  O   UNL     1      16.994  -0.353 -10.966  1.00  0.00    -0.452 OA
ENDROOT
BRANCH   1  12
ATOM     12  C   UNL     1      15.704  -0.428 -13.002  1.00  0.00     0.025 A 
ATOM     13  C   UNL     1      16.544  -0.325 -14.121  1.00  0.00     0.016 A 
ATOM     14  C   UNL     1      16.079   0.256 -15.304  1.00  0.00     0.051 A 
ATOM     15  C   UNL     1      14.766   0.730 -15.391  1.00  0.00     0.157 A 
ATOM     16  C   UNL     1      14.377   0.030 -13.098  1.00  0.00     0.062 A 
ATOM     17  C   UNL     1      13.909   0.613 -14.284  1.00  0.00     0.158 A 
BRANCH  15  18
ATOM     18  O   UNL     1      14.332   1.308 -16.583  1.00  0.00    -0.504 OA
ATOM     19  H   UNL     1      14.315   0.792 -17.455  1.00  0.00     0.293 HD
ENDBRANCH  15  18
BRANCH  17  20
ATOM     20  O   UNL     1      12.595   1.069 -14.368  1.00  0.00    -0.504 OA
ATOM     21  H   UNL     1      11.807   0.455 -14.197  1.00  0.00     0.293 HD
ENDBRANCH  17  20
ENDBRANCH   1  12
BRANCH   2  22
ATOM     22  O   UNL     1      14.975  -3.115 -12.200  1.00  0.00    -0.502 OA
ATOM     23  H   UNL     1      14.767  -4.091 -12.026  1.00  0.00     0.293 HD
ENDBRANCH   2  22
BRANCH   6  24
ATOM     24  O   UNL     1      17.873  -3.967  -7.814  1.00  0.00    -0.507 OA
ATOM     25  H   UNL     1      18.245  -4.298  -6.936  1.00  0.00     0.293 HD
ENDBRANCH   6  24
BRANCH   8  26
ATOM     26  O   UNL     1      19.646   0.438  -7.106  1.00  0.00    -0.508 OA
ATOM     27  H   UNL     1      19.822   0.262  -6.125  1.00  0.00     0.293 HD
ENDBRANCH   8  26
TORSDOF 6
ENDMDL
MODEL 7
REMARK VINA RESULT:    -5.699      7.167     12.415
REMARK INTER + INTRA:          -7.017
REMARK INTER:                  -6.685
REMARK INTRA:                  -0.332
REMARK UNBOUND:                -0.152
REMARK SMILES O=c1c(O)c(-c2ccc(O)c(O)c2)oc2cc(O)cc(O)c12
REMARK SMILES IDX 5 1 3 2 2 3 1 4 22 5 20 6 19 7 17 8 16 9 15 10 14 11 6 12
REMARK SMILES IDX 7 13 8 14 9 15 13 16 11 17 10 18 12 20 4 22 21 24 18 26
REMARK H PARENT 10 19 12 21 4 23 21 25 18 27
REMARK Flexibility Score: inf
ROOT
ATOM      1  C   UNL     1      11.129  -6.380  -9.701  1.00  0.00     0.180 A 
ATOM      2  C   UNL     1      11.121  -7.599 -10.400  1.00  0.00     0.208 A 
ATOM      3  C   UNL     1      12.155  -7.867 -11.313  1.00  0.00     0.238 A 
ATOM      4  O   UNL     1      12.172  -8.983 -11.895  1.00  0.00    -0.285 OA
ATOM      5  C   UNL     1      13.174  -6.907 -11.526  1.00  0.00     0.111 A 
ATOM      6  C   UNL     1      14.246  -7.056 -12.456  1.00  0.00     0.134 A 
ATOM      7  C   UNL     1      15.268  -6.100 -12.490  1.00  0.00     0.093 A 
ATOM      8  C   UNL     1      15.223  -4.967 -11.673  1.00  0.00     0.123 A 
ATOM      9  C   UNL     1      14.149  -4.783 -10.805  1.00  0.00     0.094 A 
ATOM     10  C   UNL     1      13.133  -5.738 -10.722  1.00  0.00     0.146 A 
ATOM     11  O   UNL     1      12.133  -5.528  -9.874  1.00  0.00    -0.452 OA
ENDROOT
BRANCH   1  12
ATOM     12  C   UNL     1      10.061  -6.016  -8.742  1.00  0.00     0.025 A 
ATOM     13  C   UNL     1      10.253  -6.251  -7.372  1.00  0.00     0.016 A 
ATOM     14  C   UNL     1       9.269  -5.895  -6.447  1.00  0.00     0.051 A 
ATOM     15  C   UNL     1       8.084  -5.286  -6.875  1.00  0.00     0.157 A 
ATOM     16  C   UNL     1       8.879  -5.384  -9.168  1.00  0.00     0.062 A 
ATOM     17  C   UNL     1       7.889  -5.025  -8.241  1.00  0.00     0.158 A 
BRANCH  15  18
ATOM     18  O   UNL     1       7.118  -4.945  -5.929  1.00  0.00    -0.504 OA
ATOM     19  H   UNL     1       6.130  -4.928  -6.153  1.00  0.00     0.293 HD
ENDBRANCH  15  18
BRANCH  17  20
ATOM     20  O   UNL     1       6.718  -4.406  -8.673  1.00  0.00    -0.504 OA
ATOM     21  H   UNL     1       6.275  -4.658  -9.549  1.00  0.00     0.293 HD
ENDBRANCH  17  20
ENDBRANCH   1  12
BRANCH   2  22
ATOM     22  O   UNL     1      10.119  -8.542 -10.159  1.00  0.00    -0.502 OA
ATOM     23  H   UNL     1       9.417  -8.418  -9.439  1.00  0.00     0.293 HD
ENDBRANCH   2  22
BRANCH   6  24
ATOM     24  O   UNL     1      14.339  -8.102 -13.379  1.00  0.00    -0.507 OA
ATOM     25  H   UNL     1      14.949  -8.108 -14.182  1.00  0.00     0.293 HD
ENDBRANCH   6  24
BRANCH   8  26
ATOM     26  O   UNL     1      16.237  -4.013 -11.724  1.00  0.00    -0.508 OA
ATOM     27  H   UNL     1      17.023  -4.039 -11.086  1.00  0.00     0.293 HD
ENDBRANCH   8  26
TORSDOF 6
ENDMDL
MODEL 8
REMARK VINA RESULT:    -5.651      6.248      8.615
REMARK INTER + INTRA:          -6.960
REMARK INTER:                  -6.656
REMARK INTRA:                  -0.304
REMARK UNBOUND:                -0.152
REMARK SMILES O=c1c(O)c(-c2ccc(O)c(O)c2)oc2cc(O)cc(O)c12
REMARK SMILES IDX 5 1 3 2 2 3 1 4 22 5 20 6 19 7 17 8 16 9 15 10 14 11 6 12
REMARK SMILES IDX 7 13 8 14 9 15 13 16 11 17 10 18 12 20 4 22 21 24 18 26
REMARK H PARENT 10 19 12 21 4 23 21 25 18 27
REMARK Flexibility Score: inf
ROOT
ATOM      1  C   UNL     1      18.030  -2.050  -9.112  1.00  0.00     0.180 A 
ATOM      2  C   UNL     1      17.299  -0.850  -9.081  1.00  0.00     0.208 A 
ATOM      3  C   UNL     1      16.247  -0.671  -9.994  1.00  0.00     0.238 A 
ATOM      4  O   UNL     1      15.560   0.382  -9.924  1.00  0.00    -0.285 OA
ATOM      5  C   UNL     1      15.949  -1.685 -10.936  1.00  0.00     0.111 A 
ATOM      6  C   UNL     1      14.932  -1.592 -11.932  1.00  0.00     0.134 A 
ATOM      7  C   UNL     1      14.640  -2.708 -12.726  1.00  0.00     0.093 A 
ATOM      8  C   UNL     1      15.373  -3.891 -12.603  1.00  0.00     0.123 A 
ATOM      9  C   UNL     1      16.408  -3.971 -11.675  1.00  0.00     0.094 A 
ATOM     10  C   UNL     1      16.699  -2.887 -10.843  1.00  0.00     0.146 A 
ATOM     11  O   UNL     1      17.686  -3.009  -9.964  1.00  0.00    -0.452 OA
ENDROOT
BRANCH   1  12
ATOM     12  C   UNL     1      19.169  -2.302  -8.200  1.00  0.00     0.025 A 
ATOM     13  C   UNL     1      20.475  -2.030  -8.633  1.00  0.00     0.016 A 
ATOM     14  C   UNL     1      21.562  -2.240  -7.781  1.00  0.00     0.051 A 
ATOM     15  C   UNL     1      21.361  -2.711  -6.480  1.00  0.00     0.157 A 
ATOM     16  C   UNL     1      18.966  -2.755  -6.883  1.00  0.00     0.062 A 
ATOM     17  C   UNL     1      20.056  -2.965  -6.026  1.00  0.00     0.158 A 
BRANCH  15  18
ATOM     18  O   UNL     1      22.466  -2.914  -5.654  1.00  0.00    -0.504 OA
ATOM     19  H   UNL     1      22.509  -3.681  -4.994  1.00  0.00     0.293 HD
ENDBRANCH  15  18
BRANCH  17  20
ATOM     20  O   UNL     1      19.846  -3.421  -4.726  1.00  0.00    -0.504 OA
ATOM     21  H   UNL     1      19.980  -2.817  -3.923  1.00  0.00     0.293 HD
ENDBRANCH  17  20
ENDBRANCH   1  12
BRANCH   2  22
ATOM     22  O   UNL     1      17.595   0.129  -8.129  1.00  0.00    -0.502 OA
ATOM     23  H   UNL     1      18.359   0.035  -7.470  1.00  0.00     0.293 HD
ENDBRANCH   2  22
BRANCH   6  24
ATOM     24  O   UNL     1      14.204  -0.429 -12.199  1.00  0.00    -0.507 OA
ATOM     25  H   UNL     1      14.104   0.346 -11.560  1.00  0.00     0.293 HD
ENDBRANCH   6  24
BRANCH   8  26
ATOM     26  O   UNL     1      15.086  -4.991 -13.409  1.00  0.00    -0.508 OA
ATOM     27  H   UNL     1      15.559  -5.140 -14.292  1.00  0.00     0.293 HD
ENDBRANCH   8  26
TORSDOF 6
ENDMDL
MODEL 9
REMARK VINA RESULT:    -5.630      8.826     10.670
REMARK INTER + INTRA:          -6.935
REMARK INTER:                  -6.615
REMARK INTRA:                  -0.320
REMARK UNBOUND:                -0.152
REMARK SMILES O=c1c(O)c(-c2ccc(O)c(O)c2)oc2cc(O)cc(O)c12
REMARK SMILES IDX 5 1 3 2 2 3 1 4 22 5 20 6 19 7 17 8 16 9 15 10 14 11 6 12
REMARK SMILES IDX 7 13 8 14 9 15 13 16 11 17 10 18 12 20 4 22 21 24 18 26
REMARK H PARENT 10 19 12 21 4 23 21 25 18 27
REMARK Flexibility Score: inf
ROOT
ATOM      1  C   UNL     1      20.733  -1.409  -7.467  1.00  0.00     0.180 A 
ATOM      2  C   UNL     1      19.455  -1.812  -7.889  1.00  0.00     0.208 A 
ATOM      3  C   UNL     1      18.482  -0.832  -8.143  1.00  0.00     0.238 A 
ATOM      4  O   UNL     1      17.356  -1.196  -8.573  1.00  0.00    -0.285 OA
ATOM      5  C   UNL     1      18.793   0.536  -7.957  1.00  0.00     0.111 A 
ATOM      6  C   UNL     1      17.873   1.611  -8.146  1.00  0.00     0.134 A 
ATOM      7  C   UNL     1      18.327   2.932  -8.060  1.00  0.00     0.093 A 
ATOM      8  C   UNL     1      19.654   3.218  -7.728  1.00  0.00     0.123 A 
ATOM      9  C   UNL     1      20.545   2.176  -7.483  1.00  0.00     0.094 A 
ATOM     10  C   UNL     1      20.131   0.847  -7.597  1.00  0.00     0.146 A 
ATOM     11  O   UNL     1      21.016  -0.115  -7.365  1.00  0.00    -0.452 OA
ENDROOT
BRANCH   1  12
ATOM     12  C   UNL     1      21.804  -2.384  -7.156  1.00  0.00     0.025 A 
ATOM     13  C   UNL     1      21.864  -2.959  -5.878  1.00  0.00     0.016 A 
ATOM     14  C   UNL     1      22.852  -3.897  -5.568  1.00  0.00     0.051 A 
ATOM     15  C   UNL     1      23.785  -4.286  -6.535  1.00  0.00     0.157 A 
ATOM     16  C   UNL     1      22.729  -2.793  -8.133  1.00  0.00     0.062 A 
ATOM     17  C   UNL     1      23.722  -3.735  -7.825  1.00  0.00     0.158 A 
BRANCH  15  18
ATOM     18  O   UNL     1      24.762  -5.222  -6.196  1.00  0.00    -0.504 OA
ATOM     19  H   UNL     1      24.587  -5.961  -5.526  1.00  0.00     0.293 HD
ENDBRANCH  15  18
BRANCH  17  20
ATOM     20  O   UNL     1      24.639  -4.129  -8.798  1.00  0.00    -0.504 OA
ATOM     21  H   UNL     1      25.606  -3.829  -8.769  1.00  0.00     0.293 HD
ENDBRANCH  17  20
ENDBRANCH   1  12
BRANCH   2  22
ATOM     22  O   UNL     1      19.174  -3.167  -8.087  1.00  0.00    -0.502 OA
ATOM     23  H   UNL     1      18.441  -3.486  -8.709  1.00  0.00     0.293 HD
ENDBRANCH   2  22
BRANCH   6  24
ATOM     24  O   UNL     1      16.508   1.434  -8.391  1.00  0.00    -0.507 OA
ATOM     25  H   UNL     1      16.043   0.540  -8.440  1.00  0.00     0.293 HD
ENDBRANCH   6  24
BRANCH   8  26
ATOM     26  O   UNL     1      20.093   4.536  -7.629  1.00  0.00    -0.508 OA
ATOM     27  H   UNL     1      20.673   4.846  -6.858  1.00  0.00     0.293 HD
ENDBRANCH   8  26
TORSDOF 6
ENDMDL
