MODEL 1
REMARK VINA RESULT:    -3.336      0.000      0.000
REMARK INTER + INTRA:          -6.033
REMARK INTER:                  -5.091
REMARK INTRA:                  -0.942
REMARK UNBOUND:                -0.942
REMARK SMILES O=C([O-])CCCCCCCCC(=O)[O-]
REMARK SMILES IDX 7 1 6 2 5 3 4 4 2 5 1 6 3 7 8 8 9 9 10 10 11 11 12 12 13 13
REMARK SMILES IDX 14 14
REMARK H PARENT
REMARK Flexibility Score: inf
ROOT
ATOM      1  C   UNL     1     153.131 151.216 159.652  1.00  0.00     0.000 C 
ENDROOT
BRANCH   1   2
ATOM      2  C   UNL     1     152.268 152.366 160.195  1.00  0.00     0.000 C 
BRANCH   2   3
ATOM      3  C   UNL     1     151.413 152.984 159.078  1.00  0.00     0.006 C 
BRANCH   3   4
ATOM      4  C   UNL     1     151.645 154.495 158.936  1.00  0.00     0.053 C 
BRANCH   4   5
ATOM      5  C   UNL     1     150.829 155.080 157.825  1.00  0.00     0.041 C 
ATOM      6  O   UNL     1     149.745 155.669 158.078  1.00  0.00    -0.550 OA
ATOM      7  O   UNL     1     151.280 155.003 156.514  1.00  0.00    -0.550 OA
ENDBRANCH   4   5
ENDBRANCH   3   4
ENDBRANCH   2   3
ENDBRANCH   1   2
BRANCH   1   8
ATOM      8  C   UNL     1     153.163 151.170 158.116  1.00  0.00     0.000 C 
BRANCH   8   9
ATOM      9  C   UNL     1     154.541 151.543 157.543  1.00  0.00     0.000 C 
BRANCH   9  10
ATOM     10  C   UNL     1     154.667 153.045 157.238  1.00  0.00     0.006 C 
BRANCH  10  11
ATOM     11  C   UNL     1     155.329 153.828 158.380  1.00  0.00     0.053 C 
BRANCH  11  12
ATOM     12  C   UNL     1     155.319 155.293 158.080  1.00  0.00     0.041 C 
ATOM     13  O   UNL     1     156.066 156.077 158.722  1.00  0.00    -0.550 OA
ATOM     14  O   UNL     1     154.450 155.801 157.123  1.00  0.00    -0.550 OA
ENDBRANCH  11  12
ENDBRANCH  10  11
ENDBRANCH   9  10
ENDBRANCH   8   9
ENDBRANCH   1   8
TORSDOF 9
ENDMDL
MODEL 2
REMARK VINA RESULT:    -3.324      0.737      3.957
REMARK INTER + INTRA:          -6.015
REMARK INTER:                  -4.987
REMARK INTRA:                  -1.027
REMARK UNBOUND:                -0.942
REMARK SMILES O=C([O-])CCCCCCCCC(=O)[O-]
REMARK SMILES IDX 7 1 6 2 5 3 4 4 2 5 1 6 3 7 8 8 9 9 10 10 11 11 12 12 13 13
REMARK SMILES IDX 14 14
REMARK H PARENT
REMARK Flexibility Score: inf
ROOT
ATOM      1  C   UNL     1     153.767 151.277 157.554  1.00  0.00     0.000 C 
ENDROOT
BRANCH   1   2
ATOM      2  C   UNL     1     155.131 151.981 157.498  1.00  0.00     0.000 C 
BRANCH   2   3
ATOM      3  C   UNL     1     154.967 153.471 157.160  1.00  0.00     0.006 C 
BRANCH   3   4
ATOM      4  C   UNL     1     155.193 154.373 158.381  1.00  0.00     0.053 C 
BRANCH   4   5
ATOM      5  C   UNL     1     155.069 155.824 158.030  1.00  0.00     0.041 C 
ATOM      6  O   UNL     1     155.299 156.213 156.855  1.00  0.00    -0.550 OA
ATOM      7  O   UNL     1     154.669 156.742 158.992  1.00  0.00    -0.550 OA
ENDBRANCH   4   5
ENDBRANCH   3   4
ENDBRANCH   2   3
ENDBRANCH   1   2
BRANCH   1   8
ATOM      8  C   UNL     1     153.363 150.875 158.981  1.00  0.00     0.000 C 
BRANCH   8   9
ATOM      9  C   UNL     1     152.549 151.969 159.694  1.00  0.00     0.000 C 
BRANCH   9  10
ATOM     10  C   UNL     1     151.650 152.759 158.729  1.00  0.00     0.006 C 
BRANCH  10  11
ATOM     11  C   UNL     1     151.635 154.264 159.030  1.00  0.00     0.053 C 
BRANCH  11  12
ATOM     12  C   UNL     1     151.142 155.027 157.842  1.00  0.00     0.041 C 
ATOM     13  O   UNL     1     150.043 155.639 157.893  1.00  0.00    -0.550 OA
ATOM     14  O   UNL     1     151.874 155.025 156.662  1.00  0.00    -0.550 OA
ENDBRANCH  11  12
ENDBRANCH  10  11
ENDBRANCH   9  10
ENDBRANCH   8   9
ENDBRANCH   1   8
TORSDOF 9
ENDMDL
MODEL 3
REMARK VINA RESULT:    -3.313      1.226      2.070
REMARK INTER + INTRA:          -5.998
REMARK INTER:                  -5.039
REMARK INTRA:                  -0.959
REMARK UNBOUND:                -0.942
REMARK SMILES O=C([O-])CCCCCCCCC(=O)[O-]
REMARK SMILES IDX 7 1 6 2 5 3 4 4 2 5 1 6 3 7 8 8 9 9 10 10 11 11 12 12 13 13
REMARK SMILES IDX 14 14
REMARK H PARENT
REMARK Flexibility Score: inf
ROOT
ATOM      1  C   UNL     1     151.753 152.763 159.687  1.00  0.00     0.000 C 
ENDROOT
BRANCH   1   2
ATOM      2  C   UNL     1     151.032 152.876 158.335  1.00  0.00     0.000 C 
BRANCH   2   3
ATOM      3  C   UNL     1     151.159 154.296 157.762  1.00  0.00     0.006 C 
BRANCH   3   4
ATOM      4  C   UNL     1     151.444 155.339 158.851  1.00  0.00     0.053 C 
BRANCH   4   5
ATOM      5  C   UNL     1     150.212 156.105 159.222  1.00  0.00     0.041 C 
ATOM      6  O   UNL     1     149.206 156.091 158.465  1.00  0.00    -0.550 OA
ATOM      7  O   UNL     1     150.162 156.809 160.419  1.00  0.00    -0.550 OA
ENDBRANCH   4   5
ENDBRANCH   3   4
ENDBRANCH   2   3
ENDBRANCH   1   2
BRANCH   1   8
ATOM      8  C   UNL     1     153.021 151.898 159.614  1.00  0.00     0.000 C 
BRANCH   8   9
ATOM      9  C   UNL     1     153.208 151.236 158.238  1.00  0.00     0.000 C 
BRANCH   9  10
ATOM     10  C   UNL     1     154.429 151.784 157.481  1.00  0.00     0.006 C 
BRANCH  10  11
ATOM     11  C   UNL     1     155.110 152.946 158.217  1.00  0.00     0.053 C 
BRANCH  11  12
ATOM     12  C   UNL     1     154.874 154.232 157.490  1.00  0.00     0.041 C 
ATOM     13  O   UNL     1     154.637 154.227 156.254  1.00  0.00    -0.550 OA
ATOM     14  O   UNL     1     154.961 155.441 158.169  1.00  0.00    -0.550 OA
ENDBRANCH  11  12
ENDBRANCH  10  11
ENDBRANCH   9  10
ENDBRANCH   8   9
ENDBRANCH   1   8
TORSDOF 9
ENDMDL
MODEL 4
REMARK VINA RESULT:    -3.304      2.034      4.281
REMARK INTER + INTRA:          -5.985
REMARK INTER:                  -5.076
REMARK INTRA:                  -0.908
REMARK UNBOUND:                -0.942
REMARK SMILES O=C([O-])CCCCCCCCC(=O)[O-]
REMARK SMILES IDX 7 1 6 2 5 3 4 4 2 5 1 6 3 7 8 8 9 9 10 10 11 11 12 12 13 13
REMARK SMILES IDX 14 14
REMARK H PARENT
REMARK Flexibility Score: inf
ROOT
ATOM      1  C   UNL     1     154.759 153.289 157.132  1.00  0.00     0.000 C 
ENDROOT
BRANCH   1   2
ATOM      2  C   UNL     1     154.743 151.797 157.497  1.00  0.00     0.000 C 
BRANCH   2   3
ATOM      3  C   UNL     1     153.309 151.313 157.767  1.00  0.00     0.006 C 
BRANCH   3   4
ATOM      4  C   UNL     1     153.107 150.880 159.225  1.00  0.00     0.053 C 
BRANCH   4   5
ATOM      5  C   UNL     1     152.677 152.025 160.090  1.00  0.00     0.041 C 
ATOM      6  O   UNL     1     153.428 152.439 161.012  1.00  0.00    -0.550 OA
ATOM      7  O   UNL     1     151.461 152.655 159.859  1.00  0.00    -0.550 OA
ENDBRANCH   4   5
ENDBRANCH   3   4
ENDBRANCH   2   3
ENDBRANCH   1   2
BRANCH   1   8
ATOM      8  C   UNL     1     155.226 154.181 158.293  1.00  0.00     0.000 C 
BRANCH   8   9
ATOM      9  C   UNL     1     154.230 155.310 158.608  1.00  0.00     0.000 C 
BRANCH   9  10
ATOM     10  C   UNL     1     152.870 155.107 157.919  1.00  0.00     0.006 C 
BRANCH  10  11
ATOM     11  C   UNL     1     151.738 155.890 158.598  1.00  0.00     0.053 C 
BRANCH  11  12
ATOM     12  C   UNL     1     150.507 155.865 157.751  1.00  0.00     0.041 C 
ATOM     13  O   UNL     1     149.724 154.880 157.799  1.00  0.00    -0.550 OA
ATOM     14  O   UNL     1     150.246 156.907 156.871  1.00  0.00    -0.550 OA
ENDBRANCH  11  12
ENDBRANCH  10  11
ENDBRANCH   9  10
ENDBRANCH   8   9
ENDBRANCH   1   8
TORSDOF 9
ENDMDL
MODEL 5
REMARK VINA RESULT:    -3.296      1.523      4.425
REMARK INTER + INTRA:          -5.973
REMARK INTER:                  -5.079
REMARK INTRA:                  -0.894
REMARK UNBOUND:                -0.942
REMARK SMILES O=C([O-])CCCCCCCCC(=O)[O-]
REMARK SMILES IDX 7 1 6 2 5 3 4 4 2 5 1 6 3 7 8 8 9 9 10 10 11 11 12 12 13 13
REMARK SMILES IDX 14 14
REMARK H PARENT
REMARK Flexibility Score: inf
ROOT
ATOM      1  C   UNL     1     151.939 152.576 159.502  1.00  0.00     0.000 C 
ENDROOT
BRANCH   1   2
ATOM      2  C   UNL     1     153.070 151.542 159.401  1.00  0.00     0.000 C 
BRANCH   2   3
ATOM      3  C   UNL     1     153.451 151.286 157.934  1.00  0.00     0.006 C 
BRANCH   3   4
ATOM      4  C   UNL     1     154.873 151.764 157.610  1.00  0.00     0.053 C 
BRANCH   4   5
ATOM      5  C   UNL     1     154.958 153.258 157.556  1.00  0.00     0.041 C 
ATOM      6  O   UNL     1     155.437 153.901 158.527  1.00  0.00    -0.550 OA
ATOM      7  O   UNL     1     154.536 153.940 156.422  1.00  0.00    -0.550 OA
ENDBRANCH   4   5
ENDBRANCH   3   4
ENDBRANCH   2   3
ENDBRANCH   1   2
BRANCH   1   8
ATOM      8  C   UNL     1     151.217 152.801 158.163  1.00  0.00     0.000 C 
BRANCH   8   9
ATOM      9  C   UNL     1     151.191 154.282 157.749  1.00  0.00     0.000 C 
BRANCH   9  10
ATOM     10  C   UNL     1     151.911 155.191 158.759  1.00  0.00     0.006 C 
BRANCH  10  11
ATOM     11  C   UNL     1     151.308 156.601 158.823  1.00  0.00     0.053 C 
BRANCH  11  12
ATOM     12  C   UNL     1     149.995 156.572 159.539  1.00  0.00     0.041 C 
ATOM     13  O   UNL     1     149.960 156.500 160.795  1.00  0.00    -0.550 OA
ATOM     14  O   UNL     1     148.808 156.577 158.817  1.00  0.00    -0.550 OA
ENDBRANCH  11  12
ENDBRANCH  10  11
ENDBRANCH   9  10
ENDBRANCH   8   9
ENDBRANCH   1   8
TORSDOF 9
ENDMDL
MODEL 6
REMARK VINA RESULT:    -3.256      2.044      4.814
REMARK INTER + INTRA:          -5.912
REMARK INTER:                  -5.074
REMARK INTRA:                  -0.838
REMARK UNBOUND:                -0.942
REMARK SMILES O=C([O-])CCCCCCCCC(=O)[O-]
REMARK SMILES IDX 7 1 6 2 5 3 4 4 2 5 1 6 3 7 8 8 9 9 10 10 11 11 12 12 13 13
REMARK SMILES IDX 14 14
REMARK H PARENT
REMARK Flexibility Score: inf
ROOT
ATOM      1  C   UNL     1     154.641 153.817 156.738  1.00  0.00     0.000 C 
ENDROOT
BRANCH   1   2
ATOM      2  C   UNL     1     154.000 155.065 157.364  1.00  0.00     0.000 C 
BRANCH   2   3
ATOM      3  C   UNL     1     154.661 155.405 158.709  1.00  0.00     0.006 C 
BRANCH   3   4
ATOM      4  C   UNL     1     155.362 156.770 158.684  1.00  0.00     0.053 C 
BRANCH   4   5
ATOM      5  C   UNL     1     156.744 156.694 159.257  1.00  0.00     0.041 C 
ATOM      6  O   UNL     1     157.061 157.410 160.243  1.00  0.00    -0.550 OA
ATOM      7  O   UNL     1     157.673 155.811 158.722  1.00  0.00    -0.550 OA
ENDBRANCH   4   5
ENDBRANCH   3   4
ENDBRANCH   2   3
ENDBRANCH   1   2
BRANCH   1   8
ATOM      8  C   UNL     1     155.388 152.952 157.765  1.00  0.00     0.000 C 
BRANCH   8   9
ATOM      9  C   UNL     1     155.198 151.446 157.519  1.00  0.00     0.000 C 
BRANCH   9  10
ATOM     10  C   UNL     1     153.723 151.018 157.585  1.00  0.00     0.006 C 
BRANCH  10  11
ATOM     11  C   UNL     1     153.108 151.225 158.977  1.00  0.00     0.053 C 
BRANCH  11  12
ATOM     12  C   UNL     1     152.026 152.256 158.920  1.00  0.00     0.041 C 
ATOM     13  O   UNL     1     151.498 152.560 157.818  1.00  0.00    -0.550 OA
ATOM     14  O   UNL     1     151.633 152.917 160.077  1.00  0.00    -0.550 OA
ENDBRANCH  11  12
ENDBRANCH  10  11
ENDBRANCH   9  10
ENDBRANCH   8   9
ENDBRANCH   1   8
TORSDOF 9
ENDMDL
MODEL 7
REMARK VINA RESULT:    -3.235      2.609      4.301
REMARK INTER + INTRA:          -5.879
REMARK INTER:                  -5.309
REMARK INTRA:                  -0.570
REMARK UNBOUND:                -0.942
REMARK SMILES O=C([O-])CCCCCCCCC(=O)[O-]
REMARK SMILES IDX 7 1 6 2 5 3 4 4 2 5 1 6 3 7 8 8 9 9 10 10 11 11 12 12 13 13
REMARK SMILES IDX 14 14
REMARK H PARENT
REMARK Flexibility Score: inf
ROOT
ATOM      1  C   UNL     1     155.355 154.106 158.322  1.00  0.00     0.000 C 
ENDROOT
BRANCH   1   2
ATOM      2  C   UNL     1     154.997 153.182 157.148  1.00  0.00     0.000 C 
BRANCH   2   3
ATOM      3  C   UNL     1     155.083 151.706 157.565  1.00  0.00     0.006 C 
BRANCH   3   4
ATOM      4  C   UNL     1     153.715 151.011 157.533  1.00  0.00     0.053 C 
BRANCH   4   5
ATOM      5  C   UNL     1     152.792 151.554 158.581  1.00  0.00     0.041 C 
ATOM      6  O   UNL     1     151.804 152.261 158.250  1.00  0.00    -0.550 OA
ATOM      7  O   UNL     1     153.004 151.252 159.920  1.00  0.00    -0.550 OA
ENDBRANCH   4   5
ENDBRANCH   3   4
ENDBRANCH   2   3
ENDBRANCH   1   2
BRANCH   1   8
ATOM      8  C   UNL     1     154.257 155.139 158.623  1.00  0.00     0.000 C 
BRANCH   8   9
ATOM      9  C   UNL     1     154.827 156.537 158.919  1.00  0.00     0.000 C 
BRANCH   9  10
ATOM     10  C   UNL     1     156.331 156.638 158.615  1.00  0.00     0.006 C 
BRANCH  10  11
ATOM     11  C   UNL     1     157.152 157.090 159.830  1.00  0.00     0.053 C 
BRANCH  11  12
ATOM     12  C   UNL     1     158.495 156.430 159.825  1.00  0.00     0.041 C 
ATOM     13  O   UNL     1     159.313 156.652 160.755  1.00  0.00    -0.550 OA
ATOM     14  O   UNL     1     158.861 155.607 158.767  1.00  0.00    -0.550 OA
ENDBRANCH  11  12
ENDBRANCH  10  11
ENDBRANCH   9  10
ENDBRANCH   8   9
ENDBRANCH   1   8
TORSDOF 9
ENDMDL
MODEL 8
REMARK VINA RESULT:    -3.154      1.981      2.666
REMARK INTER + INTRA:          -5.756
REMARK INTER:                  -4.764
REMARK INTRA:                  -0.992
REMARK UNBOUND:                -0.942
REMARK SMILES O=C([O-])CCCCCCCCC(=O)[O-]
REMARK SMILES IDX 7 1 6 2 5 3 4 4 2 5 1 6 3 7 8 8 9 9 10 10 11 11 12 12 13 13
REMARK SMILES IDX 14 14
REMARK H PARENT
REMARK Flexibility Score: inf
ROOT
ATOM      1  C   UNL     1     154.119 152.326 158.365  1.00  0.00     0.000 C 
ENDROOT
BRANCH   1   2
ATOM      2  C   UNL     1     153.041 151.703 159.265  1.00  0.00     0.000 C 
BRANCH   2   3
ATOM      3  C   UNL     1     151.951 152.731 159.608  1.00  0.00     0.006 C 
BRANCH   3   4
ATOM      4  C   UNL     1     151.144 153.156 158.375  1.00  0.00     0.053 C 
BRANCH   4   5
ATOM      5  C   UNL     1     150.806 154.615 158.408  1.00  0.00     0.041 C 
ATOM      6  O   UNL     1     151.594 155.435 158.947  1.00  0.00    -0.550 OA
ATOM      7  O   UNL     1     149.636 155.073 157.815  1.00  0.00    -0.550 OA
ENDBRANCH   4   5
ENDBRANCH   3   4
ENDBRANCH   2   3
ENDBRANCH   1   2
BRANCH   1   8
ATOM      8  C   UNL     1     154.766 153.574 158.987  1.00  0.00     0.000 C 
BRANCH   8   9
ATOM      9  C   UNL     1     154.937 154.718 157.974  1.00  0.00     0.000 C 
BRANCH   9  10
ATOM     10  C   UNL     1     154.482 154.325 156.558  1.00  0.00     0.006 C 
BRANCH  10  11
ATOM     11  C   UNL     1     153.543 155.363 155.928  1.00  0.00     0.053 C 
BRANCH  11  12
ATOM     12  C   UNL     1     154.036 155.755 154.572  1.00  0.00     0.041 C 
ATOM     13  O   UNL     1     155.241 156.076 154.404  1.00  0.00    -0.550 OA
ATOM     14  O   UNL     1     153.154 155.812 153.500  1.00  0.00    -0.550 OA
ENDBRANCH  11  12
ENDBRANCH  10  11
ENDBRANCH   9  10
ENDBRANCH   8   9
ENDBRANCH   1   8
TORSDOF 9
ENDMDL
MODEL 9
REMARK VINA RESULT:    -3.111      2.233      3.619
REMARK INTER + INTRA:          -5.689
REMARK INTER:                  -4.670
REMARK INTRA:                  -1.019
REMARK UNBOUND:                -0.942
REMARK SMILES O=C([O-])CCCCCCCCC(=O)[O-]
REMARK SMILES IDX 7 1 6 2 5 3 4 4 2 5 1 6 3 7 8 8 9 9 10 10 11 11 12 12 13 13
REMARK SMILES IDX 14 14
REMARK H PARENT
REMARK Flexibility Score: inf
ROOT
ATOM      1  C   UNL     1     150.801 154.255 157.914  1.00  0.00     0.000 C 
ENDROOT
BRANCH   1   2
ATOM      2  C   UNL     1     151.775 155.127 158.721  1.00  0.00     0.000 C 
BRANCH   2   3
ATOM      3  C   UNL     1     152.658 155.971 157.788  1.00  0.00     0.006 C 
BRANCH   3   4
ATOM      4  C   UNL     1     152.760 155.368 156.381  1.00  0.00     0.053 C 
BRANCH   4   5
ATOM      5  C   UNL     1     153.967 155.867 155.649  1.00  0.00     0.041 C 
ATOM      6  O   UNL     1     154.941 155.098 155.434  1.00  0.00    -0.550 OA
ATOM      7  O   UNL     1     154.006 157.173 155.176  1.00  0.00    -0.550 OA
ENDBRANCH   4   5
ENDBRANCH   3   4
ENDBRANCH   2   3
ENDBRANCH   1   2
BRANCH   1   8
ATOM      8  C   UNL     1     150.915 152.761 158.259  1.00  0.00     0.000 C 
BRANCH   8   9
ATOM      9  C   UNL     1     152.023 152.476 159.288  1.00  0.00     0.000 C 
BRANCH   9  10
ATOM     10  C   UNL     1     153.037 151.433 158.788  1.00  0.00     0.006 C 
BRANCH  10  11
ATOM     11  C   UNL     1     153.714 151.848 157.474  1.00  0.00     0.053 C 
BRANCH  11  12
ATOM     12  C   UNL     1     155.115 152.305 157.733  1.00  0.00     0.041 C 
ATOM     13  O   UNL     1     156.089 151.573 157.417  1.00  0.00    -0.550 OA
ATOM     14  O   UNL     1     155.344 153.520 158.367  1.00  0.00    -0.550 OA
ENDBRANCH  11  12
ENDBRANCH  10  11
ENDBRANCH   9  10
ENDBRANCH   8   9
ENDBRANCH   1   8
TORSDOF 9
ENDMDL
