MODEL 1
REMARK VINA RESULT:    -3.801      0.000      0.000
REMARK INTER + INTRA:          -4.621
REMARK INTER:                  -4.467
REMARK INTRA:                  -0.154
REMARK UNBOUND:                -0.154
REMARK SMILES COc1ccc(C=CC(=O)[O-])cc1
REMARK SMILES IDX 6 1 5 2 12 3 4 4 13 5 3 6 7 7 8 8 9 9 10 10 11 11 2 12 1 13
REMARK H PARENT
REMARK Flexibility Score: inf
ROOT
ATOM      1  C   UNL     1     -11.990   3.277  -5.807  1.00  0.00    -0.025 A 
ATOM      2  C   UNL     1     -11.756   2.521  -6.967  1.00  0.00     0.012 A 
ATOM      3  C   UNL     1     -12.123   4.674  -5.924  1.00  0.00     0.012 A 
ATOM      4  C   UNL     1     -11.632   3.144  -8.212  1.00  0.00     0.047 A 
ATOM      5  C   UNL     1     -11.999   5.295  -7.170  1.00  0.00     0.047 A 
ATOM      6  C   UNL     1     -11.750   4.542  -8.321  1.00  0.00     0.118 A 
ENDROOT
BRANCH   1   7
ATOM      7  C   UNL     1     -12.125   2.566  -4.512  1.00  0.00     0.010 C 
ATOM      8  C   UNL     1     -11.121   2.416  -3.636  1.00  0.00     0.025 C 
BRANCH   8   9
ATOM      9  C   UNL     1     -11.298   1.692  -2.368  1.00  0.00     0.064 C 
ATOM     10  O   UNL     1     -11.744   2.302  -1.361  1.00  0.00    -0.545 OA
ATOM     11  O   UNL     1     -10.984   0.341  -2.262  1.00  0.00    -0.545 OA
ENDBRANCH   8   9
ENDBRANCH   1   7
BRANCH   6  12
ATOM     12  O   UNL     1     -11.632   5.215  -9.547  1.00  0.00    -0.497 OA
ATOM     13  C   UNL     1     -10.728   6.287  -9.792  1.00  0.00     0.278 C 
ENDBRANCH   6  12
TORSDOF 3
ENDMDL
MODEL 2
REMARK VINA RESULT:    -3.736      3.039      3.877
REMARK INTER + INTRA:          -4.544
REMARK INTER:                  -4.384
REMARK INTRA:                  -0.161
REMARK UNBOUND:                -0.154
REMARK SMILES COc1ccc(C=CC(=O)[O-])cc1
REMARK SMILES IDX 6 1 5 2 12 3 4 4 13 5 3 6 7 7 8 8 9 9 10 10 11 11 2 12 1 13
REMARK H PARENT
REMARK Flexibility Score: inf
ROOT
ATOM      1  C   UNL     1     -11.986   4.874  -4.937  1.00  0.00    -0.025 A 
ATOM      2  C   UNL     1     -11.870   3.502  -4.662  1.00  0.00     0.012 A 
ATOM      3  C   UNL     1     -12.021   5.296  -6.281  1.00  0.00     0.012 A 
ATOM      4  C   UNL     1     -11.766   2.572  -5.700  1.00  0.00     0.047 A 
ATOM      5  C   UNL     1     -11.917   4.364  -7.317  1.00  0.00     0.047 A 
ATOM      6  C   UNL     1     -11.786   3.000  -7.040  1.00  0.00     0.118 A 
ENDROOT
BRANCH   1   7
ATOM      7  C   UNL     1     -12.104   5.819  -3.799  1.00  0.00     0.010 C 
ATOM      8  C   UNL     1     -11.057   6.423  -3.220  1.00  0.00     0.025 C 
BRANCH   8   9
ATOM      9  C   UNL     1     -11.221   7.344  -2.085  1.00  0.00     0.064 C 
ATOM     10  O   UNL     1     -10.600   8.440  -2.079  1.00  0.00    -0.545 OA
ATOM     11  O   UNL     1     -12.054   7.027  -1.017  1.00  0.00    -0.545 OA
ENDBRANCH   8   9
ENDBRANCH   1   7
BRANCH   6  12
ATOM     12  O   UNL     1     -11.684   2.107  -8.118  1.00  0.00    -0.497 OA
ATOM     13  C   UNL     1     -11.825   2.477  -9.486  1.00  0.00     0.278 C 
ENDBRANCH   6  12
TORSDOF 3
ENDMDL
MODEL 3
REMARK VINA RESULT:    -3.613      2.700      5.301
REMARK INTER + INTRA:          -4.401
REMARK INTER:                  -4.229
REMARK INTRA:                  -0.172
REMARK UNBOUND:                -0.154
REMARK SMILES COc1ccc(C=CC(=O)[O-])cc1
REMARK SMILES IDX 6 1 5 2 12 3 4 4 13 5 3 6 7 7 8 8 9 9 10 10 11 11 2 12 1 13
REMARK H PARENT
REMARK Flexibility Score: inf
ROOT
ATOM      1  C   UNL     1     -11.973   3.317  -5.199  1.00  0.00    -0.025 A 
ATOM      2  C   UNL     1     -11.750   2.880  -3.884  1.00  0.00     0.012 A 
ATOM      3  C   UNL     1     -12.125   4.697  -5.439  1.00  0.00     0.012 A 
ATOM      4  C   UNL     1     -11.705   3.793  -2.826  1.00  0.00     0.047 A 
ATOM      5  C   UNL     1     -12.079   5.608  -4.381  1.00  0.00     0.047 A 
ATOM      6  C   UNL     1     -11.873   5.169  -3.069  1.00  0.00     0.118 A 
ENDROOT
BRANCH   1   7
ATOM      7  C   UNL     1     -12.001   2.308  -6.287  1.00  0.00     0.010 C 
ATOM      8  C   UNL     1     -11.826   2.604  -7.583  1.00  0.00     0.025 C 
BRANCH   8   9
ATOM      9  C   UNL     1     -11.874   1.572  -8.629  1.00  0.00     0.064 C 
ATOM     10  O   UNL     1     -12.125   0.379  -8.314  1.00  0.00    -0.545 OA
ATOM     11  O   UNL     1     -11.652   1.891  -9.965  1.00  0.00    -0.545 OA
ENDBRANCH   8   9
ENDBRANCH   1   7
BRANCH   6  12
ATOM     12  O   UNL     1     -11.836   6.125  -2.043  1.00  0.00    -0.497 OA
ATOM     13  C   UNL     1     -11.681   7.525  -2.253  1.00  0.00     0.278 C 
ENDBRANCH   6  12
TORSDOF 3
ENDMDL
MODEL 4
REMARK VINA RESULT:    -3.572     15.390     16.281
REMARK INTER + INTRA:          -4.353
REMARK INTER:                  -4.188
REMARK INTRA:                  -0.165
REMARK UNBOUND:                -0.154
REMARK SMILES COc1ccc(C=CC(=O)[O-])cc1
REMARK SMILES IDX 6 1 5 2 12 3 4 4 13 5 3 6 7 7 8 8 9 9 10 10 11 11 2 12 1 13
REMARK H PARENT
REMARK Flexibility Score: inf
ROOT
ATOM      1  C   UNL     1       4.272   5.247  -8.588  1.00  0.00    -0.025 A 
ATOM      2  C   UNL     1       3.466   4.097  -8.608  1.00  0.00     0.012 A 
ATOM      3  C   UNL     1       3.736   6.459  -9.065  1.00  0.00     0.012 A 
ATOM      4  C   UNL     1       2.165   4.146  -9.115  1.00  0.00     0.047 A 
ATOM      5  C   UNL     1       2.434   6.506  -9.572  1.00  0.00     0.047 A 
ATOM      6  C   UNL     1       1.640   5.356  -9.605  1.00  0.00     0.118 A 
ENDROOT
BRANCH   1   7
ATOM      7  C   UNL     1       5.643   5.144  -8.029  1.00  0.00     0.010 C 
ATOM      8  C   UNL     1       5.913   5.142  -6.716  1.00  0.00     0.025 C 
BRANCH   8   9
ATOM      9  C   UNL     1       7.290   5.049  -6.207  1.00  0.00     0.064 C 
ATOM     10  O   UNL     1       7.953   3.995  -6.393  1.00  0.00    -0.545 OA
ATOM     11  O   UNL     1       7.877   6.110  -5.525  1.00  0.00    -0.545 OA
ENDBRANCH   8   9
ENDBRANCH   1   7
BRANCH   6  12
ATOM     12  O   UNL     1       0.340   5.457 -10.125  1.00  0.00    -0.497 OA
ATOM     13  C   UNL     1      -0.436   6.651 -10.121  1.00  0.00     0.278 C 
ENDBRANCH   6  12
TORSDOF 3
ENDMDL
MODEL 5
REMARK VINA RESULT:    -3.539     13.516     15.640
REMARK INTER + INTRA:          -4.313
REMARK INTER:                  -4.155
REMARK INTRA:                  -0.158
REMARK UNBOUND:                -0.154
REMARK SMILES COc1ccc(C=CC(=O)[O-])cc1
REMARK SMILES IDX 6 1 5 2 12 3 4 4 13 5 3 6 7 7 8 8 9 9 10 10 11 11 2 12 1 13
REMARK H PARENT
REMARK Flexibility Score: inf
ROOT
ATOM      1  C   UNL     1      -9.873   2.456   8.693  1.00  0.00    -0.025 A 
ATOM      2  C   UNL     1     -10.322   1.223   8.193  1.00  0.00     0.012 A 
ATOM      3  C   UNL     1      -8.771   2.471   9.572  1.00  0.00     0.012 A 
ATOM      4  C   UNL     1      -9.705   0.029   8.578  1.00  0.00     0.047 A 
ATOM      5  C   UNL     1      -8.156   1.276   9.955  1.00  0.00     0.047 A 
ATOM      6  C   UNL     1      -8.615   0.049   9.468  1.00  0.00     0.118 A 
ENDROOT
BRANCH   1   7
ATOM      7  C   UNL     1     -10.555   3.695   8.245  1.00  0.00     0.010 C 
ATOM      8  C   UNL     1      -9.920   4.733   7.681  1.00  0.00     0.025 C 
BRANCH   8   9
ATOM      9  C   UNL     1     -10.637   5.948   7.263  1.00  0.00     0.064 C 
ATOM     10  O   UNL     1     -10.991   6.790   8.129  1.00  0.00    -0.545 OA
ATOM     11  O   UNL     1     -10.927   6.185   5.924  1.00  0.00    -0.545 OA
ENDBRANCH   8   9
ENDBRANCH   1   7
BRANCH   6  12
ATOM     12  O   UNL     1      -7.963  -1.121   9.885  1.00  0.00    -0.497 OA
ATOM     13  C   UNL     1      -6.599  -1.423   9.609  1.00  0.00     0.278 C 
ENDBRANCH   6  12
TORSDOF 3
ENDMDL
MODEL 6
REMARK VINA RESULT:    -3.509     15.348     16.373
REMARK INTER + INTRA:          -4.278
REMARK INTER:                  -4.114
REMARK INTRA:                  -0.165
REMARK UNBOUND:                -0.154
REMARK SMILES COc1ccc(C=CC(=O)[O-])cc1
REMARK SMILES IDX 6 1 5 2 12 3 4 4 13 5 3 6 7 7 8 8 9 9 10 10 11 11 2 12 1 13
REMARK H PARENT
REMARK Flexibility Score: inf
ROOT
ATOM      1  C   UNL     1       1.970  -3.986  -8.212  1.00  0.00    -0.025 A 
ATOM      2  C   UNL     1       2.619  -5.007  -7.499  1.00  0.00     0.012 A 
ATOM      3  C   UNL     1       2.561  -2.708  -8.256  1.00  0.00     0.012 A 
ATOM      4  C   UNL     1       3.816  -4.756  -6.823  1.00  0.00     0.047 A 
ATOM      5  C   UNL     1       3.758  -2.459  -7.579  1.00  0.00     0.047 A 
ATOM      6  C   UNL     1       4.394  -3.473  -6.856  1.00  0.00     0.118 A 
ENDROOT
BRANCH   1   7
ATOM      7  C   UNL     1       0.707  -4.308  -8.922  1.00  0.00     0.010 C 
ATOM      8  C   UNL     1      -0.387  -4.788  -8.315  1.00  0.00     0.025 C 
BRANCH   8   9
ATOM      9  C   UNL     1      -1.614  -5.105  -9.061  1.00  0.00     0.064 C 
ATOM     10  O   UNL     1      -1.900  -4.445 -10.095  1.00  0.00    -0.545 OA
ATOM     11  O   UNL     1      -2.464  -6.125  -8.647  1.00  0.00    -0.545 OA
ENDBRANCH   8   9
ENDBRANCH   1   7
BRANCH   6  12
ATOM     12  O   UNL     1       5.593  -3.170  -6.194  1.00  0.00    -0.497 OA
ATOM     13  C   UNL     1       5.878  -3.523  -4.844  1.00  0.00     0.278 C 
ENDBRANCH   6  12
TORSDOF 3
ENDMDL
MODEL 7
REMARK VINA RESULT:    -3.452      2.063      2.852
REMARK INTER + INTRA:          -4.211
REMARK INTER:                  -4.049
REMARK INTRA:                  -0.163
REMARK UNBOUND:                -0.154
REMARK SMILES COc1ccc(C=CC(=O)[O-])cc1
REMARK SMILES IDX 6 1 5 2 12 3 4 4 13 5 3 6 7 7 8 8 9 9 10 10 11 11 2 12 1 13
REMARK H PARENT
REMARK Flexibility Score: inf
ROOT
ATOM      1  C   UNL     1     -12.058   4.736  -4.149  1.00  0.00    -0.025 A 
ATOM      2  C   UNL     1     -11.898   6.061  -3.715  1.00  0.00     0.012 A 
ATOM      3  C   UNL     1     -12.125   4.478  -5.532  1.00  0.00     0.012 A 
ATOM      4  C   UNL     1     -11.832   7.111  -4.635  1.00  0.00     0.047 A 
ATOM      5  C   UNL     1     -12.058   5.529  -6.451  1.00  0.00     0.047 A 
ATOM      6  C   UNL     1     -11.915   6.850  -6.016  1.00  0.00     0.118 A 
ENDROOT
BRANCH   1   7
ATOM      7  C   UNL     1     -12.112   3.656  -3.131  1.00  0.00     0.010 C 
ATOM      8  C   UNL     1     -11.290   2.597  -3.124  1.00  0.00     0.025 C 
BRANCH   8   9
ATOM      9  C   UNL     1     -11.388   1.545  -2.102  1.00  0.00     0.064 C 
ATOM     10  O   UNL     1     -11.871   1.819  -0.972  1.00  0.00    -0.545 OA
ATOM     11  O   UNL     1     -10.960   0.247  -2.362  1.00  0.00    -0.545 OA
ENDBRANCH   8   9
ENDBRANCH   1   7
BRANCH   6  12
ATOM     12  O   UNL     1     -11.854   7.868  -6.979  1.00  0.00    -0.497 OA
ATOM     13  C   UNL     1     -12.084   9.247  -6.708  1.00  0.00     0.278 C 
ENDBRANCH   6  12
TORSDOF 3
ENDMDL
MODEL 8
REMARK VINA RESULT:    -3.434     15.274     15.986
REMARK INTER + INTRA:          -4.191
REMARK INTER:                  -4.027
REMARK INTRA:                  -0.164
REMARK UNBOUND:                -0.154
REMARK SMILES COc1ccc(C=CC(=O)[O-])cc1
REMARK SMILES IDX 6 1 5 2 12 3 4 4 13 5 3 6 7 7 8 8 9 9 10 10 11 11 2 12 1 13
REMARK H PARENT
REMARK Flexibility Score: inf
ROOT
ATOM      1  C   UNL     1       1.708  -5.034  -8.027  1.00  0.00    -0.025 A 
ATOM      2  C   UNL     1       0.610  -5.889  -7.837  1.00  0.00     0.012 A 
ATOM      3  C   UNL     1       1.507  -3.809  -8.691  1.00  0.00     0.012 A 
ATOM      4  C   UNL     1      -0.655  -5.543  -8.320  1.00  0.00     0.047 A 
ATOM      5  C   UNL     1       0.241  -3.465  -9.173  1.00  0.00     0.047 A 
ATOM      6  C   UNL     1      -0.847  -4.325  -8.997  1.00  0.00     0.118 A 
ENDROOT
BRANCH   1   7
ATOM      7  C   UNL     1       3.028  -5.443  -7.484  1.00  0.00     0.010 C 
ATOM      8  C   UNL     1       3.770  -4.676  -6.673  1.00  0.00     0.025 C 
BRANCH   8   9
ATOM      9  C   UNL     1       5.079  -5.118  -6.169  1.00  0.00     0.064 C 
ATOM     10  O   UNL     1       5.136  -5.856  -5.150  1.00  0.00    -0.545 OA
ATOM     11  O   UNL     1       6.258  -4.739  -6.802  1.00  0.00    -0.545 OA
ENDBRANCH   8   9
ENDBRANCH   1   7
BRANCH   6  12
ATOM     12  O   UNL     1      -2.096  -3.932  -9.502  1.00  0.00    -0.497 OA
ATOM     13  C   UNL     1      -2.388  -2.632 -10.003  1.00  0.00     0.278 C 
ENDBRANCH   6  12
TORSDOF 3
ENDMDL
MODEL 9
REMARK VINA RESULT:    -3.169     16.446     17.137
REMARK INTER + INTRA:          -3.879
REMARK INTER:                  -3.718
REMARK INTRA:                  -0.161
REMARK UNBOUND:                -0.154
REMARK SMILES COc1ccc(C=CC(=O)[O-])cc1
REMARK SMILES IDX 6 1 5 2 12 3 4 4 13 5 3 6 7 7 8 8 9 9 10 10 11 11 2 12 1 13
REMARK H PARENT
REMARK Flexibility Score: inf
ROOT
ATOM      1  C   UNL     1       3.778  -4.463  -6.812  1.00  0.00    -0.025 A 
ATOM      2  C   UNL     1       3.798  -3.098  -7.138  1.00  0.00     0.012 A 
ATOM      3  C   UNL     1       2.899  -5.314  -7.509  1.00  0.00     0.012 A 
ATOM      4  C   UNL     1       2.943  -2.585  -8.118  1.00  0.00     0.047 A 
ATOM      5  C   UNL     1       2.045  -4.800  -8.489  1.00  0.00     0.047 A 
ATOM      6  C   UNL     1       2.056  -3.437  -8.800  1.00  0.00     0.118 A 
ENDROOT
BRANCH   1   7
ATOM      7  C   UNL     1       4.713  -4.959  -5.771  1.00  0.00     0.010 C 
ATOM      8  C   UNL     1       4.754  -4.482  -4.519  1.00  0.00     0.025 C 
BRANCH   8   9
ATOM      9  C   UNL     1       5.707  -4.996  -3.523  1.00  0.00     0.064 C 
ATOM     10  O   UNL     1       5.513  -6.125  -3.001  1.00  0.00    -0.545 OA
ATOM     11  O   UNL     1       6.824  -4.256  -3.150  1.00  0.00    -0.545 OA
ENDBRANCH   8   9
ENDBRANCH   1   7
BRANCH   6  12
ATOM     12  O   UNL     1       1.178  -2.972  -9.792  1.00  0.00    -0.497 OA
ATOM     13  C   UNL     1       0.110  -2.060  -9.556  1.00  0.00     0.278 C 
ENDBRANCH   6  12
TORSDOF 3
ENDMDL
