MODEL 1
REMARK VINA RESULT:    -5.162      0.000      0.000
REMARK INTER + INTRA:          -5.660
REMARK INTER:                  -5.614
REMARK INTRA:                  -0.045
REMARK UNBOUND:                -0.045
REMARK SMILES COc1cc2ccc(=O)oc2cc1O
REMARK SMILES IDX 3 1 13 2 12 3 11 4 5 5 4 6 6 7 7 8 8 9 9 10 10 11 2 12 1 13
REMARK SMILES IDX 14 14
REMARK H PARENT 14 15
REMARK Flexibility Score: inf
ROOT
ATOM      1  C   UNL     1      -2.001 -16.229  -8.231  1.00  0.00     0.161 A 
ATOM      2  C   UNL     1      -1.692 -14.971  -7.694  1.00  0.00     0.161 A 
ATOM      3  C   UNL     1      -0.493 -14.775  -6.993  1.00  0.00     0.098 A 
ATOM      4  C   UNL     1       0.405 -15.832  -6.824  1.00  0.00     0.142 A 
ATOM      5  C   UNL     1       0.101 -17.101  -7.360  1.00  0.00     0.022 A 
ATOM      6  C   UNL     1      -1.097 -17.298  -8.060  1.00  0.00     0.062 A 
ATOM      7  C   UNL     1       1.018 -18.141  -7.174  1.00  0.00     0.019 A 
ATOM      8  C   UNL     1       2.196 -17.896  -6.469  1.00  0.00     0.094 A 
ATOM      9  C   UNL     1       2.430 -16.611  -5.965  1.00  0.00     0.336 A 
ATOM     10  O   UNL     1       3.487 -16.370  -5.326  1.00  0.00    -0.246 OA
ATOM     11  O   UNL     1       1.541 -15.640  -6.157  1.00  0.00    -0.423 OA
ENDROOT
BRANCH   1  12
ATOM     12  O   UNL     1      -3.212 -16.380  -8.926  1.00  0.00    -0.493 OA
ATOM     13  C   UNL     1      -3.587 -17.547  -9.649  1.00  0.00     0.278 C 
ENDBRANCH   1  12
BRANCH   2  14
ATOM     14  O   UNL     1      -2.584 -13.913  -7.862  1.00  0.00    -0.504 OA
ATOM     15  H   UNL     1      -2.264 -12.978  -8.088  1.00  0.00     0.293 HD
ENDBRANCH   2  14
TORSDOF 2
ENDMDL
MODEL 2
REMARK VINA RESULT:    -4.827      2.091      3.542
REMARK INTER + INTRA:          -5.295
REMARK INTER:                  -5.246
REMARK INTRA:                  -0.049
REMARK UNBOUND:                -0.045
REMARK SMILES COc1cc2ccc(=O)oc2cc1O
REMARK SMILES IDX 3 1 13 2 12 3 11 4 5 5 4 6 6 7 7 8 8 9 9 10 10 11 2 12 1 13
REMARK SMILES IDX 14 14
REMARK H PARENT 14 15
REMARK Flexibility Score: inf
ROOT
ATOM      1  C   UNL     1      -0.613 -14.436  -6.585  1.00  0.00     0.161 A 
ATOM      2  C   UNL     1      -1.609 -14.822  -7.495  1.00  0.00     0.161 A 
ATOM      3  C   UNL     1      -1.559 -16.083  -8.107  1.00  0.00     0.098 A 
ATOM      4  C   UNL     1      -0.517 -16.967  -7.815  1.00  0.00     0.142 A 
ATOM      5  C   UNL     1       0.489 -16.586  -6.902  1.00  0.00     0.022 A 
ATOM      6  C   UNL     1       0.440 -15.326  -6.291  1.00  0.00     0.062 A 
ATOM      7  C   UNL     1       1.521 -17.492  -6.631  1.00  0.00     0.019 A 
ATOM      8  C   UNL     1       1.525 -18.734  -7.265  1.00  0.00     0.094 A 
ATOM      9  C   UNL     1       0.494 -19.042  -8.160  1.00  0.00     0.336 A 
ATOM     10  O   UNL     1       0.481 -20.157  -8.743  1.00  0.00    -0.246 OA
ATOM     11  O   UNL     1      -0.475 -18.162  -8.400  1.00  0.00    -0.423 OA
ENDROOT
BRANCH   1  12
ATOM     12  O   UNL     1      -0.703 -13.165  -5.996  1.00  0.00    -0.493 OA
ATOM     13  C   UNL     1      -0.314 -12.866  -4.660  1.00  0.00     0.278 C 
ENDBRANCH   1  12
BRANCH   2  14
ATOM     14  O   UNL     1      -2.651 -13.944  -7.787  1.00  0.00    -0.504 OA
ATOM     15  H   UNL     1      -2.761 -13.067  -7.292  1.00  0.00     0.293 HD
ENDBRANCH   2  14
TORSDOF 2
ENDMDL
MODEL 3
REMARK VINA RESULT:    -4.800      2.525      3.634
REMARK INTER + INTRA:          -5.266
REMARK INTER:                  -5.207
REMARK INTRA:                  -0.059
REMARK UNBOUND:                -0.045
REMARK SMILES COc1cc2ccc(=O)oc2cc1O
REMARK SMILES IDX 3 1 13 2 12 3 11 4 5 5 4 6 6 7 7 8 8 9 9 10 10 11 2 12 1 13
REMARK SMILES IDX 14 14
REMARK H PARENT 14 15
REMARK Flexibility Score: inf
ROOT
ATOM      1  C   UNL     1      -1.345 -16.601  -8.155  1.00  0.00     0.161 A 
ATOM      2  C   UNL     1      -0.203 -15.860  -8.494  1.00  0.00     0.161 A 
ATOM      3  C   UNL     1       0.170 -14.745  -7.730  1.00  0.00     0.098 A 
ATOM      4  C   UNL     1      -0.592 -14.362  -6.623  1.00  0.00     0.142 A 
ATOM      5  C   UNL     1      -1.742 -15.102  -6.276  1.00  0.00     0.022 A 
ATOM      6  C   UNL     1      -2.116 -16.216  -7.039  1.00  0.00     0.062 A 
ATOM      7  C   UNL     1      -2.486 -14.695  -5.163  1.00  0.00     0.019 A 
ATOM      8  C   UNL     1      -2.073 -13.579  -4.435  1.00  0.00     0.094 A 
ATOM      9  C   UNL     1      -0.921 -12.894  -4.839  1.00  0.00     0.336 A 
ATOM     10  O   UNL     1      -0.533 -11.885  -4.196  1.00  0.00    -0.246 OA
ATOM     11  O   UNL     1      -0.232 -13.303  -5.902  1.00  0.00    -0.423 OA
ENDROOT
BRANCH   1  12
ATOM     12  O   UNL     1      -1.681 -17.710  -8.948  1.00  0.00    -0.493 OA
ATOM     13  C   UNL     1      -2.920 -17.869  -9.630  1.00  0.00     0.278 C 
ENDBRANCH   1  12
BRANCH   2  14
ATOM     14  O   UNL     1       0.561 -16.239  -9.597  1.00  0.00    -0.504 OA
ATOM     15  H   UNL     1       1.032 -17.135  -9.634  1.00  0.00     0.293 HD
ENDBRANCH   2  14
TORSDOF 2
ENDMDL
MODEL 4
REMARK VINA RESULT:    -4.704      1.084      4.859
REMARK INTER + INTRA:          -5.162
REMARK INTER:                  -5.115
REMARK INTRA:                  -0.046
REMARK UNBOUND:                -0.045
REMARK SMILES COc1cc2ccc(=O)oc2cc1O
REMARK SMILES IDX 3 1 13 2 12 3 11 4 5 5 4 6 6 7 7 8 8 9 9 10 10 11 2 12 1 13
REMARK SMILES IDX 14 14
REMARK H PARENT 14 15
REMARK Flexibility Score: inf
ROOT
ATOM      1  C   UNL     1       0.372 -15.728  -6.666  1.00  0.00     0.161 A 
ATOM      2  C   UNL     1      -0.584 -14.710  -6.525  1.00  0.00     0.161 A 
ATOM      3  C   UNL     1      -1.807 -14.788  -7.206  1.00  0.00     0.098 A 
ATOM      4  C   UNL     1      -2.086 -15.882  -8.031  1.00  0.00     0.142 A 
ATOM      5  C   UNL     1      -1.130 -16.909  -8.178  1.00  0.00     0.022 A 
ATOM      6  C   UNL     1       0.093 -16.831  -7.498  1.00  0.00     0.062 A 
ATOM      7  C   UNL     1      -1.437 -17.990  -9.011  1.00  0.00     0.019 A 
ATOM      8  C   UNL     1      -2.668 -18.022  -9.666  1.00  0.00     0.094 A 
ATOM      9  C   UNL     1      -3.566 -16.967  -9.473  1.00  0.00     0.336 A 
ATOM     10  O   UNL     1      -4.682 -16.976 -10.055  1.00  0.00    -0.246 OA
ATOM     11  O   UNL     1      -3.249 -15.950  -8.674  1.00  0.00    -0.423 OA
ENDROOT
BRANCH   1  12
ATOM     12  O   UNL     1       1.583 -15.609  -5.965  1.00  0.00    -0.493 OA
ATOM     13  C   UNL     1       2.443 -16.698  -5.649  1.00  0.00     0.278 C 
ENDBRANCH   1  12
BRANCH   2  14
ATOM     14  O   UNL     1      -0.310 -13.619  -5.703  1.00  0.00    -0.504 OA
ATOM     15  H   UNL     1      -0.100 -13.735  -4.718  1.00  0.00     0.293 HD
ENDBRANCH   2  14
TORSDOF 2
ENDMDL
MODEL 5
REMARK VINA RESULT:    -4.627      1.974      4.084
REMARK INTER + INTRA:          -5.078
REMARK INTER:                  -5.012
REMARK INTRA:                  -0.065
REMARK UNBOUND:                -0.045
REMARK SMILES COc1cc2ccc(=O)oc2cc1O
REMARK SMILES IDX 3 1 13 2 12 3 11 4 5 5 4 6 6 7 7 8 8 9 9 10 10 11 2 12 1 13
REMARK SMILES IDX 14 14
REMARK H PARENT 14 15
REMARK Flexibility Score: inf
ROOT
ATOM      1  C   UNL     1      -0.638 -15.170  -7.208  1.00  0.00     0.161 A 
ATOM      2  C   UNL     1      -1.897 -15.199  -7.826  1.00  0.00     0.161 A 
ATOM      3  C   UNL     1      -2.357 -16.372  -8.441  1.00  0.00     0.098 A 
ATOM      4  C   UNL     1      -1.565 -17.523  -8.443  1.00  0.00     0.142 A 
ATOM      5  C   UNL     1      -0.298 -17.502  -7.824  1.00  0.00     0.022 A 
ATOM      6  C   UNL     1       0.163 -16.330  -7.209  1.00  0.00     0.062 A 
ATOM      7  C   UNL     1       0.473 -18.669  -7.843  1.00  0.00     0.019 A 
ATOM      8  C   UNL     1      -0.029 -19.811  -8.467  1.00  0.00     0.094 A 
ATOM      9  C   UNL     1      -1.295 -19.758  -9.062  1.00  0.00     0.336 A 
ATOM     10  O   UNL     1      -1.765 -20.777  -9.631  1.00  0.00    -0.246 OA
ATOM     11  O   UNL     1      -2.007 -18.634  -9.029  1.00  0.00    -0.423 OA
ENDROOT
BRANCH   1  12
ATOM     12  O   UNL     1      -0.218 -13.973  -6.603  1.00  0.00    -0.493 OA
ATOM     13  C   UNL     1      -0.250 -13.723  -5.202  1.00  0.00     0.278 C 
ENDBRANCH   1  12
BRANCH   2  14
ATOM     14  O   UNL     1      -2.690 -14.053  -7.825  1.00  0.00    -0.504 OA
ATOM     15  H   UNL     1      -2.533 -13.297  -8.480  1.00  0.00     0.293 HD
ENDBRANCH   2  14
TORSDOF 2
ENDMDL
MODEL 6
REMARK VINA RESULT:    -4.577      1.504      5.457
REMARK INTER + INTRA:          -5.023
REMARK INTER:                  -4.958
REMARK INTRA:                  -0.065
REMARK UNBOUND:                -0.045
REMARK SMILES COc1cc2ccc(=O)oc2cc1O
REMARK SMILES IDX 3 1 13 2 12 3 11 4 5 5 4 6 6 7 7 8 8 9 9 10 10 11 2 12 1 13
REMARK SMILES IDX 14 14
REMARK H PARENT 14 15
REMARK Flexibility Score: inf
ROOT
ATOM      1  C   UNL     1       2.482 -17.160  -5.838  1.00  0.00     0.161 A 
ATOM      2  C   UNL     1       1.966 -18.169  -6.665  1.00  0.00     0.161 A 
ATOM      3  C   UNL     1       0.769 -17.965  -7.367  1.00  0.00     0.098 A 
ATOM      4  C   UNL     1       0.080 -16.754  -7.249  1.00  0.00     0.142 A 
ATOM      5  C   UNL     1       0.594 -15.735  -6.420  1.00  0.00     0.022 A 
ATOM      6  C   UNL     1       1.789 -15.938  -5.718  1.00  0.00     0.062 A 
ATOM      7  C   UNL     1      -0.118 -14.534  -6.321  1.00  0.00     0.019 A 
ATOM      8  C   UNL     1      -1.303 -14.380  -7.040  1.00  0.00     0.094 A 
ATOM      9  C   UNL     1      -1.752 -15.436  -7.842  1.00  0.00     0.336 A 
ATOM     10  O   UNL     1      -2.819 -15.317  -8.498  1.00  0.00    -0.246 OA
ATOM     11  O   UNL     1      -1.055 -16.567  -7.918  1.00  0.00    -0.423 OA
ENDROOT
BRANCH   1  12
ATOM     12  O   UNL     1       3.684 -17.407  -5.155  1.00  0.00    -0.493 OA
ATOM     13  C   UNL     1       3.771 -17.764  -3.780  1.00  0.00     0.278 C 
ENDBRANCH   1  12
BRANCH   2  14
ATOM     14  O   UNL     1       2.650 -19.377  -6.785  1.00  0.00    -0.504 OA
ATOM     15  H   UNL     1       2.240 -20.252  -6.482  1.00  0.00     0.293 HD
ENDBRANCH   2  14
TORSDOF 2
ENDMDL
MODEL 7
REMARK VINA RESULT:    -4.492      2.289      5.045
REMARK INTER + INTRA:          -4.931
REMARK INTER:                  -4.867
REMARK INTRA:                  -0.065
REMARK UNBOUND:                -0.045
REMARK SMILES COc1cc2ccc(=O)oc2cc1O
REMARK SMILES IDX 3 1 13 2 12 3 11 4 5 5 4 6 6 7 7 8 8 9 9 10 10 11 2 12 1 13
REMARK SMILES IDX 14 14
REMARK H PARENT 14 15
REMARK Flexibility Score: inf
ROOT
ATOM      1  C   UNL     1       1.376 -19.240  -7.681  1.00  0.00     0.161 A 
ATOM      2  C   UNL     1       0.237 -19.624  -8.404  1.00  0.00     0.161 A 
ATOM      3  C   UNL     1      -0.797 -18.705  -8.636  1.00  0.00     0.098 A 
ATOM      4  C   UNL     1      -0.701 -17.398  -8.150  1.00  0.00     0.142 A 
ATOM      5  C   UNL     1       0.441 -17.005  -7.421  1.00  0.00     0.022 A 
ATOM      6  C   UNL     1       1.475 -17.923  -7.188  1.00  0.00     0.062 A 
ATOM      7  C   UNL     1       0.509 -15.691  -6.945  1.00  0.00     0.019 A 
ATOM      8  C   UNL     1      -0.545 -14.815  -7.203  1.00  0.00     0.094 A 
ATOM      9  C   UNL     1      -1.648 -15.276  -7.932  1.00  0.00     0.336 A 
ATOM     10  O   UNL     1      -2.609 -14.502  -8.175  1.00  0.00    -0.246 OA
ATOM     11  O   UNL     1      -1.686 -16.532  -8.373  1.00  0.00    -0.423 OA
ENDROOT
BRANCH   1  12
ATOM     12  O   UNL     1       2.387 -20.193  -7.472  1.00  0.00    -0.493 OA
ATOM     13  C   UNL     1       2.667 -20.811  -6.222  1.00  0.00     0.278 C 
ENDBRANCH   1  12
BRANCH   2  14
ATOM     14  O   UNL     1       0.138 -20.925  -8.892  1.00  0.00    -0.504 OA
ATOM     15  H   UNL     1      -0.639 -21.218  -9.473  1.00  0.00     0.293 HD
ENDBRANCH   2  14
TORSDOF 2
ENDMDL
MODEL 8
REMARK VINA RESULT:    -4.464      1.729      4.917
REMARK INTER + INTRA:          -4.900
REMARK INTER:                  -4.855
REMARK INTRA:                  -0.045
REMARK UNBOUND:                -0.045
REMARK SMILES COc1cc2ccc(=O)oc2cc1O
REMARK SMILES IDX 3 1 13 2 12 3 11 4 5 5 4 6 6 7 7 8 8 9 9 10 10 11 2 12 1 13
REMARK SMILES IDX 14 14
REMARK H PARENT 14 15
REMARK Flexibility Score: inf
ROOT
ATOM      1  C   UNL     1      -0.189 -14.640  -6.051  1.00  0.00     0.161 A 
ATOM      2  C   UNL     1       0.785 -15.561  -6.467  1.00  0.00     0.161 A 
ATOM      3  C   UNL     1       0.455 -16.579  -7.373  1.00  0.00     0.098 A 
ATOM      4  C   UNL     1      -0.847 -16.686  -7.870  1.00  0.00     0.142 A 
ATOM      5  C   UNL     1      -1.831 -15.764  -7.456  1.00  0.00     0.022 A 
ATOM      6  C   UNL     1      -1.503 -14.746  -6.551  1.00  0.00     0.062 A 
ATOM      7  C   UNL     1      -3.126 -15.896  -7.970  1.00  0.00     0.019 A 
ATOM      8  C   UNL     1      -3.404 -16.926  -8.869  1.00  0.00     0.094 A 
ATOM      9  C   UNL     1      -2.376 -17.804  -9.233  1.00  0.00     0.336 A 
ATOM     10  O   UNL     1      -2.607 -18.740 -10.042  1.00  0.00    -0.246 OA
ATOM     11  O   UNL     1      -1.153 -17.655  -8.729  1.00  0.00    -0.423 OA
ENDROOT
BRANCH   1  12
ATOM     12  O   UNL     1       0.186 -13.636  -5.143  1.00  0.00    -0.493 OA
ATOM     13  C   UNL     1      -0.660 -12.571  -4.724  1.00  0.00     0.278 C 
ENDBRANCH   1  12
BRANCH   2  14
ATOM     14  O   UNL     1       2.084 -15.457  -5.974  1.00  0.00    -0.504 OA
ATOM     15  H   UNL     1       2.330 -14.780  -5.262  1.00  0.00     0.293 HD
ENDBRANCH   2  14
TORSDOF 2
ENDMDL
MODEL 9
REMARK VINA RESULT:    -4.438      2.262      2.851
REMARK INTER + INTRA:          -4.872
REMARK INTER:                  -4.826
REMARK INTRA:                  -0.046
REMARK UNBOUND:                -0.045
REMARK SMILES COc1cc2ccc(=O)oc2cc1O
REMARK SMILES IDX 3 1 13 2 12 3 11 4 5 5 4 6 6 7 7 8 8 9 9 10 10 11 2 12 1 13
REMARK SMILES IDX 14 14
REMARK H PARENT 14 15
REMARK Flexibility Score: inf
ROOT
ATOM      1  C   UNL     1      -2.842 -17.185  -9.114  1.00  0.00     0.161 A 
ATOM      2  C   UNL     1      -1.907 -16.313  -8.538  1.00  0.00     0.161 A 
ATOM      3  C   UNL     1      -0.663 -16.794  -8.105  1.00  0.00     0.098 A 
ATOM      4  C   UNL     1      -0.343 -18.148  -8.245  1.00  0.00     0.142 A 
ATOM      5  C   UNL     1      -1.279 -19.031  -8.823  1.00  0.00     0.022 A 
ATOM      6  C   UNL     1      -2.523 -18.551  -9.255  1.00  0.00     0.062 A 
ATOM      7  C   UNL     1      -0.932 -20.380  -8.950  1.00  0.00     0.019 A 
ATOM      8  C   UNL     1       0.318 -20.810  -8.505  1.00  0.00     0.094 A 
ATOM      9  C   UNL     1       1.195 -19.876  -7.940  1.00  0.00     0.336 A 
ATOM     10  O   UNL     1       2.327 -20.244  -7.532  1.00  0.00    -0.246 OA
ATOM     11  O   UNL     1       0.839 -18.598  -7.832  1.00  0.00    -0.423 OA
ENDROOT
BRANCH   1  12
ATOM     12  O   UNL     1      -4.076 -16.660  -9.533  1.00  0.00    -0.493 OA
ATOM     13  C   UNL     1      -4.970 -17.315 -10.426  1.00  0.00     0.278 C 
ENDBRANCH   1  12
BRANCH   2  14
ATOM     14  O   UNL     1      -2.221 -14.963  -8.397  1.00  0.00    -0.504 OA
ATOM     15  H   UNL     1      -2.006 -14.288  -9.122  1.00  0.00     0.293 HD
ENDBRANCH   2  14
TORSDOF 2
ENDMDL
