MODEL 1
REMARK VINA RESULT:    18.576      0.000      0.000
REMARK INTER + INTRA:          25.762
REMARK INTER:                  25.092
REMARK INTRA:                   0.670
REMARK UNBOUND:                 0.670
REMARK SMILES COc1ccc(-c2cc(=O)c3c(OC)c(OC)c(OC)c(OC)c3o2)cc1
REMARK SMILES IDX 7 1 8 2 9 3 10 4 11 5 24 6 25 7 21 8 18 9 15 10 12 11 6 12
REMARK SMILES IDX 3 13 4 14 27 15 5 16 26 17 2 18 1 19 22 20 23 21 13 22 14 23
REMARK SMILES IDX 19 24 20 25 16 26 17 27
REMARK H PARENT
REMARK Flexibility Score: inf
ROOT
ATOM      1  C   UNL     1     135.208 159.324 173.063  1.00  0.00     0.138 A 
ATOM      2  C   UNL     1     136.587 159.476 173.268  1.00  0.00     0.100 A 
ATOM      3  C   UNL     1     137.049 160.504 174.088  1.00  0.00     0.197 A 
ATOM      4  O   UNL     1     138.291 160.623 174.264  1.00  0.00    -0.289 OA
ATOM      5  C   UNL     1     136.125 161.382 174.705  1.00  0.00     0.115 A 
ATOM      6  C   UNL     1     134.755 161.159 174.449  1.00  0.00     0.188 A 
ATOM      7  O   UNL     1     134.366 160.159 173.662  1.00  0.00    -0.452 OA
ATOM      8  C   UNL     1     133.783 161.974 175.026  1.00  0.00     0.209 A 
ATOM      9  C   UNL     1     134.161 163.074 175.816  1.00  0.00     0.211 A 
ATOM     10  C   UNL     1     135.527 163.283 176.139  1.00  0.00     0.208 A 
ATOM     11  C   UNL     1     136.518 162.438 175.565  1.00  0.00     0.179 A 
ENDROOT
BRANCH   1  12
ATOM     12  C   UNL     1     134.654 158.245 172.207  1.00  0.00     0.018 A 
ATOM     13  C   UNL     1     133.542 156.190 170.618  1.00  0.00     0.118 A 
ATOM     14  C   UNL     1     134.475 157.088 170.068  1.00  0.00     0.047 A 
ATOM     15  C   UNL     1     133.166 156.334 171.957  1.00  0.00     0.047 A 
ATOM     16  C   UNL     1     135.022 158.107 170.854  1.00  0.00     0.016 A 
ATOM     17  C   UNL     1     133.711 157.352 172.745  1.00  0.00     0.016 A 
BRANCH  13  18
ATOM     18  O   UNL     1     132.966 155.152 169.871  1.00  0.00    -0.497 OA
ATOM     19  C   UNL     1     131.807 154.426 170.263  1.00  0.00     0.278 C 
ENDBRANCH  13  18
ENDBRANCH   1  12
BRANCH   8  20
ATOM     20  O   UNL     1     132.439 161.661 174.797  1.00  0.00    -0.490 OA
ATOM     21  C   UNL     1     131.782 161.953 173.567  1.00  0.00     0.278 C 
ENDBRANCH   8  20
BRANCH  11  22
ATOM     22  O   UNL     1     137.899 162.602 175.814  1.00  0.00    -0.492 OA
ATOM     23  C   UNL     1     138.535 162.839 177.066  1.00  0.00     0.278 C 
ENDBRANCH  11  22
BRANCH   9  24
ATOM     24  O   UNL     1     133.187 163.972 176.263  1.00  0.00    -0.490 OA
ATOM     25  C   UNL     1     132.965 165.230 175.633  1.00  0.00     0.279 C 
ENDBRANCH   9  24
BRANCH  10  26
ATOM     26  O   UNL     1     135.942 164.314 177.004  1.00  0.00    -0.490 OA
ATOM     27  C   UNL     1     136.447 164.178 178.328  1.00  0.00     0.278 C 
ENDBRANCH  10  26
TORSDOF 6
ENDMDL
MODEL 2
REMARK VINA RESULT:    19.625      1.212      3.493
REMARK INTER + INTRA:          27.179
REMARK INTER:                  26.052
REMARK INTRA:                   1.127
REMARK UNBOUND:                 0.670
REMARK SMILES COc1ccc(-c2cc(=O)c3c(OC)c(OC)c(OC)c(OC)c3o2)cc1
REMARK SMILES IDX 7 1 8 2 9 3 10 4 11 5 24 6 25 7 21 8 18 9 15 10 12 11 6 12
REMARK SMILES IDX 3 13 4 14 27 15 5 16 26 17 2 18 1 19 22 20 23 21 13 22 14 23
REMARK SMILES IDX 19 24 20 25 16 26 17 27
REMARK H PARENT
REMARK Flexibility Score: inf
ROOT
ATOM      1  C   UNL     1     134.614 159.763 173.052  1.00  0.00     0.138 A 
ATOM      2  C   UNL     1     133.400 160.356 173.425  1.00  0.00     0.100 A 
ATOM      3  C   UNL     1     133.402 161.397 174.354  1.00  0.00     0.197 A 
ATOM      4  O   UNL     1     132.301 161.921 174.674  1.00  0.00    -0.289 OA
ATOM      5  C   UNL     1     134.625 161.843 174.909  1.00  0.00     0.115 A 
ATOM      6  C   UNL     1     135.802 161.195 174.478  1.00  0.00     0.188 A 
ATOM      7  O   UNL     1     135.746 160.209 173.585  1.00  0.00    -0.452 OA
ATOM      8  C   UNL     1     137.047 161.582 174.970  1.00  0.00     0.209 A 
ATOM      9  C   UNL     1     137.138 162.580 175.957  1.00  0.00     0.211 A 
ATOM     10  C   UNL     1     135.977 163.289 176.361  1.00  0.00     0.208 A 
ATOM     11  C   UNL     1     134.708 162.906 175.843  1.00  0.00     0.179 A 
ENDROOT
BRANCH   1  12
ATOM     12  C   UNL     1     134.678 158.657 172.064  1.00  0.00     0.018 A 
ATOM     13  C   UNL     1     134.762 156.511 170.227  1.00  0.00     0.118 A 
ATOM     14  C   UNL     1     134.908 157.837 169.780  1.00  0.00     0.047 A 
ATOM     15  C   UNL     1     134.567 156.271 171.591  1.00  0.00     0.047 A 
ATOM     16  C   UNL     1     134.862 158.899 170.689  1.00  0.00     0.016 A 
ATOM     17  C   UNL     1     134.522 157.330 172.502  1.00  0.00     0.016 A 
BRANCH  13  18
ATOM     18  O   UNL     1     134.801 155.414 169.355  1.00  0.00    -0.497 OA
ATOM     19  C   UNL     1     135.848 154.451 169.320  1.00  0.00     0.278 C 
ENDBRANCH  13  18
ENDBRANCH   1  12
BRANCH   8  20
ATOM     20  O   UNL     1     138.186 160.954 174.452  1.00  0.00    -0.490 OA
ATOM     21  C   UNL     1     138.733 161.287 173.180  1.00  0.00     0.278 C 
ENDBRANCH   8  20
BRANCH  11  22
ATOM     22  O   UNL     1     133.505 163.544 176.220  1.00  0.00    -0.492 OA
ATOM     23  C   UNL     1     133.063 164.848 175.859  1.00  0.00     0.278 C 
ENDBRANCH  11  22
BRANCH   9  24
ATOM     24  O   UNL     1     138.373 162.853 176.553  1.00  0.00    -0.490 OA
ATOM     25  C   UNL     1     138.567 162.798 177.963  1.00  0.00     0.279 C 
ENDBRANCH   9  24
BRANCH  10  26
ATOM     26  O   UNL     1     136.035 164.359 177.275  1.00  0.00    -0.490 OA
ATOM     27  C   UNL     1     136.509 164.323 178.617  1.00  0.00     0.278 C 
ENDBRANCH  10  26
TORSDOF 6
ENDMDL
MODEL 3
REMARK VINA RESULT:    21.434      1.829      4.006
REMARK INTER + INTRA:          29.622
REMARK INTER:                  28.847
REMARK INTRA:                   0.776
REMARK UNBOUND:                 0.670
REMARK SMILES COc1ccc(-c2cc(=O)c3c(OC)c(OC)c(OC)c(OC)c3o2)cc1
REMARK SMILES IDX 7 1 8 2 9 3 10 4 11 5 24 6 25 7 21 8 18 9 15 10 12 11 6 12
REMARK SMILES IDX 3 13 4 14 27 15 5 16 26 17 2 18 1 19 22 20 23 21 13 22 14 23
REMARK SMILES IDX 19 24 20 25 16 26 17 27
REMARK H PARENT
REMARK Flexibility Score: inf
ROOT
ATOM      1  C   UNL     1     134.089 158.713 171.747  1.00  0.00     0.138 A 
ATOM      2  C   UNL     1     132.830 159.277 171.498  1.00  0.00     0.100 A 
ATOM      3  C   UNL     1     132.393 160.350 172.275  1.00  0.00     0.197 A 
ATOM      4  O   UNL     1     131.261 160.847 172.034  1.00  0.00    -0.289 OA
ATOM      5  C   UNL     1     133.223 160.858 173.304  1.00  0.00     0.115 A 
ATOM      6  C   UNL     1     134.476 160.235 173.487  1.00  0.00     0.188 A 
ATOM      7  O   UNL     1     134.847 159.216 172.715  1.00  0.00    -0.452 OA
ATOM      8  C   UNL     1     135.354 160.681 174.473  1.00  0.00     0.209 A 
ATOM      9  C   UNL     1     134.971 161.717 175.344  1.00  0.00     0.211 A 
ATOM     10  C   UNL     1     133.744 162.400 175.142  1.00  0.00     0.208 A 
ATOM     11  C   UNL     1     132.856 161.956 174.122  1.00  0.00     0.179 A 
ENDROOT
BRANCH   1  12
ATOM     12  C   UNL     1     134.612 157.574 170.951  1.00  0.00     0.018 A 
ATOM     13  C   UNL     1     135.544 155.378 169.437  1.00  0.00     0.118 A 
ATOM     14  C   UNL     1     136.167 156.634 169.325  1.00  0.00     0.047 A 
ATOM     15  C   UNL     1     134.453 155.233 170.300  1.00  0.00     0.047 A 
ATOM     16  C   UNL     1     135.702 157.722 170.071  1.00  0.00     0.016 A 
ATOM     17  C   UNL     1     133.988 156.319 171.048  1.00  0.00     0.016 A 
BRANCH  13  18
ATOM     18  O   UNL     1     135.973 154.257 168.711  1.00  0.00    -0.497 OA
ATOM     19  C   UNL     1     136.732 153.186 169.259  1.00  0.00     0.278 C 
ENDBRANCH  13  18
ENDBRANCH   1  12
BRANCH   8  20
ATOM     20  O   UNL     1     136.612 160.075 174.560  1.00  0.00    -0.490 OA
ATOM     21  C   UNL     1     137.809 160.727 174.146  1.00  0.00     0.278 C 
ENDBRANCH   8  20
BRANCH  11  22
ATOM     22  O   UNL     1     131.605 162.565 173.879  1.00  0.00    -0.492 OA
ATOM     23  C   UNL     1     131.187 163.255 172.706  1.00  0.00     0.278 C 
ENDBRANCH  11  22
BRANCH   9  24
ATOM     24  O   UNL     1     135.794 162.053 176.423  1.00  0.00    -0.490 OA
ATOM     25  C   UNL     1     136.763 163.095 176.346  1.00  0.00     0.279 C 
ENDBRANCH   9  24
BRANCH  10  26
ATOM     26  O   UNL     1     133.364 163.504 175.929  1.00  0.00    -0.490 OA
ATOM     27  C   UNL     1     133.437 164.881 175.577  1.00  0.00     0.278 C 
ENDBRANCH  10  26
TORSDOF 6
ENDMDL
