MODEL 1
REMARK VINA RESULT:    -6.767      0.000      0.000
REMARK INTER + INTRA:          -8.272
REMARK INTER:                  -7.954
REMARK INTRA:                  -0.318
REMARK UNBOUND:                -0.318
REMARK SMILES O=c1c(O)c(-c2ccc(O)c(O)c2)oc2cc(O)ccc12
REMARK SMILES IDX 5 1 3 2 2 3 1 4 21 5 15 6 14 7 16 8 17 9 19 10 20 11 6 12
REMARK SMILES IDX 7 13 8 14 9 15 13 16 11 17 10 18 12 20 4 22 18 24
REMARK H PARENT 10 19 12 21 4 23 18 25
REMARK Flexibility Score: inf
ROOT
ATOM      1  C   UNL     1      -7.197 -34.984 -50.494  1.00  0.00     0.180 A 
ATOM      2  C   UNL     1      -8.421 -35.241 -49.845  1.00  0.00     0.208 A 
ATOM      3  C   UNL     1      -9.415 -35.955 -50.532  1.00  0.00     0.235 A 
ATOM      4  O   UNL     1     -10.523 -36.188 -49.977  1.00  0.00    -0.285 OA
ATOM      5  C   UNL     1      -9.160 -36.412 -51.835  1.00  0.00     0.069 A 
ATOM      6  C   UNL     1      -7.900 -36.135 -52.407  1.00  0.00     0.142 A 
ATOM      7  O   UNL     1      -6.989 -35.447 -51.725  1.00  0.00    -0.452 OA
ATOM      8  C   UNL     1      -7.603 -36.581 -53.699  1.00  0.00     0.094 A 
ATOM      9  C   UNL     1      -8.556 -37.304 -54.431  1.00  0.00     0.119 A 
ATOM     10  C   UNL     1      -9.806 -37.579 -53.868  1.00  0.00     0.047 A 
ATOM     11  C   UNL     1     -10.110 -37.138 -52.576  1.00  0.00     0.020 A 
ENDROOT
BRANCH   1  12
ATOM     12  C   UNL     1      -6.107 -34.221 -49.844  1.00  0.00     0.025 A 
ATOM     13  C   UNL     1      -5.974 -32.834 -50.026  1.00  0.00     0.016 A 
ATOM     14  C   UNL     1      -4.923 -32.140 -49.421  1.00  0.00     0.051 A 
ATOM     15  C   UNL     1      -3.983 -32.821 -48.637  1.00  0.00     0.157 A 
ATOM     16  C   UNL     1      -5.150 -34.904 -49.074  1.00  0.00     0.062 A 
ATOM     17  C   UNL     1      -4.097 -34.211 -48.466  1.00  0.00     0.158 A 
BRANCH  15  18
ATOM     18  O   UNL     1      -2.938 -32.125 -48.034  1.00  0.00    -0.504 OA
ATOM     19  H   UNL     1      -1.986 -32.472 -48.059  1.00  0.00     0.293 HD
ENDBRANCH  15  18
BRANCH  17  20
ATOM     20  O   UNL     1      -3.175 -34.920 -47.697  1.00  0.00    -0.504 OA
ATOM     21  H   UNL     1      -2.178 -34.867 -47.869  1.00  0.00     0.293 HD
ENDBRANCH  17  20
ENDBRANCH   1  12
BRANCH   2  22
ATOM     22  O   UNL     1      -8.629 -34.816 -48.530  1.00  0.00    -0.502 OA
ATOM     23  H   UNL     1      -8.043 -35.122 -47.763  1.00  0.00     0.293 HD
ENDBRANCH   2  22
BRANCH   9  24
ATOM     24  O   UNL     1      -8.270 -37.753 -55.719  1.00  0.00    -0.508 OA
ATOM     25  H   UNL     1      -8.027 -37.108 -56.463  1.00  0.00     0.293 HD
ENDBRANCH   9  24
TORSDOF 5
ENDMDL
MODEL 2
REMARK VINA RESULT:    -6.743      3.477      7.812
REMARK INTER + INTRA:          -8.244
REMARK INTER:                  -7.923
REMARK INTRA:                  -0.321
REMARK UNBOUND:                -0.318
REMARK SMILES O=c1c(O)c(-c2ccc(O)c(O)c2)oc2cc(O)ccc12
REMARK SMILES IDX 5 1 3 2 2 3 1 4 21 5 15 6 14 7 16 8 17 9 19 10 20 11 6 12
REMARK SMILES IDX 7 13 8 14 9 15 13 16 11 17 10 18 12 20 4 22 18 24
REMARK H PARENT 10 19 12 21 4 23 18 25
REMARK Flexibility Score: inf
ROOT
ATOM      1  C   UNL     1      -4.703 -31.307 -49.706  1.00  0.00     0.180 A 
ATOM      2  C   UNL     1      -3.468 -31.352 -49.028  1.00  0.00     0.208 A 
ATOM      3  C   UNL     1      -2.464 -30.439 -49.388  1.00  0.00     0.235 A 
ATOM      4  O   UNL     1      -1.347 -30.466 -48.804  1.00  0.00    -0.285 OA
ATOM      5  C   UNL     1      -2.720 -29.495 -50.395  1.00  0.00     0.069 A 
ATOM      6  C   UNL     1      -3.991 -29.499 -51.010  1.00  0.00     0.142 A 
ATOM      7  O   UNL     1      -4.910 -30.387 -50.646  1.00  0.00    -0.452 OA
ATOM      8  C   UNL     1      -4.288 -28.568 -52.011  1.00  0.00     0.094 A 
ATOM      9  C   UNL     1      -3.326 -27.629 -52.409  1.00  0.00     0.119 A 
ATOM     10  C   UNL     1      -2.066 -27.623 -51.802  1.00  0.00     0.047 A 
ATOM     11  C   UNL     1      -1.760 -28.550 -50.800  1.00  0.00     0.020 A 
ENDROOT
BRANCH   1  12
ATOM     12  C   UNL     1      -5.804 -32.248 -49.398  1.00  0.00     0.025 A 
ATOM     13  C   UNL     1      -5.958 -33.453 -50.105  1.00  0.00     0.016 A 
ATOM     14  C   UNL     1      -7.019 -34.314 -49.811  1.00  0.00     0.051 A 
ATOM     15  C   UNL     1      -7.948 -33.979 -48.818  1.00  0.00     0.157 A 
ATOM     16  C   UNL     1      -6.751 -31.906 -48.417  1.00  0.00     0.062 A 
ATOM     17  C   UNL     1      -7.814 -32.766 -48.121  1.00  0.00     0.158 A 
BRANCH  15  18
ATOM     18  O   UNL     1      -9.004 -34.840 -48.527  1.00  0.00    -0.504 OA
ATOM     19  H   UNL     1      -9.181 -35.669 -49.082  1.00  0.00     0.293 HD
ENDBRANCH  15  18
BRANCH  17  20
ATOM     20  O   UNL     1      -8.726 -32.400 -47.132  1.00  0.00    -0.504 OA
ATOM     21  H   UNL     1      -9.488 -33.005 -46.851  1.00  0.00     0.293 HD
ENDBRANCH  17  20
ENDBRANCH   1  12
BRANCH   2  22
ATOM     22  O   UNL     1      -3.259 -32.270 -47.996  1.00  0.00    -0.502 OA
ATOM     23  H   UNL     1      -2.590 -32.108 -47.254  1.00  0.00     0.293 HD
ENDBRANCH   2  22
BRANCH   9  24
ATOM     24  O   UNL     1      -3.612 -26.698 -53.405  1.00  0.00    -0.508 OA
ATOM     25  H   UNL     1      -3.325 -26.846 -54.366  1.00  0.00     0.293 HD
ENDBRANCH   9  24
TORSDOF 5
ENDMDL
MODEL 3
REMARK VINA RESULT:    -6.666      2.926      4.837
REMARK INTER + INTRA:          -8.154
REMARK INTER:                  -7.879
REMARK INTRA:                  -0.275
REMARK UNBOUND:                -0.318
REMARK SMILES O=c1c(O)c(-c2ccc(O)c(O)c2)oc2cc(O)ccc12
REMARK SMILES IDX 5 1 3 2 2 3 1 4 21 5 15 6 14 7 16 8 17 9 19 10 20 11 6 12
REMARK SMILES IDX 7 13 8 14 9 15 13 16 11 17 10 18 12 20 4 22 18 24
REMARK H PARENT 10 19 12 21 4 23 18 25
REMARK Flexibility Score: inf
ROOT
ATOM      1  C   UNL     1      -6.148 -33.739 -49.778  1.00  0.00     0.180 A 
ATOM      2  C   UNL     1      -7.223 -34.613 -50.035  1.00  0.00     0.208 A 
ATOM      3  C   UNL     1      -8.527 -34.093 -50.065  1.00  0.00     0.235 A 
ATOM      4  O   UNL     1      -9.507 -34.857 -50.281  1.00  0.00    -0.285 OA
ATOM      5  C   UNL     1      -8.725 -32.718 -49.861  1.00  0.00     0.069 A 
ATOM      6  C   UNL     1      -7.594 -31.905 -49.633  1.00  0.00     0.142 A 
ATOM      7  O   UNL     1      -6.378 -32.439 -49.604  1.00  0.00    -0.452 OA
ATOM      8  C   UNL     1      -7.749 -30.529 -49.435  1.00  0.00     0.094 A 
ATOM      9  C   UNL     1      -9.027 -29.953 -49.459  1.00  0.00     0.119 A 
ATOM     10  C   UNL     1     -10.150 -30.756 -49.683  1.00  0.00     0.047 A 
ATOM     11  C   UNL     1     -10.004 -32.132 -49.883  1.00  0.00     0.020 A 
ENDROOT
BRANCH   1  12
ATOM     12  C   UNL     1      -4.748 -34.214 -49.711  1.00  0.00     0.025 A 
ATOM     13  C   UNL     1      -4.011 -34.490 -50.876  1.00  0.00     0.016 A 
ATOM     14  C   UNL     1      -2.698 -34.960 -50.787  1.00  0.00     0.051 A 
ATOM     15  C   UNL     1      -2.106 -35.173 -49.536  1.00  0.00     0.157 A 
ATOM     16  C   UNL     1      -4.157 -34.450 -48.458  1.00  0.00     0.062 A 
ATOM     17  C   UNL     1      -2.841 -34.920 -48.366  1.00  0.00     0.158 A 
BRANCH  15  18
ATOM     18  O   UNL     1      -0.796 -35.640 -49.451  1.00  0.00    -0.504 OA
ATOM     19  H   UNL     1      -0.586 -36.632 -49.442  1.00  0.00     0.293 HD
ENDBRANCH  15  18
BRANCH  17  20
ATOM     20  O   UNL     1      -2.284 -35.128 -47.105  1.00  0.00    -0.504 OA
ATOM     21  H   UNL     1      -2.781 -34.900 -46.253  1.00  0.00     0.293 HD
ENDBRANCH  17  20
ENDBRANCH   1  12
BRANCH   2  22
ATOM     22  O   UNL     1      -6.991 -35.968 -50.283  1.00  0.00    -0.502 OA
ATOM     23  H   UNL     1      -6.693 -36.310 -51.188  1.00  0.00     0.293 HD
ENDBRANCH   2  22
BRANCH   9  24
ATOM     24  O   UNL     1      -9.192 -28.583 -49.262  1.00  0.00    -0.508 OA
ATOM     25  H   UNL     1      -8.519 -28.039 -48.734  1.00  0.00     0.293 HD
ENDBRANCH   9  24
TORSDOF 5
ENDMDL
MODEL 4
REMARK VINA RESULT:    -6.643      4.162      6.183
REMARK INTER + INTRA:          -8.127
REMARK INTER:                  -7.858
REMARK INTRA:                  -0.269
REMARK UNBOUND:                -0.318
REMARK SMILES O=c1c(O)c(-c2ccc(O)c(O)c2)oc2cc(O)ccc12
REMARK SMILES IDX 5 1 3 2 2 3 1 4 21 5 15 6 14 7 16 8 17 9 19 10 20 11 6 12
REMARK SMILES IDX 7 13 8 14 9 15 13 16 11 17 10 18 12 20 4 22 18 24
REMARK H PARENT 10 19 12 21 4 23 18 25
REMARK Flexibility Score: inf
ROOT
ATOM      1  C   UNL     1      -5.490 -32.726 -49.603  1.00  0.00     0.180 A 
ATOM      2  C   UNL     1      -4.417 -31.821 -49.476  1.00  0.00     0.208 A 
ATOM      3  C   UNL     1      -3.111 -32.283 -49.705  1.00  0.00     0.235 A 
ATOM      4  O   UNL     1      -2.133 -31.496 -49.587  1.00  0.00    -0.285 OA
ATOM      5  C   UNL     1      -2.909 -33.623 -50.074  1.00  0.00     0.069 A 
ATOM      6  C   UNL     1      -4.038 -34.460 -50.203  1.00  0.00     0.142 A 
ATOM      7  O   UNL     1      -5.256 -33.985 -49.969  1.00  0.00    -0.452 OA
ATOM      8  C   UNL     1      -3.878 -35.798 -50.578  1.00  0.00     0.094 A 
ATOM      9  C   UNL     1      -2.598 -36.314 -50.824  1.00  0.00     0.119 A 
ATOM     10  C   UNL     1      -1.477 -35.487 -50.695  1.00  0.00     0.047 A 
ATOM     11  C   UNL     1      -1.627 -34.148 -50.322  1.00  0.00     0.020 A 
ENDROOT
BRANCH   1  12
ATOM     12  C   UNL     1      -6.893 -32.320 -49.360  1.00  0.00     0.025 A 
ATOM     13  C   UNL     1      -7.613 -31.568 -50.305  1.00  0.00     0.016 A 
ATOM     14  C   UNL     1      -8.928 -31.177 -50.042  1.00  0.00     0.051 A 
ATOM     15  C   UNL     1      -9.540 -31.519 -48.829  1.00  0.00     0.157 A 
ATOM     16  C   UNL     1      -7.503 -32.643 -48.136  1.00  0.00     0.062 A 
ATOM     17  C   UNL     1      -8.821 -32.253 -47.871  1.00  0.00     0.158 A 
BRANCH  15  18
ATOM     18  O   UNL     1     -10.852 -31.129 -48.571  1.00  0.00    -0.504 OA
ATOM     19  H   UNL     1     -11.639 -31.722 -48.807  1.00  0.00     0.293 HD
ENDBRANCH  15  18
BRANCH  17  20
ATOM     20  O   UNL     1      -9.398 -32.604 -46.651  1.00  0.00    -0.504 OA
ATOM     21  H   UNL     1      -9.472 -33.568 -46.348  1.00  0.00     0.293 HD
ENDBRANCH  17  20
ENDBRANCH   1  12
BRANCH   2  22
ATOM     22  O   UNL     1      -4.653 -30.482 -49.156  1.00  0.00    -0.502 OA
ATOM     23  H   UNL     1      -5.494 -30.178 -48.682  1.00  0.00     0.293 HD
ENDBRANCH   2  22
BRANCH   9  24
ATOM     24  O   UNL     1      -2.429 -37.645 -51.198  1.00  0.00    -0.508 OA
ATOM     25  H   UNL     1      -1.538 -37.991 -51.537  1.00  0.00     0.293 HD
ENDBRANCH   9  24
TORSDOF 5
ENDMDL
MODEL 5
REMARK VINA RESULT:    -6.449      3.134      6.149
REMARK INTER + INTRA:          -7.898
REMARK INTER:                  -7.594
REMARK INTRA:                  -0.304
REMARK UNBOUND:                -0.318
REMARK SMILES O=c1c(O)c(-c2ccc(O)c(O)c2)oc2cc(O)ccc12
REMARK SMILES IDX 5 1 3 2 2 3 1 4 21 5 15 6 14 7 16 8 17 9 19 10 20 11 6 12
REMARK SMILES IDX 7 13 8 14 9 15 13 16 11 17 10 18 12 20 4 22 18 24
REMARK H PARENT 10 19 12 21 4 23 18 25
REMARK Flexibility Score: inf
ROOT
ATOM      1  C   UNL     1      -5.393 -34.706 -49.842  1.00  0.00     0.180 A 
ATOM      2  C   UNL     1      -6.400 -34.086 -49.075  1.00  0.00     0.208 A 
ATOM      3  C   UNL     1      -6.379 -32.690 -48.931  1.00  0.00     0.235 A 
ATOM      4  O   UNL     1      -7.263 -32.113 -48.241  1.00  0.00    -0.285 OA
ATOM      5  C   UNL     1      -5.373 -31.947 -49.569  1.00  0.00     0.069 A 
ATOM      6  C   UNL     1      -4.415 -32.640 -50.339  1.00  0.00     0.142 A 
ATOM      7  O   UNL     1      -4.466 -33.964 -50.442  1.00  0.00    -0.452 OA
ATOM      8  C   UNL     1      -3.402 -31.934 -50.998  1.00  0.00     0.094 A 
ATOM      9  C   UNL     1      -3.334 -30.538 -50.895  1.00  0.00     0.119 A 
ATOM     10  C   UNL     1      -4.281 -29.848 -50.131  1.00  0.00     0.047 A 
ATOM     11  C   UNL     1      -5.298 -30.545 -49.470  1.00  0.00     0.020 A 
ENDROOT
BRANCH   1  12
ATOM     12  C   UNL     1      -5.336 -36.174 -50.024  1.00  0.00     0.025 A 
ATOM     13  C   UNL     1      -6.109 -36.822 -51.004  1.00  0.00     0.016 A 
ATOM     14  C   UNL     1      -6.056 -38.211 -51.141  1.00  0.00     0.051 A 
ATOM     15  C   UNL     1      -5.241 -38.976 -50.297  1.00  0.00     0.157 A 
ATOM     16  C   UNL     1      -4.537 -36.947 -49.165  1.00  0.00     0.062 A 
ATOM     17  C   UNL     1      -4.481 -38.339 -49.301  1.00  0.00     0.158 A 
BRANCH  15  18
ATOM     18  O   UNL     1      -5.189 -40.361 -50.437  1.00  0.00    -0.504 OA
ATOM     19  H   UNL     1      -4.714 -40.798 -51.218  1.00  0.00     0.293 HD
ENDBRANCH  15  18
BRANCH  17  20
ATOM     20  O   UNL     1      -3.666 -39.071 -48.439  1.00  0.00    -0.504 OA
ATOM     21  H   UNL     1      -3.482 -38.773 -47.488  1.00  0.00     0.293 HD
ENDBRANCH  17  20
ENDBRANCH   1  12
BRANCH   2  22
ATOM     22  O   UNL     1      -7.417 -34.847 -48.492  1.00  0.00    -0.502 OA
ATOM     23  H   UNL     1      -8.281 -35.058 -48.977  1.00  0.00     0.293 HD
ENDBRANCH   2  22
BRANCH   9  24
ATOM     24  O   UNL     1      -2.329 -29.826 -51.547  1.00  0.00    -0.508 OA
ATOM     25  H   UNL     1      -2.267 -28.816 -51.480  1.00  0.00     0.293 HD
ENDBRANCH   9  24
TORSDOF 5
ENDMDL
MODEL 6
REMARK VINA RESULT:    -6.448      1.719      6.691
REMARK INTER + INTRA:          -7.897
REMARK INTER:                  -7.597
REMARK INTRA:                  -0.300
REMARK UNBOUND:                -0.318
REMARK SMILES O=c1c(O)c(-c2ccc(O)c(O)c2)oc2cc(O)ccc12
REMARK SMILES IDX 5 1 3 2 2 3 1 4 21 5 15 6 14 7 16 8 17 9 19 10 20 11 6 12
REMARK SMILES IDX 7 13 8 14 9 15 13 16 11 17 10 18 12 20 4 22 18 24
REMARK H PARENT 10 19 12 21 4 23 18 25
REMARK Flexibility Score: inf
ROOT
ATOM      1  C   UNL     1      -7.927 -35.743 -51.185  1.00  0.00     0.180 A 
ATOM      2  C   UNL     1      -8.434 -34.769 -50.301  1.00  0.00     0.208 A 
ATOM      3  C   UNL     1      -7.577 -34.222 -49.333  1.00  0.00     0.235 A 
ATOM      4  O   UNL     1      -8.010 -33.357 -48.524  1.00  0.00    -0.285 OA
ATOM      5  C   UNL     1      -6.238 -34.641 -49.282  1.00  0.00     0.069 A 
ATOM      6  C   UNL     1      -5.801 -35.603 -50.218  1.00  0.00     0.142 A 
ATOM      7  O   UNL     1      -6.647 -36.102 -51.113  1.00  0.00    -0.452 OA
ATOM      8  C   UNL     1      -4.472 -36.039 -50.205  1.00  0.00     0.094 A 
ATOM      9  C   UNL     1      -3.569 -35.524 -49.264  1.00  0.00     0.119 A 
ATOM     10  C   UNL     1      -4.000 -34.571 -48.335  1.00  0.00     0.047 A 
ATOM     11  C   UNL     1      -5.327 -34.129 -48.340  1.00  0.00     0.020 A 
ENDROOT
BRANCH   1  12
ATOM     12  C   UNL     1      -8.772 -36.381 -52.220  1.00  0.00     0.025 A 
ATOM     13  C   UNL     1      -9.344 -37.650 -52.020  1.00  0.00     0.016 A 
ATOM     14  C   UNL     1     -10.118 -38.241 -53.022  1.00  0.00     0.051 A 
ATOM     15  C   UNL     1     -10.322 -37.582 -54.241  1.00  0.00     0.157 A 
ATOM     16  C   UNL     1      -8.962 -35.733 -53.453  1.00  0.00     0.062 A 
ATOM     17  C   UNL     1      -9.738 -36.323 -54.457  1.00  0.00     0.158 A 
BRANCH  15  18
ATOM     18  O   UNL     1     -11.096 -38.174 -55.237  1.00  0.00    -0.504 OA
ATOM     19  H   UNL     1     -11.395 -37.657 -56.055  1.00  0.00     0.293 HD
ENDBRANCH  15  18
BRANCH  17  20
ATOM     20  O   UNL     1      -9.916 -35.644 -55.662  1.00  0.00    -0.504 OA
ATOM     21  H   UNL     1      -9.154 -35.166 -56.128  1.00  0.00     0.293 HD
ENDBRANCH  17  20
ENDBRANCH   1  12
BRANCH   2  22
ATOM     22  O   UNL     1      -9.758 -34.336 -50.407  1.00  0.00    -0.502 OA
ATOM     23  H   UNL     1     -10.101 -33.834 -51.217  1.00  0.00     0.293 HD
ENDBRANCH   2  22
BRANCH   9  24
ATOM     24  O   UNL     1      -2.244 -35.952 -49.244  1.00  0.00    -0.508 OA
ATOM     25  H   UNL     1      -1.720 -36.095 -50.100  1.00  0.00     0.293 HD
ENDBRANCH   9  24
TORSDOF 5
ENDMDL
MODEL 7
REMARK VINA RESULT:    -6.424      4.641      6.977
REMARK INTER + INTRA:          -7.870
REMARK INTER:                  -7.546
REMARK INTRA:                  -0.323
REMARK UNBOUND:                -0.318
REMARK SMILES O=c1c(O)c(-c2ccc(O)c(O)c2)oc2cc(O)ccc12
REMARK SMILES IDX 5 1 3 2 2 3 1 4 21 5 15 6 14 7 16 8 17 9 19 10 20 11 6 12
REMARK SMILES IDX 7 13 8 14 9 15 13 16 11 17 10 18 12 20 4 22 18 24
REMARK H PARENT 10 19 12 21 4 23 18 25
REMARK Flexibility Score: inf
ROOT
ATOM      1  C   UNL     1      -3.856 -30.542 -50.113  1.00  0.00     0.180 A 
ATOM      2  C   UNL     1      -3.249 -31.703 -49.591  1.00  0.00     0.208 A 
ATOM      3  C   UNL     1      -4.054 -32.654 -48.944  1.00  0.00     0.235 A 
ATOM      4  O   UNL     1      -3.533 -33.695 -48.459  1.00  0.00    -0.285 OA
ATOM      5  C   UNL     1      -5.437 -32.438 -48.850  1.00  0.00     0.069 A 
ATOM      6  C   UNL     1      -5.972 -31.262 -49.419  1.00  0.00     0.142 A 
ATOM      7  O   UNL     1      -5.174 -30.382 -50.016  1.00  0.00    -0.452 OA
ATOM      8  C   UNL     1      -7.347 -31.015 -49.355  1.00  0.00     0.094 A 
ATOM      9  C   UNL     1      -8.200 -31.933 -48.725  1.00  0.00     0.119 A 
ATOM     10  C   UNL     1      -7.673 -33.098 -48.159  1.00  0.00     0.047 A 
ATOM     11  C   UNL     1      -6.300 -33.354 -48.219  1.00  0.00     0.020 A 
ENDROOT
BRANCH   1  12
ATOM     12  C   UNL     1      -3.074 -29.484 -50.792  1.00  0.00     0.025 A 
ATOM     13  C   UNL     1      -2.545 -28.393 -50.080  1.00  0.00     0.016 A 
ATOM     14  C   UNL     1      -1.831 -27.394 -50.748  1.00  0.00     0.051 A 
ATOM     15  C   UNL     1      -1.645 -27.463 -52.134  1.00  0.00     0.157 A 
ATOM     16  C   UNL     1      -2.904 -29.538 -52.186  1.00  0.00     0.062 A 
ATOM     17  C   UNL     1      -2.188 -28.539 -52.856  1.00  0.00     0.158 A 
BRANCH  15  18
ATOM     18  O   UNL     1      -0.931 -26.466 -52.796  1.00  0.00    -0.504 OA
ATOM     19  H   UNL     1      -0.193 -25.947 -52.335  1.00  0.00     0.293 HD
ENDBRANCH  15  18
BRANCH  17  20
ATOM     20  O   UNL     1      -2.027 -28.633 -54.238  1.00  0.00    -0.504 OA
ATOM     21  H   UNL     1      -1.135 -28.470 -54.688  1.00  0.00     0.293 HD
ENDBRANCH  17  20
ENDBRANCH   1  12
BRANCH   2  22
ATOM     22  O   UNL     1      -1.877 -31.914 -49.742  1.00  0.00    -0.502 OA
ATOM     23  H   UNL     1      -1.475 -32.275 -50.599  1.00  0.00     0.293 HD
ENDBRANCH   2  22
BRANCH   9  24
ATOM     24  O   UNL     1      -9.571 -31.696 -48.656  1.00  0.00    -0.508 OA
ATOM     25  H   UNL     1      -9.941 -30.758 -48.544  1.00  0.00     0.293 HD
ENDBRANCH   9  24
TORSDOF 5
ENDMDL
MODEL 8
REMARK VINA RESULT:    -6.393      2.874      5.372
REMARK INTER + INTRA:          -7.833
REMARK INTER:                  -7.525
REMARK INTRA:                  -0.308
REMARK UNBOUND:                -0.318
REMARK SMILES O=c1c(O)c(-c2ccc(O)c(O)c2)oc2cc(O)ccc12
REMARK SMILES IDX 5 1 3 2 2 3 1 4 21 5 15 6 14 7 16 8 17 9 19 10 20 11 6 12
REMARK SMILES IDX 7 13 8 14 9 15 13 16 11 17 10 18 12 20 4 22 18 24
REMARK H PARENT 10 19 12 21 4 23 18 25
REMARK Flexibility Score: inf
ROOT
ATOM      1  C   UNL     1      -6.228 -34.366 -49.967  1.00  0.00     0.180 A 
ATOM      2  C   UNL     1      -6.691 -35.493 -50.677  1.00  0.00     0.208 A 
ATOM      3  C   UNL     1      -5.763 -36.468 -51.078  1.00  0.00     0.235 A 
ATOM      4  O   UNL     1      -6.151 -37.479 -51.724  1.00  0.00    -0.285 OA
ATOM      5  C   UNL     1      -4.409 -36.308 -50.746  1.00  0.00     0.069 A 
ATOM      6  C   UNL     1      -4.029 -35.164 -50.013  1.00  0.00     0.142 A 
ATOM      7  O   UNL     1      -4.937 -34.260 -49.660  1.00  0.00    -0.452 OA
ATOM      8  C   UNL     1      -2.690 -34.973 -49.655  1.00  0.00     0.094 A 
ATOM      9  C   UNL     1      -1.720 -35.916 -50.024  1.00  0.00     0.119 A 
ATOM     10  C   UNL     1      -2.093 -37.051 -50.753  1.00  0.00     0.047 A 
ATOM     11  C   UNL     1      -3.430 -37.249 -51.114  1.00  0.00     0.020 A 
ENDROOT
BRANCH   1  12
ATOM     12  C   UNL     1      -7.140 -33.287 -49.526  1.00  0.00     0.025 A 
ATOM     13  C   UNL     1      -7.298 -32.108 -50.276  1.00  0.00     0.016 A 
ATOM     14  C   UNL     1      -8.146 -31.093 -49.827  1.00  0.00     0.051 A 
ATOM     15  C   UNL     1      -8.840 -31.233 -48.618  1.00  0.00     0.157 A 
ATOM     16  C   UNL     1      -7.821 -33.413 -48.303  1.00  0.00     0.062 A 
ATOM     17  C   UNL     1      -8.672 -32.398 -47.851  1.00  0.00     0.158 A 
BRANCH  15  18
ATOM     18  O   UNL     1      -9.686 -30.219 -48.174  1.00  0.00    -0.504 OA
ATOM     19  H   UNL     1     -10.009 -30.180 -47.214  1.00  0.00     0.293 HD
ENDBRANCH  15  18
BRANCH  17  20
ATOM     20  O   UNL     1      -9.342 -32.566 -46.640  1.00  0.00    -0.504 OA
ATOM     21  H   UNL     1      -9.726 -33.459 -46.356  1.00  0.00     0.293 HD
ENDBRANCH  17  20
ENDBRANCH   1  12
BRANCH   2  22
ATOM     22  O   UNL     1      -8.052 -35.649 -50.949  1.00  0.00    -0.502 OA
ATOM     23  H   UNL     1      -8.441 -35.494 -51.871  1.00  0.00     0.293 HD
ENDBRANCH   2  22
BRANCH   9  24
ATOM     24  O   UNL     1      -0.384 -35.736 -49.673  1.00  0.00    -0.508 OA
ATOM     25  H   UNL     1       0.359 -36.245 -50.138  1.00  0.00     0.293 HD
ENDBRANCH   9  24
TORSDOF 5
ENDMDL
MODEL 9
REMARK VINA RESULT:    -6.358      3.133      4.786
REMARK INTER + INTRA:          -7.792
REMARK INTER:                  -7.478
REMARK INTRA:                  -0.314
REMARK UNBOUND:                -0.318
REMARK SMILES O=c1c(O)c(-c2ccc(O)c(O)c2)oc2cc(O)ccc12
REMARK SMILES IDX 5 1 3 2 2 3 1 4 21 5 15 6 14 7 16 8 17 9 19 10 20 11 6 12
REMARK SMILES IDX 7 13 8 14 9 15 13 16 11 17 10 18 12 20 4 22 18 24
REMARK H PARENT 10 19 12 21 4 23 18 25
REMARK Flexibility Score: inf
ROOT
ATOM      1  C   UNL     1      -6.327 -31.921 -49.307  1.00  0.00     0.180 A 
ATOM      2  C   UNL     1      -5.291 -32.757 -48.842  1.00  0.00     0.208 A 
ATOM      3  C   UNL     1      -5.288 -34.108 -49.225  1.00  0.00     0.235 A 
ATOM      4  O   UNL     1      -4.378 -34.878 -48.813  1.00  0.00    -0.285 OA
ATOM      5  C   UNL     1      -6.298 -34.586 -50.074  1.00  0.00     0.069 A 
ATOM      6  C   UNL     1      -7.287 -33.680 -50.516  1.00  0.00     0.142 A 
ATOM      7  O   UNL     1      -7.259 -32.411 -50.122  1.00  0.00    -0.452 OA
ATOM      8  C   UNL     1      -8.305 -34.116 -51.370  1.00  0.00     0.094 A 
ATOM      9  C   UNL     1      -8.349 -35.453 -51.790  1.00  0.00     0.119 A 
ATOM     10  C   UNL     1      -7.372 -36.354 -51.352  1.00  0.00     0.047 A 
ATOM     11  C   UNL     1      -6.350 -35.926 -50.499  1.00  0.00     0.020 A 
ENDROOT
BRANCH   1  12
ATOM     12  C   UNL     1      -6.411 -30.492 -48.932  1.00  0.00     0.025 A 
ATOM     13  C   UNL     1      -5.721 -29.503 -49.655  1.00  0.00     0.016 A 
ATOM     14  C   UNL     1      -5.797 -28.162 -49.268  1.00  0.00     0.051 A 
ATOM     15  C   UNL     1      -6.552 -27.791 -48.148  1.00  0.00     0.157 A 
ATOM     16  C   UNL     1      -7.150 -30.117 -47.797  1.00  0.00     0.062 A 
ATOM     17  C   UNL     1      -7.228 -28.775 -47.407  1.00  0.00     0.158 A 
BRANCH  15  18
ATOM     18  O   UNL     1      -6.627 -26.453 -47.766  1.00  0.00    -0.504 OA
ATOM     19  H   UNL     1      -6.081 -25.737 -48.230  1.00  0.00     0.293 HD
ENDBRANCH  15  18
BRANCH  17  20
ATOM     20  O   UNL     1      -7.983 -28.439 -46.284  1.00  0.00    -0.504 OA
ATOM     21  H   UNL     1      -7.557 -28.081 -45.437  1.00  0.00     0.293 HD
ENDBRANCH  17  20
ENDBRANCH   1  12
BRANCH   2  22
ATOM     22  O   UNL     1      -4.272 -32.241 -48.038  1.00  0.00    -0.502 OA
ATOM     23  H   UNL     1      -4.405 -31.429 -47.448  1.00  0.00     0.293 HD
ENDBRANCH   2  22
BRANCH   9  24
ATOM     24  O   UNL     1      -9.359 -35.897 -52.640  1.00  0.00    -0.508 OA
ATOM     25  H   UNL     1     -10.281 -35.475 -52.634  1.00  0.00     0.293 HD
ENDBRANCH   9  24
TORSDOF 5
ENDMDL
