MODEL 1
REMARK VINA RESULT:    -3.744      0.000      0.000
REMARK INTER + INTRA:          -5.990
REMARK INTER:                  -5.495
REMARK INTRA:                  -0.495
REMARK UNBOUND:                -0.495
REMARK SMILES O=C([O-])CCCCCCCC(=O)[O-]
REMARK SMILES IDX 7 1 6 2 5 3 4 4 2 5 1 6 3 7 8 8 9 9 10 10 11 11 12 12 13 13
REMARK H PARENT
REMARK Flexibility Score: inf
ROOT
ATOM      1  C   UNL     1     157.896 173.108 162.919  1.00  0.00     0.000 C 
ENDROOT
BRANCH   1   2
ATOM      2  C   UNL     1     156.414 172.882 163.249  1.00  0.00     0.000 C 
BRANCH   2   3
ATOM      3  C   UNL     1     156.156 172.742 164.758  1.00  0.00     0.006 C 
BRANCH   3   4
ATOM      4  C   UNL     1     156.235 174.083 165.497  1.00  0.00     0.053 C 
BRANCH   4   5
ATOM      5  C   UNL     1     155.484 175.138 164.748  1.00  0.00     0.041 C 
ATOM      6  O   UNL     1     156.093 176.125 164.260  1.00  0.00    -0.550 OA
ATOM      7  O   UNL     1     154.116 175.005 164.545  1.00  0.00    -0.550 OA
ENDBRANCH   4   5
ENDBRANCH   3   4
ENDBRANCH   2   3
ENDBRANCH   1   2
BRANCH   1   8
ATOM      8  C   UNL     1     158.061 174.178 161.833  1.00  0.00     0.000 C 
BRANCH   8   9
ATOM      9  C   UNL     1     156.815 174.250 160.936  1.00  0.00     0.006 C 
BRANCH   9  10
ATOM     10  C   UNL     1     156.988 175.244 159.781  1.00  0.00     0.053 C 
BRANCH  10  11
ATOM     11  C   UNL     1     156.570 174.652 158.469  1.00  0.00     0.041 C 
ATOM     12  O   UNL     1     157.066 173.561 158.081  1.00  0.00    -0.550 OA
ATOM     13  O   UNL     1     155.660 175.321 157.662  1.00  0.00    -0.550 OA
ENDBRANCH  10  11
ENDBRANCH   9  10
ENDBRANCH   8   9
ENDBRANCH   1   8
TORSDOF 8
ENDMDL
MODEL 2
REMARK VINA RESULT:    -3.701      2.581      3.898
REMARK INTER + INTRA:          -5.927
REMARK INTER:                  -5.162
REMARK INTRA:                  -0.765
REMARK UNBOUND:                -0.495
REMARK SMILES O=C([O-])CCCCCCCC(=O)[O-]
REMARK SMILES IDX 7 1 6 2 5 3 4 4 2 5 1 6 3 7 8 8 9 9 10 10 11 11 12 12 13 13
REMARK H PARENT
REMARK Flexibility Score: inf
ROOT
ATOM      1  C   UNL     1     156.976 173.875 165.875  1.00  0.00     0.000 C 
ENDROOT
BRANCH   1   2
ATOM      2  C   UNL     1     155.626 173.447 166.467  1.00  0.00     0.000 C 
BRANCH   2   3
ATOM      3  C   UNL     1     155.501 171.923 166.618  1.00  0.00     0.006 C 
BRANCH   3   4
ATOM      4  C   UNL     1     154.112 171.402 166.231  1.00  0.00     0.053 C 
BRANCH   4   5
ATOM      5  C   UNL     1     153.953 171.396 164.743  1.00  0.00     0.041 C 
ATOM      6  O   UNL     1     153.174 172.212 164.186  1.00  0.00    -0.550 OA
ATOM      7  O   UNL     1     154.703 170.522 163.967  1.00  0.00    -0.550 OA
ENDBRANCH   4   5
ENDBRANCH   3   4
ENDBRANCH   2   3
ENDBRANCH   1   2
BRANCH   1   8
ATOM      8  C   UNL     1     156.785 174.908 164.758  1.00  0.00     0.000 C 
BRANCH   8   9
ATOM      9  C   UNL     1     155.970 174.320 163.596  1.00  0.00     0.006 C 
BRANCH   9  10
ATOM     10  C   UNL     1     156.719 173.195 162.872  1.00  0.00     0.053 C 
BRANCH  10  11
ATOM     11  C   UNL     1     157.908 173.712 162.119  1.00  0.00     0.041 C 
ATOM     12  O   UNL     1     157.750 174.313 161.023  1.00  0.00    -0.550 OA
ATOM     13  O   UNL     1     159.189 173.501 162.611  1.00  0.00    -0.550 OA
ENDBRANCH  10  11
ENDBRANCH   9  10
ENDBRANCH   8   9
ENDBRANCH   1   8
TORSDOF 8
ENDMDL
MODEL 3
REMARK VINA RESULT:    -3.680      2.122      2.824
REMARK INTER + INTRA:          -5.896
REMARK INTER:                  -5.153
REMARK INTRA:                  -0.743
REMARK UNBOUND:                -0.495
REMARK SMILES O=C([O-])CCCCCCCC(=O)[O-]
REMARK SMILES IDX 7 1 6 2 5 3 4 4 2 5 1 6 3 7 8 8 9 9 10 10 11 11 12 12 13 13
REMARK H PARENT
REMARK Flexibility Score: inf
ROOT
ATOM      1  C   UNL     1     157.976 173.791 161.823  1.00  0.00     0.000 C 
ENDROOT
BRANCH   1   2
ATOM      2  C   UNL     1     157.647 172.904 163.032  1.00  0.00     0.000 C 
BRANCH   2   3
ATOM      3  C   UNL     1     156.273 173.220 163.643  1.00  0.00     0.006 C 
BRANCH   3   4
ATOM      4  C   UNL     1     155.321 172.018 163.612  1.00  0.00     0.053 C 
BRANCH   4   5
ATOM      5  C   UNL     1     153.898 172.479 163.604  1.00  0.00     0.041 C 
ATOM      6  O   UNL     1     153.208 172.387 162.556  1.00  0.00    -0.550 OA
ATOM      7  O   UNL     1     153.318 172.966 164.769  1.00  0.00    -0.550 OA
ENDBRANCH   4   5
ENDBRANCH   3   4
ENDBRANCH   2   3
ENDBRANCH   1   2
BRANCH   1   8
ATOM      8  C   UNL     1     157.687 175.266 162.128  1.00  0.00     0.000 C 
BRANCH   8   9
ATOM      9  C   UNL     1     156.830 175.901 161.022  1.00  0.00     0.006 C 
BRANCH   9  10
ATOM     10  C   UNL     1     155.983 174.863 160.276  1.00  0.00     0.053 C 
BRANCH  10  11
ATOM     11  C   UNL     1     154.529 174.980 160.619  1.00  0.00     0.041 C 
ATOM     12  O   UNL     1     153.657 174.492 159.852  1.00  0.00    -0.550 OA
ATOM     13  O   UNL     1     154.136 175.656 161.766  1.00  0.00    -0.550 OA
ENDBRANCH  10  11
ENDBRANCH   9  10
ENDBRANCH   8   9
ENDBRANCH   1   8
TORSDOF 8
ENDMDL
MODEL 4
REMARK VINA RESULT:    -3.671      2.484      5.117
REMARK INTER + INTRA:          -5.884
REMARK INTER:                  -5.262
REMARK INTRA:                  -0.621
REMARK UNBOUND:                -0.495
REMARK SMILES O=C([O-])CCCCCCCC(=O)[O-]
REMARK SMILES IDX 7 1 6 2 5 3 4 4 2 5 1 6 3 7 8 8 9 9 10 10 11 11 12 12 13 13
REMARK H PARENT
REMARK Flexibility Score: inf
ROOT
ATOM      1  C   UNL     1     157.078 173.475 166.300  1.00  0.00     0.000 C 
ENDROOT
BRANCH   1   2
ATOM      2  C   UNL     1     156.700 174.423 165.152  1.00  0.00     0.000 C 
BRANCH   2   3
ATOM      3  C   UNL     1     157.677 174.339 163.969  1.00  0.00     0.006 C 
BRANCH   3   4
ATOM      4  C   UNL     1     157.205 173.370 162.879  1.00  0.00     0.053 C 
BRANCH   4   5
ATOM      5  C   UNL     1     157.008 174.095 161.585  1.00  0.00     0.041 C 
ATOM      6  O   UNL     1     157.973 174.688 161.038  1.00  0.00    -0.550 OA
ATOM      7  O   UNL     1     155.769 174.074 160.958  1.00  0.00    -0.550 OA
ENDBRANCH   4   5
ENDBRANCH   3   4
ENDBRANCH   2   3
ENDBRANCH   1   2
BRANCH   1   8
ATOM      8  C   UNL     1     155.826 172.951 167.015  1.00  0.00     0.000 C 
BRANCH   8   9
ATOM      9  C   UNL     1     154.658 172.783 166.031  1.00  0.00     0.006 C 
BRANCH   9  10
ATOM     10  C   UNL     1     154.473 171.324 165.594  1.00  0.00     0.053 C 
BRANCH  10  11
ATOM     11  C   UNL     1     154.334 171.202 164.107  1.00  0.00     0.041 C 
ATOM     12  O   UNL     1     154.600 170.112 163.534  1.00  0.00    -0.550 OA
ATOM     13  O   UNL     1     153.946 172.300 163.351  1.00  0.00    -0.550 OA
ENDBRANCH  10  11
ENDBRANCH   9  10
ENDBRANCH   8   9
ENDBRANCH   1   8
TORSDOF 8
ENDMDL
MODEL 5
REMARK VINA RESULT:    -3.660      2.179      5.375
REMARK INTER + INTRA:          -5.867
REMARK INTER:                  -5.234
REMARK INTRA:                  -0.633
REMARK UNBOUND:                -0.495
REMARK SMILES O=C([O-])CCCCCCCC(=O)[O-]
REMARK SMILES IDX 7 1 6 2 5 3 4 4 2 5 1 6 3 7 8 8 9 9 10 10 11 11 12 12 13 13
REMARK H PARENT
REMARK Flexibility Score: inf
ROOT
ATOM      1  C   UNL     1     158.546 174.021 165.423  1.00  0.00     0.000 C 
ENDROOT
BRANCH   1   2
ATOM      2  C   UNL     1     159.055 173.831 163.987  1.00  0.00     0.000 C 
BRANCH   2   3
ATOM      3  C   UNL     1     158.048 173.089 163.095  1.00  0.00     0.006 C 
BRANCH   3   4
ATOM      4  C   UNL     1     157.762 173.830 161.783  1.00  0.00     0.053 C 
BRANCH   4   5
ATOM      5  C   UNL     1     156.298 174.107 161.649  1.00  0.00     0.041 C 
ATOM      6  O   UNL     1     155.885 174.937 160.797  1.00  0.00    -0.550 OA
ATOM      7  O   UNL     1     155.384 173.412 162.431  1.00  0.00    -0.550 OA
ENDBRANCH   4   5
ENDBRANCH   3   4
ENDBRANCH   2   3
ENDBRANCH   1   2
BRANCH   1   8
ATOM      8  C   UNL     1     157.046 174.344 165.437  1.00  0.00     0.000 C 
BRANCH   8   9
ATOM      9  C   UNL     1     156.305 173.481 166.470  1.00  0.00     0.006 C 
BRANCH   9  10
ATOM     10  C   UNL     1     155.419 172.418 165.809  1.00  0.00     0.053 C 
BRANCH  10  11
ATOM     11  C   UNL     1     153.996 172.876 165.689  1.00  0.00     0.041 C 
ATOM     12  O   UNL     1     153.625 173.942 166.247  1.00  0.00    -0.550 OA
ATOM     13  O   UNL     1     153.075 172.107 164.990  1.00  0.00    -0.550 OA
ENDBRANCH  10  11
ENDBRANCH   9  10
ENDBRANCH   8   9
ENDBRANCH   1   8
TORSDOF 8
ENDMDL
MODEL 6
REMARK VINA RESULT:    -3.646      3.772      5.635
REMARK INTER + INTRA:          -5.846
REMARK INTER:                  -5.209
REMARK INTRA:                  -0.636
REMARK UNBOUND:                -0.495
REMARK SMILES O=C([O-])CCCCCCCC(=O)[O-]
REMARK SMILES IDX 7 1 6 2 5 3 4 4 2 5 1 6 3 7 8 8 9 9 10 10 11 11 12 12 13 13
REMARK H PARENT
REMARK Flexibility Score: inf
ROOT
ATOM      1  C   UNL     1     155.866 173.384 162.898  1.00  0.00     0.000 C 
ENDROOT
BRANCH   1   2
ATOM      2  C   UNL     1     157.249 173.495 162.241  1.00  0.00     0.000 C 
BRANCH   2   3
ATOM      3  C   UNL     1     158.395 173.176 163.214  1.00  0.00     0.006 C 
BRANCH   3   4
ATOM      4  C   UNL     1     158.847 174.401 164.018  1.00  0.00     0.053 C 
BRANCH   4   5
ATOM      5  C   UNL     1     158.587 174.193 165.477  1.00  0.00     0.041 C 
ATOM      6  O   UNL     1     157.425 174.329 165.940  1.00  0.00    -0.550 OA
ATOM      7  O   UNL     1     159.621 173.799 166.317  1.00  0.00    -0.550 OA
ENDBRANCH   4   5
ENDBRANCH   3   4
ENDBRANCH   2   3
ENDBRANCH   1   2
BRANCH   1   8
ATOM      8  C   UNL     1     155.728 172.065 163.668  1.00  0.00     0.000 C 
BRANCH   8   9
ATOM      9  C   UNL     1     154.403 172.016 164.445  1.00  0.00     0.006 C 
BRANCH   9  10
ATOM     10  C   UNL     1     154.619 172.051 165.963  1.00  0.00     0.053 C 
BRANCH  10  11
ATOM     11  C   UNL     1     154.183 173.356 166.558  1.00  0.00     0.041 C 
ATOM     12  O   UNL     1     154.004 173.456 167.801  1.00  0.00    -0.550 OA
ATOM     13  O   UNL     1     153.941 174.449 165.736  1.00  0.00    -0.550 OA
ENDBRANCH  10  11
ENDBRANCH   9  10
ENDBRANCH   8   9
ENDBRANCH   1   8
TORSDOF 8
ENDMDL
MODEL 7
REMARK VINA RESULT:    -3.617      4.109      6.298
REMARK INTER + INTRA:          -5.805
REMARK INTER:                  -5.159
REMARK INTRA:                  -0.646
REMARK UNBOUND:                -0.495
REMARK SMILES O=C([O-])CCCCCCCC(=O)[O-]
REMARK SMILES IDX 7 1 6 2 5 3 4 4 2 5 1 6 3 7 8 8 9 9 10 10 11 11 12 12 13 13
REMARK H PARENT
REMARK Flexibility Score: inf
ROOT
ATOM      1  C   UNL     1     156.033 172.455 163.732  1.00  0.00     0.000 C 
ENDROOT
BRANCH   1   2
ATOM      2  C   UNL     1     156.033 173.988 163.646  1.00  0.00     0.000 C 
BRANCH   2   3
ATOM      3  C   UNL     1     156.346 174.657 164.994  1.00  0.00     0.006 C 
BRANCH   3   4
ATOM      4  C   UNL     1     157.349 173.855 165.833  1.00  0.00     0.053 C 
BRANCH   4   5
ATOM      5  C   UNL     1     158.692 174.513 165.812  1.00  0.00     0.041 C 
ATOM      6  O   UNL     1     159.622 174.078 166.539  1.00  0.00    -0.550 OA
ATOM      7  O   UNL     1     158.931 175.578 164.953  1.00  0.00    -0.550 OA
ENDBRANCH   4   5
ENDBRANCH   3   4
ENDBRANCH   2   3
ENDBRANCH   1   2
BRANCH   1   8
ATOM      8  C   UNL     1     154.601 171.907 163.769  1.00  0.00     0.000 C 
BRANCH   8   9
ATOM      9  C   UNL     1     154.416 170.925 164.937  1.00  0.00     0.006 C 
BRANCH   9  10
ATOM     10  C   UNL     1     154.458 171.628 166.299  1.00  0.00     0.053 C 
BRANCH  10  11
ATOM     11  C   UNL     1     155.142 170.791 167.337  1.00  0.00     0.041 C 
ATOM     12  O   UNL     1     154.667 169.671 167.661  1.00  0.00    -0.550 OA
ATOM     13  O   UNL     1     156.285 171.264 167.969  1.00  0.00    -0.550 OA
ENDBRANCH  10  11
ENDBRANCH   9  10
ENDBRANCH   8   9
ENDBRANCH   1   8
TORSDOF 8
ENDMDL
MODEL 8
REMARK VINA RESULT:    -3.585      2.921      4.483
REMARK INTER + INTRA:          -5.757
REMARK INTER:                  -4.945
REMARK INTRA:                  -0.812
REMARK UNBOUND:                -0.495
REMARK SMILES O=C([O-])CCCCCCCC(=O)[O-]
REMARK SMILES IDX 7 1 6 2 5 3 4 4 2 5 1 6 3 7 8 8 9 9 10 10 11 11 12 12 13 13
REMARK H PARENT
REMARK Flexibility Score: inf
ROOT
ATOM      1  C   UNL     1     154.918 172.026 166.771  1.00  0.00     0.000 C 
ENDROOT
BRANCH   1   2
ATOM      2  C   UNL     1     154.752 171.581 165.311  1.00  0.00     0.000 C 
BRANCH   2   3
ATOM      3  C   UNL     1     153.552 172.251 164.621  1.00  0.00     0.006 C 
BRANCH   3   4
ATOM      4  C   UNL     1     153.702 172.303 163.095  1.00  0.00     0.053 C 
BRANCH   4   5
ATOM      5  C   UNL     1     153.973 173.704 162.646  1.00  0.00     0.041 C 
ATOM      6  O   UNL     1     154.184 173.950 161.430  1.00  0.00    -0.550 OA
ATOM      7  O   UNL     1     153.945 174.746 163.563  1.00  0.00    -0.550 OA
ENDBRANCH   4   5
ENDBRANCH   3   4
ENDBRANCH   2   3
ENDBRANCH   1   2
BRANCH   1   8
ATOM      8  C   UNL     1     156.255 172.749 166.976  1.00  0.00     0.000 C 
BRANCH   8   9
ATOM      9  C   UNL     1     156.371 173.970 166.051  1.00  0.00     0.006 C 
BRANCH   9  10
ATOM     10  C   UNL     1     157.686 173.978 165.262  1.00  0.00     0.053 C 
BRANCH  10  11
ATOM     11  C   UNL     1     157.450 173.856 163.787  1.00  0.00     0.041 C 
ATOM     12  O   UNL     1     157.365 172.719 163.252  1.00  0.00    -0.550 OA
ATOM     13  O   UNL     1     157.361 174.997 163.000  1.00  0.00    -0.550 OA
ENDBRANCH  10  11
ENDBRANCH   9  10
ENDBRANCH   8   9
ENDBRANCH   1   8
TORSDOF 8
ENDMDL
MODEL 9
REMARK VINA RESULT:    -3.565      2.169      5.330
REMARK INTER + INTRA:          -5.728
REMARK INTER:                  -4.875
REMARK INTRA:                  -0.853
REMARK UNBOUND:                -0.495
REMARK SMILES O=C([O-])CCCCCCCC(=O)[O-]
REMARK SMILES IDX 7 1 6 2 5 3 4 4 2 5 1 6 3 7 8 8 9 9 10 10 11 11 12 12 13 13
REMARK H PARENT
REMARK Flexibility Score: inf
ROOT
ATOM      1  C   UNL     1     153.657 173.474 162.232  1.00  0.00     0.000 C 
ENDROOT
BRANCH   1   2
ATOM      2  C   UNL     1     153.799 175.001 162.290  1.00  0.00     0.000 C 
BRANCH   2   3
ATOM      3  C   UNL     1     154.976 175.519 161.448  1.00  0.00     0.006 C 
BRANCH   3   4
ATOM      4  C   UNL     1     155.317 174.592 160.275  1.00  0.00     0.053 C 
BRANCH   4   5
ATOM      5  C   UNL     1     156.793 174.582 160.029  1.00  0.00     0.041 C 
ATOM      6  O   UNL     1     157.592 174.869 160.958  1.00  0.00    -0.550 OA
ATOM      7  O   UNL     1     157.288 174.208 158.787  1.00  0.00    -0.550 OA
ENDBRANCH   4   5
ENDBRANCH   3   4
ENDBRANCH   2   3
ENDBRANCH   1   2
BRANCH   1   8
ATOM      8  C   UNL     1     153.872 172.849 163.616  1.00  0.00     0.000 C 
BRANCH   8   9
ATOM      9  C   UNL     1     155.102 171.928 163.621  1.00  0.00     0.006 C 
BRANCH   9  10
ATOM     10  C   UNL     1     156.415 172.712 163.512  1.00  0.00     0.053 C 
BRANCH  10  11
ATOM     11  C   UNL     1     156.618 173.624 164.684  1.00  0.00     0.041 C 
ATOM     12  O   UNL     1     156.588 173.165 165.856  1.00  0.00    -0.550 OA
ATOM     13  O   UNL     1     156.804 174.985 164.482  1.00  0.00    -0.550 OA
ENDBRANCH  10  11
ENDBRANCH   9  10
ENDBRANCH   8   9
ENDBRANCH   1   8
TORSDOF 8
ENDMDL
