MODEL 1
REMARK VINA RESULT:    -2.566      0.000      0.000
REMARK INTER + INTRA:          -3.052
REMARK INTER:                  -3.016
REMARK INTRA:                  -0.036
REMARK UNBOUND:                -0.036
REMARK SMILES O=C([O-])CCC(=O)[O-]
REMARK SMILES IDX 4 1 2 2 1 3 3 4 5 5 6 6 7 7 8 8
REMARK H PARENT
REMARK Flexibility Score: inf
ROOT
ATOM      1  C   UNL     1     -98.699 -27.228  -4.718  1.00  0.00     0.059 C 
ENDROOT
BRANCH   1   2
ATOM      2  C   UNL     1     -99.970 -26.545  -5.112  1.00  0.00     0.042 C 
ATOM      3  O   UNL     1    -100.035 -25.287  -5.127  1.00  0.00    -0.550 OA
ATOM      4  O   UNL     1    -101.097 -27.296  -5.417  1.00  0.00    -0.550 OA
ENDBRANCH   1   2
BRANCH   1   5
ATOM      5  C   UNL     1     -99.000 -28.516  -3.949  1.00  0.00     0.059 C 
BRANCH   5   6
ATOM      6  C   UNL     1     -97.926 -28.789  -2.945  1.00  0.00     0.042 C 
ATOM      7  O   UNL     1     -98.129 -29.606  -2.007  1.00  0.00    -0.550 OA
ATOM      8  O   UNL     1     -96.718 -28.107  -3.014  1.00  0.00    -0.550 OA
ENDBRANCH   5   6
ENDBRANCH   1   5
TORSDOF 3
ENDMDL
MODEL 2
REMARK VINA RESULT:    -2.565     11.277     13.180
REMARK INTER + INTRA:          -3.051
REMARK INTER:                  -3.019
REMARK INTRA:                  -0.032
REMARK UNBOUND:                -0.036
REMARK SMILES O=C([O-])CCC(=O)[O-]
REMARK SMILES IDX 4 1 2 2 1 3 3 4 5 5 6 6 7 7 8 8
REMARK H PARENT
REMARK Flexibility Score: inf
ROOT
ATOM      1  C   UNL     1    -103.125 -26.694 -15.089  1.00  0.00     0.059 C 
ENDROOT
BRANCH   1   2
ATOM      2  C   UNL     1    -101.858 -27.455 -15.321  1.00  0.00     0.042 C 
ATOM      3  O   UNL     1    -101.645 -28.007 -16.433  1.00  0.00    -0.550 OA
ATOM      4  O   UNL     1    -100.933 -27.595 -14.295  1.00  0.00    -0.550 OA
ENDBRANCH   1   2
BRANCH   1   5
ATOM      5  C   UNL     1    -103.538 -25.943 -16.356  1.00  0.00     0.059 C 
BRANCH   5   6
ATOM      6  C   UNL     1    -104.630 -24.966 -16.053  1.00  0.00     0.042 C 
ATOM      7  O   UNL     1    -104.386 -23.936 -15.369  1.00  0.00    -0.550 OA
ATOM      8  O   UNL     1    -105.926 -25.216 -16.483  1.00  0.00    -0.550 OA
ENDBRANCH   5   6
ENDBRANCH   1   5
TORSDOF 3
ENDMDL
MODEL 3
REMARK VINA RESULT:    -2.557     11.495     13.558
REMARK INTER + INTRA:          -3.042
REMARK INTER:                  -2.927
REMARK INTRA:                  -0.115
REMARK UNBOUND:                -0.036
REMARK SMILES O=C([O-])CCC(=O)[O-]
REMARK SMILES IDX 4 1 2 2 1 3 3 4 5 5 6 6 7 7 8 8
REMARK H PARENT
REMARK Flexibility Score: inf
ROOT
ATOM      1  C   UNL     1    -103.097 -26.470 -15.285  1.00  0.00     0.059 C 
ENDROOT
BRANCH   1   2
ATOM      2  C   UNL     1    -101.926 -27.397 -15.370  1.00  0.00     0.042 C 
ATOM      3  O   UNL     1    -101.128 -27.501 -14.401  1.00  0.00    -0.550 OA
ATOM      4  O   UNL     1    -101.688 -28.111 -16.536  1.00  0.00    -0.550 OA
ENDBRANCH   1   2
BRANCH   1   5
ATOM      5  C   UNL     1    -103.522 -26.015 -16.682  1.00  0.00     0.059 C 
BRANCH   5   6
ATOM      6  C   UNL     1    -104.935 -26.420 -16.958  1.00  0.00     0.042 C 
ATOM      7  O   UNL     1    -105.224 -27.635 -17.125  1.00  0.00    -0.550 OA
ATOM      8  O   UNL     1    -105.924 -25.454 -17.080  1.00  0.00    -0.550 OA
ENDBRANCH   5   6
ENDBRANCH   1   5
TORSDOF 3
ENDMDL
MODEL 4
REMARK VINA RESULT:    -2.552      0.182      4.297
REMARK INTER + INTRA:          -3.036
REMARK INTER:                  -2.997
REMARK INTRA:                  -0.039
REMARK UNBOUND:                -0.036
REMARK SMILES O=C([O-])CCC(=O)[O-]
REMARK SMILES IDX 4 1 2 2 1 3 3 4 5 5 6 6 7 7 8 8
REMARK H PARENT
REMARK Flexibility Score: inf
ROOT
ATOM      1  C   UNL     1     -98.891 -28.515  -4.028  1.00  0.00     0.059 C 
ENDROOT
BRANCH   1   2
ATOM      2  C   UNL     1     -97.821 -28.707  -3.000  1.00  0.00     0.042 C 
ATOM      3  O   UNL     1     -97.979 -29.541  -2.069  1.00  0.00    -0.550 OA
ATOM      4  O   UNL     1     -96.670 -27.932  -3.041  1.00  0.00    -0.550 OA
ENDBRANCH   1   2
BRANCH   1   5
ATOM      5  C   UNL     1     -98.717 -27.171  -4.737  1.00  0.00     0.059 C 
BRANCH   5   6
ATOM      6  C   UNL     1    -100.048 -26.595  -5.101  1.00  0.00     0.042 C 
ATOM      7  O   UNL     1    -100.166 -25.360  -5.319  1.00  0.00    -0.550 OA
ATOM      8  O   UNL     1    -101.170 -27.413  -5.152  1.00  0.00    -0.550 OA
ENDBRANCH   5   6
ENDBRANCH   1   5
TORSDOF 3
ENDMDL
MODEL 5
REMARK VINA RESULT:    -2.514     11.406     12.993
REMARK INTER + INTRA:          -2.991
REMARK INTER:                  -2.868
REMARK INTRA:                  -0.123
REMARK UNBOUND:                -0.036
REMARK SMILES O=C([O-])CCC(=O)[O-]
REMARK SMILES IDX 4 1 2 2 1 3 3 4 5 5 6 6 7 7 8 8
REMARK H PARENT
REMARK Flexibility Score: inf
ROOT
ATOM      1  C   UNL     1    -103.511 -25.935 -16.531  1.00  0.00     0.059 C 
ENDROOT
BRANCH   1   2
ATOM      2  C   UNL     1    -104.879 -26.402 -16.917  1.00  0.00     0.042 C 
ATOM      3  O   UNL     1    -105.102 -27.628 -17.099  1.00  0.00    -0.550 OA
ATOM      4  O   UNL     1    -105.895 -25.479 -17.125  1.00  0.00    -0.550 OA
ENDBRANCH   1   2
BRANCH   1   5
ATOM      5  C   UNL     1    -103.119 -26.500 -15.164  1.00  0.00     0.059 C 
BRANCH   5   6
ATOM      6  C   UNL     1    -101.958 -27.433 -15.296  1.00  0.00     0.042 C 
ATOM      7  O   UNL     1    -101.720 -27.997 -16.397  1.00  0.00    -0.550 OA
ATOM      8  O   UNL     1    -101.166 -27.720 -14.191  1.00  0.00    -0.550 OA
ENDBRANCH   5   6
ENDBRANCH   1   5
TORSDOF 3
ENDMDL
MODEL 6
REMARK VINA RESULT:    -2.447      9.603     11.229
REMARK INTER + INTRA:          -2.913
REMARK INTER:                  -2.811
REMARK INTRA:                  -0.101
REMARK UNBOUND:                -0.036
REMARK SMILES O=C([O-])CCC(=O)[O-]
REMARK SMILES IDX 4 1 2 2 1 3 3 4 5 5 6 6 7 7 8 8
REMARK H PARENT
REMARK Flexibility Score: inf
ROOT
ATOM      1  C   UNL     1    -100.323 -27.670 -13.542  1.00  0.00     0.059 C 
ENDROOT
BRANCH   1   2
ATOM      2  C   UNL     1     -99.690 -29.012 -13.346  1.00  0.00     0.042 C 
ATOM      3  O   UNL     1    -100.408 -30.042 -13.248  1.00  0.00    -0.550 OA
ATOM      4  O   UNL     1     -98.312 -29.119 -13.222  1.00  0.00    -0.550 OA
ENDBRANCH   1   2
BRANCH   1   5
ATOM      5  C   UNL     1    -101.809 -27.823 -13.873  1.00  0.00     0.059 C 
BRANCH   5   6
ATOM      6  C   UNL     1    -102.082 -27.374 -15.273  1.00  0.00     0.042 C 
ATOM      7  O   UNL     1    -102.832 -26.384 -15.486  1.00  0.00    -0.550 OA
ATOM      8  O   UNL     1    -101.550 -28.077 -16.346  1.00  0.00    -0.550 OA
ENDBRANCH   5   6
ENDBRANCH   1   5
TORSDOF 3
ENDMDL
MODEL 7
REMARK VINA RESULT:    -2.445      9.581     10.623
REMARK INTER + INTRA:          -2.910
REMARK INTER:                  -2.792
REMARK INTRA:                  -0.118
REMARK UNBOUND:                -0.036
REMARK SMILES O=C([O-])CCC(=O)[O-]
REMARK SMILES IDX 4 1 2 2 1 3 3 4 5 5 6 6 7 7 8 8
REMARK H PARENT
REMARK Flexibility Score: inf
ROOT
ATOM      1  C   UNL     1    -101.849 -27.921 -13.883  1.00  0.00     0.059 C 
ENDROOT
BRANCH   1   2
ATOM      2  C   UNL     1    -102.135 -27.383 -15.249  1.00  0.00     0.042 C 
ATOM      3  O   UNL     1    -102.902 -26.395 -15.394  1.00  0.00    -0.550 OA
ATOM      4  O   UNL     1    -101.592 -28.002 -16.368  1.00  0.00    -0.550 OA
ENDBRANCH   1   2
BRANCH   1   5
ATOM      5  C   UNL     1    -100.378 -27.708 -13.520  1.00  0.00     0.059 C 
BRANCH   5   6
ATOM      6  C   UNL     1     -99.662 -29.019 -13.447  1.00  0.00     0.042 C 
ATOM      7  O   UNL     1     -98.456 -29.063 -13.087  1.00  0.00    -0.550 OA
ATOM      8  O   UNL     1    -100.311 -30.188 -13.824  1.00  0.00    -0.550 OA
ENDBRANCH   5   6
ENDBRANCH   1   5
TORSDOF 3
ENDMDL
MODEL 8
REMARK VINA RESULT:    -2.440     11.625     12.719
REMARK INTER + INTRA:          -2.904
REMARK INTER:                  -2.859
REMARK INTRA:                  -0.045
REMARK UNBOUND:                -0.036
REMARK SMILES O=C([O-])CCC(=O)[O-]
REMARK SMILES IDX 4 1 2 2 1 3 3 4 5 5 6 6 7 7 8 8
REMARK H PARENT
REMARK Flexibility Score: inf
ROOT
ATOM      1  C   UNL     1    -101.713 -28.181 -16.290  1.00  0.00     0.059 C 
ENDROOT
BRANCH   1   2
ATOM      2  C   UNL     1    -101.334 -29.524 -15.750  1.00  0.00     0.042 C 
ATOM      3  O   UNL     1    -100.384 -30.169 -16.268  1.00  0.00    -0.550 OA
ATOM      4  O   UNL     1    -102.060 -30.085 -14.708  1.00  0.00    -0.550 OA
ENDBRANCH   1   2
BRANCH   1   5
ATOM      5  C   UNL     1    -102.099 -27.236 -15.150  1.00  0.00     0.059 C 
BRANCH   5   6
ATOM      6  C   UNL     1    -103.185 -26.305 -15.587  1.00  0.00     0.042 C 
ATOM      7  O   UNL     1    -103.976 -25.813 -14.740  1.00  0.00    -0.550 OA
ATOM      8  O   UNL     1    -103.355 -26.019 -16.936  1.00  0.00    -0.550 OA
ENDBRANCH   5   6
ENDBRANCH   1   5
TORSDOF 3
ENDMDL
MODEL 9
REMARK VINA RESULT:    -2.439     11.422     12.318
REMARK INTER + INTRA:          -2.903
REMARK INTER:                  -2.863
REMARK INTRA:                  -0.040
REMARK UNBOUND:                -0.036
REMARK SMILES O=C([O-])CCC(=O)[O-]
REMARK SMILES IDX 4 1 2 2 1 3 3 4 5 5 6 6 7 7 8 8
REMARK H PARENT
REMARK Flexibility Score: inf
ROOT
ATOM      1  C   UNL     1    -102.281 -27.092 -15.341  1.00  0.00     0.059 C 
ENDROOT
BRANCH   1   2
ATOM      2  C   UNL     1    -103.323 -26.179 -15.906  1.00  0.00     0.042 C 
ATOM      3  O   UNL     1    -103.636 -26.251 -17.123  1.00  0.00    -0.550 OA
ATOM      4  O   UNL     1    -103.913 -25.214 -15.100  1.00  0.00    -0.550 OA
ENDBRANCH   1   2
BRANCH   1   5
ATOM      5  C   UNL     1    -101.884 -28.152 -16.370  1.00  0.00     0.059 C 
BRANCH   5   6
ATOM      6  C   UNL     1    -101.120 -29.258 -15.714  1.00  0.00     0.042 C 
ATOM      7  O   UNL     1    -100.854 -30.310 -16.354  1.00  0.00    -0.550 OA
ATOM      8  O   UNL     1    -100.743 -29.148 -14.382  1.00  0.00    -0.550 OA
ENDBRANCH   5   6
ENDBRANCH   1   5
TORSDOF 3
ENDMDL
