MODEL 1
REMARK VINA RESULT:    -6.316      0.000      0.000
REMARK INTER + INTRA:          -6.316
REMARK INTER:                  -6.316
REMARK INTRA:                   0.000
REMARK UNBOUND:                 0.000
REMARK SMILES CC1=CC(=O)[C@@H]2C[C@H]1C2(C)C
REMARK SMILES IDX 1 1 2 2 3 3 4 4 5 5 6 6 7 7 8 8 9 9 10 10 11 11
REMARK H PARENT
REMARK Flexibility Score: inf
ROOT
ATOM      1  C   UNL     1      10.484  27.424  74.686  1.00  0.00     0.040 C 
ATOM      2  C   UNL     1      10.321  28.601  73.775  1.00  0.00    -0.066 C 
ATOM      3  C   UNL     1       9.318  28.675  72.855  1.00  0.00     0.047 C 
ATOM      4  C   UNL     1       9.282  29.916  72.015  1.00  0.00     0.159 C 
ATOM      5  O   UNL     1       8.382  30.122  71.160  1.00  0.00    -0.295 OA
ATOM      6  C   UNL     1      10.416  30.911  72.267  1.00  0.00     0.067 C 
ATOM      7  C   UNL     1      11.684  30.032  72.322  1.00  0.00     0.021 C 
ATOM      8  C   UNL     1      11.330  29.768  73.803  1.00  0.00     0.022 C 
ATOM      9  C   UNL     1      10.558  31.119  73.802  1.00  0.00    -0.019 C 
ATOM     10  C   UNL     1      11.473  32.320  74.151  1.00  0.00     0.012 C 
ATOM     11  C   UNL     1       9.264  31.227  74.656  1.00  0.00     0.012 C 
ENDROOT
TORSDOF 0
ENDMDL
MODEL 2
REMARK VINA RESULT:    -6.312      1.019      3.195
REMARK INTER + INTRA:          -6.312
REMARK INTER:                  -6.312
REMARK INTRA:                   0.000
REMARK UNBOUND:                 0.000
REMARK SMILES CC1=CC(=O)[C@@H]2C[C@H]1C2(C)C
REMARK SMILES IDX 1 1 2 2 3 3 4 4 5 5 6 6 7 7 8 8 9 9 10 10 11 11
REMARK H PARENT
REMARK Flexibility Score: inf
ROOT
ATOM      1  C   UNL     1      12.011  32.906  73.127  1.00  0.00     0.040 C 
ATOM      2  C   UNL     1      11.154  31.688  72.983  1.00  0.00    -0.066 C 
ATOM      3  C   UNL     1      10.163  31.602  72.050  1.00  0.00     0.047 C 
ATOM      4  C   UNL     1       9.388  30.319  72.024  1.00  0.00     0.159 C 
ATOM      5  O   UNL     1       8.478  30.101  71.183  1.00  0.00    -0.295 OA
ATOM      6  C   UNL     1       9.780  29.296  73.092  1.00  0.00     0.067 C 
ATOM      7  C   UNL     1       9.888  30.126  74.389  1.00  0.00     0.021 C 
ATOM      8  C   UNL     1      11.321  30.486  73.935  1.00  0.00     0.022 C 
ATOM      9  C   UNL     1      11.330  29.167  73.109  1.00  0.00    -0.019 C 
ATOM     10  C   UNL     1      11.811  27.953  73.941  1.00  0.00     0.012 C 
ATOM     11  C   UNL     1      12.085  29.158  71.749  1.00  0.00     0.012 C 
ENDROOT
TORSDOF 0
ENDMDL
MODEL 3
REMARK VINA RESULT:    -5.491      1.954      2.948
REMARK INTER + INTRA:          -5.491
REMARK INTER:                  -5.491
REMARK INTRA:                   0.000
REMARK UNBOUND:                 0.000
REMARK SMILES CC1=CC(=O)[C@@H]2C[C@H]1C2(C)C
REMARK SMILES IDX 1 1 2 2 3 3 4 4 5 5 6 6 7 7 8 8 9 9 10 10 11 11
REMARK H PARENT
REMARK Flexibility Score: inf
ROOT
ATOM      1  C   UNL     1       8.532  30.213  71.210  1.00  0.00     0.040 C 
ATOM      2  C   UNL     1       9.651  30.063  72.192  1.00  0.00    -0.066 C 
ATOM      3  C   UNL     1      10.676  29.184  71.999  1.00  0.00     0.047 C 
ATOM      4  C   UNL     1      11.725  29.146  73.068  1.00  0.00     0.159 C 
ATOM      5  O   UNL     1      12.742  28.408  72.986  1.00  0.00    -0.295 OA
ATOM      6  C   UNL     1      11.473  30.063  74.266  1.00  0.00     0.067 C 
ATOM      7  C   UNL     1       9.987  29.833  74.612  1.00  0.00     0.021 C 
ATOM      8  C   UNL     1       9.661  30.866  73.509  1.00  0.00     0.022 C 
ATOM      9  C   UNL     1      11.077  31.471  73.736  1.00  0.00    -0.019 C 
ATOM     10  C   UNL     1      11.087  32.545  74.853  1.00  0.00     0.012 C 
ATOM     11  C   UNL     1      11.839  32.039  72.506  1.00  0.00     0.012 C 
ENDROOT
TORSDOF 0
ENDMDL
MODEL 4
REMARK VINA RESULT:    -5.394      1.803      3.154
REMARK INTER + INTRA:          -5.394
REMARK INTER:                  -5.394
REMARK INTRA:                   0.000
REMARK UNBOUND:                 0.000
REMARK SMILES CC1=CC(=O)[C@@H]2C[C@H]1C2(C)C
REMARK SMILES IDX 1 1 2 2 3 3 4 4 5 5 6 6 7 7 8 8 9 9 10 10 11 11
REMARK H PARENT
REMARK Flexibility Score: inf
ROOT
ATOM      1  C   UNL     1       8.446  29.944  71.244  1.00  0.00     0.040 C 
ATOM      2  C   UNL     1       9.474  30.188  72.304  1.00  0.00    -0.066 C 
ATOM      3  C   UNL     1       9.231  30.985  73.383  1.00  0.00     0.047 C 
ATOM      4  C   UNL     1      10.355  31.134  74.362  1.00  0.00     0.159 C 
ATOM      5  O   UNL     1      10.241  31.808  75.419  1.00  0.00    -0.295 OA
ATOM      6  C   UNL     1      11.650  30.412  73.987  1.00  0.00     0.067 C 
ATOM      7  C   UNL     1      11.853  30.753  72.495  1.00  0.00     0.021 C 
ATOM      8  C   UNL     1      10.889  29.585  72.187  1.00  0.00     0.022 C 
ATOM      9  C   UNL     1      11.300  28.961  73.552  1.00  0.00    -0.019 C 
ATOM     10  C   UNL     1      12.555  28.061  73.434  1.00  0.00     0.012 C 
ATOM     11  C   UNL     1      10.219  28.188  74.361  1.00  0.00     0.012 C 
ENDROOT
TORSDOF 0
ENDMDL
MODEL 5
REMARK VINA RESULT:    -5.329      1.571      1.829
REMARK INTER + INTRA:          -5.329
REMARK INTER:                  -5.329
REMARK INTRA:                   0.000
REMARK UNBOUND:                 0.000
REMARK SMILES CC1=CC(=O)[C@@H]2C[C@H]1C2(C)C
REMARK SMILES IDX 1 1 2 2 3 3 4 4 5 5 6 6 7 7 8 8 9 9 10 10 11 11
REMARK H PARENT
REMARK Flexibility Score: inf
ROOT
ATOM      1  C   UNL     1      13.386  27.636  73.992  1.00  0.00     0.040 C 
ATOM      2  C   UNL     1      12.189  28.329  73.419  1.00  0.00    -0.066 C 
ATOM      3  C   UNL     1      10.936  27.796  73.494  1.00  0.00     0.047 C 
ATOM      4  C   UNL     1       9.836  28.605  72.877  1.00  0.00     0.159 C 
ATOM      5  O   UNL     1       8.631  28.243  72.918  1.00  0.00    -0.295 OA
ATOM      6  C   UNL     1      10.279  29.899  72.193  1.00  0.00     0.067 C 
ATOM      7  C   UNL     1      11.514  29.485  71.364  1.00  0.00     0.021 C 
ATOM      8  C   UNL     1      12.335  29.664  72.661  1.00  0.00     0.022 C 
ATOM      9  C   UNL     1      11.243  30.659  73.149  1.00  0.00    -0.019 C 
ATOM     10  C   UNL     1      11.516  32.110  72.680  1.00  0.00     0.012 C 
ATOM     11  C   UNL     1      10.904  30.692  74.666  1.00  0.00     0.012 C 
ENDROOT
TORSDOF 0
ENDMDL
MODEL 6
REMARK VINA RESULT:    -5.203      1.355      3.324
REMARK INTER + INTRA:          -5.203
REMARK INTER:                  -5.203
REMARK INTRA:                   0.000
REMARK UNBOUND:                 0.000
REMARK SMILES CC1=CC(=O)[C@@H]2C[C@H]1C2(C)C
REMARK SMILES IDX 1 1 2 2 3 3 4 4 5 5 6 6 7 7 8 8 9 9 10 10 11 11
REMARK H PARENT
REMARK Flexibility Score: inf
ROOT
ATOM      1  C   UNL     1      11.263  32.424  76.102  1.00  0.00     0.040 C 
ATOM      2  C   UNL     1      10.787  31.829  74.814  1.00  0.00    -0.066 C 
ATOM      3  C   UNL     1      11.041  32.409  73.607  1.00  0.00     0.047 C 
ATOM      4  C   UNL     1      10.502  31.697  72.403  1.00  0.00     0.159 C 
ATOM      5  O   UNL     1      10.706  32.109  71.231  1.00  0.00    -0.295 OA
ATOM      6  C   UNL     1       9.687  30.438  72.699  1.00  0.00     0.067 C 
ATOM      7  C   UNL     1       8.751  30.856  73.853  1.00  0.00     0.021 C 
ATOM      8  C   UNL     1       9.929  30.547  74.804  1.00  0.00     0.022 C 
ATOM      9  C   UNL     1      10.472  29.568  73.722  1.00  0.00    -0.019 C 
ATOM     10  C   UNL     1       9.878  28.145  73.865  1.00  0.00     0.012 C 
ATOM     11  C   UNL     1      12.012  29.440  73.555  1.00  0.00     0.012 C 
ENDROOT
TORSDOF 0
ENDMDL
MODEL 7
REMARK VINA RESULT:    -5.125      1.490      3.386
REMARK INTER + INTRA:          -5.125
REMARK INTER:                  -5.125
REMARK INTRA:                   0.000
REMARK UNBOUND:                 0.000
REMARK SMILES CC1=CC(=O)[C@@H]2C[C@H]1C2(C)C
REMARK SMILES IDX 1 1 2 2 3 3 4 4 5 5 6 6 7 7 8 8 9 9 10 10 11 11
REMARK H PARENT
REMARK Flexibility Score: inf
ROOT
ATOM      1  C   UNL     1      10.935  31.791  75.186  1.00  0.00     0.040 C 
ATOM      2  C   UNL     1      10.904  30.696  74.168  1.00  0.00    -0.066 C 
ATOM      3  C   UNL     1      11.464  30.836  72.932  1.00  0.00     0.047 C 
ATOM      4  C   UNL     1      11.357  29.652  72.019  1.00  0.00     0.159 C 
ATOM      5  O   UNL     1      11.870  29.641  70.870  1.00  0.00    -0.295 OA
ATOM      6  C   UNL     1      10.579  28.460  72.581  1.00  0.00     0.067 C 
ATOM      7  C   UNL     1       9.317  29.093  73.204  1.00  0.00     0.021 C 
ATOM      8  C   UNL     1      10.178  29.366  74.457  1.00  0.00     0.022 C 
ATOM      9  C   UNL     1      11.084  28.176  74.025  1.00  0.00    -0.019 C 
ATOM     10  C   UNL     1      10.574  26.819  74.571  1.00  0.00     0.012 C 
ATOM     11  C   UNL     1      12.610  28.275  74.306  1.00  0.00     0.012 C 
ENDROOT
TORSDOF 0
ENDMDL
MODEL 8
REMARK VINA RESULT:    -4.916      1.677      2.429
REMARK INTER + INTRA:          -4.916
REMARK INTER:                  -4.916
REMARK INTRA:                   0.000
REMARK UNBOUND:                 0.000
REMARK SMILES CC1=CC(=O)[C@@H]2C[C@H]1C2(C)C
REMARK SMILES IDX 1 1 2 2 3 3 4 4 5 5 6 6 7 7 8 8 9 9 10 10 11 11
REMARK H PARENT
REMARK Flexibility Score: inf
ROOT
ATOM      1  C   UNL     1      12.632  28.570  73.266  1.00  0.00     0.040 C 
ATOM      2  C   UNL     1      11.480  29.524  73.295  1.00  0.00    -0.066 C 
ATOM      3  C   UNL     1      10.615  29.588  74.346  1.00  0.00     0.047 C 
ATOM      4  C   UNL     1       9.510  30.595  74.234  1.00  0.00     0.159 C 
ATOM      5  O   UNL     1       8.673  30.780  75.156  1.00  0.00    -0.295 OA
ATOM      6  C   UNL     1       9.470  31.379  72.922  1.00  0.00     0.067 C 
ATOM      7  C   UNL     1       9.671  30.304  71.833  1.00  0.00     0.021 C 
ATOM      8  C   UNL     1      11.188  30.448  72.094  1.00  0.00     0.022 C 
ATOM      9  C   UNL     1      10.906  31.890  72.607  1.00  0.00    -0.019 C 
ATOM     10  C   UNL     1      10.922  32.935  71.464  1.00  0.00     0.012 C 
ATOM     11  C   UNL     1      11.770  32.435  73.779  1.00  0.00     0.012 C 
ENDROOT
TORSDOF 0
ENDMDL
MODEL 9
REMARK VINA RESULT:    -4.871      1.627      2.955
REMARK INTER + INTRA:          -4.871
REMARK INTER:                  -4.871
REMARK INTRA:                   0.000
REMARK UNBOUND:                 0.000
REMARK SMILES CC1=CC(=O)[C@@H]2C[C@H]1C2(C)C
REMARK SMILES IDX 1 1 2 2 3 3 4 4 5 5 6 6 7 7 8 8 9 9 10 10 11 11
REMARK H PARENT
REMARK Flexibility Score: inf
ROOT
ATOM      1  C   UNL     1      10.500  31.752  75.289  1.00  0.00     0.040 C 
ATOM      2  C   UNL     1      10.535  30.462  74.532  1.00  0.00    -0.066 C 
ATOM      3  C   UNL     1       9.645  29.456  74.766  1.00  0.00     0.047 C 
ATOM      4  C   UNL     1       9.803  28.224  73.928  1.00  0.00     0.159 C 
ATOM      5  O   UNL     1       9.019  27.244  74.019  1.00  0.00    -0.295 OA
ATOM      6  C   UNL     1      10.986  28.239  72.958  1.00  0.00     0.067 C 
ATOM      7  C   UNL     1      12.161  28.776  73.803  1.00  0.00     0.021 C 
ATOM      8  C   UNL     1      11.632  30.191  73.481  1.00  0.00     0.022 C 
ATOM      9  C   UNL     1      10.984  29.596  72.197  1.00  0.00    -0.019 C 
ATOM     10  C   UNL     1      11.957  29.598  70.992  1.00  0.00     0.012 C 
ATOM     11  C   UNL     1       9.621  30.177  71.726  1.00  0.00     0.012 C 
ENDROOT
TORSDOF 0
ENDMDL
