MODEL 1
REMARK VINA RESULT:    -4.329      0.000      0.000
REMARK INTER + INTRA:         -10.006
REMARK INTER:                  -7.872
REMARK INTRA:                  -2.134
REMARK UNBOUND:                -2.134
REMARK SMILES CCCCCCCCCCCCCC[C@@H](C)C(=O)[O-]
REMARK SMILES IDX 9 1 10 2 11 3 12 4 13 5 14 6 15 7 16 8 17 9 18 10 19 11 8 12
REMARK SMILES IDX 7 13 6 14 5 15 4 16 3 17 2 18 1 19
REMARK H PARENT
REMARK Flexibility Score: inf
ROOT
ATOM      1  C   UNL     1      31.149  78.147  11.347  1.00  0.00     0.000 C 
ENDROOT
BRANCH   1   2
ATOM      2  C   UNL     1      31.506  77.189  10.205  1.00  0.00     0.000 C 
BRANCH   2   3
ATOM      3  C   UNL     1      31.921  77.963   8.944  1.00  0.00     0.000 C 
BRANCH   3   4
ATOM      4  C   UNL     1      33.413  77.799   8.602  1.00  0.00     0.000 C 
BRANCH   4   5
ATOM      5  C   UNL     1      33.800  76.425   8.025  1.00  0.00     0.001 C 
BRANCH   5   6
ATOM      6  C   UNL     1      34.914  75.730   8.834  1.00  0.00     0.009 C 
BRANCH   6   7
ATOM      7  C   UNL     1      35.000  76.178  10.310  1.00  0.00     0.032 C 
ATOM      8  C   UNL     1      34.444  75.125  11.280  1.00  0.00     0.014 C 
BRANCH   7   9
ATOM      9  C   UNL     1      36.397  76.607  10.680  1.00  0.00     0.044 C 
ATOM     10  O   UNL     1      37.401  76.123  10.094  1.00  0.00    -0.550 OA
ATOM     11  O   UNL     1      36.579  77.586  11.648  1.00  0.00    -0.550 OA
ENDBRANCH   7   9
ENDBRANCH   6   7
ENDBRANCH   5   6
ENDBRANCH   4   5
ENDBRANCH   3   4
ENDBRANCH   2   3
ENDBRANCH   1   2
BRANCH   1  12
ATOM     12  C   UNL     1      32.371  78.972  11.775  1.00  0.00     0.000 C 
BRANCH  12  13
ATOM     13  C   UNL     1      33.235  78.255  12.825  1.00  0.00    -0.000 C 
BRANCH  13  14
ATOM     14  C   UNL     1      32.424  77.270  13.684  1.00  0.00    -0.000 C 
BRANCH  14  15
ATOM     15  C   UNL     1      32.090  77.836  15.074  1.00  0.00    -0.000 C 
BRANCH  15  16
ATOM     16  C   UNL     1      33.202  78.738  15.632  1.00  0.00    -0.000 C 
BRANCH  16  17
ATOM     17  C   UNL     1      32.620  80.054  16.169  1.00  0.00    -0.000 C 
BRANCH  17  18
ATOM     18  C   UNL     1      31.240  80.378  15.573  1.00  0.00    -0.003 C 
ATOM     19  C   UNL     1      31.281  81.548  14.592  1.00  0.00     0.004 C 
ENDBRANCH  17  18
ENDBRANCH  16  17
ENDBRANCH  15  16
ENDBRANCH  14  15
ENDBRANCH  13  14
ENDBRANCH  12  13
ENDBRANCH   1  12
TORSDOF 14
ENDMDL
MODEL 2
REMARK VINA RESULT:    -4.235      3.107      6.851
REMARK INTER + INTRA:          -9.835
REMARK INTER:                  -8.251
REMARK INTRA:                  -1.584
REMARK UNBOUND:                -2.134
REMARK SMILES CCCCCCCCCCCCCC[C@@H](C)C(=O)[O-]
REMARK SMILES IDX 9 1 10 2 11 3 12 4 13 5 14 6 15 7 16 8 17 9 18 10 19 11 8 12
REMARK SMILES IDX 7 13 6 14 5 15 4 16 3 17 2 18 1 19
REMARK H PARENT
REMARK Flexibility Score: inf
ROOT
ATOM      1  C   UNL     1      31.478  78.150  10.908  1.00  0.00     0.000 C 
ENDROOT
BRANCH   1   2
ATOM      2  C   UNL     1      32.655  78.888  11.559  1.00  0.00     0.000 C 
BRANCH   2   3
ATOM      3  C   UNL     1      33.114  78.173  12.839  1.00  0.00     0.000 C 
BRANCH   3   4
ATOM      4  C   UNL     1      31.943  77.620  13.671  1.00  0.00     0.000 C 
BRANCH   4   5
ATOM      5  C   UNL     1      31.195  78.666  14.517  1.00  0.00     0.001 C 
BRANCH   5   6
ATOM      6  C   UNL     1      32.119  79.412  15.500  1.00  0.00     0.009 C 
BRANCH   6   7
ATOM      7  C   UNL     1      32.237  80.930  15.232  1.00  0.00     0.032 C 
ATOM      8  C   UNL     1      31.006  81.499  14.511  1.00  0.00     0.014 C 
BRANCH   7   9
ATOM      9  C   UNL     1      32.558  81.693  16.491  1.00  0.00     0.044 C 
ATOM     10  O   UNL     1      33.008  82.869  16.439  1.00  0.00    -0.550 OA
ATOM     11  O   UNL     1      32.310  81.113  17.728  1.00  0.00    -0.550 OA
ENDBRANCH   7   9
ENDBRANCH   6   7
ENDBRANCH   5   6
ENDBRANCH   4   5
ENDBRANCH   3   4
ENDBRANCH   2   3
ENDBRANCH   1   2
BRANCH   1  12
ATOM     12  C   UNL     1      31.848  77.656   9.503  1.00  0.00     0.000 C 
BRANCH  12  13
ATOM     13  C   UNL     1      33.325  77.905   9.154  1.00  0.00    -0.000 C 
BRANCH  13  14
ATOM     14  C   UNL     1      33.889  76.852   8.185  1.00  0.00    -0.000 C 
BRANCH  14  15
ATOM     15  C   UNL     1      34.482  75.636   8.915  1.00  0.00    -0.000 C 
BRANCH  15  16
ATOM     16  C   UNL     1      35.974  75.430   8.611  1.00  0.00    -0.000 C 
BRANCH  16  17
ATOM     17  C   UNL     1      36.843  75.920   9.779  1.00  0.00    -0.000 C 
BRANCH  17  18
ATOM     18  C   UNL     1      36.007  76.368  10.989  1.00  0.00    -0.003 C 
ATOM     19  C   UNL     1      36.530  77.656  11.623  1.00  0.00     0.004 C 
ENDBRANCH  17  18
ENDBRANCH  16  17
ENDBRANCH  15  16
ENDBRANCH  14  15
ENDBRANCH  13  14
ENDBRANCH  12  13
ENDBRANCH   1  12
TORSDOF 14
ENDMDL
MODEL 3
REMARK VINA RESULT:    -4.183      3.366      6.850
REMARK INTER + INTRA:          -9.740
REMARK INTER:                  -7.577
REMARK INTRA:                  -2.163
REMARK UNBOUND:                -2.134
REMARK SMILES CCCCCCCCCCCCCC[C@@H](C)C(=O)[O-]
REMARK SMILES IDX 9 1 10 2 11 3 12 4 13 5 14 6 15 7 16 8 17 9 18 10 19 11 8 12
REMARK SMILES IDX 7 13 6 14 5 15 4 16 3 17 2 18 1 19
REMARK H PARENT
REMARK Flexibility Score: inf
ROOT
ATOM      1  C   UNL     1      31.607  77.951  10.845  1.00  0.00     0.000 C 
ENDROOT
BRANCH   1   2
ATOM      2  C   UNL     1      32.643  78.895  11.465  1.00  0.00     0.000 C 
BRANCH   2   3
ATOM      3  C   UNL     1      33.356  78.229  12.652  1.00  0.00     0.000 C 
BRANCH   3   4
ATOM      4  C   UNL     1      32.381  77.588  13.656  1.00  0.00     0.000 C 
BRANCH   4   5
ATOM      5  C   UNL     1      31.628  78.584  14.558  1.00  0.00     0.001 C 
BRANCH   5   6
ATOM      6  C   UNL     1      32.567  79.368  15.496  1.00  0.00     0.009 C 
BRANCH   6   7
ATOM      7  C   UNL     1      32.110  80.815  15.787  1.00  0.00     0.032 C 
ATOM      8  C   UNL     1      31.253  81.402  14.655  1.00  0.00     0.014 C 
BRANCH   7   9
ATOM      9  C   UNL     1      31.429  80.925  17.127  1.00  0.00     0.044 C 
ATOM     10  O   UNL     1      30.297  80.406  17.324  1.00  0.00    -0.550 OA
ATOM     11  O   UNL     1      32.077  81.564  18.175  1.00  0.00    -0.550 OA
ENDBRANCH   7   9
ENDBRANCH   6   7
ENDBRANCH   5   6
ENDBRANCH   4   5
ENDBRANCH   3   4
ENDBRANCH   2   3
ENDBRANCH   1   2
BRANCH   1  12
ATOM     12  C   UNL     1      31.532  78.140   9.323  1.00  0.00     0.000 C 
BRANCH  12  13
ATOM     13  C   UNL     1      32.374  77.110   8.553  1.00  0.00    -0.000 C 
BRANCH  13  14
ATOM     14  C   UNL     1      33.849  77.531   8.422  1.00  0.00    -0.000 C 
BRANCH  14  15
ATOM     15  C   UNL     1      34.815  76.475   8.982  1.00  0.00    -0.000 C 
BRANCH  15  16
ATOM     16  C   UNL     1      34.091  75.332   9.709  1.00  0.00    -0.000 C 
BRANCH  16  17
ATOM     17  C   UNL     1      34.586  75.205  11.158  1.00  0.00    -0.000 C 
BRANCH  17  18
ATOM     18  C   UNL     1      33.598  74.441  12.055  1.00  0.00    -0.003 C 
ATOM     19  C   UNL     1      32.244  74.217  11.384  1.00  0.00     0.004 C 
ENDBRANCH  17  18
ENDBRANCH  16  17
ENDBRANCH  15  16
ENDBRANCH  14  15
ENDBRANCH  13  14
ENDBRANCH  12  13
ENDBRANCH   1  12
TORSDOF 14
ENDMDL
MODEL 4
REMARK VINA RESULT:    -4.143      3.092      6.613
REMARK INTER + INTRA:          -9.667
REMARK INTER:                  -7.269
REMARK INTRA:                  -2.398
REMARK UNBOUND:                -2.134
REMARK SMILES CCCCCCCCCCCCCC[C@@H](C)C(=O)[O-]
REMARK SMILES IDX 9 1 10 2 11 3 12 4 13 5 14 6 15 7 16 8 17 9 18 10 19 11 8 12
REMARK SMILES IDX 7 13 6 14 5 15 4 16 3 17 2 18 1 19
REMARK H PARENT
REMARK Flexibility Score: inf
ROOT
ATOM      1  C   UNL     1      34.697  77.499  11.232  1.00  0.00     0.000 C 
ENDROOT
BRANCH   1   2
ATOM      2  C   UNL     1      33.573  78.451  10.805  1.00  0.00     0.000 C 
BRANCH   2   3
ATOM      3  C   UNL     1      32.532  78.611  11.923  1.00  0.00     0.000 C 
BRANCH   3   4
ATOM      4  C   UNL     1      33.129  78.431  13.331  1.00  0.00     0.000 C 
BRANCH   4   5
ATOM      5  C   UNL     1      32.153  77.879  14.386  1.00  0.00     0.001 C 
BRANCH   5   6
ATOM      6  C   UNL     1      31.249  78.969  14.993  1.00  0.00     0.009 C 
BRANCH   6   7
ATOM      7  C   UNL     1      31.968  80.309  15.268  1.00  0.00     0.032 C 
ATOM      8  C   UNL     1      31.244  81.508  14.638  1.00  0.00     0.014 C 
BRANCH   7   9
ATOM      9  C   UNL     1      32.224  80.511  16.739  1.00  0.00     0.044 C 
ATOM     10  O   UNL     1      32.193  79.541  17.543  1.00  0.00    -0.550 OA
ATOM     11  O   UNL     1      32.548  81.776  17.212  1.00  0.00    -0.550 OA
ENDBRANCH   7   9
ENDBRANCH   6   7
ENDBRANCH   5   6
ENDBRANCH   4   5
ENDBRANCH   3   4
ENDBRANCH   2   3
ENDBRANCH   1   2
BRANCH   1  12
ATOM     12  C   UNL     1      35.316  76.798  10.014  1.00  0.00     0.000 C 
BRANCH  12  13
ATOM     13  C   UNL     1      34.417  76.863   8.769  1.00  0.00    -0.000 C 
BRANCH  13  14
ATOM     14  C   UNL     1      33.789  75.502   8.423  1.00  0.00    -0.000 C 
BRANCH  14  15
ATOM     15  C   UNL     1      32.292  75.437   8.766  1.00  0.00    -0.000 C 
BRANCH  15  16
ATOM     16  C   UNL     1      31.981  74.429   9.884  1.00  0.00    -0.000 C 
BRANCH  16  17
ATOM     17  C   UNL     1      31.558  75.154  11.170  1.00  0.00    -0.000 C 
BRANCH  17  18
ATOM     18  C   UNL     1      32.431  74.774  12.377  1.00  0.00    -0.003 C 
ATOM     19  C   UNL     1      33.682  73.993  11.978  1.00  0.00     0.004 C 
ENDBRANCH  17  18
ENDBRANCH  16  17
ENDBRANCH  15  16
ENDBRANCH  14  15
ENDBRANCH  13  14
ENDBRANCH  12  13
ENDBRANCH   1  12
TORSDOF 14
ENDMDL
MODEL 5
REMARK VINA RESULT:    -4.108      2.478      5.853
REMARK INTER + INTRA:          -9.604
REMARK INTER:                  -6.985
REMARK INTRA:                  -2.619
REMARK UNBOUND:                -2.134
REMARK SMILES CCCCCCCCCCCCCC[C@@H](C)C(=O)[O-]
REMARK SMILES IDX 9 1 10 2 11 3 12 4 13 5 14 6 15 7 16 8 17 9 18 10 19 11 8 12
REMARK SMILES IDX 7 13 6 14 5 15 4 16 3 17 2 18 1 19
REMARK H PARENT
REMARK Flexibility Score: inf
ROOT
ATOM      1  C   UNL     1      30.922  74.706   9.088  1.00  0.00     0.000 C 
ENDROOT
BRANCH   1   2
ATOM      2  C   UNL     1      31.777  73.436   9.180  1.00  0.00     0.000 C 
BRANCH   2   3
ATOM      3  C   UNL     1      32.501  73.356  10.533  1.00  0.00     0.000 C 
BRANCH   3   4
ATOM      4  C   UNL     1      31.834  74.215  11.623  1.00  0.00     0.000 C 
BRANCH   4   5
ATOM      5  C   UNL     1      32.735  75.302  12.237  1.00  0.00     0.001 C 
BRANCH   5   6
ATOM      6  C   UNL     1      31.935  76.493  12.800  1.00  0.00     0.009 C 
BRANCH   6   7
ATOM      7  C   UNL     1      32.788  77.748  13.092  1.00  0.00     0.032 C 
ATOM      8  C   UNL     1      32.554  78.872  12.071  1.00  0.00     0.014 C 
BRANCH   7   9
ATOM      9  C   UNL     1      32.608  78.225  14.511  1.00  0.00     0.044 C 
ATOM     10  O   UNL     1      33.180  79.270  14.921  1.00  0.00    -0.550 OA
ATOM     11  O   UNL     1      31.760  77.533  15.364  1.00  0.00    -0.550 OA
ENDBRANCH   7   9
ENDBRANCH   6   7
ENDBRANCH   5   6
ENDBRANCH   4   5
ENDBRANCH   3   4
ENDBRANCH   2   3
ENDBRANCH   1   2
BRANCH   1  12
ATOM     12  C   UNL     1      31.577  75.744   8.166  1.00  0.00     0.000 C 
BRANCH  12  13
ATOM     13  C   UNL     1      32.021  77.010   8.917  1.00  0.00    -0.000 C 
BRANCH  13  14
ATOM     14  C   UNL     1      33.526  77.290   8.764  1.00  0.00    -0.000 C 
BRANCH  14  15
ATOM     15  C   UNL     1      34.235  76.242   7.891  1.00  0.00    -0.000 C 
BRANCH  15  16
ATOM     16  C   UNL     1      35.429  75.585   8.601  1.00  0.00    -0.000 C 
BRANCH  16  17
ATOM     17  C   UNL     1      35.406  75.893  10.106  1.00  0.00    -0.000 C 
BRANCH  17  18
ATOM     18  C   UNL     1      36.688  76.591  10.587  1.00  0.00    -0.003 C 
ATOM     19  C   UNL     1      36.411  77.703  11.598  1.00  0.00     0.004 C 
ENDBRANCH  17  18
ENDBRANCH  16  17
ENDBRANCH  15  16
ENDBRANCH  14  15
ENDBRANCH  13  14
ENDBRANCH  12  13
ENDBRANCH   1  12
TORSDOF 14
ENDMDL
MODEL 6
REMARK VINA RESULT:    -4.107      3.272      7.185
REMARK INTER + INTRA:          -9.601
REMARK INTER:                  -7.812
REMARK INTRA:                  -1.789
REMARK UNBOUND:                -2.134
REMARK SMILES CCCCCCCCCCCCCC[C@@H](C)C(=O)[O-]
REMARK SMILES IDX 9 1 10 2 11 3 12 4 13 5 14 6 15 7 16 8 17 9 18 10 19 11 8 12
REMARK SMILES IDX 7 13 6 14 5 15 4 16 3 17 2 18 1 19
REMARK H PARENT
REMARK Flexibility Score: inf
ROOT
ATOM      1  C   UNL     1      32.547  76.770  12.698  1.00  0.00     0.000 C 
ENDROOT
BRANCH   1   2
ATOM      2  C   UNL     1      31.099  76.993  13.151  1.00  0.00     0.000 C 
BRANCH   2   3
ATOM      3  C   UNL     1      31.050  77.699  14.515  1.00  0.00     0.000 C 
BRANCH   3   4
ATOM      4  C   UNL     1      30.346  79.067  14.459  1.00  0.00     0.000 C 
BRANCH   4   5
ATOM      5  C   UNL     1      31.276  80.284  14.608  1.00  0.00     0.001 C 
BRANCH   5   6
ATOM      6  C   UNL     1      32.478  80.009  15.533  1.00  0.00     0.009 C 
BRANCH   6   7
ATOM      7  C   UNL     1      32.743  81.118  16.576  1.00  0.00     0.032 C 
ATOM      8  C   UNL     1      32.582  82.529  15.991  1.00  0.00     0.014 C 
BRANCH   7   9
ATOM      9  C   UNL     1      31.913  80.922  17.819  1.00  0.00     0.044 C 
ATOM     10  O   UNL     1      31.444  81.909  18.448  1.00  0.00    -0.550 OA
ATOM     11  O   UNL     1      31.618  79.636  18.251  1.00  0.00    -0.550 OA
ENDBRANCH   7   9
ENDBRANCH   6   7
ENDBRANCH   5   6
ENDBRANCH   4   5
ENDBRANCH   3   4
ENDBRANCH   2   3
ENDBRANCH   1   2
BRANCH   1  12
ATOM     12  C   UNL     1      33.166  78.073  12.174  1.00  0.00     0.000 C 
BRANCH  12  13
ATOM     13  C   UNL     1      32.432  78.628  10.942  1.00  0.00    -0.000 C 
BRANCH  13  14
ATOM     14  C   UNL     1      32.517  77.684   9.730  1.00  0.00    -0.000 C 
BRANCH  14  15
ATOM     15  C   UNL     1      33.828  77.848   8.945  1.00  0.00    -0.000 C 
BRANCH  15  16
ATOM     16  C   UNL     1      34.538  76.510   8.686  1.00  0.00    -0.000 C 
BRANCH  16  17
ATOM     17  C   UNL     1      35.050  75.900  10.000  1.00  0.00    -0.000 C 
BRANCH  17  18
ATOM     18  C   UNL     1      36.491  76.324  10.326  1.00  0.00    -0.003 C 
ATOM     19  C   UNL     1      36.556  77.456  11.351  1.00  0.00     0.004 C 
ENDBRANCH  17  18
ENDBRANCH  16  17
ENDBRANCH  15  16
ENDBRANCH  14  15
ENDBRANCH  13  14
ENDBRANCH  12  13
ENDBRANCH   1  12
TORSDOF 14
ENDMDL
MODEL 7
REMARK VINA RESULT:    -4.083      2.994      6.412
REMARK INTER + INTRA:          -9.559
REMARK INTER:                  -7.475
REMARK INTRA:                  -2.083
REMARK UNBOUND:                -2.134
REMARK SMILES CCCCCCCCCCCCCC[C@@H](C)C(=O)[O-]
REMARK SMILES IDX 9 1 10 2 11 3 12 4 13 5 14 6 15 7 16 8 17 9 18 10 19 11 8 12
REMARK SMILES IDX 7 13 6 14 5 15 4 16 3 17 2 18 1 19
REMARK H PARENT
REMARK Flexibility Score: inf
ROOT
ATOM      1  C   UNL     1      32.843  74.264  10.930  1.00  0.00     0.000 C 
ENDROOT
BRANCH   1   2
ATOM      2  C   UNL     1      32.656  75.374  11.971  1.00  0.00     0.000 C 
BRANCH   2   3
ATOM      3  C   UNL     1      31.697  76.458  11.456  1.00  0.00     0.000 C 
BRANCH   3   4
ATOM      4  C   UNL     1      32.325  77.864  11.453  1.00  0.00     0.000 C 
BRANCH   4   5
ATOM      5  C   UNL     1      32.894  78.326  12.806  1.00  0.00     0.001 C 
BRANCH   5   6
ATOM      6  C   UNL     1      32.006  79.376  13.501  1.00  0.00     0.009 C 
BRANCH   6   7
ATOM      7  C   UNL     1      32.077  79.345  15.045  1.00  0.00     0.032 C 
ATOM      8  C   UNL     1      33.408  78.782  15.564  1.00  0.00     0.014 C 
BRANCH   7   9
ATOM      9  C   UNL     1      31.760  80.692  15.643  1.00  0.00     0.044 C 
ATOM     10  O   UNL     1      31.576  81.701  14.910  1.00  0.00    -0.550 OA
ATOM     11  O   UNL     1      31.620  80.815  17.019  1.00  0.00    -0.550 OA
ENDBRANCH   7   9
ENDBRANCH   6   7
ENDBRANCH   5   6
ENDBRANCH   4   5
ENDBRANCH   3   4
ENDBRANCH   2   3
ENDBRANCH   1   2
BRANCH   1  12
ATOM     12  C   UNL     1      32.117  74.610   9.622  1.00  0.00     0.000 C 
BRANCH  12  13
ATOM     13  C   UNL     1      33.059  74.635   8.407  1.00  0.00    -0.000 C 
BRANCH  13  14
ATOM     14  C   UNL     1      33.314  76.060   7.887  1.00  0.00    -0.000 C 
BRANCH  14  15
ATOM     15  C   UNL     1      34.595  76.680   8.468  1.00  0.00    -0.000 C 
BRANCH  15  16
ATOM     16  C   UNL     1      35.649  75.626   8.841  1.00  0.00    -0.000 C 
BRANCH  16  17
ATOM     17  C   UNL     1      36.507  76.105  10.022  1.00  0.00    -0.000 C 
BRANCH  17  18
ATOM     18  C   UNL     1      35.800  77.174  10.871  1.00  0.00    -0.003 C 
ATOM     19  C   UNL     1      36.729  77.825  11.895  1.00  0.00     0.004 C 
ENDBRANCH  17  18
ENDBRANCH  16  17
ENDBRANCH  15  16
ENDBRANCH  14  15
ENDBRANCH  13  14
ENDBRANCH  12  13
ENDBRANCH   1  12
TORSDOF 14
ENDMDL
MODEL 8
REMARK VINA RESULT:    -4.026      1.490      2.410
REMARK INTER + INTRA:          -9.454
REMARK INTER:                  -7.054
REMARK INTRA:                  -2.400
REMARK UNBOUND:                -2.134
REMARK SMILES CCCCCCCCCCCCCC[C@@H](C)C(=O)[O-]
REMARK SMILES IDX 9 1 10 2 11 3 12 4 13 5 14 6 15 7 16 8 17 9 18 10 19 11 8 12
REMARK SMILES IDX 7 13 6 14 5 15 4 16 3 17 2 18 1 19
REMARK H PARENT
REMARK Flexibility Score: inf
ROOT
ATOM      1  C   UNL     1      30.459  77.435  10.615  1.00  0.00     0.000 C 
ENDROOT
BRANCH   1   2
ATOM      2  C   UNL     1      30.655  75.964  10.225  1.00  0.00     0.000 C 
BRANCH   2   3
ATOM      3  C   UNL     1      30.694  75.064  11.469  1.00  0.00     0.000 C 
BRANCH   3   4
ATOM      4  C   UNL     1      32.123  74.655  11.870  1.00  0.00     0.000 C 
BRANCH   4   5
ATOM      5  C   UNL     1      33.197  74.900  10.794  1.00  0.00     0.001 C 
BRANCH   5   6
ATOM      6  C   UNL     1      34.480  75.535  11.363  1.00  0.00     0.009 C 
BRANCH   6   7
ATOM      7  C   UNL     1      35.059  76.680  10.501  1.00  0.00     0.032 C 
ATOM      8  C   UNL     1      36.280  77.348  11.149  1.00  0.00     0.014 C 
BRANCH   7   9
ATOM      9  C   UNL     1      35.343  76.225   9.092  1.00  0.00     0.044 C 
ATOM     10  O   UNL     1      36.299  75.442   8.844  1.00  0.00    -0.550 OA
ATOM     11  O   UNL     1      34.513  76.636   8.058  1.00  0.00    -0.550 OA
ENDBRANCH   7   9
ENDBRANCH   6   7
ENDBRANCH   5   6
ENDBRANCH   4   5
ENDBRANCH   3   4
ENDBRANCH   2   3
ENDBRANCH   1   2
BRANCH   1  12
ATOM     12  C   UNL     1      31.637  78.293  10.132  1.00  0.00     0.000 C 
BRANCH  12  13
ATOM     13  C   UNL     1      32.393  78.970  11.287  1.00  0.00    -0.000 C 
BRANCH  13  14
ATOM     14  C   UNL     1      31.971  78.430  12.665  1.00  0.00    -0.000 C 
BRANCH  14  15
ATOM     15  C   UNL     1      33.171  78.180  13.593  1.00  0.00    -0.000 C 
BRANCH  15  16
ATOM     16  C   UNL     1      32.788  78.208  15.081  1.00  0.00    -0.000 C 
BRANCH  16  17
ATOM     17  C   UNL     1      31.584  79.132  15.318  1.00  0.00    -0.000 C 
BRANCH  17  18
ATOM     18  C   UNL     1      32.001  80.580  15.622  1.00  0.00    -0.003 C 
ATOM     19  C   UNL     1      31.304  81.597  14.719  1.00  0.00     0.004 C 
ENDBRANCH  17  18
ENDBRANCH  16  17
ENDBRANCH  15  16
ENDBRANCH  14  15
ENDBRANCH  13  14
ENDBRANCH  12  13
ENDBRANCH   1  12
TORSDOF 14
ENDMDL
MODEL 9
REMARK VINA RESULT:    -4.000      2.450      6.559
REMARK INTER + INTRA:          -9.408
REMARK INTER:                  -7.016
REMARK INTRA:                  -2.392
REMARK UNBOUND:                -2.134
REMARK SMILES CCCCCCCCCCCCCC[C@@H](C)C(=O)[O-]
REMARK SMILES IDX 9 1 10 2 11 3 12 4 13 5 14 6 15 7 16 8 17 9 18 10 19 11 8 12
REMARK SMILES IDX 7 13 6 14 5 15 4 16 3 17 2 18 1 19
REMARK H PARENT
REMARK Flexibility Score: inf
ROOT
ATOM      1  C   UNL     1      34.238  75.099  11.487  1.00  0.00     0.000 C 
ENDROOT
BRANCH   1   2
ATOM      2  C   UNL     1      35.307  75.904  10.737  1.00  0.00     0.000 C 
BRANCH   2   3
ATOM      3  C   UNL     1      35.261  77.387  11.135  1.00  0.00     0.000 C 
BRANCH   3   4
ATOM      4  C   UNL     1      34.197  78.185  10.358  1.00  0.00     0.000 C 
BRANCH   4   5
ATOM      5  C   UNL     1      33.073  78.785  11.222  1.00  0.00     0.001 C 
BRANCH   5   6
ATOM      6  C   UNL     1      33.121  78.301  12.685  1.00  0.00     0.009 C 
BRANCH   6   7
ATOM      7  C   UNL     1      31.959  78.817  13.562  1.00  0.00     0.032 C 
ATOM      8  C   UNL     1      30.774  77.840  13.607  1.00  0.00     0.014 C 
BRANCH   7   9
ATOM      9  C   UNL     1      32.430  79.199  14.942  1.00  0.00     0.044 C 
ATOM     10  O   UNL     1      33.579  78.876  15.348  1.00  0.00    -0.550 OA
ATOM     11  O   UNL     1      31.607  79.960  15.762  1.00  0.00    -0.550 OA
ENDBRANCH   7   9
ENDBRANCH   6   7
ENDBRANCH   5   6
ENDBRANCH   4   5
ENDBRANCH   3   4
ENDBRANCH   2   3
ENDBRANCH   1   2
BRANCH   1  12
ATOM     12  C   UNL     1      33.149  74.602  10.525  1.00  0.00     0.000 C 
BRANCH  12  13
ATOM     13  C   UNL     1      31.785  75.264  10.778  1.00  0.00    -0.000 C 
BRANCH  13  14
ATOM     14  C   UNL     1      31.155  75.830   9.493  1.00  0.00    -0.000 C 
BRANCH  14  15
ATOM     15  C   UNL     1      32.202  76.145   8.413  1.00  0.00    -0.000 C 
BRANCH  15  16
ATOM     16  C   UNL     1      32.050  75.265   7.162  1.00  0.00    -0.000 C 
BRANCH  16  17
ATOM     17  C   UNL     1      33.416  74.998   6.513  1.00  0.00    -0.000 C 
BRANCH  17  18
ATOM     18  C   UNL     1      34.555  75.778   7.190  1.00  0.00    -0.003 C 
ATOM     19  C   UNL     1      35.869  74.998   7.217  1.00  0.00     0.004 C 
ENDBRANCH  17  18
ENDBRANCH  16  17
ENDBRANCH  15  16
ENDBRANCH  14  15
ENDBRANCH  13  14
ENDBRANCH  12  13
ENDBRANCH   1  12
TORSDOF 14
ENDMDL
