MODEL 1
REMARK VINA RESULT:    -6.663      0.000      0.000
REMARK INTER + INTRA:          -8.182
REMARK INTER:                  -8.026
REMARK INTRA:                  -0.156
REMARK UNBOUND:                -0.156
REMARK SMILES O=c1c(O)c(-c2ccc(O)c(O)c2)oc2cc(O)cc(O)c12
REMARK SMILES IDX 5 1 3 2 2 3 1 4 22 5 20 6 19 7 17 8 16 9 15 10 14 11 6 12
REMARK SMILES IDX 7 13 8 14 9 15 13 16 11 17 10 18 12 20 4 22 21 24 18 26
REMARK H PARENT 10 19 12 21 4 23 21 25 18 27
REMARK Flexibility Score: inf
ROOT
ATOM      1  C   UNL     1     121.388 124.772 139.843  1.00  0.00     0.180 A 
ATOM      2  C   UNL     1     120.384 125.303 140.672  1.00  0.00     0.208 A 
ATOM      3  C   UNL     1     120.156 124.717 141.926  1.00  0.00     0.238 A 
ATOM      4  O   UNL     1     119.308 125.244 142.693  1.00  0.00    -0.285 OA
ATOM      5  C   UNL     1     120.893 123.573 142.315  1.00  0.00     0.111 A 
ATOM      6  C   UNL     1     120.714 122.869 143.546  1.00  0.00     0.134 A 
ATOM      7  C   UNL     1     121.574 121.813 143.869  1.00  0.00     0.093 A 
ATOM      8  C   UNL     1     122.567 121.393 142.980  1.00  0.00     0.123 A 
ATOM      9  C   UNL     1     122.714 122.038 141.754  1.00  0.00     0.094 A 
ATOM     10  C   UNL     1     121.896 123.119 141.419  1.00  0.00     0.146 A 
ATOM     11  O   UNL     1     122.086 123.717 140.249  1.00  0.00    -0.452 OA
ENDROOT
BRANCH   1  12
ATOM     12  C   UNL     1     121.697 125.343 138.514  1.00  0.00     0.025 A 
ATOM     13  C   UNL     1     121.446 124.624 137.332  1.00  0.00     0.016 A 
ATOM     14  C   UNL     1     121.723 125.194 136.086  1.00  0.00     0.051 A 
ATOM     15  C   UNL     1     122.241 126.494 136.002  1.00  0.00     0.157 A 
ATOM     16  C   UNL     1     122.195 126.653 138.423  1.00  0.00     0.062 A 
ATOM     17  C   UNL     1     122.475 127.226 137.178  1.00  0.00     0.158 A 
BRANCH  15  18
ATOM     18  O   UNL     1     122.518 127.059 134.759  1.00  0.00    -0.504 OA
ATOM     19  H   UNL     1     122.992 127.950 134.675  1.00  0.00     0.293 HD
ENDBRANCH  15  18
BRANCH  17  20
ATOM     20  O   UNL     1     122.983 128.525 137.129  1.00  0.00    -0.504 OA
ATOM     21  H   UNL     1     122.894 129.107 136.304  1.00  0.00     0.293 HD
ENDBRANCH  17  20
ENDBRANCH   1  12
BRANCH   2  22
ATOM     22  O   UNL     1     119.615 126.386 140.238  1.00  0.00    -0.502 OA
ATOM     23  H   UNL     1     118.602 126.371 140.244  1.00  0.00     0.293 HD
ENDBRANCH   2  22
BRANCH   6  24
ATOM     24  O   UNL     1     119.698 123.147 144.466  1.00  0.00    -0.507 OA
ATOM     25  H   UNL     1     119.673 122.813 145.417  1.00  0.00     0.293 HD
ENDBRANCH   6  24
BRANCH   8  26
ATOM     26  O   UNL     1     123.407 120.330 143.303  1.00  0.00    -0.508 OA
ATOM     27  H   UNL     1     123.702 120.159 144.257  1.00  0.00     0.293 HD
ENDBRANCH   8  26
TORSDOF 6
ENDMDL
MODEL 2
REMARK VINA RESULT:    -6.587     13.083     17.025
REMARK INTER + INTRA:          -8.091
REMARK INTER:                  -7.773
REMARK INTRA:                  -0.318
REMARK UNBOUND:                -0.156
REMARK SMILES O=c1c(O)c(-c2ccc(O)c(O)c2)oc2cc(O)cc(O)c12
REMARK SMILES IDX 5 1 3 2 2 3 1 4 22 5 20 6 19 7 17 8 16 9 15 10 14 11 6 12
REMARK SMILES IDX 7 13 8 14 9 15 13 16 11 17 10 18 12 20 4 22 21 24 18 26
REMARK H PARENT 10 19 12 21 4 23 21 25 18 27
REMARK Flexibility Score: inf
ROOT
ATOM      1  C   UNL     1     132.588 133.172 132.938  1.00  0.00     0.180 A 
ATOM      2  C   UNL     1     133.920 133.309 132.511  1.00  0.00     0.208 A 
ATOM      3  C   UNL     1     134.633 134.466 132.865  1.00  0.00     0.238 A 
ATOM      4  O   UNL     1     135.847 134.548 132.543  1.00  0.00    -0.285 OA
ATOM      5  C   UNL     1     133.990 135.497 133.591  1.00  0.00     0.111 A 
ATOM      6  C   UNL     1     134.602 136.732 133.964  1.00  0.00     0.134 A 
ATOM      7  C   UNL     1     133.900 137.633 134.774  1.00  0.00     0.093 A 
ATOM      8  C   UNL     1     132.586 137.374 135.172  1.00  0.00     0.123 A 
ATOM      9  C   UNL     1     131.961 136.196 134.768  1.00  0.00     0.094 A 
ATOM     10  C   UNL     1     132.648 135.260 133.991  1.00  0.00     0.146 A 
ATOM     11  O   UNL     1     132.021 134.142 133.646  1.00  0.00    -0.452 OA
ENDROOT
BRANCH   1  12
ATOM     12  C   UNL     1     131.777 131.976 132.618  1.00  0.00     0.025 A 
ATOM     13  C   UNL     1     131.077 131.870 131.404  1.00  0.00     0.016 A 
ATOM     14  C   UNL     1     130.338 130.721 131.113  1.00  0.00     0.051 A 
ATOM     15  C   UNL     1     130.297 129.656 132.022  1.00  0.00     0.157 A 
ATOM     16  C   UNL     1     131.751 130.898 133.517  1.00  0.00     0.062 A 
ATOM     17  C   UNL     1     131.010 129.746 133.230  1.00  0.00     0.158 A 
BRANCH  15  18
ATOM     18  O   UNL     1     129.557 128.512 131.731  1.00  0.00    -0.504 OA
ATOM     19  H   UNL     1     129.551 128.106 130.802  1.00  0.00     0.293 HD
ENDBRANCH  15  18
BRANCH  17  20
ATOM     20  O   UNL     1     130.997 128.701 134.154  1.00  0.00    -0.504 OA
ATOM     21  H   UNL     1     130.149 128.195 134.382  1.00  0.00     0.293 HD
ENDBRANCH  17  20
ENDBRANCH   1  12
BRANCH   2  22
ATOM     22  O   UNL     1     134.514 132.315 131.730  1.00  0.00    -0.502 OA
ATOM     23  H   UNL     1     135.427 131.930 131.940  1.00  0.00     0.293 HD
ENDBRANCH   2  22
BRANCH   6  24
ATOM     24  O   UNL     1     135.875 137.133 133.548  1.00  0.00    -0.507 OA
ATOM     25  H   UNL     1     136.667 136.519 133.439  1.00  0.00     0.293 HD
ENDBRANCH   6  24
BRANCH   8  26
ATOM     26  O   UNL     1     131.890 138.284 135.964  1.00  0.00    -0.508 OA
ATOM     27  H   UNL     1     130.914 138.145 136.198  1.00  0.00     0.293 HD
ENDBRANCH   8  26
TORSDOF 6
ENDMDL
MODEL 3
REMARK VINA RESULT:    -6.465      7.192      8.709
REMARK INTER + INTRA:          -7.944
REMARK INTER:                  -7.696
REMARK INTRA:                  -0.248
REMARK UNBOUND:                -0.156
REMARK SMILES O=c1c(O)c(-c2ccc(O)c(O)c2)oc2cc(O)cc(O)c12
REMARK SMILES IDX 5 1 3 2 2 3 1 4 22 5 20 6 19 7 17 8 16 9 15 10 14 11 6 12
REMARK SMILES IDX 7 13 8 14 9 15 13 16 11 17 10 18 12 20 4 22 21 24 18 26
REMARK H PARENT 10 19 12 21 4 23 21 25 18 27
REMARK Flexibility Score: inf
ROOT
ATOM      1  C   UNL     1     125.840 126.755 134.791  1.00  0.00     0.180 A 
ATOM      2  C   UNL     1     125.536 127.992 135.386  1.00  0.00     0.208 A 
ATOM      3  C   UNL     1     124.195 128.400 135.460  1.00  0.00     0.238 A 
ATOM      4  O   UNL     1     123.923 129.472 136.061  1.00  0.00    -0.285 OA
ATOM      5  C   UNL     1     123.180 127.596 134.889  1.00  0.00     0.111 A 
ATOM      6  C   UNL     1     121.792 127.933 134.866  1.00  0.00     0.134 A 
ATOM      7  C   UNL     1     120.865 127.009 134.366  1.00  0.00     0.093 A 
ATOM      8  C   UNL     1     121.281 125.788 133.831  1.00  0.00     0.123 A 
ATOM      9  C   UNL     1     122.637 125.473 133.799  1.00  0.00     0.094 A 
ATOM     10  C   UNL     1     123.582 126.357 134.324  1.00  0.00     0.146 A 
ATOM     11  O   UNL     1     124.863 126.007 134.292  1.00  0.00    -0.452 OA
ENDROOT
BRANCH   1  12
ATOM     12  C   UNL     1     127.227 126.250 134.688  1.00  0.00     0.025 A 
ATOM     13  C   UNL     1     127.929 125.801 135.821  1.00  0.00     0.016 A 
ATOM     14  C   UNL     1     129.229 125.304 135.695  1.00  0.00     0.051 A 
ATOM     15  C   UNL     1     129.842 125.236 134.438  1.00  0.00     0.157 A 
ATOM     16  C   UNL     1     127.838 126.159 133.427  1.00  0.00     0.062 A 
ATOM     17  C   UNL     1     129.141 125.664 133.297  1.00  0.00     0.158 A 
BRANCH  15  18
ATOM     18  O   UNL     1     131.140 124.743 134.316  1.00  0.00    -0.504 OA
ATOM     19  H   UNL     1     131.851 125.242 133.795  1.00  0.00     0.293 HD
ENDBRANCH  15  18
BRANCH  17  20
ATOM     20  O   UNL     1     129.719 125.602 132.030  1.00  0.00    -0.504 OA
ATOM     21  H   UNL     1     129.168 125.450 131.194  1.00  0.00     0.293 HD
ENDBRANCH  17  20
ENDBRANCH   1  12
BRANCH   2  22
ATOM     22  O   UNL     1     126.559 128.807 135.876  1.00  0.00    -0.502 OA
ATOM     23  H   UNL     1     126.881 129.631 135.384  1.00  0.00     0.293 HD
ENDBRANCH   2  22
BRANCH   6  24
ATOM     24  O   UNL     1     121.277 129.160 135.292  1.00  0.00    -0.507 OA
ATOM     25  H   UNL     1     121.679 129.737 136.015  1.00  0.00     0.293 HD
ENDBRANCH   6  24
BRANCH   8  26
ATOM     26  O   UNL     1     120.353 124.882 133.321  1.00  0.00    -0.508 OA
ATOM     27  H   UNL     1     120.503 123.882 133.377  1.00  0.00     0.293 HD
ENDBRANCH   8  26
TORSDOF 6
ENDMDL
MODEL 4
REMARK VINA RESULT:    -6.455      2.389      6.728
REMARK INTER + INTRA:          -7.932
REMARK INTER:                  -7.609
REMARK INTRA:                  -0.323
REMARK UNBOUND:                -0.156
REMARK SMILES O=c1c(O)c(-c2ccc(O)c(O)c2)oc2cc(O)cc(O)c12
REMARK SMILES IDX 5 1 3 2 2 3 1 4 22 5 20 6 19 7 17 8 16 9 15 10 14 11 6 12
REMARK SMILES IDX 7 13 8 14 9 15 13 16 11 17 10 18 12 20 4 22 21 24 18 26
REMARK H PARENT 10 19 12 21 4 23 21 25 18 27
REMARK Flexibility Score: inf
ROOT
ATOM      1  C   UNL     1     123.189 123.008 142.411  1.00  0.00     0.180 A 
ATOM      2  C   UNL     1     122.090 123.435 143.175  1.00  0.00     0.208 A 
ATOM      3  C   UNL     1     121.138 124.281 142.585  1.00  0.00     0.238 A 
ATOM      4  O   UNL     1     120.119 124.599 143.251  1.00  0.00    -0.285 OA
ATOM      5  C   UNL     1     121.325 124.736 141.257  1.00  0.00     0.111 A 
ATOM      6  C   UNL     1     120.447 125.632 140.574  1.00  0.00     0.134 A 
ATOM      7  C   UNL     1     120.677 125.928 139.225  1.00  0.00     0.093 A 
ATOM      8  C   UNL     1     121.787 125.413 138.552  1.00  0.00     0.123 A 
ATOM      9  C   UNL     1     122.679 124.582 139.225  1.00  0.00     0.094 A 
ATOM     10  C   UNL     1     122.456 124.237 140.560  1.00  0.00     0.146 A 
ATOM     11  O   UNL     1     123.321 123.425 141.157  1.00  0.00    -0.452 OA
ENDROOT
BRANCH   1  12
ATOM     12  C   UNL     1     124.227 122.104 142.958  1.00  0.00     0.025 A 
ATOM     13  C   UNL     1     124.163 120.713 142.763  1.00  0.00     0.016 A 
ATOM     14  C   UNL     1     125.167 119.883 143.268  1.00  0.00     0.051 A 
ATOM     15  C   UNL     1     126.255 120.429 143.961  1.00  0.00     0.157 A 
ATOM     16  C   UNL     1     125.330 122.649 143.634  1.00  0.00     0.062 A 
ATOM     17  C   UNL     1     126.337 121.820 144.142  1.00  0.00     0.158 A 
BRANCH  15  18
ATOM     18  O   UNL     1     127.254 119.599 144.465  1.00  0.00    -0.504 OA
ATOM     19  H   UNL     1     128.163 119.961 144.728  1.00  0.00     0.293 HD
ENDBRANCH  15  18
BRANCH  17  20
ATOM     20  O   UNL     1     127.411 122.397 144.820  1.00  0.00    -0.504 OA
ATOM     21  H   UNL     1     128.171 122.856 144.333  1.00  0.00     0.293 HD
ENDBRANCH  17  20
ENDBRANCH   1  12
BRANCH   2  22
ATOM     22  O   UNL     1     121.964 123.037 144.508  1.00  0.00    -0.502 OA
ATOM     23  H   UNL     1     122.233 122.115 144.829  1.00  0.00     0.293 HD
ENDBRANCH   2  22
BRANCH   6  24
ATOM     24  O   UNL     1     119.360 126.274 141.174  1.00  0.00    -0.507 OA
ATOM     25  H   UNL     1     118.829 125.909 141.950  1.00  0.00     0.293 HD
ENDBRANCH   6  24
BRANCH   8  26
ATOM     26  O   UNL     1     122.017 125.728 137.214  1.00  0.00    -0.508 OA
ATOM     27  H   UNL     1     122.612 125.152 136.629  1.00  0.00     0.293 HD
ENDBRANCH   8  26
TORSDOF 6
ENDMDL
MODEL 5
REMARK VINA RESULT:    -6.355      3.512      7.040
REMARK INTER + INTRA:          -7.811
REMARK INTER:                  -7.498
REMARK INTRA:                  -0.313
REMARK UNBOUND:                -0.156
REMARK SMILES O=c1c(O)c(-c2ccc(O)c(O)c2)oc2cc(O)cc(O)c12
REMARK SMILES IDX 5 1 3 2 2 3 1 4 22 5 20 6 19 7 17 8 16 9 15 10 14 11 6 12
REMARK SMILES IDX 7 13 8 14 9 15 13 16 11 17 10 18 12 20 4 22 21 24 18 26
REMARK H PARENT 10 19 12 21 4 23 21 25 18 27
REMARK Flexibility Score: inf
ROOT
ATOM      1  C   UNL     1     123.361 123.228 142.985  1.00  0.00     0.180 A 
ATOM      2  C   UNL     1     122.197 122.809 142.317  1.00  0.00     0.208 A 
ATOM      3  C   UNL     1     121.293 123.776 141.852  1.00  0.00     0.238 A 
ATOM      4  O   UNL     1     120.292 123.397 141.189  1.00  0.00    -0.285 OA
ATOM      5  C   UNL     1     121.533 125.147 142.110  1.00  0.00     0.111 A 
ATOM      6  C   UNL     1     120.661 126.211 141.724  1.00  0.00     0.134 A 
ATOM      7  C   UNL     1     121.054 127.538 141.940  1.00  0.00     0.093 A 
ATOM      8  C   UNL     1     122.257 127.839 142.583  1.00  0.00     0.123 A 
ATOM      9  C   UNL     1     123.088 126.807 143.012  1.00  0.00     0.094 A 
ATOM     10  C   UNL     1     122.742 125.474 142.777  1.00  0.00     0.146 A 
ATOM     11  O   UNL     1     123.575 124.523 143.184  1.00  0.00    -0.452 OA
ENDROOT
BRANCH   1  12
ATOM     12  C   UNL     1     124.368 122.268 143.492  1.00  0.00     0.025 A 
ATOM     13  C   UNL     1     124.215 121.637 144.738  1.00  0.00     0.016 A 
ATOM     14  C   UNL     1     125.166 120.716 145.185  1.00  0.00     0.051 A 
ATOM     15  C   UNL     1     126.276 120.402 144.388  1.00  0.00     0.157 A 
ATOM     16  C   UNL     1     125.469 121.934 142.688  1.00  0.00     0.062 A 
ATOM     17  C   UNL     1     126.425 121.013 143.132  1.00  0.00     0.158 A 
BRANCH  15  18
ATOM     18  O   UNL     1     127.224 119.485 144.837  1.00  0.00    -0.504 OA
ATOM     19  H   UNL     1     128.125 119.783 145.190  1.00  0.00     0.293 HD
ENDBRANCH  15  18
BRANCH  17  20
ATOM     20  O   UNL     1     127.514 120.717 142.311  1.00  0.00    -0.504 OA
ATOM     21  H   UNL     1     128.288 120.147 142.630  1.00  0.00     0.293 HD
ENDBRANCH  17  20
ENDBRANCH   1  12
BRANCH   2  22
ATOM     22  O   UNL     1     121.940 121.446 142.139  1.00  0.00    -0.502 OA
ATOM     23  H   UNL     1     121.586 121.069 141.269  1.00  0.00     0.293 HD
ENDBRANCH   2  22
BRANCH   6  24
ATOM     24  O   UNL     1     119.398 126.023 141.156  1.00  0.00    -0.507 OA
ATOM     25  H   UNL     1     118.562 125.787 141.669  1.00  0.00     0.293 HD
ENDBRANCH   6  24
BRANCH   8  26
ATOM     26  O   UNL     1     122.632 129.161 142.809  1.00  0.00    -0.508 OA
ATOM     27  H   UNL     1     123.129 129.436 143.648  1.00  0.00     0.293 HD
ENDBRANCH   8  26
TORSDOF 6
ENDMDL
MODEL 6
REMARK VINA RESULT:    -6.173     15.291     17.842
REMARK INTER + INTRA:          -7.592
REMARK INTER:                  -7.332
REMARK INTRA:                  -0.260
REMARK UNBOUND:                -0.156
REMARK SMILES O=c1c(O)c(-c2ccc(O)c(O)c2)oc2cc(O)cc(O)c12
REMARK SMILES IDX 5 1 3 2 2 3 1 4 22 5 20 6 19 7 17 8 16 9 15 10 14 11 6 12
REMARK SMILES IDX 7 13 8 14 9 15 13 16 11 17 10 18 12 20 4 22 21 24 18 26
REMARK H PARENT 10 19 12 21 4 23 21 25 18 27
REMARK Flexibility Score: inf
ROOT
ATOM      1  C   UNL     1     133.638 135.584 135.889  1.00  0.00     0.180 A 
ATOM      2  C   UNL     1     134.869 135.708 135.221  1.00  0.00     0.208 A 
ATOM      3  C   UNL     1     135.042 135.061 133.988  1.00  0.00     0.238 A 
ATOM      4  O   UNL     1     136.119 135.238 133.360  1.00  0.00    -0.285 OA
ATOM      5  C   UNL     1     134.006 134.252 133.463  1.00  0.00     0.111 A 
ATOM      6  C   UNL     1     134.089 133.514 132.243  1.00  0.00     0.134 A 
ATOM      7  C   UNL     1     132.961 132.832 131.771  1.00  0.00     0.093 A 
ATOM      8  C   UNL     1     131.772 132.809 132.504  1.00  0.00     0.123 A 
ATOM      9  C   UNL     1     131.698 133.481 133.722  1.00  0.00     0.094 A 
ATOM     10  C   UNL     1     132.794 134.201 134.201  1.00  0.00     0.146 A 
ATOM     11  O   UNL     1     132.672 134.844 135.356  1.00  0.00    -0.452 OA
ENDROOT
BRANCH   1  12
ATOM     12  C   UNL     1     133.374 136.248 137.185  1.00  0.00     0.025 A 
ATOM     13  C   UNL     1     132.530 137.369 137.276  1.00  0.00     0.016 A 
ATOM     14  C   UNL     1     132.276 137.963 138.514  1.00  0.00     0.051 A 
ATOM     15  C   UNL     1     132.849 137.440 139.681  1.00  0.00     0.157 A 
ATOM     16  C   UNL     1     133.928 135.715 138.360  1.00  0.00     0.062 A 
ATOM     17  C   UNL     1     133.677 136.308 139.602  1.00  0.00     0.158 A 
BRANCH  15  18
ATOM     18  O   UNL     1     132.595 138.037 140.915  1.00  0.00    -0.504 OA
ATOM     19  H   UNL     1     133.010 138.925 141.170  1.00  0.00     0.293 HD
ENDBRANCH  15  18
BRANCH  17  20
ATOM     20  O   UNL     1     134.257 135.758 140.746  1.00  0.00    -0.504 OA
ATOM     21  H   UNL     1     135.260 135.653 140.842  1.00  0.00     0.293 HD
ENDBRANCH  17  20
ENDBRANCH   1  12
BRANCH   2  22
ATOM     22  O   UNL     1     135.907 136.449 135.792  1.00  0.00    -0.502 OA
ATOM     23  H   UNL     1     136.065 136.484 136.792  1.00  0.00     0.293 HD
ENDBRANCH   2  22
BRANCH   6  24
ATOM     24  O   UNL     1     135.252 133.395 131.477  1.00  0.00    -0.507 OA
ATOM     25  H   UNL     1     135.601 134.098 130.843  1.00  0.00     0.293 HD
ENDBRANCH   6  24
BRANCH   8  26
ATOM     26  O   UNL     1     130.660 132.114 132.034  1.00  0.00    -0.508 OA
ATOM     27  H   UNL     1     129.820 132.018 132.593  1.00  0.00     0.293 HD
ENDBRANCH   8  26
TORSDOF 6
ENDMDL
MODEL 7
REMARK VINA RESULT:    -6.139      3.202      5.314
REMARK INTER + INTRA:          -7.552
REMARK INTER:                  -7.242
REMARK INTRA:                  -0.309
REMARK UNBOUND:                -0.156
REMARK SMILES O=c1c(O)c(-c2ccc(O)c(O)c2)oc2cc(O)cc(O)c12
REMARK SMILES IDX 5 1 3 2 2 3 1 4 22 5 20 6 19 7 17 8 16 9 15 10 14 11 6 12
REMARK SMILES IDX 7 13 8 14 9 15 13 16 11 17 10 18 12 20 4 22 21 24 18 26
REMARK H PARENT 10 19 12 21 4 23 21 25 18 27
REMARK Flexibility Score: inf
ROOT
ATOM      1  C   UNL     1     123.318 123.354 142.843  1.00  0.00     0.180 A 
ATOM      2  C   UNL     1     123.035 122.564 143.971  1.00  0.00     0.208 A 
ATOM      3  C   UNL     1     124.055 121.771 144.520  1.00  0.00     0.238 A 
ATOM      4  O   UNL     1     123.816 121.125 145.574  1.00  0.00    -0.285 OA
ATOM      5  C   UNL     1     125.329 121.732 143.903  1.00  0.00     0.111 A 
ATOM      6  C   UNL     1     126.423 120.930 144.348  1.00  0.00     0.134 A 
ATOM      7  C   UNL     1     127.670 121.054 143.721  1.00  0.00     0.093 A 
ATOM      8  C   UNL     1     127.845 121.903 142.626  1.00  0.00     0.123 A 
ATOM      9  C   UNL     1     126.769 122.650 142.151  1.00  0.00     0.094 A 
ATOM     10  C   UNL     1     125.524 122.576 142.779  1.00  0.00     0.146 A 
ATOM     11  O   UNL     1     124.532 123.321 142.305  1.00  0.00    -0.452 OA
ENDROOT
BRANCH   1  12
ATOM     12  C   UNL     1     122.300 124.226 142.216  1.00  0.00     0.025 A 
ATOM     13  C   UNL     1     121.361 123.715 141.303  1.00  0.00     0.016 A 
ATOM     14  C   UNL     1     120.393 124.553 140.743  1.00  0.00     0.051 A 
ATOM     15  C   UNL     1     120.340 125.908 141.095  1.00  0.00     0.157 A 
ATOM     16  C   UNL     1     122.229 125.579 142.583  1.00  0.00     0.062 A 
ATOM     17  C   UNL     1     121.262 126.422 142.023  1.00  0.00     0.158 A 
BRANCH  15  18
ATOM     18  O   UNL     1     119.375 126.742 140.533  1.00  0.00    -0.504 OA
ATOM     19  H   UNL     1     118.903 126.500 139.670  1.00  0.00     0.293 HD
ENDBRANCH  15  18
BRANCH  17  20
ATOM     20  O   UNL     1     121.232 127.764 142.401  1.00  0.00    -0.504 OA
ATOM     21  H   UNL     1     121.548 128.073 143.313  1.00  0.00     0.293 HD
ENDBRANCH  17  20
ENDBRANCH   1  12
BRANCH   2  22
ATOM     22  O   UNL     1     121.750 122.557 144.520  1.00  0.00    -0.502 OA
ATOM     23  H   UNL     1     121.050 123.247 144.276  1.00  0.00     0.293 HD
ENDBRANCH   2  22
BRANCH   6  24
ATOM     24  O   UNL     1     126.336 119.984 145.373  1.00  0.00    -0.507 OA
ATOM     25  H   UNL     1     125.748 120.067 146.188  1.00  0.00     0.293 HD
ENDBRANCH   6  24
BRANCH   8  26
ATOM     26  O   UNL     1     129.084 122.007 141.998  1.00  0.00    -0.508 OA
ATOM     27  H   UNL     1     129.948 121.824 142.496  1.00  0.00     0.293 HD
ENDBRANCH   8  26
TORSDOF 6
ENDMDL
MODEL 8
REMARK VINA RESULT:    -6.115      1.665      7.270
REMARK INTER + INTRA:          -7.522
REMARK INTER:                  -7.193
REMARK INTRA:                  -0.329
REMARK UNBOUND:                -0.156
REMARK SMILES O=c1c(O)c(-c2ccc(O)c(O)c2)oc2cc(O)cc(O)c12
REMARK SMILES IDX 5 1 3 2 2 3 1 4 22 5 20 6 19 7 17 8 16 9 15 10 14 11 6 12
REMARK SMILES IDX 7 13 8 14 9 15 13 16 11 17 10 18 12 20 4 22 21 24 18 26
REMARK H PARENT 10 19 12 21 4 23 21 25 18 27
REMARK Flexibility Score: inf
ROOT
ATOM      1  C   UNL     1     121.627 126.002 138.990  1.00  0.00     0.180 A 
ATOM      2  C   UNL     1     122.505 127.093 138.866  1.00  0.00     0.208 A 
ATOM      3  C   UNL     1     122.822 127.569 137.585  1.00  0.00     0.238 A 
ATOM      4  O   UNL     1     123.549 128.591 137.484  1.00  0.00    -0.285 OA
ATOM      5  C   UNL     1     122.305 126.915 136.441  1.00  0.00     0.111 A 
ATOM      6  C   UNL     1     122.597 127.283 135.092  1.00  0.00     0.134 A 
ATOM      7  C   UNL     1     121.942 126.629 134.041  1.00  0.00     0.093 A 
ATOM      8  C   UNL     1     121.055 125.578 134.285  1.00  0.00     0.123 A 
ATOM      9  C   UNL     1     120.806 125.175 135.595  1.00  0.00     0.094 A 
ATOM     10  C   UNL     1     121.414 125.833 136.667  1.00  0.00     0.146 A 
ATOM     11  O   UNL     1     121.131 125.429 137.900  1.00  0.00    -0.452 OA
ENDROOT
BRANCH   1  12
ATOM     12  C   UNL     1     121.233 125.453 140.307  1.00  0.00     0.025 A 
ATOM     13  C   UNL     1     120.160 125.996 141.036  1.00  0.00     0.016 A 
ATOM     14  C   UNL     1     119.791 125.445 142.266  1.00  0.00     0.051 A 
ATOM     15  C   UNL     1     120.477 124.336 142.779  1.00  0.00     0.157 A 
ATOM     16  C   UNL     1     121.903 124.329 140.815  1.00  0.00     0.062 A 
ATOM     17  C   UNL     1     121.537 123.775 142.047  1.00  0.00     0.158 A 
BRANCH  15  18
ATOM     18  O   UNL     1     120.108 123.790 144.007  1.00  0.00    -0.504 OA
ATOM     19  H   UNL     1     120.773 123.688 144.764  1.00  0.00     0.293 HD
ENDBRANCH  15  18
BRANCH  17  20
ATOM     20  O   UNL     1     122.236 122.666 142.526  1.00  0.00    -0.504 OA
ATOM     21  H   UNL     1     123.217 122.518 142.318  1.00  0.00     0.293 HD
ENDBRANCH  17  20
ENDBRANCH   1  12
BRANCH   2  22
ATOM     22  O   UNL     1     123.066 127.677 140.005  1.00  0.00    -0.502 OA
ATOM     23  H   UNL     1     122.950 128.658 140.226  1.00  0.00     0.293 HD
ENDBRANCH   2  22
BRANCH   6  24
ATOM     24  O   UNL     1     123.532 128.257 134.731  1.00  0.00    -0.507 OA
ATOM     25  H   UNL     1     123.819 129.028 135.314  1.00  0.00     0.293 HD
ENDBRANCH   6  24
BRANCH   8  26
ATOM     26  O   UNL     1     120.422 124.922 133.233  1.00  0.00    -0.508 OA
ATOM     27  H   UNL     1     120.541 123.928 133.079  1.00  0.00     0.293 HD
ENDBRANCH   8  26
TORSDOF 6
ENDMDL
MODEL 9
REMARK VINA RESULT:    -6.079      3.189      5.544
REMARK INTER + INTRA:          -7.478
REMARK INTER:                  -7.149
REMARK INTRA:                  -0.329
REMARK UNBOUND:                -0.156
REMARK SMILES O=c1c(O)c(-c2ccc(O)c(O)c2)oc2cc(O)cc(O)c12
REMARK SMILES IDX 5 1 3 2 2 3 1 4 22 5 20 6 19 7 17 8 16 9 15 10 14 11 6 12
REMARK SMILES IDX 7 13 8 14 9 15 13 16 11 17 10 18 12 20 4 22 21 24 18 26
REMARK H PARENT 10 19 12 21 4 23 21 25 18 27
REMARK Flexibility Score: inf
ROOT
ATOM      1  C   UNL     1     123.407 123.224 142.783  1.00  0.00     0.180 A 
ATOM      2  C   UNL     1     123.409 121.831 142.593  1.00  0.00     0.208 A 
ATOM      3  C   UNL     1     124.451 121.070 143.144  1.00  0.00     0.238 A 
ATOM      4  O   UNL     1     124.406 119.817 143.033  1.00  0.00    -0.285 OA
ATOM      5  C   UNL     1     125.510 121.714 143.828  1.00  0.00     0.111 A 
ATOM      6  C   UNL     1     126.642 121.046 144.388  1.00  0.00     0.134 A 
ATOM      7  C   UNL     1     127.574 121.776 145.137  1.00  0.00     0.093 A 
ATOM      8  C   UNL     1     127.450 123.158 145.292  1.00  0.00     0.123 A 
ATOM      9  C   UNL     1     126.379 123.827 144.704  1.00  0.00     0.094 A 
ATOM     10  C   UNL     1     125.413 123.121 143.984  1.00  0.00     0.146 A 
ATOM     11  O   UNL     1     124.397 123.797 143.458  1.00  0.00    -0.452 OA
ENDROOT
BRANCH   1  12
ATOM     12  C   UNL     1     122.336 124.092 142.246  1.00  0.00     0.025 A 
ATOM     13  C   UNL     1     121.204 124.419 143.014  1.00  0.00     0.016 A 
ATOM     14  C   UNL     1     120.218 125.261 142.495  1.00  0.00     0.051 A 
ATOM     15  C   UNL     1     120.351 125.799 141.208  1.00  0.00     0.157 A 
ATOM     16  C   UNL     1     122.476 124.651 140.966  1.00  0.00     0.062 A 
ATOM     17  C   UNL     1     121.489 125.494 140.441  1.00  0.00     0.158 A 
BRANCH  15  18
ATOM     18  O   UNL     1     119.365 126.636 140.692  1.00  0.00    -0.504 OA
ATOM     19  H   UNL     1     119.563 127.597 140.438  1.00  0.00     0.293 HD
ENDBRANCH  15  18
BRANCH  17  20
ATOM     20  O   UNL     1     121.657 126.019 139.160  1.00  0.00    -0.504 OA
ATOM     21  H   UNL     1     120.870 126.264 138.572  1.00  0.00     0.293 HD
ENDBRANCH  17  20
ENDBRANCH   1  12
BRANCH   2  22
ATOM     22  O   UNL     1     122.395 121.222 141.848  1.00  0.00    -0.502 OA
ATOM     23  H   UNL     1     122.018 120.313 142.085  1.00  0.00     0.293 HD
ENDBRANCH   2  22
BRANCH   6  24
ATOM     24  O   UNL     1     126.911 119.684 144.219  1.00  0.00    -0.507 OA
ATOM     25  H   UNL     1     127.382 119.283 143.423  1.00  0.00     0.293 HD
ENDBRANCH   6  24
BRANCH   8  26
ATOM     26  O   UNL     1     128.392 123.878 146.024  1.00  0.00    -0.508 OA
ATOM     27  H   UNL     1     128.831 124.710 145.648  1.00  0.00     0.293 HD
ENDBRANCH   8  26
TORSDOF 6
ENDMDL
