MODEL 1
REMARK VINA RESULT:    -5.655      0.000      0.000
REMARK INTER + INTRA:          -6.522
REMARK INTER:                  -6.151
REMARK INTRA:                  -0.371
REMARK UNBOUND:                -0.371
REMARK SMILES CC(=O)[C@H]1CC[C@H]2[C@@H]3CC=C4C[C@@H](O)CC[C@@]4(C)[C@@H]3CC[C@@]12C
REMARK SMILES IDX 4 1 5 2 6 3 7 4 22 5 21 6 20 7 19 8 8 9 9 10 10 11 11 12
REMARK SMILES IDX 17 13 16 14 15 15 13 16 12 17 18 18 23 19 2 20 1 21 3 22
REMARK SMILES IDX 14 23
REMARK H PARENT 14 24
REMARK Flexibility Score: inf
ROOT
ATOM      1  C   UNL     1      16.424  16.219  15.610  1.00  0.00     0.062 C 
ATOM      2  C   UNL     1      15.820  17.500  16.170  1.00  0.00     0.012 C 
ATOM      3  C   UNL     1      14.715  17.051  17.105  1.00  0.00     0.005 C 
ATOM      4  C   UNL     1      14.161  15.724  16.548  1.00  0.00    -0.001 C 
ATOM      5  C   UNL     1      15.305  15.117  15.667  1.00  0.00    -0.020 C 
ATOM      6  C   UNL     1      14.809  14.622  14.270  1.00  0.00     0.008 C 
ATOM      7  C   UNL     1      13.782  15.507  13.530  1.00  0.00     0.005 C 
ATOM      8  C   UNL     1      12.939  16.478  14.406  1.00  0.00     0.003 C 
ATOM      9  C   UNL     1      12.787  15.926  15.838  1.00  0.00     0.000 C 
ATOM     10  C   UNL     1      11.922  14.650  15.837  1.00  0.00     0.031 C 
ATOM     11  C   UNL     1      10.661  14.816  15.030  1.00  0.00    -0.027 C 
ATOM     12  C   UNL     1      10.491  15.751  14.066  1.00  0.00    -0.065 C 
ATOM     13  C   UNL     1      11.532  16.837  13.773  1.00  0.00    -0.008 C 
ATOM     14  C   UNL     1      10.976  18.167  14.387  1.00  0.00     0.014 C 
ATOM     15  C   UNL     1       9.512  18.483  13.988  1.00  0.00     0.033 C 
ATOM     16  C   UNL     1       8.552  17.292  14.210  1.00  0.00     0.118 C 
ATOM     17  C   UNL     1       9.090  16.008  13.560  1.00  0.00     0.063 C 
ATOM     18  C   UNL     1      11.688  17.045  12.234  1.00  0.00     0.016 C 
ATOM     19  C   UNL     1      15.886  13.875  16.398  1.00  0.00     0.012 C 
ENDROOT
BRANCH   1  20
ATOM     20  C   UNL     1      17.109  16.437  14.271  1.00  0.00     0.133 C 
ATOM     21  C   UNL     1      16.750  17.625  13.430  1.00  0.00     0.088 C 
ATOM     22  O   UNL     1      17.948  15.648  13.864  1.00  0.00    -0.300 OA
ENDBRANCH   1  20
BRANCH  16  23
ATOM     23  O   UNL     1       8.365  17.074  15.587  1.00  0.00    -0.393 OA
ATOM     24  H   UNL     1       7.675  16.364  15.674  1.00  0.00     0.210 HD
ENDBRANCH  16  23
TORSDOF 2
ENDMDL
MODEL 2
REMARK VINA RESULT:    -5.296      1.768      3.418
REMARK INTER + INTRA:          -6.132
REMARK INTER:                  -5.770
REMARK INTRA:                  -0.361
REMARK UNBOUND:                -0.371
REMARK SMILES CC(=O)[C@H]1CC[C@H]2[C@@H]3CC=C4C[C@@H](O)CC[C@@]4(C)[C@@H]3CC[C@@]12C
REMARK SMILES IDX 4 1 5 2 6 3 7 4 22 5 21 6 20 7 19 8 8 9 9 10 10 11 11 12
REMARK SMILES IDX 17 13 16 14 15 15 13 16 12 17 18 18 23 19 2 20 1 21 3 22
REMARK SMILES IDX 14 23
REMARK H PARENT 14 24
REMARK Flexibility Score: inf
ROOT
ATOM      1  C   UNL     1      13.589  15.158  15.276  1.00  0.00     0.062 C 
ATOM      2  C   UNL     1      12.539  14.896  16.349  1.00  0.00     0.012 C 
ATOM      3  C   UNL     1      11.375  14.250  15.625  1.00  0.00     0.005 C 
ATOM      4  C   UNL     1      11.365  14.811  14.189  1.00  0.00    -0.001 C 
ATOM      5  C   UNL     1      12.828  15.299  13.909  1.00  0.00    -0.020 C 
ATOM      6  C   UNL     1      12.889  16.727  13.276  1.00  0.00     0.008 C 
ATOM      7  C   UNL     1      11.916  17.790  13.831  1.00  0.00     0.005 C 
ATOM      8  C   UNL     1      10.639  17.260  14.545  1.00  0.00     0.003 C 
ATOM      9  C   UNL     1      10.242  15.876  13.992  1.00  0.00     0.000 C 
ATOM     10  C   UNL     1       9.777  15.989  12.528  1.00  0.00     0.031 C 
ATOM     11  C   UNL     1       8.794  17.113  12.327  1.00  0.00    -0.027 C 
ATOM     12  C   UNL     1       8.662  18.169  13.164  1.00  0.00    -0.065 C 
ATOM     13  C   UNL     1       9.422  18.272  14.492  1.00  0.00    -0.008 C 
ATOM     14  C   UNL     1       8.389  17.951  15.625  1.00  0.00     0.014 C 
ATOM     15  C   UNL     1       7.065  18.750  15.518  1.00  0.00     0.033 C 
ATOM     16  C   UNL     1       6.427  18.683  14.111  1.00  0.00     0.118 C 
ATOM     17  C   UNL     1       7.442  19.049  13.016  1.00  0.00     0.063 C 
ATOM     18  C   UNL     1       9.941  19.728  14.712  1.00  0.00     0.016 C 
ATOM     19  C   UNL     1      13.485  14.331  12.887  1.00  0.00     0.012 C 
ENDROOT
BRANCH   1  20
ATOM     20  C   UNL     1      14.539  16.282  15.656  1.00  0.00     0.133 C 
ATOM     21  C   UNL     1      14.169  17.239  16.748  1.00  0.00     0.088 C 
ATOM     22  O   UNL     1      15.604  16.422  15.073  1.00  0.00    -0.300 OA
ENDBRANCH   1  20
BRANCH  16  23
ATOM     23  O   UNL     1       5.926  17.392  13.870  1.00  0.00    -0.393 OA
ATOM     24  H   UNL     1       5.085  17.308  14.391  1.00  0.00     0.210 HD
ENDBRANCH  16  23
TORSDOF 2
ENDMDL
MODEL 3
REMARK VINA RESULT:    -5.152      4.339      7.234
REMARK INTER + INTRA:          -5.975
REMARK INTER:                  -5.670
REMARK INTRA:                  -0.304
REMARK UNBOUND:                -0.371
REMARK SMILES CC(=O)[C@H]1CC[C@H]2[C@@H]3CC=C4C[C@@H](O)CC[C@@]4(C)[C@@H]3CC[C@@]12C
REMARK SMILES IDX 4 1 5 2 6 3 7 4 22 5 21 6 20 7 19 8 8 9 9 10 10 11 11 12
REMARK SMILES IDX 17 13 16 14 15 15 13 16 12 17 18 18 23 19 2 20 1 21 3 22
REMARK SMILES IDX 14 23
REMARK H PARENT 14 24
REMARK Flexibility Score: inf
ROOT
ATOM      1  C   UNL     1       9.896  20.431  14.005  1.00  0.00     0.062 C 
ATOM      2  C   UNL     1       9.109  20.890  12.784  1.00  0.00     0.012 C 
ATOM      3  C   UNL     1       7.837  21.504  13.332  1.00  0.00     0.005 C 
ATOM      4  C   UNL     1       7.503  20.764  14.642  1.00  0.00    -0.001 C 
ATOM      5  C   UNL     1       8.856  20.159  15.151  1.00  0.00    -0.020 C 
ATOM      6  C   UNL     1       8.738  18.661  15.578  1.00  0.00     0.008 C 
ATOM      7  C   UNL     1       7.875  17.737  14.691  1.00  0.00     0.005 C 
ATOM      8  C   UNL     1       6.797  18.428  13.807  1.00  0.00     0.003 C 
ATOM      9  C   UNL     1       6.332  19.750  14.451  1.00  0.00     0.000 C 
ATOM     10  C   UNL     1       5.561  19.476  15.757  1.00  0.00     0.031 C 
ATOM     11  C   UNL     1       4.525  18.395  15.591  1.00  0.00    -0.027 C 
ATOM     12  C   UNL     1       4.544  17.466  14.607  1.00  0.00    -0.065 C 
ATOM     13  C   UNL     1       5.567  17.490  13.465  1.00  0.00    -0.008 C 
ATOM     14  C   UNL     1       4.811  18.015  12.197  1.00  0.00     0.014 C 
ATOM     15  C   UNL     1       3.472  17.288  11.914  1.00  0.00     0.033 C 
ATOM     16  C   UNL     1       2.550  17.210  13.153  1.00  0.00     0.118 C 
ATOM     17  C   UNL     1       3.295  16.647  14.373  1.00  0.00     0.063 C 
ATOM     18  C   UNL     1       6.078  16.048  13.159  1.00  0.00     0.016 C 
ATOM     19  C   UNL     1       9.307  20.947  16.411  1.00  0.00     0.012 C 
ENDROOT
BRANCH   1  20
ATOM     20  C   UNL     1      10.872  19.312  13.679  1.00  0.00     0.133 C 
ATOM     21  C   UNL     1      12.095  19.115  14.521  1.00  0.00     0.088 C 
ATOM     22  O   UNL     1      10.674  18.570  12.728  1.00  0.00    -0.300 OA
ENDBRANCH   1  20
BRANCH  16  23
ATOM     23  O   UNL     1       2.048  18.486  13.461  1.00  0.00    -0.393 OA
ATOM     24  H   UNL     1       1.805  18.915  12.598  1.00  0.00     0.210 HD
ENDBRANCH  16  23
TORSDOF 2
ENDMDL
MODEL 4
REMARK VINA RESULT:    -5.128      3.691      5.939
REMARK INTER + INTRA:          -5.949
REMARK INTER:                  -5.580
REMARK INTRA:                  -0.369
REMARK UNBOUND:                -0.371
REMARK SMILES CC(=O)[C@H]1CC[C@H]2[C@@H]3CC=C4C[C@@H](O)CC[C@@]4(C)[C@@H]3CC[C@@]12C
REMARK SMILES IDX 4 1 5 2 6 3 7 4 22 5 21 6 20 7 19 8 8 9 9 10 10 11 11 12
REMARK SMILES IDX 17 13 16 14 15 15 13 16 12 17 18 18 23 19 2 20 1 21 3 22
REMARK SMILES IDX 14 23
REMARK H PARENT 14 24
REMARK Flexibility Score: inf
ROOT
ATOM      1  C   UNL     1      17.247  20.905  13.043  1.00  0.00     0.062 C 
ATOM      2  C   UNL     1      16.950  19.748  12.098  1.00  0.00     0.012 C 
ATOM      3  C   UNL     1      15.512  19.360  12.375  1.00  0.00     0.005 C 
ATOM      4  C   UNL     1      15.237  19.666  13.860  1.00  0.00    -0.001 C 
ATOM      5  C   UNL     1      16.285  20.755  14.275  1.00  0.00    -0.020 C 
ATOM      6  C   UNL     1      17.003  20.433  15.625  1.00  0.00     0.008 C 
ATOM      7  C   UNL     1      17.417  18.966  15.876  1.00  0.00     0.005 C 
ATOM      8  C   UNL     1      16.644  17.878  15.075  1.00  0.00     0.003 C 
ATOM      9  C   UNL     1      15.224  18.368  14.725  1.00  0.00     0.000 C 
ATOM     10  C   UNL     1      14.369  18.508  16.000  1.00  0.00     0.031 C 
ATOM     11  C   UNL     1      14.475  17.300  16.893  1.00  0.00    -0.027 C 
ATOM     12  C   UNL     1      15.496  16.412  16.856  1.00  0.00    -0.065 C 
ATOM     13  C   UNL     1      16.606  16.471  15.800  1.00  0.00    -0.008 C 
ATOM     14  C   UNL     1      16.306  15.329  14.770  1.00  0.00     0.014 C 
ATOM     15  C   UNL     1      16.037  13.947  15.420  1.00  0.00     0.033 C 
ATOM     16  C   UNL     1      14.986  14.003  16.552  1.00  0.00     0.118 C 
ATOM     17  C   UNL     1      15.323  15.095  17.579  1.00  0.00     0.063 C 
ATOM     18  C   UNL     1      17.995  16.180  16.451  1.00  0.00     0.016 C 
ATOM     19  C   UNL     1      15.542  22.104  14.477  1.00  0.00     0.012 C 
ENDROOT
BRANCH   1  20
ATOM     20  C   UNL     1      18.731  21.046  13.339  1.00  0.00     0.133 C 
ATOM     21  C   UNL     1      19.649  19.878  13.143  1.00  0.00     0.088 C 
ATOM     22  O   UNL     1      19.187  22.103  13.747  1.00  0.00    -0.300 OA
ENDBRANCH   1  20
BRANCH  16  23
ATOM     23  O   UNL     1      13.711  14.246  16.014  1.00  0.00    -0.393 OA
ATOM     24  H   UNL     1      13.592  13.613  15.258  1.00  0.00     0.210 HD
ENDBRANCH  16  23
TORSDOF 2
ENDMDL
MODEL 5
REMARK VINA RESULT:    -5.096      6.270      9.798
REMARK INTER + INTRA:          -5.914
REMARK INTER:                  -5.542
REMARK INTRA:                  -0.372
REMARK UNBOUND:                -0.371
REMARK SMILES CC(=O)[C@H]1CC[C@H]2[C@@H]3CC=C4C[C@@H](O)CC[C@@]4(C)[C@@H]3CC[C@@]12C
REMARK SMILES IDX 4 1 5 2 6 3 7 4 22 5 21 6 20 7 19 8 8 9 9 10 10 11 11 12
REMARK SMILES IDX 17 13 16 14 15 15 13 16 12 17 18 18 23 19 2 20 1 21 3 22
REMARK SMILES IDX 14 23
REMARK H PARENT 14 24
REMARK Flexibility Score: inf
ROOT
ATOM      1  C   UNL     1       3.033  17.581  13.073  1.00  0.00     0.062 C 
ATOM      2  C   UNL     1       3.918  17.901  11.875  1.00  0.00     0.012 C 
ATOM      3  C   UNL     1       5.222  17.174  12.132  1.00  0.00     0.005 C 
ATOM      4  C   UNL     1       5.417  17.117  13.660  1.00  0.00    -0.001 C 
ATOM      5  C   UNL     1       3.985  17.264  14.281  1.00  0.00    -0.020 C 
ATOM      6  C   UNL     1       3.925  18.303  15.446  1.00  0.00     0.008 C 
ATOM      7  C   UNL     1       4.724  19.614  15.269  1.00  0.00     0.005 C 
ATOM      8  C   UNL     1       5.908  19.577  14.260  1.00  0.00     0.003 C 
ATOM      9  C   UNL     1       6.480  18.149  14.147  1.00  0.00     0.000 C 
ATOM     10  C   UNL     1       7.159  17.730  15.466  1.00  0.00     0.031 C 
ATOM     11  C   UNL     1       8.081  18.797  15.996  1.00  0.00    -0.027 C 
ATOM     12  C   UNL     1       8.007  20.105  15.657  1.00  0.00    -0.065 C 
ATOM     13  C   UNL     1       7.045  20.630  14.584  1.00  0.00    -0.008 C 
ATOM     14  C   UNL     1       7.908  20.918  13.309  1.00  0.00     0.014 C 
ATOM     15  C   UNL     1       9.174  21.769  13.583  1.00  0.00     0.033 C 
ATOM     16  C   UNL     1      10.026  21.232  14.756  1.00  0.00     0.118 C 
ATOM     17  C   UNL     1       9.172  21.002  16.012  1.00  0.00     0.063 C 
ATOM     18  C   UNL     1       6.398  21.975  15.042  1.00  0.00     0.016 C 
ATOM     19  C   UNL     1       3.564  15.895  14.884  1.00  0.00     0.012 C 
ENDROOT
BRANCH   1  20
ATOM     20  C   UNL     1       1.959  18.633  13.299  1.00  0.00     0.133 C 
ATOM     21  C   UNL     1       2.133  20.013  12.740  1.00  0.00     0.088 C 
ATOM     22  O   UNL     1       0.954  18.370  13.941  1.00  0.00    -0.300 OA
ENDBRANCH   1  20
BRANCH  16  23
ATOM     23  O   UNL     1      10.647  20.025  14.387  1.00  0.00    -0.393 OA
ATOM     24  H   UNL     1      11.517  19.991  14.866  1.00  0.00     0.210 HD
ENDBRANCH  16  23
TORSDOF 2
ENDMDL
MODEL 6
REMARK VINA RESULT:    -5.026      4.892      8.130
REMARK INTER + INTRA:          -5.838
REMARK INTER:                  -5.483
REMARK INTRA:                  -0.355
REMARK UNBOUND:                -0.371
REMARK SMILES CC(=O)[C@H]1CC[C@H]2[C@@H]3CC=C4C[C@@H](O)CC[C@@]4(C)[C@@H]3CC[C@@]12C
REMARK SMILES IDX 4 1 5 2 6 3 7 4 22 5 21 6 20 7 19 8 8 9 9 10 10 11 11 12
REMARK SMILES IDX 17 13 16 14 15 15 13 16 12 17 18 18 23 19 2 20 1 21 3 22
REMARK SMILES IDX 14 23
REMARK H PARENT 14 24
REMARK Flexibility Score: inf
ROOT
ATOM      1  C   UNL     1       9.279  18.519  14.051  1.00  0.00     0.062 C 
ATOM      2  C   UNL     1       8.823  18.800  12.625  1.00  0.00     0.012 C 
ATOM      3  C   UNL     1       8.076  20.117  12.692  1.00  0.00     0.005 C 
ATOM      4  C   UNL     1       7.434  20.203  14.091  1.00  0.00    -0.001 C 
ATOM      5  C   UNL     1       8.278  19.257  15.011  1.00  0.00    -0.020 C 
ATOM      6  C   UNL     1       7.400  18.307  15.887  1.00  0.00     0.008 C 
ATOM      7  C   UNL     1       6.160  17.672  15.220  1.00  0.00     0.005 C 
ATOM      8  C   UNL     1       5.586  18.407  13.975  1.00  0.00     0.003 C 
ATOM      9  C   UNL     1       5.901  19.915  14.041  1.00  0.00     0.000 C 
ATOM     10  C   UNL     1       5.131  20.580  15.199  1.00  0.00     0.031 C 
ATOM     11  C   UNL     1       3.678  20.182  15.219  1.00  0.00    -0.027 C 
ATOM     12  C   UNL     1       3.183  19.071  14.626  1.00  0.00    -0.065 C 
ATOM     13  C   UNL     1       4.040  18.150  13.749  1.00  0.00    -0.008 C 
ATOM     14  C   UNL     1       3.643  18.449  12.263  1.00  0.00     0.014 C 
ATOM     15  C   UNL     1       2.116  18.433  12.002  1.00  0.00     0.033 C 
ATOM     16  C   UNL     1       1.319  19.300  13.005  1.00  0.00     0.118 C 
ATOM     17  C   UNL     1       1.685  18.958  14.457  1.00  0.00     0.063 C 
ATOM     18  C   UNL     1       3.710  16.653  14.044  1.00  0.00     0.016 C 
ATOM     19  C   UNL     1       9.105  20.131  15.993  1.00  0.00     0.012 C 
ENDROOT
BRANCH   1  20
ATOM     20  C   UNL     1       9.514  17.039  14.304  1.00  0.00     0.133 C 
ATOM     21  C   UNL     1       8.795  16.015  13.480  1.00  0.00     0.088 C 
ATOM     22  O   UNL     1      10.279  16.670  15.182  1.00  0.00    -0.300 OA
ENDBRANCH   1  20
BRANCH  16  23
ATOM     23  O   UNL     1       1.570  20.663  12.768  1.00  0.00    -0.393 OA
ATOM     24  H   UNL     1       2.422  20.882  13.229  1.00  0.00     0.210 HD
ENDBRANCH  16  23
TORSDOF 2
ENDMDL
MODEL 7
REMARK VINA RESULT:    -5.019      4.203      9.432
REMARK INTER + INTRA:          -5.830
REMARK INTER:                  -5.537
REMARK INTRA:                  -0.293
REMARK UNBOUND:                -0.371
REMARK SMILES CC(=O)[C@H]1CC[C@H]2[C@@H]3CC=C4C[C@@H](O)CC[C@@]4(C)[C@@H]3CC[C@@]12C
REMARK SMILES IDX 4 1 5 2 6 3 7 4 22 5 21 6 20 7 19 8 8 9 9 10 10 11 11 12
REMARK SMILES IDX 17 13 16 14 15 15 13 16 12 17 18 18 23 19 2 20 1 21 3 22
REMARK SMILES IDX 14 23
REMARK H PARENT 14 24
REMARK Flexibility Score: inf
ROOT
ATOM      1  C   UNL     1       2.909  18.742  14.137  1.00  0.00     0.062 C 
ATOM      2  C   UNL     1       3.297  17.333  13.706  1.00  0.00     0.012 C 
ATOM      3  C   UNL     1       4.123  16.775  14.847  1.00  0.00     0.005 C 
ATOM      4  C   UNL     1       4.851  17.965  15.504  1.00  0.00    -0.001 C 
ATOM      5  C   UNL     1       4.007  19.236  15.147  1.00  0.00    -0.020 C 
ATOM      6  C   UNL     1       4.878  20.425  14.629  1.00  0.00     0.008 C 
ATOM      7  C   UNL     1       6.036  20.089  13.664  1.00  0.00     0.005 C 
ATOM      8  C   UNL     1       6.578  18.632  13.708  1.00  0.00     0.003 C 
ATOM      9  C   UNL     1       6.358  18.012  15.104  1.00  0.00     0.000 C 
ATOM     10  C   UNL     1       7.234  18.721  16.156  1.00  0.00     0.031 C 
ATOM     11  C   UNL     1       8.659  18.883  15.696  1.00  0.00    -0.027 C 
ATOM     12  C   UNL     1       9.051  18.847  14.401  1.00  0.00    -0.065 C 
ATOM     13  C   UNL     1       8.091  18.508  13.255  1.00  0.00    -0.008 C 
ATOM     14  C   UNL     1       8.416  17.039  12.817  1.00  0.00     0.014 C 
ATOM     15  C   UNL     1       9.922  16.775  12.564  1.00  0.00     0.033 C 
ATOM     16  C   UNL     1      10.826  17.253  13.723  1.00  0.00     0.118 C 
ATOM     17  C   UNL     1      10.527  18.710  14.105  1.00  0.00     0.063 C 
ATOM     18  C   UNL     1       8.348  19.443  12.032  1.00  0.00     0.016 C 
ATOM     19  C   UNL     1       3.293  19.733  16.434  1.00  0.00     0.012 C 
ENDROOT
BRANCH   1  20
ATOM     20  C   UNL     1       2.603  19.647  12.955  1.00  0.00     0.133 C 
ATOM     21  C   UNL     1       1.615  20.764  13.102  1.00  0.00     0.088 C 
ATOM     22  O   UNL     1       3.149  19.469  11.876  1.00  0.00    -0.300 OA
ENDBRANCH   1  20
BRANCH  16  23
ATOM     23  O   UNL     1      10.644  16.429  14.847  1.00  0.00    -0.393 OA
ATOM     24  H   UNL     1      11.032  16.912  15.624  1.00  0.00     0.210 HD
ENDBRANCH  16  23
TORSDOF 2
ENDMDL
MODEL 8
REMARK VINA RESULT:    -4.858      4.287      8.836
REMARK INTER + INTRA:          -5.655
REMARK INTER:                  -5.368
REMARK INTRA:                  -0.287
REMARK UNBOUND:                -0.371
REMARK SMILES CC(=O)[C@H]1CC[C@H]2[C@@H]3CC=C4C[C@@H](O)CC[C@@]4(C)[C@@H]3CC[C@@]12C
REMARK SMILES IDX 4 1 5 2 6 3 7 4 22 5 21 6 20 7 19 8 8 9 9 10 10 11 11 12
REMARK SMILES IDX 17 13 16 14 15 15 13 16 12 17 18 18 23 19 2 20 1 21 3 22
REMARK SMILES IDX 14 23
REMARK H PARENT 14 24
REMARK Flexibility Score: inf
ROOT
ATOM      1  C   UNL     1       4.068  19.098  13.805  1.00  0.00     0.062 C 
ATOM      2  C   UNL     1       4.617  19.493  12.440  1.00  0.00     0.012 C 
ATOM      3  C   UNL     1       5.505  18.341  12.015  1.00  0.00     0.005 C 
ATOM      4  C   UNL     1       6.090  17.720  13.299  1.00  0.00    -0.001 C 
ATOM      5  C   UNL     1       5.102  18.108  14.452  1.00  0.00    -0.020 C 
ATOM      6  C   UNL     1       5.826  18.662  15.721  1.00  0.00     0.008 C 
ATOM      7  C   UNL     1       7.014  19.624  15.496  1.00  0.00     0.005 C 
ATOM      8  C   UNL     1       7.723  19.542  14.114  1.00  0.00     0.003 C 
ATOM      9  C   UNL     1       7.580  18.129  13.512  1.00  0.00     0.000 C 
ATOM     10  C   UNL     1       8.368  17.101  14.347  1.00  0.00     0.031 C 
ATOM     11  C   UNL     1       9.764  17.572  14.662  1.00  0.00    -0.027 C 
ATOM     12  C   UNL     1      10.155  18.868  14.637  1.00  0.00    -0.065 C 
ATOM     13  C   UNL     1       9.239  20.000  14.156  1.00  0.00    -0.008 C 
ATOM     14  C   UNL     1       9.734  20.399  12.724  1.00  0.00     0.014 C 
ATOM     15  C   UNL     1      11.260  20.653  12.631  1.00  0.00     0.033 C 
ATOM     16  C   UNL     1      12.104  19.511  13.243  1.00  0.00     0.118 C 
ATOM     17  C   UNL     1      11.636  19.168  14.666  1.00  0.00     0.063 C 
ATOM     18  C   UNL     1       9.383  21.249  15.081  1.00  0.00     0.016 C 
ATOM     19  C   UNL     1       4.337  16.832  14.898  1.00  0.00     0.012 C 
ENDROOT
BRANCH   1  20
ATOM     20  C   UNL     1       3.655  20.303  14.635  1.00  0.00     0.133 C 
ATOM     21  C   UNL     1       2.529  20.187  15.616  1.00  0.00     0.088 C 
ATOM     22  O   UNL     1       4.228  21.375  14.505  1.00  0.00    -0.300 OA
ENDBRANCH   1  20
BRANCH  16  23
ATOM     23  O   UNL     1      12.021  18.364  12.435  1.00  0.00    -0.393 OA
ATOM     24  H   UNL     1      12.566  18.544  11.624  1.00  0.00     0.210 HD
ENDBRANCH  16  23
TORSDOF 2
ENDMDL
MODEL 9
REMARK VINA RESULT:    -4.801      2.601      6.208
REMARK INTER + INTRA:          -5.593
REMARK INTER:                  -5.236
REMARK INTRA:                  -0.357
REMARK UNBOUND:                -0.371
REMARK SMILES CC(=O)[C@H]1CC[C@H]2[C@@H]3CC=C4C[C@@H](O)CC[C@@]4(C)[C@@H]3CC[C@@]12C
REMARK SMILES IDX 4 1 5 2 6 3 7 4 22 5 21 6 20 7 19 8 8 9 9 10 10 11 11 12
REMARK SMILES IDX 17 13 16 14 15 15 13 16 12 17 18 18 23 19 2 20 1 21 3 22
REMARK SMILES IDX 14 23
REMARK H PARENT 14 24
REMARK Flexibility Score: inf
ROOT
ATOM      1  C   UNL     1      14.048  14.926  15.258  1.00  0.00     0.062 C 
ATOM      2  C   UNL     1      14.738  14.920  13.900  1.00  0.00     0.012 C 
ATOM      3  C   UNL     1      16.213  15.103  14.196  1.00  0.00     0.005 C 
ATOM      4  C   UNL     1      16.316  15.951  15.479  1.00  0.00    -0.001 C 
ATOM      5  C   UNL     1      14.959  15.752  16.236  1.00  0.00    -0.020 C 
ATOM      6  C   UNL     1      14.330  17.093  16.732  1.00  0.00     0.008 C 
ATOM      7  C   UNL     1      14.401  18.305  15.778  1.00  0.00     0.005 C 
ATOM      8  C   UNL     1      15.513  18.271  14.690  1.00  0.00     0.003 C 
ATOM      9  C   UNL     1      16.713  17.427  15.166  1.00  0.00     0.000 C 
ATOM     10  C   UNL     1      17.427  18.117  16.345  1.00  0.00     0.031 C 
ATOM     11  C   UNL     1      17.680  19.578  16.082  1.00  0.00    -0.027 C 
ATOM     12  C   UNL     1      17.001  20.318  15.175  1.00  0.00    -0.065 C 
ATOM     13  C   UNL     1      15.972  19.710  14.214  1.00  0.00    -0.008 C 
ATOM     14  C   UNL     1      16.664  19.630  12.810  1.00  0.00     0.014 C 
ATOM     15  C   UNL     1      17.337  20.952  12.361  1.00  0.00     0.033 C 
ATOM     16  C   UNL     1      18.269  21.555  13.438  1.00  0.00     0.118 C 
ATOM     17  C   UNL     1      17.559  21.671  14.795  1.00  0.00     0.063 C 
ATOM     18  C   UNL     1      14.727  20.642  14.085  1.00  0.00     0.016 C 
ATOM     19  C   UNL     1      15.220  14.888  17.501  1.00  0.00     0.012 C 
ENDROOT
BRANCH   1  20
ATOM     20  C   UNL     1      12.587  15.335  15.165  1.00  0.00     0.133 C 
ATOM     21  C   UNL     1      12.120  16.195  14.031  1.00  0.00     0.088 C 
ATOM     22  O   UNL     1      11.784  14.977  16.014  1.00  0.00    -0.300 OA
ENDBRANCH   1  20
BRANCH  16  23
ATOM     23  O   UNL     1      19.419  20.758  13.579  1.00  0.00    -0.393 OA
ATOM     24  H   UNL     1      19.164  19.836  13.312  1.00  0.00     0.210 HD
ENDBRANCH  16  23
TORSDOF 2
ENDMDL
