MODEL 1
REMARK VINA RESULT:    -4.146      0.000      0.000
REMARK INTER + INTRA:          -5.234
REMARK INTER:                  -5.842
REMARK INTRA:                   0.608
REMARK UNBOUND:                 0.608
REMARK SMILES CC1=CCC(=C(C)C)C(=O)CC(C)=CCC1
REMARK SMILES IDX 12 1 14 2 13 3 15 4 16 5 2 6 1 7 3 8 11 10 9 11 10 12 5 13
REMARK SMILES IDX 6 14 7 15 8 16 4 17
REMARK H PARENT
REMARK Flexibility Score: 60.00
ROOT
ATOM      1  C   UNL     1      10.292 -12.519  17.983  1.00  0.00    -0.070 C 
ATOM      2  C   UNL     1       9.723 -13.670  18.410  1.00  0.00    -0.027 C 
ATOM      3  C   UNL     1       9.817 -11.232  18.615  1.00  0.00     0.039 C 
ENDROOT
BRANCH   2   4
ATOM      4  C   UNL     1      10.116 -15.068  17.996  1.00  0.00     0.032 C 
BRANCH   4   5
ATOM      5  C   UNL     1       9.741 -15.380  16.535  1.00  0.00     0.034 C 
BRANCH   5   6
ATOM      6  C   UNL     1      10.956 -15.717  15.692  1.00  0.00    -0.077 C 
ATOM      7  C   UNL     1      11.838 -16.859  16.129  1.00  0.00     0.039 C 
ATOM      8  C   UNL     1      11.311 -15.033  14.580  1.00  0.00    -0.023 CG0
ATOM      9  G   UNL     1      10.579 -13.843  14.005  1.00  0.00     0.000 G0
ENDBRANCH   5   6
ENDBRANCH   4   5
ENDBRANCH   2   4
BRANCH   1  10
ATOM     10  C   UNL     1      11.417 -12.459  16.964  1.00  0.00     0.111 C 
BRANCH  10  11
ATOM     11  C   UNL     1      10.941 -11.905  15.644  1.00  0.00     0.163 C 
ATOM     12  O   UNL     1      10.190 -10.893  15.661  1.00  0.00    -0.294 OA
BRANCH  11  13
ATOM     13  C   UNL     1      11.293 -12.552  14.341  1.00  0.00    -0.002 C 
ATOM     14  C   UNL     1      12.266 -12.044  13.525  1.00  0.00    -0.069 C 
ATOM     15  C   UNL     1      13.091 -10.843  13.929  1.00  0.00     0.039 C 
ATOM     16  C   UNL     1      12.589 -12.682  12.191  1.00  0.00     0.039 C 
BRANCH  13  17
ATOM     17  C   UNL     1      10.573 -13.843  13.995  1.00  0.00     0.066 CG0
ATOM     18  G   UNL     1      11.325 -15.018  14.573  1.00  0.00     0.000 G0
ENDBRANCH  13  17
ENDBRANCH  11  13
ENDBRANCH  10  11
ENDBRANCH   1  10
TORSDOF 0
ENDMDL
MODEL 2
REMARK VINA RESULT:    -3.940     16.821     18.786
REMARK INTER + INTRA:          -4.945
REMARK INTER:                  -5.360
REMARK INTRA:                   0.415
REMARK UNBOUND:                 0.608
REMARK SMILES CC1=CCC(=C(C)C)C(=O)CC(C)=CCC1
REMARK SMILES IDX 12 1 14 2 13 3 15 4 16 5 2 6 1 7 3 8 11 10 9 11 10 12 5 13
REMARK SMILES IDX 6 14 7 15 8 16 4 17
REMARK H PARENT
REMARK Flexibility Score: 60.00
ROOT
ATOM      1  C   UNL     1       0.560 -25.092  14.335  1.00  0.00    -0.070 C 
ATOM      2  C   UNL     1       1.048 -25.461  15.543  1.00  0.00    -0.027 C 
ATOM      3  C   UNL     1       1.491 -24.353  13.405  1.00  0.00     0.039 C 
ENDROOT
BRANCH   2   4
ATOM      4  C   UNL     1       0.333 -26.295  16.579  1.00  0.00     0.032 C 
BRANCH   4   5
ATOM      5  C   UNL     1       0.466 -27.807  16.317  1.00  0.00     0.034 C 
BRANCH   5   6
ATOM      6  C   UNL     1      -0.831 -28.549  16.574  1.00  0.00    -0.077 C 
ATOM      7  C   UNL     1      -1.294 -28.710  18.000  1.00  0.00     0.039 C 
ATOM      8  C   UNL     1      -1.587 -29.101  15.598  1.00  0.00    -0.023 CG0
ATOM      9  G   UNL     1      -1.274 -29.077  14.120  1.00  0.00     0.000 G0
ENDBRANCH   5   6
ENDBRANCH   4   5
ENDBRANCH   2   4
BRANCH   1  10
ATOM     10  C   UNL     1      -0.836 -25.440  13.846  1.00  0.00     0.111 C 
BRANCH  10  11
ATOM     11  C   UNL     1      -0.854 -26.756  13.109  1.00  0.00     0.163 C 
ATOM     12  O   UNL     1      -0.048 -26.912  12.153  1.00  0.00    -0.294 OA
BRANCH  11  13
ATOM     13  C   UNL     1      -1.827 -27.841  13.450  1.00  0.00    -0.002 C 
ATOM     14  C   UNL     1      -3.152 -27.749  13.125  1.00  0.00    -0.069 C 
ATOM     15  C   UNL     1      -3.694 -26.577  12.338  1.00  0.00     0.039 C 
ATOM     16  C   UNL     1      -4.136 -28.833  13.507  1.00  0.00     0.039 C 
BRANCH  13  17
ATOM     17  C   UNL     1      -1.265 -29.089  14.108  1.00  0.00     0.066 CG0
ATOM     18  G   UNL     1      -1.607 -29.088  15.580  1.00  0.00     0.000 G0
ENDBRANCH  13  17
ENDBRANCH  11  13
ENDBRANCH  10  11
ENDBRANCH   1  10
TORSDOF 0
ENDMDL
MODEL 3
REMARK VINA RESULT:    -3.784      1.836      3.621
REMARK INTER + INTRA:          -4.724
REMARK INTER:                  -5.215
REMARK INTRA:                   0.490
REMARK UNBOUND:                 0.608
REMARK SMILES CC1=CCC(=C(C)C)C(=O)CC(C)=CCC1
REMARK SMILES IDX 12 1 14 2 13 3 15 4 16 5 2 6 1 7 3 8 11 10 9 11 10 12 5 13
REMARK SMILES IDX 6 14 7 15 8 16 4 17
REMARK H PARENT
REMARK Flexibility Score: 60.00
ROOT
ATOM      1  C   UNL     1       9.967 -14.761  17.400  1.00  0.00    -0.070 C 
ATOM      2  C   UNL     1       9.918 -15.389  16.201  1.00  0.00    -0.027 C 
ATOM      3  C   UNL     1       9.005 -15.224  18.467  1.00  0.00     0.039 C 
ENDROOT
BRANCH   2   4
ATOM      4  C   UNL     1      10.851 -15.163  15.035  1.00  0.00     0.032 C 
BRANCH   4   5
ATOM      5  C   UNL     1      10.499 -13.896  14.233  1.00  0.00     0.034 C 
BRANCH   5   6
ATOM      6  C   UNL     1      11.642 -12.900  14.205  1.00  0.00    -0.077 C 
ATOM      7  C   UNL     1      12.911 -13.286  13.488  1.00  0.00     0.039 C 
ATOM      8  C   UNL     1      11.599 -11.692  14.810  1.00  0.00    -0.023 CG0
ATOM      9  G   UNL     1      10.436 -11.142  15.602  1.00  0.00     0.000 G0
ENDBRANCH   5   6
ENDBRANCH   4   5
ENDBRANCH   2   4
BRANCH   1  10
ATOM     10  C   UNL     1      10.973 -13.677  17.745  1.00  0.00     0.111 C 
BRANCH  10  11
ATOM     11  C   UNL     1      10.312 -12.326  17.871  1.00  0.00     0.163 C 
ATOM     12  O   UNL     1       9.314 -12.223  18.633  1.00  0.00    -0.294 OA
BRANCH  11  13
ATOM     13  C   UNL     1      10.776 -11.141  17.084  1.00  0.00    -0.002 C 
ATOM     14  C   UNL     1      11.520 -10.145  17.654  1.00  0.00    -0.069 C 
ATOM     15  C   UNL     1      11.977 -10.223  19.093  1.00  0.00     0.039 C 
ATOM     16  C   UNL     1      11.952  -8.931  16.861  1.00  0.00     0.039 C 
BRANCH  13  17
ATOM     17  C   UNL     1      10.447 -11.126  15.602  1.00  0.00     0.066 CG0
ATOM     18  G   UNL     1      11.606 -11.691  14.815  1.00  0.00     0.000 G0
ENDBRANCH  13  17
ENDBRANCH  11  13
ENDBRANCH  10  11
ENDBRANCH   1  10
TORSDOF 0
ENDMDL
MODEL 4
REMARK VINA RESULT:    -3.658      2.037      3.834
REMARK INTER + INTRA:          -4.547
REMARK INTER:                  -5.160
REMARK INTRA:                   0.613
REMARK UNBOUND:                 0.608
REMARK SMILES CC1=CCC(=C(C)C)C(=O)CC(C)=CCC1
REMARK SMILES IDX 12 1 14 2 13 3 15 4 16 5 2 6 1 7 3 8 11 10 9 11 10 12 5 13
REMARK SMILES IDX 6 14 7 15 8 16 4 17
REMARK H PARENT
REMARK Flexibility Score: 60.00
ROOT
ATOM      1  C   UNL     1      10.530 -14.003  17.071  1.00  0.00    -0.070 C 
ATOM      2  C   UNL     1      10.100 -13.377  18.192  1.00  0.00    -0.027 C 
ATOM      3  C   UNL     1       9.823 -15.276  16.672  1.00  0.00     0.039 C 
ENDROOT
BRANCH   2   4
ATOM      4  C   UNL     1      10.587 -12.047  18.715  1.00  0.00     0.032 C 
BRANCH   4   5
ATOM      5  C   UNL     1      10.011 -10.855  17.927  1.00  0.00     0.034 C 
BRANCH   5   6
ATOM      6  C   UNL     1      11.098  -9.983  17.331  1.00  0.00    -0.077 C 
ATOM      7  C   UNL     1      11.982  -9.199  18.268  1.00  0.00     0.039 C 
ATOM      8  C   UNL     1      11.306  -9.845  16.002  1.00  0.00    -0.023 CG0
ATOM      9  G   UNL     1      10.506 -10.516  14.910  1.00  0.00     0.000 G0
ENDBRANCH   5   6
ENDBRANCH   4   5
ENDBRANCH   2   4
BRANCH   1  10
ATOM     10  C   UNL     1      11.625 -13.462  16.168  1.00  0.00     0.111 C 
BRANCH  10  11
ATOM     11  C   UNL     1      11.079 -13.036  14.828  1.00  0.00     0.163 C 
ATOM     12  O   UNL     1      10.455 -13.890  14.142  1.00  0.00    -0.294 OA
BRANCH  11  13
ATOM     13  C   UNL     1      11.304 -11.661  14.282  1.00  0.00    -0.002 C 
ATOM     14  C   UNL     1      12.134 -11.435  13.219  1.00  0.00    -0.069 C 
ATOM     15  C   UNL     1      12.814 -12.573  12.490  1.00  0.00     0.039 C 
ATOM     16  C   UNL     1      12.386 -10.037  12.698  1.00  0.00     0.039 C 
BRANCH  13  17
ATOM     17  C   UNL     1      10.511 -10.531  14.912  1.00  0.00     0.066 CG0
ATOM     18  G   UNL     1      11.328  -9.878  16.002  1.00  0.00     0.000 G0
ENDBRANCH  13  17
ENDBRANCH  11  13
ENDBRANCH  10  11
ENDBRANCH   1  10
TORSDOF 0
ENDMDL
MODEL 5
REMARK VINA RESULT:    -3.604     16.622     18.379
REMARK INTER + INTRA:          -4.472
REMARK INTER:                  -5.112
REMARK INTRA:                   0.640
REMARK UNBOUND:                 0.608
REMARK SMILES CC1=CCC(=C(C)C)C(=O)CC(C)=CCC1
REMARK SMILES IDX 12 1 14 2 13 3 15 4 16 5 2 6 1 7 3 8 11 10 9 11 10 12 5 13
REMARK SMILES IDX 6 14 7 15 8 16 4 17
REMARK H PARENT
REMARK Flexibility Score: 60.00
ROOT
ATOM      1  C   UNL     1      -2.350 -25.931  14.261  1.00  0.00    -0.070 C 
ATOM      2  C   UNL     1      -3.275 -26.640  13.572  1.00  0.00    -0.027 C 
ATOM      3  C   UNL     1      -2.186 -24.473  13.906  1.00  0.00     0.039 C 
ENDROOT
BRANCH   2   4
ATOM      4  C   UNL     1      -3.678 -28.072  13.830  1.00  0.00     0.032 C 
BRANCH   4   5
ATOM      5  C   UNL     1      -2.523 -29.063  13.595  1.00  0.00     0.034 C 
BRANCH   5   6
ATOM      6  C   UNL     1      -1.829 -28.828  12.267  1.00  0.00    -0.077 C 
ATOM      7  C   UNL     1      -2.621 -29.023  11.000  1.00  0.00     0.039 C 
ATOM      8  C   UNL     1      -0.527 -28.479  12.153  1.00  0.00    -0.023 CG0
ATOM      9  G   UNL     1       0.435 -28.272  13.299  1.00  0.00     0.000 G0
ENDBRANCH   5   6
ENDBRANCH   4   5
ENDBRANCH   2   4
BRANCH   1  10
ATOM     10  C   UNL     1      -1.529 -26.501  15.405  1.00  0.00     0.111 C 
BRANCH  10  11
ATOM     11  C   UNL     1      -0.054 -26.492  15.087  1.00  0.00     0.163 C 
ATOM     12  O   UNL     1       0.749 -26.171  16.003  1.00  0.00    -0.294 OA
BRANCH  11  13
ATOM     13  C   UNL     1       0.462 -26.802  13.717  1.00  0.00    -0.002 C 
ATOM     14  C   UNL     1       0.981 -25.830  12.906  1.00  0.00    -0.069 C 
ATOM     15  C   UNL     1       1.130 -24.401  13.379  1.00  0.00     0.039 C 
ATOM     16  C   UNL     1       1.466 -26.145  11.508  1.00  0.00     0.039 C 
BRANCH  13  17
ATOM     17  C   UNL     1       0.454 -28.259  13.290  1.00  0.00     0.066 CG0
ATOM     18  G   UNL     1      -0.536 -28.457  12.167  1.00  0.00     0.000 G0
ENDBRANCH  13  17
ENDBRANCH  11  13
ENDBRANCH  10  11
ENDBRANCH   1  10
TORSDOF 0
ENDMDL
MODEL 6
REMARK VINA RESULT:    -3.410      1.518      3.982
REMARK INTER + INTRA:          -4.198
REMARK INTER:                  -5.214
REMARK INTRA:                   1.016
REMARK UNBOUND:                 0.608
REMARK SMILES CC1=CCC(=C(C)C)C(=O)CC(C)=CCC1
REMARK SMILES IDX 12 1 14 2 13 3 15 4 16 5 2 6 1 7 3 8 11 10 9 11 10 12 5 13
REMARK SMILES IDX 6 14 7 15 8 16 4 17
REMARK H PARENT
REMARK Flexibility Score: 60.00
ROOT
ATOM      1  C   UNL     1      10.754 -11.178  17.510  1.00  0.00    -0.070 C 
ATOM      2  C   UNL     1      11.654 -10.471  16.787  1.00  0.00    -0.027 C 
ATOM      3  C   UNL     1       9.529 -10.446  18.002  1.00  0.00     0.039 C 
ENDROOT
BRANCH   2   4
ATOM      4  C   UNL     1      12.887 -11.022  16.111  1.00  0.00     0.032 C 
BRANCH   4   5
ATOM      5  C   UNL     1      12.929 -10.704  14.605  1.00  0.00     0.034 C 
BRANCH   5   6
ATOM      6  C   UNL     1      11.945 -11.545  13.815  1.00  0.00    -0.077 C 
ATOM      7  C   UNL     1      11.048 -10.854  12.820  1.00  0.00     0.039 C 
ATOM      8  C   UNL     1      11.806 -12.881  13.971  1.00  0.00    -0.023 CG0
ATOM      9  G   UNL     1      12.584 -13.742  14.938  1.00  0.00     0.000 G0
ENDBRANCH   5   6
ENDBRANCH   4   5
ENDBRANCH   2   4
BRANCH   1  10
ATOM     10  C   UNL     1      10.877 -12.666  17.791  1.00  0.00     0.111 C 
BRANCH  10  11
ATOM     11  C   UNL     1      10.571 -13.489  16.564  1.00  0.00     0.163 C 
ATOM     12  O   UNL     1       9.402 -13.445  16.096  1.00  0.00    -0.294 OA
BRANCH  11  13
ATOM     13  C   UNL     1      11.594 -14.380  15.933  1.00  0.00    -0.002 C 
ATOM     14  C   UNL     1      11.625 -15.726  16.175  1.00  0.00    -0.069 C 
ATOM     15  C   UNL     1      10.579 -16.399  17.035  1.00  0.00     0.039 C 
ATOM     16  C   UNL     1      12.686 -16.614  15.563  1.00  0.00     0.039 C 
BRANCH  13  17
ATOM     17  C   UNL     1      12.557 -13.737  14.951  1.00  0.00     0.066 CG0
ATOM     18  G   UNL     1      11.790 -12.890  13.963  1.00  0.00     0.000 G0
ENDBRANCH  13  17
ENDBRANCH  11  13
ENDBRANCH  10  11
ENDBRANCH   1  10
TORSDOF 0
ENDMDL
MODEL 7
REMARK VINA RESULT:    -3.400      2.033      3.722
REMARK INTER + INTRA:          -4.184
REMARK INTER:                  -5.818
REMARK INTRA:                   1.634
REMARK UNBOUND:                 0.608
REMARK SMILES CC1=CCC(=C(C)C)C(=O)CC(C)=CCC1
REMARK SMILES IDX 12 1 14 2 13 3 15 4 16 5 2 6 1 7 3 8 11 10 9 11 10 12 5 13
REMARK SMILES IDX 6 14 7 15 8 16 4 17
REMARK H PARENT
REMARK Flexibility Score: 60.00
ROOT
ATOM      1  C   UNL     1      12.226 -16.729  16.470  1.00  0.00    -0.070 C 
ATOM      2  C   UNL     1      11.032 -16.542  17.079  1.00  0.00    -0.027 C 
ATOM      3  C   UNL     1      13.043 -17.925  16.896  1.00  0.00     0.039 C 
ENDROOT
BRANCH   2   4
ATOM      4  C   UNL     1      10.012 -15.481  16.738  1.00  0.00     0.032 C 
BRANCH   4   5
ATOM      5  C   UNL     1      10.109 -14.249  17.657  1.00  0.00     0.034 C 
BRANCH   5   6
ATOM      6  C   UNL     1      10.786 -13.077  16.974  1.00  0.00    -0.077 C 
ATOM      7  C   UNL     1      11.474 -12.047  17.833  1.00  0.00     0.039 C 
ATOM      8  C   UNL     1      10.786 -12.887  15.635  1.00  0.00    -0.023 CG0
ATOM      9  G   UNL     1      10.124 -13.784  14.616  1.00  0.00     0.000 G0
ENDBRANCH   5   6
ENDBRANCH   4   5
ENDBRANCH   2   4
BRANCH   1  10
ATOM     10  C   UNL     1      12.750 -15.850  15.348  1.00  0.00     0.111 C 
BRANCH  10  11
ATOM     11  C   UNL     1      11.755 -15.740  14.219  1.00  0.00     0.163 C 
ATOM     12  O   UNL     1      11.407 -16.799  13.629  1.00  0.00    -0.294 OA
BRANCH  11  13
ATOM     13  C   UNL     1      11.222 -14.420  13.758  1.00  0.00    -0.002 C 
ATOM     14  C   UNL     1      11.641 -13.841  12.593  1.00  0.00    -0.069 C 
ATOM     15  C   UNL     1      12.613 -14.538  11.668  1.00  0.00     0.039 C 
ATOM     16  C   UNL     1      11.125 -12.488  12.154  1.00  0.00     0.039 C 
BRANCH  13  17
ATOM     17  C   UNL     1      10.135 -13.783  14.606  1.00  0.00     0.066 CG0
ATOM     18  G   UNL     1      10.758 -12.865  15.631  1.00  0.00     0.000 G0
ENDBRANCH  13  17
ENDBRANCH  11  13
ENDBRANCH  10  11
ENDBRANCH   1  10
TORSDOF 0
ENDMDL
MODEL 8
REMARK VINA RESULT:    -3.335     16.827     18.437
REMARK INTER + INTRA:          -4.092
REMARK INTER:                  -5.772
REMARK INTRA:                   1.679
REMARK UNBOUND:                 0.608
REMARK SMILES CC1=CCC(=C(C)C)C(=O)CC(C)=CCC1
REMARK SMILES IDX 12 1 14 2 13 3 15 4 16 5 2 6 1 7 3 8 11 10 9 11 10 12 5 13
REMARK SMILES IDX 6 14 7 15 8 16 4 17
REMARK H PARENT
REMARK Flexibility Score: 60.00
ROOT
ATOM      1  C   UNL     1      -1.081 -25.798  14.948  1.00  0.00    -0.070 C 
ATOM      2  C   UNL     1      -1.990 -26.579  15.576  1.00  0.00    -0.027 C 
ATOM      3  C   UNL     1      -1.510 -24.403  14.563  1.00  0.00     0.039 C 
ENDROOT
BRANCH   2   4
ATOM      4  C   UNL     1      -1.746 -27.959  16.140  1.00  0.00     0.032 C 
BRANCH   4   5
ATOM      5  C   UNL     1      -2.266 -29.077  15.217  1.00  0.00     0.034 C 
BRANCH   5   6
ATOM      6  C   UNL     1      -2.629 -28.559  13.839  1.00  0.00    -0.077 C 
ATOM      7  C   UNL     1      -4.080 -28.284  13.536  1.00  0.00     0.039 C 
ATOM      8  C   UNL     1      -1.727 -28.353  12.853  1.00  0.00    -0.023 CG0
ATOM      9  G   UNL     1      -0.240 -28.603  12.951  1.00  0.00     0.000 G0
ENDBRANCH   5   6
ENDBRANCH   4   5
ENDBRANCH   2   4
BRANCH   1  10
ATOM     10  C   UNL     1       0.352 -26.222  14.675  1.00  0.00     0.111 C 
BRANCH  10  11
ATOM     11  C   UNL     1       0.665 -26.203  13.199  1.00  0.00     0.163 C 
ATOM     12  O   UNL     1       1.016 -25.109  12.681  1.00  0.00    -0.294 OA
BRANCH  11  13
ATOM     13  C   UNL     1       0.520 -27.421  12.343  1.00  0.00    -0.002 C 
ATOM     14  C   UNL     1       1.096 -27.505  11.105  1.00  0.00    -0.069 C 
ATOM     15  C   UNL     1       1.973 -26.398  10.564  1.00  0.00     0.039 C 
ATOM     16  C   UNL     1       0.912 -28.726  10.230  1.00  0.00     0.039 C 
BRANCH  13  17
ATOM     17  C   UNL     1      -0.235 -28.596  12.938  1.00  0.00     0.066 CG0
ATOM     18  G   UNL     1      -1.722 -28.347  12.849  1.00  0.00     0.000 G0
ENDBRANCH  13  17
ENDBRANCH  11  13
ENDBRANCH  10  11
ENDBRANCH   1  10
TORSDOF 0
ENDMDL
MODEL 9
REMARK VINA RESULT:    -3.291     16.889     18.779
REMARK INTER + INTRA:          -4.030
REMARK INTER:                  -5.079
REMARK INTRA:                   1.049
REMARK UNBOUND:                 0.608
REMARK SMILES CC1=CCC(=C(C)C)C(=O)CC(C)=CCC1
REMARK SMILES IDX 12 1 14 2 13 3 15 4 16 5 2 6 1 7 3 8 11 10 9 11 10 12 5 13
REMARK SMILES IDX 6 14 7 15 8 16 4 17
REMARK H PARENT
REMARK Flexibility Score: 60.00
ROOT
ATOM      1  C   UNL     1      -1.096 -24.392  14.683  1.00  0.00    -0.070 C 
ATOM      2  C   UNL     1       0.175 -24.722  14.356  1.00  0.00    -0.027 C 
ATOM      3  C   UNL     1      -1.294 -23.196  15.583  1.00  0.00     0.039 C 
ENDROOT
BRANCH   2   4
ATOM      4  C   UNL     1       0.598 -25.806  13.393  1.00  0.00     0.032 C 
BRANCH   4   5
ATOM      5  C   UNL     1       0.909 -27.138  14.101  1.00  0.00     0.034 C 
BRANCH   5   6
ATOM      6  C   UNL     1       0.568 -28.338  13.239  1.00  0.00    -0.077 C 
ATOM      7  C   UNL     1       1.510 -28.710  12.122  1.00  0.00     0.039 C 
ATOM      8  C   UNL     1      -0.551 -29.081  13.396  1.00  0.00    -0.023 CG0
ATOM      9  G   UNL     1      -1.628 -28.846  14.429  1.00  0.00     0.000 G0
ENDBRANCH   5   6
ENDBRANCH   4   5
ENDBRANCH   2   4
BRANCH   1  10
ATOM     10  C   UNL     1      -2.321 -25.110  14.144  1.00  0.00     0.111 C 
BRANCH  10  11
ATOM     11  C   UNL     1      -2.500 -26.462  14.789  1.00  0.00     0.163 C 
ATOM     12  O   UNL     1      -2.565 -26.516  16.046  1.00  0.00    -0.294 OA
BRANCH  11  13
ATOM     13  C   UNL     1      -2.549 -27.723  13.985  1.00  0.00    -0.002 C 
ATOM     14  C   UNL     1      -3.324 -27.833  12.863  1.00  0.00    -0.069 C 
ATOM     15  C   UNL     1      -4.116 -26.660  12.332  1.00  0.00     0.039 C 
ATOM     16  C   UNL     1      -3.397 -29.124  12.078  1.00  0.00     0.039 C 
BRANCH  13  17
ATOM     17  C   UNL     1      -1.643 -28.858  14.427  1.00  0.00     0.066 CG0
ATOM     18  G   UNL     1      -0.558 -29.077  13.398  1.00  0.00     0.000 G0
ENDBRANCH  13  17
ENDBRANCH  11  13
ENDBRANCH  10  11
ENDBRANCH   1  10
TORSDOF 0
ENDMDL
