MODEL 1
REMARK VINA RESULT:    -7.429      0.000      0.000
REMARK INTER + INTRA:          -7.429
REMARK INTER:                  -7.429
REMARK INTRA:                   0.000
REMARK UNBOUND:                 0.000
REMARK SMILES C[C@@H]1C(=O)CC[C@H]2[C@]1(C)CC[C@H]1[C@]2(C)CC[C@@]2(C)[C@@H]3CC(C)(C)CC[C@@]3(C)CC[C@]12C
REMARK SMILES IDX 1 1 2 2 3 3 4 4 5 5 6 6 7 7 8 8 10 9 11 10 12 11 13 12 15 13
REMARK SMILES IDX 16 14 17 15 30 16 29 17 28 18 26 19 19 20 20 21 21 22 24 23
REMARK SMILES IDX 25 24 22 25 23 26 27 27 31 28 18 29 14 30 9 31
REMARK H PARENT
REMARK Flexibility Score: inf
ROOT
ATOM      1  C   UNL     1     107.747  98.501  96.454  1.00  0.00     0.016 C 
ATOM      2  C   UNL     1     107.164  99.627  95.581  1.00  0.00     0.059 C 
ATOM      3  C   UNL     1     107.607 100.945  96.143  1.00  0.00     0.136 C 
ATOM      4  O   UNL     1     108.545 101.550  95.646  1.00  0.00    -0.299 OA
ATOM      5  C   UNL     1     106.919 101.479  97.352  1.00  0.00     0.076 C 
ATOM      6  C   UNL     1     105.418 101.596  97.093  1.00  0.00     0.012 C 
ATOM      7  C   UNL     1     104.722 100.345  96.444  1.00  0.00     0.002 C 
ATOM      8  C   UNL     1     105.601  99.641  95.309  1.00  0.00    -0.020 C 
ATOM      9  C   UNL     1     105.074  98.206  95.025  1.00  0.00     0.008 C 
ATOM     10  C   UNL     1     103.553  98.125  95.103  1.00  0.00     0.005 C 
ATOM     11  C   UNL     1     103.045  98.302  96.561  1.00  0.00     0.002 C 
ATOM     12  C   UNL     1     103.864  99.396  97.411  1.00  0.00    -0.026 C 
ATOM     13  C   UNL     1     102.886 100.284  98.273  1.00  0.00     0.008 C 
ATOM     14  C   UNL     1     101.630  99.617  98.903  1.00  0.00     0.008 C 
ATOM     15  C   UNL     1     101.027  98.370  98.163  1.00  0.00    -0.024 C 
ATOM     16  C   UNL     1     101.461  98.438  96.632  1.00  0.00    -0.024 C 
ATOM     17  C   UNL     1     100.757  97.271  95.853  1.00  0.00     0.008 C 
ATOM     18  C   UNL     1      99.214  97.277  95.979  1.00  0.00     0.007 C 
ATOM     19  C   UNL     1      98.684  97.259  97.437  1.00  0.00    -0.029 C 
ATOM     20  C   UNL     1      99.436  98.376  98.261  1.00  0.00     0.002 C 
ATOM     21  C   UNL     1      98.836  98.500  99.691  1.00  0.00     0.011 C 
ATOM     22  C   UNL     1      97.295  98.812  99.686  1.00  0.00    -0.035 C 
ATOM     23  C   UNL     1      96.687  98.773  98.252  1.00  0.00     0.007 C 
ATOM     24  C   UNL     1      97.132  97.551  97.428  1.00  0.00     0.007 C 
ATOM     25  C   UNL     1      96.552  97.797 100.584  1.00  0.00     0.011 C 
ATOM     26  C   UNL     1      97.055 100.223 100.265  1.00  0.00     0.011 C 
ATOM     27  C   UNL     1      98.861  95.816  98.000  1.00  0.00     0.011 C 
ATOM     28  C   UNL     1     101.019  99.786  95.930  1.00  0.00     0.012 C 
ATOM     29  C   UNL     1     101.582  97.091  98.892  1.00  0.00     0.012 C 
ATOM     30  C   UNL     1     104.823  98.693  98.410  1.00  0.00     0.012 C 
ATOM     31  C   UNL     1     105.418 100.467  93.992  1.00  0.00     0.012 C 
ENDROOT
TORSDOF 0
ENDMDL
MODEL 2
REMARK VINA RESULT:    -7.380      1.403      3.589
REMARK INTER + INTRA:          -7.380
REMARK INTER:                  -7.380
REMARK INTRA:                   0.000
REMARK UNBOUND:                 0.000
REMARK SMILES C[C@@H]1C(=O)CC[C@H]2[C@]1(C)CC[C@H]1[C@]2(C)CC[C@@]2(C)[C@@H]3CC(C)(C)CC[C@@]3(C)CC[C@]12C
REMARK SMILES IDX 1 1 2 2 3 3 4 4 5 5 6 6 7 7 8 8 10 9 11 10 12 11 13 12 15 13
REMARK SMILES IDX 16 14 17 15 30 16 29 17 28 18 26 19 19 20 20 21 21 22 24 23
REMARK SMILES IDX 25 24 22 25 23 26 27 27 31 28 18 29 14 30 9 31
REMARK H PARENT
REMARK Flexibility Score: inf
ROOT
ATOM      1  C   UNL     1     107.560 102.344  96.456  1.00  0.00     0.016 C 
ATOM      2  C   UNL     1     107.904 101.291  97.525  1.00  0.00     0.059 C 
ATOM      3  C   UNL     1     108.815 100.269  96.912  1.00  0.00     0.136 C 
ATOM      4  O   UNL     1     110.021 100.317  97.102  1.00  0.00    -0.299 OA
ATOM      5  C   UNL     1     108.231  99.227  96.022  1.00  0.00     0.076 C 
ATOM      6  C   UNL     1     107.142  98.453  96.763  1.00  0.00     0.012 C 
ATOM      7  C   UNL     1     106.084  99.313  97.545  1.00  0.00     0.002 C 
ATOM      8  C   UNL     1     106.713 100.577  98.295  1.00  0.00    -0.020 C 
ATOM      9  C   UNL     1     105.602 101.598  98.666  1.00  0.00     0.008 C 
ATOM     10  C   UNL     1     104.307 100.912  99.088  1.00  0.00     0.005 C 
ATOM     11  C   UNL     1     103.617 100.207  97.886  1.00  0.00     0.002 C 
ATOM     12  C   UNL     1     104.641  99.498  96.868  1.00  0.00    -0.026 C 
ATOM     13  C   UNL     1     104.097  98.087  96.418  1.00  0.00     0.008 C 
ATOM     14  C   UNL     1     102.567  97.909  96.203  1.00  0.00     0.008 C 
ATOM     15  C   UNL     1     101.608  98.830  97.039  1.00  0.00    -0.024 C 
ATOM     16  C   UNL     1     102.387  99.307  98.345  1.00  0.00    -0.024 C 
ATOM     17  C   UNL     1     101.398 100.119  99.255  1.00  0.00     0.008 C 
ATOM     18  C   UNL     1     100.119  99.338  99.642  1.00  0.00     0.007 C 
ATOM     19  C   UNL     1      99.309  98.788  98.438  1.00  0.00    -0.029 C 
ATOM     20  C   UNL     1     100.298  98.031  97.468  1.00  0.00     0.002 C 
ATOM     21  C   UNL     1      99.512  97.333  96.321  1.00  0.00     0.011 C 
ATOM     22  C   UNL     1      98.430  96.321  96.845  1.00  0.00    -0.035 C 
ATOM     23  C   UNL     1      98.282  96.361  98.395  1.00  0.00     0.007 C 
ATOM     24  C   UNL     1      98.207  97.788  98.969  1.00  0.00     0.007 C 
ATOM     25  C   UNL     1      97.063  96.631  96.193  1.00  0.00     0.011 C 
ATOM     26  C   UNL     1      98.832  94.885  96.444  1.00  0.00     0.011 C 
ATOM     27  C   UNL     1      98.548  99.979  97.781  1.00  0.00     0.011 C 
ATOM     28  C   UNL     1     102.918  98.097  99.215  1.00  0.00     0.012 C 
ATOM     29  C   UNL     1     101.198 100.031  96.109  1.00  0.00     0.012 C 
ATOM     30  C   UNL     1     104.793 100.348  95.578  1.00  0.00     0.012 C 
ATOM     31  C   UNL     1     107.336 100.065  99.636  1.00  0.00     0.012 C 
ENDROOT
TORSDOF 0
ENDMDL
MODEL 3
REMARK VINA RESULT:    -7.363      2.723      7.929
REMARK INTER + INTRA:          -7.363
REMARK INTER:                  -7.363
REMARK INTRA:                   0.000
REMARK UNBOUND:                 0.000
REMARK SMILES C[C@@H]1C(=O)CC[C@H]2[C@]1(C)CC[C@H]1[C@]2(C)CC[C@@]2(C)[C@@H]3CC(C)(C)CC[C@@]3(C)CC[C@]12C
REMARK SMILES IDX 1 1 2 2 3 3 4 4 5 5 6 6 7 7 8 8 10 9 11 10 12 11 13 12 15 13
REMARK SMILES IDX 16 14 17 15 30 16 29 17 28 18 26 19 19 20 20 21 21 22 24 23
REMARK SMILES IDX 25 24 22 25 23 26 27 27 31 28 18 29 14 30 9 31
REMARK H PARENT
REMARK Flexibility Score: inf
ROOT
ATOM      1  C   UNL     1      97.216  99.315  96.855  1.00  0.00     0.016 C 
ATOM      2  C   UNL     1      97.556  98.044  97.655  1.00  0.00     0.059 C 
ATOM      3  C   UNL     1      97.114  98.241  99.075  1.00  0.00     0.136 C 
ATOM      4  O   UNL     1      96.062  97.762  99.472  1.00  0.00    -0.299 OA
ATOM      5  C   UNL     1      97.952  99.077  99.979  1.00  0.00     0.076 C 
ATOM      6  C   UNL     1      99.375  98.524 100.037  1.00  0.00     0.012 C 
ATOM      7  C   UNL     1     100.046  98.178  98.658  1.00  0.00     0.002 C 
ATOM      8  C   UNL     1      99.046  97.499  97.612  1.00  0.00    -0.020 C 
ATOM      9  C   UNL     1      99.626  97.583  96.172  1.00  0.00     0.008 C 
ATOM     10  C   UNL     1     101.140  97.401  96.150  1.00  0.00     0.005 C 
ATOM     11  C   UNL     1     101.870  98.614  96.792  1.00  0.00     0.002 C 
ATOM     12  C   UNL     1     101.124  99.218  98.083  1.00  0.00    -0.026 C 
ATOM     13  C   UNL     1     102.163  99.567  99.219  1.00  0.00     0.008 C 
ATOM     14  C   UNL     1     103.554 100.131  98.812  1.00  0.00     0.008 C 
ATOM     15  C   UNL     1     104.118  99.717  97.406  1.00  0.00    -0.024 C 
ATOM     16  C   UNL     1     103.429  98.347  96.974  1.00  0.00    -0.024 C 
ATOM     17  C   UNL     1     104.080  97.854  95.634  1.00  0.00     0.008 C 
ATOM     18  C   UNL     1     105.617  97.686  95.710  1.00  0.00     0.007 C 
ATOM     19  C   UNL     1     106.383  98.955  96.168  1.00  0.00    -0.029 C 
ATOM     20  C   UNL     1     105.698  99.515  97.475  1.00  0.00     0.002 C 
ATOM     21  C   UNL     1     106.518 100.701  98.059  1.00  0.00     0.011 C 
ATOM     22  C   UNL     1     108.007 100.317  98.383  1.00  0.00    -0.035 C 
ATOM     23  C   UNL     1     108.367  98.880  97.902  1.00  0.00     0.007 C 
ATOM     24  C   UNL     1     107.886  98.571  96.472  1.00  0.00     0.007 C 
ATOM     25  C   UNL     1     108.966 101.333  97.722  1.00  0.00     0.011 C 
ATOM     26  C   UNL     1     108.233 100.375  99.910  1.00  0.00     0.011 C 
ATOM     27  C   UNL     1     106.415  99.960  94.977  1.00  0.00     0.011 C 
ATOM     28  C   UNL     1     103.642  97.194  98.036  1.00  0.00     0.012 C 
ATOM     29  C   UNL     1     103.792 100.895  96.416  1.00  0.00     0.012 C 
ATOM     30  C   UNL     1     100.403 100.544  97.717  1.00  0.00     0.012 C 
ATOM     31  C   UNL     1      98.942  95.981  97.979  1.00  0.00     0.012 C 
ENDROOT
TORSDOF 0
ENDMDL
MODEL 4
REMARK VINA RESULT:    -7.313      1.801      3.939
REMARK INTER + INTRA:          -7.313
REMARK INTER:                  -7.313
REMARK INTRA:                   0.000
REMARK UNBOUND:                 0.000
REMARK SMILES C[C@@H]1C(=O)CC[C@H]2[C@]1(C)CC[C@H]1[C@]2(C)CC[C@@]2(C)[C@@H]3CC(C)(C)CC[C@@]3(C)CC[C@]12C
REMARK SMILES IDX 1 1 2 2 3 3 4 4 5 5 6 6 7 7 8 8 10 9 11 10 12 11 13 12 15 13
REMARK SMILES IDX 16 14 17 15 30 16 29 17 28 18 26 19 19 20 20 21 21 22 24 23
REMARK SMILES IDX 25 24 22 25 23 26 27 27 31 28 18 29 14 30 9 31
REMARK H PARENT
REMARK Flexibility Score: inf
ROOT
ATOM      1  C   UNL     1     108.989 102.271  95.909  1.00  0.00     0.016 C 
ATOM      2  C   UNL     1     108.836 102.164  97.437  1.00  0.00     0.059 C 
ATOM      3  C   UNL     1     109.765 101.097  97.937  1.00  0.00     0.136 C 
ATOM      4  O   UNL     1     110.840 101.392  98.438  1.00  0.00    -0.299 OA
ATOM      5  C   UNL     1     109.379  99.669  97.763  1.00  0.00     0.076 C 
ATOM      6  C   UNL     1     108.022  99.408  98.415  1.00  0.00     0.012 C 
ATOM      7  C   UNL     1     106.881 100.438  98.088  1.00  0.00     0.002 C 
ATOM      8  C   UNL     1     107.382 101.955  98.039  1.00  0.00    -0.020 C 
ATOM      9  C   UNL     1     106.344 102.847  97.303  1.00  0.00     0.008 C 
ATOM     10  C   UNL     1     104.908 102.430  97.606  1.00  0.00     0.005 C 
ATOM     11  C   UNL     1     104.566 101.056  96.966  1.00  0.00     0.002 C 
ATOM     12  C   UNL     1     105.771  99.990  97.020  1.00  0.00    -0.026 C 
ATOM     13  C   UNL     1     105.234  98.556  97.401  1.00  0.00     0.008 C 
ATOM     14  C   UNL     1     103.848  98.108  96.858  1.00  0.00     0.008 C 
ATOM     15  C   UNL     1     102.790  99.231  96.564  1.00  0.00    -0.024 C 
ATOM     16  C   UNL     1     103.153 100.505  97.449  1.00  0.00    -0.024 C 
ATOM     17  C   UNL     1     102.030 101.586  97.266  1.00  0.00     0.008 C 
ATOM     18  C   UNL     1     100.609 101.076  97.609  1.00  0.00     0.007 C 
ATOM     19  C   UNL     1     100.173  99.806  96.831  1.00  0.00    -0.029 C 
ATOM     20  C   UNL     1     101.323  98.730  96.938  1.00  0.00     0.002 C 
ATOM     21  C   UNL     1     100.875  97.383  96.301  1.00  0.00     0.011 C 
ATOM     22  C   UNL     1      99.566  96.803  96.949  1.00  0.00    -0.035 C 
ATOM     23  C   UNL     1      98.928  97.785  97.977  1.00  0.00     0.007 C 
ATOM     24  C   UNL     1      98.845  99.237  97.471  1.00  0.00     0.007 C 
ATOM     25  C   UNL     1      98.534  96.477  95.845  1.00  0.00     0.011 C 
ATOM     26  C   UNL     1      99.897  95.490  97.691  1.00  0.00     0.011 C 
ATOM     27  C   UNL     1      99.819 100.227  95.373  1.00  0.00     0.011 C 
ATOM     28  C   UNL     1     103.221 100.175  98.995  1.00  0.00     0.012 C 
ATOM     29  C   UNL     1     102.854  99.530  95.021  1.00  0.00     0.012 C 
ATOM     30  C   UNL     1     106.436  99.860  95.623  1.00  0.00     0.012 C 
ATOM     31  C   UNL     1     107.468 102.470  99.515  1.00  0.00     0.012 C 
ENDROOT
TORSDOF 0
ENDMDL
MODEL 5
REMARK VINA RESULT:    -7.263      3.339      6.646
REMARK INTER + INTRA:          -7.263
REMARK INTER:                  -7.263
REMARK INTRA:                   0.000
REMARK UNBOUND:                 0.000
REMARK SMILES C[C@@H]1C(=O)CC[C@H]2[C@]1(C)CC[C@H]1[C@]2(C)CC[C@@]2(C)[C@@H]3CC(C)(C)CC[C@@]3(C)CC[C@]12C
REMARK SMILES IDX 1 1 2 2 3 3 4 4 5 5 6 6 7 7 8 8 10 9 11 10 12 11 13 12 15 13
REMARK SMILES IDX 16 14 17 15 30 16 29 17 28 18 26 19 19 20 20 21 21 22 24 23
REMARK SMILES IDX 25 24 22 25 23 26 27 27 31 28 18 29 14 30 9 31
REMARK H PARENT
REMARK Flexibility Score: inf
ROOT
ATOM      1  C   UNL     1     112.538 103.446  99.036  1.00  0.00     0.016 C 
ATOM      2  C   UNL     1     112.421 103.964  97.591  1.00  0.00     0.059 C 
ATOM      3  C   UNL     1     112.143 105.437  97.633  1.00  0.00     0.136 C 
ATOM      4  O   UNL     1     113.042 106.246  97.456  1.00  0.00    -0.299 OA
ATOM      5  C   UNL     1     110.762 105.900  97.948  1.00  0.00     0.076 C 
ATOM      6  C   UNL     1     109.767 105.294  96.960  1.00  0.00     0.012 C 
ATOM      7  C   UNL     1     109.895 103.750  96.697  1.00  0.00     0.002 C 
ATOM      8  C   UNL     1     111.407 103.239  96.608  1.00  0.00    -0.020 C 
ATOM      9  C   UNL     1     111.471 101.696  96.784  1.00  0.00     0.008 C 
ATOM     10  C   UNL     1     110.290 100.992  96.124  1.00  0.00     0.005 C 
ATOM     11  C   UNL     1     108.960 101.282  96.875  1.00  0.00     0.002 C 
ATOM     12  C   UNL     1     108.831 102.791  97.419  1.00  0.00    -0.026 C 
ATOM     13  C   UNL     1     107.377 103.352  97.172  1.00  0.00     0.008 C 
ATOM     14  C   UNL     1     106.167 102.386  97.318  1.00  0.00     0.008 C 
ATOM     15  C   UNL     1     106.421 100.863  97.033  1.00  0.00    -0.024 C 
ATOM     16  C   UNL     1     107.693 100.737  96.081  1.00  0.00    -0.024 C 
ATOM     17  C   UNL     1     107.878  99.231  95.681  1.00  0.00     0.008 C 
ATOM     18  C   UNL     1     106.633  98.605  95.007  1.00  0.00     0.007 C 
ATOM     19  C   UNL     1     105.326  98.715  95.836  1.00  0.00    -0.029 C 
ATOM     20  C   UNL     1     105.157 100.210  96.315  1.00  0.00     0.002 C 
ATOM     21  C   UNL     1     103.786 100.407  97.023  1.00  0.00     0.011 C 
ATOM     22  C   UNL     1     102.564 100.016  96.115  1.00  0.00    -0.035 C 
ATOM     23  C   UNL     1     103.008  99.374  94.767  1.00  0.00     0.007 C 
ATOM     24  C   UNL     1     104.101  98.301  94.928  1.00  0.00     0.007 C 
ATOM     25  C   UNL     1     101.643  99.032  96.871  1.00  0.00     0.011 C 
ATOM     26  C   UNL     1     101.741 101.282  95.789  1.00  0.00     0.011 C 
ATOM     27  C   UNL     1     105.394  97.673  96.992  1.00  0.00     0.011 C 
ATOM     28  C   UNL     1     107.530 101.550  94.734  1.00  0.00     0.012 C 
ATOM     29  C   UNL     1     106.639 100.166  98.427  1.00  0.00     0.012 C 
ATOM     30  C   UNL     1     109.070 102.833  98.952  1.00  0.00     0.012 C 
ATOM     31  C   UNL     1     111.928 103.560  95.167  1.00  0.00     0.012 C 
ENDROOT
TORSDOF 0
ENDMDL
MODEL 6
REMARK VINA RESULT:    -7.164      3.105      5.866
REMARK INTER + INTRA:          -7.164
REMARK INTER:                  -7.164
REMARK INTRA:                   0.000
REMARK UNBOUND:                 0.000
REMARK SMILES C[C@@H]1C(=O)CC[C@H]2[C@]1(C)CC[C@H]1[C@]2(C)CC[C@@]2(C)[C@@H]3CC(C)(C)CC[C@@]3(C)CC[C@]12C
REMARK SMILES IDX 1 1 2 2 3 3 4 4 5 5 6 6 7 7 8 8 10 9 11 10 12 11 13 12 15 13
REMARK SMILES IDX 16 14 17 15 30 16 29 17 28 18 26 19 19 20 20 21 21 22 24 23
REMARK SMILES IDX 25 24 22 25 23 26 27 27 31 28 18 29 14 30 9 31
REMARK H PARENT
REMARK Flexibility Score: inf
ROOT
ATOM      1  C   UNL     1     112.510 102.644  96.180  1.00  0.00     0.016 C 
ATOM      2  C   UNL     1     111.565 103.828  96.454  1.00  0.00     0.059 C 
ATOM      3  C   UNL     1     111.867 104.372  97.819  1.00  0.00     0.136 C 
ATOM      4  O   UNL     1     112.557 105.372  97.952  1.00  0.00    -0.299 OA
ATOM      5  C   UNL     1     111.356 103.643  99.014  1.00  0.00     0.076 C 
ATOM      6  C   UNL     1     109.838 103.493  98.928  1.00  0.00     0.012 C 
ATOM      7  C   UNL     1     109.263 102.985  97.556  1.00  0.00     0.002 C 
ATOM      8  C   UNL     1     110.003 103.605  96.283  1.00  0.00    -0.020 C 
ATOM      9  C   UNL     1     109.700 102.762  95.013  1.00  0.00     0.008 C 
ATOM     10  C   UNL     1     108.267 102.238  94.998  1.00  0.00     0.005 C 
ATOM     11  C   UNL     1     108.046 101.152  96.088  1.00  0.00     0.002 C 
ATOM     12  C   UNL     1     108.810 101.448  97.473  1.00  0.00    -0.026 C 
ATOM     13  C   UNL     1     107.883 101.115  98.706  1.00  0.00     0.008 C 
ATOM     14  C   UNL     1     106.926  99.892  98.613  1.00  0.00     0.008 C 
ATOM     15  C   UNL     1     106.421  99.478  97.185  1.00  0.00    -0.024 C 
ATOM     16  C   UNL     1     106.512 100.751  96.232  1.00  0.00    -0.024 C 
ATOM     17  C   UNL     1     105.887 100.387  94.839  1.00  0.00     0.008 C 
ATOM     18  C   UNL     1     104.428  99.877  94.922  1.00  0.00     0.007 C 
ATOM     19  C   UNL     1     104.222  98.661  95.864  1.00  0.00    -0.029 C 
ATOM     20  C   UNL     1     104.910  98.974  97.250  1.00  0.00     0.002 C 
ATOM     21  C   UNL     1     104.604  97.849  98.280  1.00  0.00     0.011 C 
ATOM     22  C   UNL     1     103.065  97.627  98.508  1.00  0.00    -0.035 C 
ATOM     23  C   UNL     1     102.193  98.477  97.537  1.00  0.00     0.007 C 
ATOM     24  C   UNL     1     102.674  98.426  96.075  1.00  0.00     0.007 C 
ATOM     25  C   UNL     1     102.719  96.132  98.330  1.00  0.00     0.011 C 
ATOM     26  C   UNL     1     102.696  98.031  99.953  1.00  0.00     0.011 C 
ATOM     27  C   UNL     1     104.770  97.392  95.146  1.00  0.00     0.011 C 
ATOM     28  C   UNL     1     105.699 101.989  96.788  1.00  0.00     0.012 C 
ATOM     29  C   UNL     1     107.337  98.294  96.700  1.00  0.00     0.012 C 
ATOM     30  C   UNL     1     110.064 100.543  97.601  1.00  0.00     0.012 C 
ATOM     31  C   UNL     1     109.407 105.032  96.041  1.00  0.00     0.012 C 
ENDROOT
TORSDOF 0
ENDMDL
MODEL 7
REMARK VINA RESULT:    -7.146      2.738      5.547
REMARK INTER + INTRA:          -7.146
REMARK INTER:                  -7.146
REMARK INTRA:                   0.000
REMARK UNBOUND:                 0.000
REMARK SMILES C[C@@H]1C(=O)CC[C@H]2[C@]1(C)CC[C@H]1[C@]2(C)CC[C@@]2(C)[C@@H]3CC(C)(C)CC[C@@]3(C)CC[C@]12C
REMARK SMILES IDX 1 1 2 2 3 3 4 4 5 5 6 6 7 7 8 8 10 9 11 10 12 11 13 12 15 13
REMARK SMILES IDX 16 14 17 15 30 16 29 17 28 18 26 19 19 20 20 21 21 22 24 23
REMARK SMILES IDX 25 24 22 25 23 26 27 27 31 28 18 29 14 30 9 31
REMARK H PARENT
REMARK Flexibility Score: inf
ROOT
ATOM      1  C   UNL     1     109.601 104.286  95.101  1.00  0.00     0.016 C 
ATOM      2  C   UNL     1     110.201 103.884  96.461  1.00  0.00     0.059 C 
ATOM      3  C   UNL     1     111.377 102.985  96.217  1.00  0.00     0.136 C 
ATOM      4  O   UNL     1     112.516 103.424  96.262  1.00  0.00    -0.299 OA
ATOM      5  C   UNL     1     111.131 101.559  95.864  1.00  0.00     0.076 C 
ATOM      6  C   UNL     1     110.284 100.889  96.945  1.00  0.00     0.012 C 
ATOM      7  C   UNL     1     109.009 101.674  97.420  1.00  0.00     0.002 C 
ATOM      8  C   UNL     1     109.240 103.250  97.553  1.00  0.00    -0.020 C 
ATOM      9  C   UNL     1     107.878 103.998  97.595  1.00  0.00     0.008 C 
ATOM     10  C   UNL     1     106.818 103.221  98.368  1.00  0.00     0.005 C 
ATOM     11  C   UNL     1     106.383 101.937  97.607  1.00  0.00     0.002 C 
ATOM     12  C   UNL     1     107.589 101.179  96.859  1.00  0.00    -0.026 C 
ATOM     13  C   UNL     1     107.474  99.617  97.049  1.00  0.00     0.008 C 
ATOM     14  C   UNL     1     106.061  98.968  97.062  1.00  0.00     0.008 C 
ATOM     15  C   UNL     1     104.862  99.856  97.554  1.00  0.00    -0.024 C 
ATOM     16  C   UNL     1     105.443 101.005  98.492  1.00  0.00    -0.024 C 
ATOM     17  C   UNL     1     104.245 101.819  99.097  1.00  0.00     0.008 C 
ATOM     18  C   UNL     1     103.227 100.949  99.874  1.00  0.00     0.007 C 
ATOM     19  C   UNL     1     102.633  99.768  99.061  1.00  0.00    -0.029 C 
ATOM     20  C   UNL     1     103.818  98.979  98.379  1.00  0.00     0.002 C 
ATOM     21  C   UNL     1     103.289  97.697  97.674  1.00  0.00     0.011 C 
ATOM     22  C   UNL     1     102.521  96.733  98.649  1.00  0.00    -0.035 C 
ATOM     23  C   UNL     1     102.330  97.351 100.066  1.00  0.00     0.007 C 
ATOM     24  C   UNL     1     101.844  98.812 100.039  1.00  0.00     0.007 C 
ATOM     25  C   UNL     1     101.138  96.378  98.055  1.00  0.00     0.011 C 
ATOM     26  C   UNL     1     103.319  95.420  98.809  1.00  0.00     0.011 C 
ATOM     27  C   UNL     1     101.585 100.345  98.062  1.00  0.00     0.011 C 
ATOM     28  C   UNL     1     106.272 100.436  99.714  1.00  0.00     0.012 C 
ATOM     29  C   UNL     1     104.155 100.425  96.269  1.00  0.00     0.012 C 
ATOM     30  C   UNL     1     107.528 101.447  95.331  1.00  0.00     0.012 C 
ATOM     31  C   UNL     1     109.948 103.507  98.925  1.00  0.00     0.012 C 
ENDROOT
TORSDOF 0
ENDMDL
MODEL 8
REMARK VINA RESULT:    -7.127      3.329      9.501
REMARK INTER + INTRA:          -7.127
REMARK INTER:                  -7.127
REMARK INTRA:                   0.000
REMARK UNBOUND:                 0.000
REMARK SMILES C[C@@H]1C(=O)CC[C@H]2[C@]1(C)CC[C@H]1[C@]2(C)CC[C@@]2(C)[C@@H]3CC(C)(C)CC[C@@]3(C)CC[C@]12C
REMARK SMILES IDX 1 1 2 2 3 3 4 4 5 5 6 6 7 7 8 8 10 9 11 10 12 11 13 12 15 13
REMARK SMILES IDX 16 14 17 15 30 16 29 17 28 18 26 19 19 20 20 21 21 22 24 23
REMARK SMILES IDX 25 24 22 25 23 26 27 27 31 28 18 29 14 30 9 31
REMARK H PARENT
REMARK Flexibility Score: inf
ROOT
ATOM      1  C   UNL     1     103.749  96.597  98.009  1.00  0.00     0.016 C 
ATOM      2  C   UNL     1     102.882  97.865  97.917  1.00  0.00     0.059 C 
ATOM      3  C   UNL     1     102.089  97.810  96.644  1.00  0.00     0.136 C 
ATOM      4  O   UNL     1     100.919  97.458  96.653  1.00  0.00    -0.299 OA
ATOM      5  C   UNL     1     102.768  98.139  95.360  1.00  0.00     0.076 C 
ATOM      6  C   UNL     1     103.383  99.536  95.433  1.00  0.00     0.012 C 
ATOM      7  C   UNL     1     104.224  99.862  96.720  1.00  0.00     0.002 C 
ATOM      8  C   UNL     1     103.589  99.278  98.065  1.00  0.00    -0.020 C 
ATOM      9  C   UNL     1     104.650  99.250  99.201  1.00  0.00     0.008 C 
ATOM     10  C   UNL     1     105.581 100.458  99.148  1.00  0.00     0.005 C 
ATOM     11  C   UNL     1     106.523 100.399  97.913  1.00  0.00     0.002 C 
ATOM     12  C   UNL     1     105.822  99.831  96.581  1.00  0.00    -0.026 C 
ATOM     13  C   UNL     1     106.248 100.676  95.319  1.00  0.00     0.008 C 
ATOM     14  C   UNL     1     107.704 101.218  95.240  1.00  0.00     0.008 C 
ATOM     15  C   UNL     1     108.444 101.502  96.595  1.00  0.00    -0.024 C 
ATOM     16  C   UNL     1     107.346 101.748  97.723  1.00  0.00    -0.024 C 
ATOM     17  C   UNL     1     108.069 102.164  99.052  1.00  0.00     0.008 C 
ATOM     18  C   UNL     1     108.982 103.406  98.906  1.00  0.00     0.007 C 
ATOM     19  C   UNL     1     110.062 103.287  97.798  1.00  0.00    -0.029 C 
ATOM     20  C   UNL     1     109.368 102.795  96.468  1.00  0.00     0.002 C 
ATOM     21  C   UNL     1     110.380 102.802  95.287  1.00  0.00     0.011 C 
ATOM     22  C   UNL     1     111.025 104.214  95.039  1.00  0.00    -0.035 C 
ATOM     23  C   UNL     1     110.621 105.250  96.131  1.00  0.00     0.007 C 
ATOM     24  C   UNL     1     110.724 104.702  97.566  1.00  0.00     0.007 C 
ATOM     25  C   UNL     1     112.565 104.087  95.000  1.00  0.00     0.011 C 
ATOM     26  C   UNL     1     110.559 104.761  93.672  1.00  0.00     0.011 C 
ATOM     27  C   UNL     1     111.191 102.348  98.320  1.00  0.00     0.011 C 
ATOM     28  C   UNL     1     106.349 102.922  97.360  1.00  0.00     0.012 C 
ATOM     29  C   UNL     1     109.348 100.251  96.896  1.00  0.00     0.012 C 
ATOM     30  C   UNL     1     106.278  98.371  96.314  1.00  0.00     0.012 C 
ATOM     31  C   UNL     1     102.457 100.261  98.517  1.00  0.00     0.012 C 
ENDROOT
TORSDOF 0
ENDMDL
MODEL 9
REMARK VINA RESULT:    -7.084      2.816      8.791
REMARK INTER + INTRA:          -7.084
REMARK INTER:                  -7.084
REMARK INTRA:                   0.000
REMARK UNBOUND:                 0.000
REMARK SMILES C[C@@H]1C(=O)CC[C@H]2[C@]1(C)CC[C@H]1[C@]2(C)CC[C@@]2(C)[C@@H]3CC(C)(C)CC[C@@]3(C)CC[C@]12C
REMARK SMILES IDX 1 1 2 2 3 3 4 4 5 5 6 6 7 7 8 8 10 9 11 10 12 11 13 12 15 13
REMARK SMILES IDX 16 14 17 15 30 16 29 17 28 18 26 19 19 20 20 21 21 22 24 23
REMARK SMILES IDX 25 24 22 25 23 26 27 27 31 28 18 29 14 30 9 31
REMARK H PARENT
REMARK Flexibility Score: inf
ROOT
ATOM      1  C   UNL     1     101.946  96.014  98.671  1.00  0.00     0.016 C 
ATOM      2  C   UNL     1     101.213  97.368  98.648  1.00  0.00     0.059 C 
ATOM      3  C   UNL     1     100.386  97.442  97.399  1.00  0.00     0.136 C 
ATOM      4  O   UNL     1      99.186  97.214  97.433  1.00  0.00    -0.299 OA
ATOM      5  C   UNL     1     101.061  97.746  96.107  1.00  0.00     0.076 C 
ATOM      6  C   UNL     1     101.820  99.069  96.209  1.00  0.00     0.012 C 
ATOM      7  C   UNL     1     102.725  99.258  97.479  1.00  0.00     0.002 C 
ATOM      8  C   UNL     1     102.068  98.694  98.823  1.00  0.00    -0.020 C 
ATOM      9  C   UNL     1     103.151  98.514  99.924  1.00  0.00     0.008 C 
ATOM     10  C   UNL     1     104.201  99.619  99.884  1.00  0.00     0.005 C 
ATOM     11  C   UNL     1     105.099  99.509  98.620  1.00  0.00     0.002 C 
ATOM     12  C   UNL     1     104.306  99.066  97.291  1.00  0.00    -0.026 C 
ATOM     13  C   UNL     1     104.785  99.908  96.046  1.00  0.00     0.008 C 
ATOM     14  C   UNL     1     106.287 100.299  95.940  1.00  0.00     0.008 C 
ATOM     15  C   UNL     1     107.089 100.455  97.281  1.00  0.00    -0.024 C 
ATOM     16  C   UNL     1     106.053 100.771  98.450  1.00  0.00    -0.024 C 
ATOM     17  C   UNL     1     106.852 101.060  99.770  1.00  0.00     0.008 C 
ATOM     18  C   UNL     1     107.885 102.206  99.637  1.00  0.00     0.007 C 
ATOM     19  C   UNL     1     108.916 102.016  98.494  1.00  0.00    -0.029 C 
ATOM     20  C   UNL     1     108.139 101.648  97.170  1.00  0.00     0.002 C 
ATOM     21  C   UNL     1     109.115 101.594  95.959  1.00  0.00     0.011 C 
ATOM     22  C   UNL     1     109.897 102.939  95.740  1.00  0.00    -0.035 C 
ATOM     23  C   UNL     1     109.634 103.971  96.877  1.00  0.00     0.007 C 
ATOM     24  C   UNL     1     109.717 103.363  98.290  1.00  0.00     0.007 C 
ATOM     25  C   UNL     1     111.414 102.655  95.649  1.00  0.00     0.011 C 
ATOM     26  C   UNL     1     109.454 103.581  94.407  1.00  0.00     0.011 C 
ATOM     27  C   UNL     1     109.955 100.947  98.948  1.00  0.00     0.011 C 
ATOM     28  C   UNL     1     105.175 102.055  98.157  1.00  0.00     0.012 C 
ATOM     29  C   UNL     1     107.865  99.106  97.511  1.00  0.00     0.012 C 
ATOM     30  C   UNL     1     104.599  97.578  96.960  1.00  0.00     0.012 C 
ATOM     31  C   UNL     1     101.059  99.771  99.342  1.00  0.00     0.012 C 
ENDROOT
TORSDOF 0
ENDMDL
