MODEL 1
REMARK VINA RESULT:    -4.178      0.000      0.000
REMARK INTER + INTRA:          -5.854
REMARK INTER:                  -6.132
REMARK INTRA:                   0.279
REMARK UNBOUND:                 0.279
REMARK SMILES C=C1CC=CC(C)(C)CC=C(C)CCC1
REMARK SMILES IDX 2 1 1 2 15 3 14 4 13 5 11 6 12 7 10 8 3 10 4 11 5 12 6 13
REMARK SMILES IDX 7 14 8 15 9 16
REMARK H PARENT
REMARK Flexibility Score: 60.00
ROOT
ATOM      1  C   UNL     1      10.477   4.424  29.826  1.00  0.00    -0.074 C 
ATOM      2  C   UNL     1      11.748   4.466  30.261  1.00  0.00     0.008 C 
ENDROOT
BRANCH   1   3
ATOM      3  C   UNL     1       9.365   4.994  30.693  1.00  0.00     0.031 C 
BRANCH   3   4
ATOM      4  C   UNL     1       9.418   6.527  30.836  1.00  0.00     0.009 C 
BRANCH   4   5
ATOM      5  C   UNL     1       8.967   7.260  29.560  1.00  0.00     0.030 C 
BRANCH   5   6
ATOM      6  C   UNL     1       9.783   8.503  29.251  1.00  0.00    -0.077 C 
ATOM      7  C   UNL     1       9.955   9.526  30.349  1.00  0.00     0.039 C 
ATOM      8  C   UNL     1      10.458   8.722  28.091  1.00  0.00    -0.027 CG0
ATOM      9  G   UNL     1      10.375   7.960  26.774  1.00  0.00     0.000 G0
ENDBRANCH   5   6
ENDBRANCH   4   5
ENDBRANCH   3   4
ENDBRANCH   1   3
BRANCH   1  10
ATOM     10  C   UNL     1      10.174   3.876  28.444  1.00  0.00     0.057 C 
BRANCH  10  11
ATOM     11  C   UNL     1      10.312   4.940  27.392  1.00  0.00    -0.026 C 
ATOM     12  C   UNL     1      11.422   5.695  27.290  1.00  0.00    -0.024 C 
BRANCH  12  13
ATOM     13  C   UNL     1      11.504   6.931  26.405  1.00  0.00    -0.014 C 
ATOM     14  C   UNL     1      12.904   7.570  26.547  1.00  0.00     0.016 C 
ATOM     15  C   UNL     1      11.335   6.476  24.937  1.00  0.00     0.016 C 
BRANCH  13  16
ATOM     16  C   UNL     1      10.383   7.973  26.753  1.00  0.00     0.038 CG0
ATOM     17  G   UNL     1      10.472   8.715  28.081  1.00  0.00     0.000 G0
ENDBRANCH  13  16
ENDBRANCH  12  13
ENDBRANCH  10  11
ENDBRANCH   1  10
TORSDOF 0
ENDMDL
MODEL 2
REMARK VINA RESULT:    -4.019      1.445      3.607
REMARK INTER + INTRA:          -5.619
REMARK INTER:                  -5.675
REMARK INTRA:                   0.056
REMARK UNBOUND:                 0.279
REMARK SMILES C=C1CC=CC(C)(C)CC=C(C)CCC1
REMARK SMILES IDX 2 1 1 2 15 3 14 4 13 5 11 6 12 7 10 8 3 10 4 11 5 12 6 13
REMARK SMILES IDX 7 14 8 15 9 16
REMARK H PARENT
REMARK Flexibility Score: 60.00
ROOT
ATOM      1  C   UNL     1       9.484   8.098  29.746  1.00  0.00    -0.074 C 
ATOM      2  C   UNL     1       9.534   8.472  31.036  1.00  0.00     0.008 C 
ENDROOT
BRANCH   1   3
ATOM      3  C   UNL     1       8.875   6.755  29.374  1.00  0.00     0.031 C 
BRANCH   3   4
ATOM      4  C   UNL     1       9.625   5.550  29.974  1.00  0.00     0.009 C 
BRANCH   4   5
ATOM      5  C   UNL     1      10.857   5.143  29.147  1.00  0.00     0.030 C 
BRANCH   5   6
ATOM      6  C   UNL     1      10.514   4.595  27.773  1.00  0.00    -0.077 C 
ATOM      7  C   UNL     1       9.464   3.512  27.686  1.00  0.00     0.039 C 
ATOM      8  C   UNL     1      11.006   5.074  26.599  1.00  0.00    -0.027 CG0
ATOM      9  G   UNL     1      12.155   6.047  26.365  1.00  0.00     0.000 G0
ENDBRANCH   5   6
ENDBRANCH   4   5
ENDBRANCH   3   4
ENDBRANCH   1   3
BRANCH   1  10
ATOM     10  C   UNL     1       9.966   9.051  28.668  1.00  0.00     0.057 C 
BRANCH  10  11
ATOM     11  C   UNL     1      11.043   8.427  27.828  1.00  0.00    -0.026 C 
ATOM     12  C   UNL     1      10.894   8.252  26.501  1.00  0.00    -0.024 C 
BRANCH  12  13
ATOM     13  C   UNL     1      11.850   7.413  25.664  1.00  0.00    -0.014 C 
ATOM     14  C   UNL     1      11.247   7.202  24.257  1.00  0.00     0.016 C 
ATOM     15  C   UNL     1      13.165   8.209  25.504  1.00  0.00     0.016 C 
BRANCH  13  16
ATOM     16  C   UNL     1      12.162   6.033  26.344  1.00  0.00     0.038 CG0
ATOM     17  G   UNL     1      11.007   5.074  26.599  1.00  0.00     0.000 G0
ENDBRANCH  13  16
ENDBRANCH  12  13
ENDBRANCH  10  11
ENDBRANCH   1  10
TORSDOF 0
ENDMDL
MODEL 3
REMARK VINA RESULT:    -3.979      3.612      6.280
REMARK INTER + INTRA:          -5.561
REMARK INTER:                  -5.429
REMARK INTRA:                  -0.132
REMARK UNBOUND:                 0.279
REMARK SMILES C=C1CC=CC(C)(C)CC=C(C)CCC1
REMARK SMILES IDX 2 1 1 2 15 3 14 4 13 5 11 6 12 7 10 8 3 10 4 11 5 12 6 13
REMARK SMILES IDX 7 14 8 15 9 16
REMARK H PARENT
REMARK Flexibility Score: 60.00
ROOT
ATOM      1  C   UNL     1      11.975   7.768  22.403  1.00  0.00    -0.074 C 
ATOM      2  C   UNL     1      11.579   6.508  22.155  1.00  0.00     0.008 C 
ENDROOT
BRANCH   1   3
ATOM      3  C   UNL     1      11.249   8.592  23.455  1.00  0.00     0.031 C 
BRANCH   3   4
ATOM      4  C   UNL     1      11.006   7.833  24.774  1.00  0.00     0.009 C 
BRANCH   4   5
ATOM      5  C   UNL     1      12.025   8.199  25.868  1.00  0.00     0.030 C 
BRANCH   5   6
ATOM      6  C   UNL     1      12.982   7.070  26.211  1.00  0.00    -0.077 C 
ATOM      7  C   UNL     1      12.389   5.751  26.647  1.00  0.00     0.039 C 
ATOM      8  C   UNL     1      14.332   7.121  26.060  1.00  0.00    -0.027 CG0
ATOM      9  G   UNL     1      15.221   8.325  25.775  1.00  0.00     0.000 G0
ENDBRANCH   5   6
ENDBRANCH   4   5
ENDBRANCH   3   4
ENDBRANCH   1   3
BRANCH   1  10
ATOM     10  C   UNL     1      13.186   8.330  21.683  1.00  0.00     0.057 C 
BRANCH  10  11
ATOM     11  C   UNL     1      14.218   8.828  22.656  1.00  0.00    -0.026 C 
ATOM     12  C   UNL     1      15.093   7.994  23.248  1.00  0.00    -0.024 C 
BRANCH  12  13
ATOM     13  C   UNL     1      15.984   8.416  24.409  1.00  0.00    -0.014 C 
ATOM     14  C   UNL     1      17.259   7.544  24.417  1.00  0.00     0.016 C 
ATOM     15  C   UNL     1      16.411   9.882  24.171  1.00  0.00     0.016 C 
BRANCH  13  16
ATOM     16  C   UNL     1      15.235   8.314  25.784  1.00  0.00     0.038 CG0
ATOM     17  G   UNL     1      14.339   7.108  26.033  1.00  0.00     0.000 G0
ENDBRANCH  13  16
ENDBRANCH  12  13
ENDBRANCH  10  11
ENDBRANCH   1  10
TORSDOF 0
ENDMDL
MODEL 4
REMARK VINA RESULT:    -3.912      9.980     12.119
REMARK INTER + INTRA:          -5.463
REMARK INTER:                  -5.460
REMARK INTRA:                  -0.003
REMARK UNBOUND:                 0.279
REMARK SMILES C=C1CC=CC(C)(C)CC=C(C)CCC1
REMARK SMILES IDX 2 1 1 2 15 3 14 4 13 5 11 6 12 7 10 8 3 10 4 11 5 12 6 13
REMARK SMILES IDX 7 14 8 15 9 16
REMARK H PARENT
REMARK Flexibility Score: 60.00
ROOT
ATOM      1  C   UNL     1       2.133   9.319  18.683  1.00  0.00    -0.074 C 
ATOM      2  C   UNL     1       1.413   8.184  18.705  1.00  0.00     0.008 C 
ENDROOT
BRANCH   1   3
ATOM      3  C   UNL     1       2.669   9.897  19.983  1.00  0.00     0.031 C 
BRANCH   3   4
ATOM      4  C   UNL     1       3.589   8.932  20.756  1.00  0.00     0.009 C 
BRANCH   4   5
ATOM      5  C   UNL     1       5.079   9.147  20.437  1.00  0.00     0.030 C 
BRANCH   5   6
ATOM      6  C   UNL     1       5.817   7.868  20.084  1.00  0.00    -0.077 C 
ATOM      7  C   UNL     1       5.840   6.759  21.110  1.00  0.00     0.039 C 
ATOM      8  C   UNL     1       6.376   7.600  18.873  1.00  0.00    -0.027 CG0
ATOM      9  G   UNL     1       6.630   8.544  17.704  1.00  0.00     0.000 G0
ENDBRANCH   5   6
ENDBRANCH   4   5
ENDBRANCH   3   4
ENDBRANCH   1   3
BRANCH   1  10
ATOM     10  C   UNL     1       2.467   9.970  17.354  1.00  0.00     0.057 C 
BRANCH  10  11
ATOM     11  C   UNL     1       3.913   9.775  16.996  1.00  0.00    -0.026 C 
ATOM     12  C   UNL     1       4.368   8.611  16.496  1.00  0.00    -0.024 C 
BRANCH  12  13
ATOM     13  C   UNL     1       5.850   8.295  16.351  1.00  0.00    -0.014 C 
ATOM     14  C   UNL     1       6.017   6.828  15.895  1.00  0.00     0.016 C 
ATOM     15  C   UNL     1       6.424   9.206  15.242  1.00  0.00     0.016 C 
BRANCH  13  16
ATOM     16  C   UNL     1       6.634   8.553  17.686  1.00  0.00     0.038 CG0
ATOM     17  G   UNL     1       6.379   7.624  18.866  1.00  0.00     0.000 G0
ENDBRANCH  13  16
ENDBRANCH  12  13
ENDBRANCH  10  11
ENDBRANCH   1  10
TORSDOF 0
ENDMDL
MODEL 5
REMARK VINA RESULT:    -3.853     12.539     14.764
REMARK INTER + INTRA:          -5.377
REMARK INTER:                  -5.231
REMARK INTRA:                  -0.146
REMARK UNBOUND:                 0.279
REMARK SMILES C=C1CC=CC(C)(C)CC=C(C)CCC1
REMARK SMILES IDX 2 1 1 2 15 3 14 4 13 5 11 6 12 7 10 8 3 10 4 11 5 12 6 13
REMARK SMILES IDX 7 14 8 15 9 16
REMARK H PARENT
REMARK Flexibility Score: 60.00
ROOT
ATOM      1  C   UNL     1       6.095   8.675  17.008  1.00  0.00    -0.074 C 
ATOM      2  C   UNL     1       5.401   9.824  16.930  1.00  0.00     0.008 C 
ENDROOT
BRANCH   1   3
ATOM      3  C   UNL     1       5.517   7.497  17.775  1.00  0.00     0.031 C 
BRANCH   3   4
ATOM      4  C   UNL     1       4.087   7.119  17.344  1.00  0.00     0.009 C 
BRANCH   4   5
ATOM      5  C   UNL     1       4.048   6.371  16.001  1.00  0.00     0.030 C 
BRANCH   5   6
ATOM      6  C   UNL     1       3.552   7.220  14.844  1.00  0.00    -0.077 C 
ATOM      7  C   UNL     1       2.456   8.222  15.122  1.00  0.00     0.039 C 
ATOM      8  C   UNL     1       4.088   7.222  13.594  1.00  0.00    -0.027 CG0
ATOM      9  G   UNL     1       5.089   6.253  12.977  1.00  0.00     0.000 G0
ENDBRANCH   5   6
ENDBRANCH   4   5
ENDBRANCH   3   4
ENDBRANCH   1   3
BRANCH   1  10
ATOM     10  C   UNL     1       7.412   8.542  16.267  1.00  0.00     0.057 C 
BRANCH  10  11
ATOM     11  C   UNL     1       7.337   7.483  15.203  1.00  0.00    -0.026 C 
ATOM     12  C   UNL     1       6.939   7.765  13.949  1.00  0.00    -0.024 C 
BRANCH  12  13
ATOM     13  C   UNL     1       6.620   6.690  12.919  1.00  0.00    -0.014 C 
ATOM     14  C   UNL     1       6.972   7.213  11.509  1.00  0.00     0.016 C 
ATOM     15  C   UNL     1       7.521   5.469  13.213  1.00  0.00     0.016 C 
BRANCH  13  16
ATOM     16  C   UNL     1       5.115   6.248  12.985  1.00  0.00     0.038 CG0
ATOM     17  G   UNL     1       4.103   7.215  13.586  1.00  0.00     0.000 G0
ENDBRANCH  13  16
ENDBRANCH  12  13
ENDBRANCH  10  11
ENDBRANCH   1  10
TORSDOF 0
ENDMDL
MODEL 6
REMARK VINA RESULT:    -3.790      3.641      6.643
REMARK INTER + INTRA:          -5.283
REMARK INTER:                  -5.541
REMARK INTRA:                   0.258
REMARK UNBOUND:                 0.279
REMARK SMILES C=C1CC=CC(C)(C)CC=C(C)CCC1
REMARK SMILES IDX 2 1 1 2 15 3 14 4 13 5 11 6 12 7 10 8 3 10 4 11 5 12 6 13
REMARK SMILES IDX 7 14 8 15 9 16
REMARK H PARENT
REMARK Flexibility Score: 60.00
ROOT
ATOM      1  C   UNL     1      15.103   9.732  23.644  1.00  0.00    -0.074 C 
ATOM      2  C   UNL     1      16.413   9.820  23.930  1.00  0.00     0.008 C 
ENDROOT
BRANCH   1   3
ATOM      3  C   UNL     1      14.116   9.361  24.738  1.00  0.00     0.031 C 
BRANCH   3   4
ATOM      4  C   UNL     1      14.470   8.054  25.473  1.00  0.00     0.009 C 
BRANCH   4   5
ATOM      5  C   UNL     1      13.474   6.918  25.182  1.00  0.00     0.030 C 
BRANCH   5   6
ATOM      6  C   UNL     1      12.021   7.358  25.215  1.00  0.00    -0.077 C 
ATOM      7  C   UNL     1      11.478   7.904  26.514  1.00  0.00     0.039 C 
ATOM      8  C   UNL     1      11.195   7.395  24.135  1.00  0.00    -0.027 CG0
ATOM      9  G   UNL     1      11.400   6.800  22.748  1.00  0.00     0.000 G0
ENDBRANCH   5   6
ENDBRANCH   4   5
ENDBRANCH   3   4
ENDBRANCH   1   3
BRANCH   1  10
ATOM     10  C   UNL     1      14.615  10.077  22.249  1.00  0.00     0.057 C 
BRANCH  10  11
ATOM     11  C   UNL     1      13.733   8.994  21.695  1.00  0.00    -0.026 C 
ATOM     12  C   UNL     1      12.397   9.014  21.861  1.00  0.00    -0.024 C 
BRANCH  12  13
ATOM     13  C   UNL     1      11.504   7.826  21.530  1.00  0.00    -0.014 C 
ATOM     14  C   UNL     1      10.105   8.338  21.121  1.00  0.00     0.016 C 
ATOM     15  C   UNL     1      12.118   7.095  20.314  1.00  0.00     0.016 C 
BRANCH  13  16
ATOM     16  C   UNL     1      11.396   6.825  22.734  1.00  0.00     0.038 CG0
ATOM     17  G   UNL     1      11.193   7.393  24.132  1.00  0.00     0.000 G0
ENDBRANCH  13  16
ENDBRANCH  12  13
ENDBRANCH  10  11
ENDBRANCH   1  10
TORSDOF 0
ENDMDL
MODEL 7
REMARK VINA RESULT:    -3.743      3.397      5.854
REMARK INTER + INTRA:          -5.215
REMARK INTER:                  -5.354
REMARK INTRA:                   0.139
REMARK UNBOUND:                 0.279
REMARK SMILES C=C1CC=CC(C)(C)CC=C(C)CCC1
REMARK SMILES IDX 2 1 1 2 15 3 14 4 13 5 11 6 12 7 10 8 3 10 4 11 5 12 6 13
REMARK SMILES IDX 7 14 8 15 9 16
REMARK H PARENT
REMARK Flexibility Score: 60.00
ROOT
ATOM      1  C   UNL     1      12.000   6.806  26.708  1.00  0.00    -0.074 C 
ATOM      2  C   UNL     1      11.134   5.864  27.121  1.00  0.00     0.008 C 
ENDROOT
BRANCH   1   3
ATOM      3  C   UNL     1      11.482   8.046  25.998  1.00  0.00     0.031 C 
BRANCH   3   4
ATOM      4  C   UNL     1      10.989   7.776  24.563  1.00  0.00     0.009 C 
BRANCH   4   5
ATOM      5  C   UNL     1      11.581   8.756  23.535  1.00  0.00     0.030 C 
BRANCH   5   6
ATOM      6  C   UNL     1      12.542   8.105  22.556  1.00  0.00    -0.077 C 
ATOM      7  C   UNL     1      11.968   7.156  21.529  1.00  0.00     0.039 C 
ATOM      8  C   UNL     1      13.869   8.387  22.463  1.00  0.00    -0.027 CG0
ATOM      9  G   UNL     1      14.751   9.179  23.420  1.00  0.00     0.000 G0
ENDBRANCH   5   6
ENDBRANCH   4   5
ENDBRANCH   3   4
ENDBRANCH   1   3
BRANCH   1  10
ATOM     10  C   UNL     1      13.477   6.657  27.022  1.00  0.00     0.057 C 
BRANCH  10  11
ATOM     11  C   UNL     1      14.322   6.893  25.802  1.00  0.00    -0.026 C 
ATOM     12  C   UNL     1      15.077   7.999  25.666  1.00  0.00    -0.024 C 
BRANCH  12  13
ATOM     13  C   UNL     1      15.750   8.387  24.357  1.00  0.00    -0.014 C 
ATOM     14  C   UNL     1      17.012   9.225  24.660  1.00  0.00     0.016 C 
ATOM     15  C   UNL     1      16.199   7.088  23.650  1.00  0.00     0.016 C 
BRANCH  13  16
ATOM     16  C   UNL     1      14.775   9.177  23.414  1.00  0.00     0.038 CG0
ATOM     17  G   UNL     1      13.879   8.384  22.471  1.00  0.00     0.000 G0
ENDBRANCH  13  16
ENDBRANCH  12  13
ENDBRANCH  10  11
ENDBRANCH   1  10
TORSDOF 0
ENDMDL
MODEL 8
REMARK VINA RESULT:    -3.740     11.734     14.230
REMARK INTER + INTRA:          -5.211
REMARK INTER:                  -5.228
REMARK INTRA:                   0.017
REMARK UNBOUND:                 0.279
REMARK SMILES C=C1CC=CC(C)(C)CC=C(C)CCC1
REMARK SMILES IDX 2 1 1 2 15 3 14 4 13 5 11 6 12 7 10 8 3 10 4 11 5 12 6 13
REMARK SMILES IDX 7 14 8 15 9 16
REMARK H PARENT
REMARK Flexibility Score: 60.00
ROOT
ATOM      1  C   UNL     1       3.396   7.194  15.857  1.00  0.00    -0.074 C 
ATOM      2  C   UNL     1       3.745   6.317  16.813  1.00  0.00     0.008 C 
ENDROOT
BRANCH   1   3
ATOM      3  C   UNL     1       3.079   8.633  16.233  1.00  0.00     0.031 C 
BRANCH   3   4
ATOM      4  C   UNL     1       4.249   9.364  16.919  1.00  0.00     0.009 C 
BRANCH   4   5
ATOM      5  C   UNL     1       5.507   9.436  16.036  1.00  0.00     0.030 C 
BRANCH   5   6
ATOM      6  C   UNL     1       6.664   8.601  16.553  1.00  0.00    -0.077 C 
ATOM      7  C   UNL     1       6.808   8.444  18.049  1.00  0.00     0.039 C 
ATOM      8  C   UNL     1       7.526   7.896  15.772  1.00  0.00    -0.027 CG0
ATOM      9  G   UNL     1       7.720   7.955  14.262  1.00  0.00     0.000 G0
ENDBRANCH   5   6
ENDBRANCH   4   5
ENDBRANCH   3   4
ENDBRANCH   1   3
BRANCH   1  10
ATOM     10  C   UNL     1       3.392   6.759  14.403  1.00  0.00     0.057 C 
BRANCH  10  11
ATOM     11  C   UNL     1       4.679   7.125  13.719  1.00  0.00    -0.026 C 
ATOM     12  C   UNL     1       5.780   6.357  13.823  1.00  0.00    -0.024 C 
BRANCH  12  13
ATOM     13  C   UNL     1       7.155   6.812  13.352  1.00  0.00    -0.014 C 
ATOM     14  C   UNL     1       8.117   5.603  13.344  1.00  0.00     0.016 C 
ATOM     15  C   UNL     1       7.015   7.319  11.899  1.00  0.00     0.016 C 
BRANCH  13  16
ATOM     16  C   UNL     1       7.724   7.967  14.249  1.00  0.00     0.038 CG0
ATOM     17  G   UNL     1       7.518   7.883  15.756  1.00  0.00     0.000 G0
ENDBRANCH  13  16
ENDBRANCH  12  13
ENDBRANCH  10  11
ENDBRANCH   1  10
TORSDOF 0
ENDMDL
MODEL 9
REMARK VINA RESULT:    -3.640     10.070     12.364
REMARK INTER + INTRA:          -5.064
REMARK INTER:                  -5.148
REMARK INTRA:                   0.084
REMARK UNBOUND:                 0.279
REMARK SMILES C=C1CC=CC(C)(C)CC=C(C)CCC1
REMARK SMILES IDX 2 1 1 2 15 3 14 4 13 5 11 6 12 7 10 8 3 10 4 11 5 12 6 13
REMARK SMILES IDX 7 14 8 15 9 16
REMARK H PARENT
REMARK Flexibility Score: 60.00
ROOT
ATOM      1  C   UNL     1       4.433   7.029  16.008  1.00  0.00    -0.074 C 
ATOM      2  C   UNL     1       3.860   5.834  16.232  1.00  0.00     0.008 C 
ENDROOT
BRANCH   1   3
ATOM      3  C   UNL     1       3.620   8.148  15.377  1.00  0.00     0.031 C 
BRANCH   3   4
ATOM      4  C   UNL     1       2.427   8.607  16.238  1.00  0.00     0.009 C 
BRANCH   4   5
ATOM      5  C   UNL     1       2.865   9.274  17.554  1.00  0.00     0.030 C 
BRANCH   5   6
ATOM      6  C   UNL     1       2.347   8.570  18.796  1.00  0.00    -0.077 C 
ATOM      7  C   UNL     1       0.951   7.993  18.750  1.00  0.00     0.039 C 
ATOM      8  C   UNL     1       3.079   8.328  19.916  1.00  0.00    -0.027 CG0
ATOM      9  G   UNL     1       4.440   8.886  20.312  1.00  0.00     0.000 G0
ENDBRANCH   5   6
ENDBRANCH   4   5
ENDBRANCH   3   4
ENDBRANCH   1   3
BRANCH   1  10
ATOM     10  C   UNL     1       5.862   7.272  16.454  1.00  0.00     0.057 C 
BRANCH  10  11
ATOM     11  C   UNL     1       5.910   7.954  17.792  1.00  0.00    -0.026 C 
ATOM     12  C   UNL     1       5.884   7.257  18.944  1.00  0.00    -0.024 C 
BRANCH  12  13
ATOM     13  C   UNL     1       5.687   7.913  20.304  1.00  0.00    -0.014 C 
ATOM     14  C   UNL     1       5.526   6.816  21.380  1.00  0.00     0.016 C 
ATOM     15  C   UNL     1       6.964   8.718  20.633  1.00  0.00     0.016 C 
BRANCH  13  16
ATOM     16  C   UNL     1       4.451   8.880  20.310  1.00  0.00     0.038 CG0
ATOM     17  G   UNL     1       3.090   8.319  19.919  1.00  0.00     0.000 G0
ENDBRANCH  13  16
ENDBRANCH  12  13
ENDBRANCH  10  11
ENDBRANCH   1  10
TORSDOF 0
ENDMDL
