MODEL 1
REMARK VINA RESULT:     3.885      0.000      0.000
REMARK INTER + INTRA:           4.226
REMARK INTER:                   4.226
REMARK INTRA:                   0.000
REMARK UNBOUND:                 0.000
REMARK SMILES Cc1cc(O)c2c(c1)C(=O)c1cc(O)cc(O)c1C2=O
REMARK SMILES IDX 1 1 2 2 8 3 7 4 6 5 4 6 3 7 19 8 20 9 18 10 11 11 9 12 10 13
REMARK SMILES IDX 12 14 13 15 15 16 16 17 5 18 17 20 14 22
REMARK H PARENT 5 19 17 21 14 23
REMARK Flexibility Score: inf
ROOT
ATOM      1  C   UNL     1      11.419 -13.865   5.005  1.00  0.00     0.044 C 
ATOM      2  C   UNL     1      11.543 -15.353   4.853  1.00  0.00    -0.047 A 
ATOM      3  C   UNL     1      10.401 -16.160   4.866  1.00  0.00     0.016 A 
ATOM      4  C   UNL     1      10.509 -17.558   4.763  1.00  0.00     0.038 A 
ATOM      5  C   UNL     1      11.781 -18.156   4.651  1.00  0.00     0.076 A 
ATOM      6  C   UNL     1      12.935 -17.339   4.666  1.00  0.00     0.127 A 
ATOM      7  C   UNL     1      12.807 -15.948   4.771  1.00  0.00     0.050 A 
ATOM      8  C   UNL     1      11.877 -19.632   4.501  1.00  0.00     0.201 C 
ATOM      9  O   UNL     1      12.934 -20.142   4.043  1.00  0.00    -0.288 OA
ATOM     10  C   UNL     1      10.692 -20.491   4.779  1.00  0.00     0.076 A 
ATOM     11  C   UNL     1       9.415 -19.880   4.829  1.00  0.00     0.041 A 
ATOM     12  C   UNL     1       9.294 -18.404   4.770  1.00  0.00     0.194 C 
ATOM     13  O   UNL     1       8.153 -17.867   4.745  1.00  0.00    -0.289 OA
ATOM     14  C   UNL     1       8.262 -20.676   4.943  1.00  0.00     0.059 A 
ATOM     15  C   UNL     1       8.365 -22.066   5.024  1.00  0.00     0.120 A 
ATOM     16  C   UNL     1       9.620 -22.670   5.023  1.00  0.00     0.093 A 
ATOM     17  C   UNL     1      10.785 -21.901   4.939  1.00  0.00     0.131 A 
ENDROOT
BRANCH   6  18
ATOM     18  O   UNL     1      14.208 -17.904   4.589  1.00  0.00    -0.507 OA
ATOM     19  H   UNL     1      15.034 -17.339   4.429  1.00  0.00     0.293 HD
ENDBRANCH   6  18
BRANCH  17  20
ATOM     20  O   UNL     1      12.003 -22.575   5.053  1.00  0.00    -0.507 OA
ATOM     21  H   UNL     1      12.818 -22.189   5.509  1.00  0.00     0.293 HD
ENDBRANCH  17  20
BRANCH  15  22
ATOM     22  O   UNL     1       7.222 -22.859   5.121  1.00  0.00    -0.508 OA
ATOM     23  H   UNL     1       6.510 -22.853   4.400  1.00  0.00     0.293 HD
ENDBRANCH  15  22
TORSDOF 3
ENDMDL
