MODEL 1
REMARK VINA RESULT:    20.521      0.000      0.000
REMARK INTER + INTRA:          20.521
REMARK INTER:                  20.521
REMARK INTRA:                   0.000
REMARK UNBOUND:                 0.000
REMARK SMILES CC1=CC[C@]2(C)CCCC(C)(C)[C@@]23C[C@@H]13
REMARK SMILES IDX 1 1 2 2 3 3 4 4 5 5 7 6 8 7 9 8 10 9 13 10 15 11 14 12 11 13
REMARK SMILES IDX 12 14 6 15
REMARK H PARENT
REMARK Flexibility Score: inf
ROOT
ATOM      1  C   UNL     1      -1.440   8.392  -7.121  1.00  0.00     0.039 C 
ATOM      2  C   UNL     1      -0.799   7.266  -7.887  1.00  0.00    -0.074 C 
ATOM      3  C   UNL     1       0.445   6.892  -7.559  1.00  0.00    -0.027 C 
ATOM      4  C   UNL     1       1.092   5.687  -8.158  1.00  0.00     0.034 C 
ATOM      5  C   UNL     1       0.762   5.459  -9.666  1.00  0.00    -0.022 C 
ATOM      6  C   UNL     1       1.662   6.401 -10.507  1.00  0.00     0.008 C 
ATOM      7  C   UNL     1       1.349   6.369 -12.010  1.00  0.00     0.001 C 
ATOM      8  C   UNL     1      -0.111   6.737 -12.296  1.00  0.00     0.007 C 
ATOM      9  C   UNL     1      -1.157   5.854 -11.560  1.00  0.00    -0.029 C 
ATOM     10  C   UNL     1      -0.752   5.748 -10.025  1.00  0.00    -0.012 C 
ATOM     11  C   UNL     1      -1.538   6.671  -9.064  1.00  0.00     0.022 C 
ATOM     12  C   UNL     1      -1.777   5.163  -9.037  1.00  0.00     0.017 C 
ATOM     13  C   UNL     1      -1.231   4.446 -12.204  1.00  0.00     0.012 C 
ATOM     14  C   UNL     1      -2.541   6.520 -11.822  1.00  0.00     0.012 C 
ATOM     15  C   UNL     1       1.132   3.976  -9.947  1.00  0.00     0.012 C 
ENDROOT
TORSDOF 0
ENDMDL
