MODEL 1
REMARK VINA RESULT:    -4.393      0.000      0.000
REMARK INTER + INTRA:          -6.971
REMARK INTER:                  -6.704
REMARK INTRA:                  -0.267
REMARK UNBOUND:                -0.267
REMARK SMILES CC1=CCC[C@H](C)C(=O)C[C@@H](C(C)C)C(=O)C1
REMARK SMILES IDX 8 1 9 2 6 3 7 4 5 5 4 6 3 7 2 8 1 9 10 11 11 12 15 13 16 14
REMARK SMILES IDX 17 15 12 17 13 18 14 19
REMARK H PARENT
REMARK Flexibility Score: 70.00
ROOT
ATOM      1  C   UNL     1     -42.285  18.532  13.803  1.00  0.00     0.136 C 
ATOM      2  O   UNL     1     -42.535  19.709  14.025  1.00  0.00    -0.299 OA
ENDROOT
BRANCH   1   3
ATOM      3  C   UNL     1     -41.712  18.124  12.457  1.00  0.00     0.053 C 
ATOM      4  C   UNL     1     -41.147  19.320  11.672  1.00  0.00     0.016 C 
BRANCH   3   5
ATOM      5  C   UNL     1     -40.635  17.010  12.601  1.00  0.00     0.015 C 
BRANCH   5   6
ATOM      6  C   UNL     1     -39.411  17.496  13.402  1.00  0.00     0.028 C 
BRANCH   6   7
ATOM      7  C   UNL     1     -38.672  16.413  14.155  1.00  0.00    -0.028 C 
ATOM      8  C   UNL     1     -39.184  15.507  15.033  1.00  0.00    -0.070 CG0
ATOM      9  C   UNL     1     -38.250  14.413  15.494  1.00  0.00     0.039 C 
ATOM     10  G   UNL     1     -40.544  15.601  15.728  1.00  0.00     0.000 G0
ENDBRANCH   6   7
ENDBRANCH   5   6
ENDBRANCH   3   5
ENDBRANCH   1   3
BRANCH   1  11
ATOM     11  C   UNL     1     -42.496  17.533  14.925  1.00  0.00     0.087 C 
BRANCH  11  12
ATOM     12  C   UNL     1     -41.774  17.836  16.276  1.00  0.00     0.066 C 
BRANCH  12  13
ATOM     13  C   UNL     1     -40.787  16.730  16.672  1.00  0.00     0.140 C 
ATOM     14  O   UNL     1     -40.092  16.849  17.671  1.00  0.00    -0.299 OA
BRANCH  13  15
ATOM     15  C   UNL     1     -40.537  15.561  15.745  1.00  0.00     0.106 CG0
ATOM     16  G   UNL     1     -39.178  15.509  15.045  1.00  0.00     0.000 G0
ENDBRANCH  13  15
ENDBRANCH  12  13
BRANCH  12  17
ATOM     17  C   UNL     1     -42.745  18.243  17.440  1.00  0.00    -0.006 C 
ATOM     18  C   UNL     1     -42.416  19.653  17.969  1.00  0.00     0.008 C 
ATOM     19  C   UNL     1     -44.228  18.222  17.024  1.00  0.00     0.008 C 
ENDBRANCH  12  17
ENDBRANCH  11  12
ENDBRANCH   1  11
TORSDOF 1
ENDMDL
MODEL 2
REMARK VINA RESULT:    -4.323      1.549      3.876
REMARK INTER + INTRA:          -6.864
REMARK INTER:                  -6.570
REMARK INTRA:                  -0.295
REMARK UNBOUND:                -0.267
REMARK SMILES CC1=CCC[C@H](C)C(=O)C[C@@H](C(C)C)C(=O)C1
REMARK SMILES IDX 8 1 9 2 6 3 7 4 5 5 4 6 3 7 2 8 1 9 10 11 11 12 15 13 16 14
REMARK SMILES IDX 17 15 12 17 13 18 14 19
REMARK H PARENT
REMARK Flexibility Score: 70.00
ROOT
ATOM      1  C   UNL     1     -40.153  15.984  16.149  1.00  0.00     0.136 C 
ATOM      2  O   UNL     1     -40.947  15.055  16.142  1.00  0.00    -0.299 OA
ENDROOT
BRANCH   1   3
ATOM      3  C   UNL     1     -38.762  15.793  15.568  1.00  0.00     0.053 C 
ATOM      4  C   UNL     1     -38.442  14.315  15.287  1.00  0.00     0.016 C 
BRANCH   3   5
ATOM      5  C   UNL     1     -38.549  16.650  14.287  1.00  0.00     0.015 C 
BRANCH   5   6
ATOM      6  C   UNL     1     -39.597  16.330  13.202  1.00  0.00     0.028 C 
BRANCH   6   7
ATOM      7  C   UNL     1     -40.143  17.535  12.469  1.00  0.00    -0.028 C 
ATOM      8  C   UNL     1     -41.218  18.300  12.805  1.00  0.00    -0.070 CG0
ATOM      9  C   UNL     1     -41.425  19.561  11.999  1.00  0.00     0.039 C 
ATOM     10  G   UNL     1     -42.325  17.913  13.788  1.00  0.00     0.000 G0
ENDBRANCH   6   7
ENDBRANCH   5   6
ENDBRANCH   3   5
ENDBRANCH   1   3
BRANCH   1  11
ATOM     11  C   UNL     1     -40.626  17.324  16.681  1.00  0.00     0.087 C 
BRANCH  11  12
ATOM     12  C   UNL     1     -42.120  17.692  16.420  1.00  0.00     0.066 C 
BRANCH  12  13
ATOM     13  C   UNL     1     -42.298  18.556  15.164  1.00  0.00     0.140 C 
ATOM     14  O   UNL     1     -42.543  19.750  15.266  1.00  0.00    -0.299 OA
BRANCH  13  15
ATOM     15  C   UNL     1     -42.342  17.916  13.796  1.00  0.00     0.106 CG0
ATOM     16  G   UNL     1     -41.241  18.310  12.810  1.00  0.00     0.000 G0
ENDBRANCH  13  15
ENDBRANCH  12  13
BRANCH  12  17
ATOM     17  C   UNL     1     -42.864  18.267  17.677  1.00  0.00    -0.006 C 
ATOM     18  C   UNL     1     -44.393  18.243  17.474  1.00  0.00     0.008 C 
ATOM     19  C   UNL     1     -42.541  17.501  18.973  1.00  0.00     0.008 C 
ENDBRANCH  12  17
ENDBRANCH  11  12
ENDBRANCH   1  11
TORSDOF 1
ENDMDL
MODEL 3
REMARK VINA RESULT:    -4.315      1.808      4.652
REMARK INTER + INTRA:          -6.852
REMARK INTER:                  -6.650
REMARK INTRA:                  -0.202
REMARK UNBOUND:                -0.267
REMARK SMILES CC1=CCC[C@H](C)C(=O)C[C@@H](C(C)C)C(=O)C1
REMARK SMILES IDX 8 1 9 2 6 3 7 4 5 5 4 6 3 7 2 8 1 9 10 11 11 12 15 13 16 14
REMARK SMILES IDX 17 15 12 17 13 18 14 19
REMARK H PARENT
REMARK Flexibility Score: 70.00
ROOT
ATOM      1  C   UNL     1     -41.210  16.916  17.015  1.00  0.00     0.136 C 
ATOM      2  O   UNL     1     -40.155  17.138  17.590  1.00  0.00    -0.299 OA
ENDROOT
BRANCH   1   3
ATOM      3  C   UNL     1     -42.388  17.855  17.210  1.00  0.00     0.053 C 
ATOM      4  C   UNL     1     -41.970  19.201  17.826  1.00  0.00     0.016 C 
BRANCH   3   5
ATOM      5  C   UNL     1     -43.171  18.083  15.884  1.00  0.00     0.015 C 
BRANCH   5   6
ATOM      6  C   UNL     1     -42.518  19.175  15.013  1.00  0.00     0.028 C 
BRANCH   6   7
ATOM      7  C   UNL     1     -42.213  18.757  13.592  1.00  0.00    -0.028 C 
ATOM      8  C   UNL     1     -41.224  17.927  13.159  1.00  0.00    -0.070 CG0
ATOM      9  C   UNL     1     -41.268  17.530  11.702  1.00  0.00     0.039 C 
ATOM     10  G   UNL     1     -39.986  17.514  13.957  1.00  0.00     0.000 G0
ENDBRANCH   6   7
ENDBRANCH   5   6
ENDBRANCH   3   5
ENDBRANCH   1   3
BRANCH   1  11
ATOM     11  C   UNL     1     -41.271  15.735  16.064  1.00  0.00     0.087 C 
BRANCH  11  12
ATOM     12  C   UNL     1     -39.926  15.302  15.400  1.00  0.00     0.066 C 
BRANCH  12  13
ATOM     13  C   UNL     1     -39.657  16.047  14.086  1.00  0.00     0.140 C 
ATOM     14  O   UNL     1     -39.063  15.493  13.172  1.00  0.00    -0.299 OA
BRANCH  13  15
ATOM     15  C   UNL     1     -39.970  17.521  13.965  1.00  0.00     0.106 CG0
ATOM     16  G   UNL     1     -41.218  17.902  13.165  1.00  0.00     0.000 G0
ENDBRANCH  13  15
ENDBRANCH  12  13
BRANCH  12  17
ATOM     17  C   UNL     1     -39.747  13.748  15.277  1.00  0.00    -0.006 C 
ATOM     18  C   UNL     1     -38.352  13.310  15.768  1.00  0.00     0.008 C 
ATOM     19  C   UNL     1     -40.803  12.954  16.068  1.00  0.00     0.008 C 
ENDBRANCH  12  17
ENDBRANCH  11  12
ENDBRANCH   1  11
TORSDOF 1
ENDMDL
MODEL 4
REMARK VINA RESULT:    -4.228      2.039      4.311
REMARK INTER + INTRA:          -6.719
REMARK INTER:                  -6.313
REMARK INTRA:                  -0.406
REMARK UNBOUND:                -0.267
REMARK SMILES CC1=CCC[C@H](C)C(=O)C[C@@H](C(C)C)C(=O)C1
REMARK SMILES IDX 8 1 9 2 6 3 7 4 5 5 4 6 3 7 2 8 1 9 10 11 11 12 15 13 16 14
REMARK SMILES IDX 17 15 12 17 13 18 14 19
REMARK H PARENT
REMARK Flexibility Score: 70.00
ROOT
ATOM      1  C   UNL     1     -39.196  16.398  12.654  1.00  0.00     0.136 C 
ATOM      2  O   UNL     1     -39.125  15.271  12.184  1.00  0.00    -0.299 OA
ENDROOT
BRANCH   1   3
ATOM      3  C   UNL     1     -39.464  17.581  11.739  1.00  0.00     0.053 C 
ATOM      4  C   UNL     1     -40.242  17.180  10.474  1.00  0.00     0.016 C 
BRANCH   3   5
ATOM      5  C   UNL     1     -40.194  18.735  12.485  1.00  0.00     0.015 C 
BRANCH   5   6
ATOM      6  C   UNL     1     -41.689  18.425  12.697  1.00  0.00     0.028 C 
BRANCH   6   7
ATOM      7  C   UNL     1     -42.329  19.143  13.864  1.00  0.00    -0.028 C 
ATOM      8  C   UNL     1     -42.460  18.702  15.146  1.00  0.00    -0.070 CG0
ATOM      9  C   UNL     1     -42.969  19.706  16.154  1.00  0.00     0.039 C 
ATOM     10  G   UNL     1     -42.316  17.254  15.616  1.00  0.00     0.000 G0
ENDBRANCH   6   7
ENDBRANCH   5   6
ENDBRANCH   3   5
ENDBRANCH   1   3
BRANCH   1  11
ATOM     11  C   UNL     1     -39.082  16.554  14.159  1.00  0.00     0.087 C 
BRANCH  11  12
ATOM     12  C   UNL     1     -40.159  15.823  15.020  1.00  0.00     0.066 C 
BRANCH  12  13
ATOM     13  C   UNL     1     -40.903  16.781  15.961  1.00  0.00     0.140 C 
ATOM     14  O   UNL     1     -40.434  17.063  17.054  1.00  0.00    -0.299 OA
BRANCH  13  15
ATOM     15  C   UNL     1     -42.299  17.253  15.622  1.00  0.00     0.106 CG0
ATOM     16  G   UNL     1     -42.448  18.706  15.164  1.00  0.00     0.000 G0
ENDBRANCH  13  15
ENDBRANCH  12  13
BRANCH  12  17
ATOM     17  C   UNL     1     -39.630  14.535  15.744  1.00  0.00    -0.006 C 
ATOM     18  C   UNL     1     -40.472  13.300  15.364  1.00  0.00     0.008 C 
ATOM     19  C   UNL     1     -38.156  14.225  15.423  1.00  0.00     0.008 C 
ENDBRANCH  12  17
ENDBRANCH  11  12
ENDBRANCH   1  11
TORSDOF 1
ENDMDL
MODEL 5
REMARK VINA RESULT:    -4.027      1.920      5.008
REMARK INTER + INTRA:          -6.412
REMARK INTER:                  -6.052
REMARK INTRA:                  -0.360
REMARK UNBOUND:                -0.267
REMARK SMILES CC1=CCC[C@H](C)C(=O)C[C@@H](C(C)C)C(=O)C1
REMARK SMILES IDX 8 1 9 2 6 3 7 4 5 5 4 6 3 7 2 8 1 9 10 11 11 12 15 13 16 14
REMARK SMILES IDX 17 15 12 17 13 18 14 19
REMARK H PARENT
REMARK Flexibility Score: 70.00
ROOT
ATOM      1  C   UNL     1     -38.988  16.071  13.743  1.00  0.00     0.136 C 
ATOM      2  O   UNL     1     -37.892  16.575  13.543  1.00  0.00    -0.299 OA
ENDROOT
BRANCH   1   3
ATOM      3  C   UNL     1     -39.146  15.011  14.820  1.00  0.00     0.053 C 
ATOM      4  C   UNL     1     -37.899  14.890  15.712  1.00  0.00     0.016 C 
BRANCH   3   5
ATOM      5  C   UNL     1     -40.415  15.255  15.688  1.00  0.00     0.015 C 
BRANCH   5   6
ATOM      6  C   UNL     1     -40.317  16.568  16.490  1.00  0.00     0.028 C 
BRANCH   6   7
ATOM      7  C   UNL     1     -41.641  17.125  16.964  1.00  0.00    -0.028 C 
ATOM      8  C   UNL     1     -42.451  18.013  16.325  1.00  0.00    -0.070 CG0
ATOM      9  C   UNL     1     -43.809  18.250  16.941  1.00  0.00     0.039 C 
ATOM     10  G   UNL     1     -42.047  18.919  15.160  1.00  0.00     0.000 G0
ENDBRANCH   6   7
ENDBRANCH   5   6
ENDBRANCH   3   5
ENDBRANCH   1   3
BRANCH   1  11
ATOM     11  C   UNL     1     -40.169  16.587  12.942  1.00  0.00     0.087 C 
BRANCH  11  12
ATOM     12  C   UNL     1     -40.546  18.089  13.141  1.00  0.00     0.066 C 
BRANCH  12  13
ATOM     13  C   UNL     1     -41.926  18.263  13.790  1.00  0.00     0.140 C 
ATOM     14  O   UNL     1     -42.942  17.999  13.163  1.00  0.00    -0.299 OA
BRANCH  13  15
ATOM     15  C   UNL     1     -42.055  18.921  15.145  1.00  0.00     0.106 CG0
ATOM     16  G   UNL     1     -42.465  18.024  16.315  1.00  0.00     0.000 G0
ENDBRANCH  13  15
ENDBRANCH  12  13
BRANCH  12  17
ATOM     17  C   UNL     1     -40.351  18.971  11.858  1.00  0.00    -0.006 C 
ATOM     18  C   UNL     1     -38.989  19.694  11.883  1.00  0.00     0.008 C 
ATOM     19  C   UNL     1     -40.438  18.161  10.550  1.00  0.00     0.008 C 
ENDBRANCH  12  17
ENDBRANCH  11  12
ENDBRANCH   1  11
TORSDOF 1
ENDMDL
MODEL 6
REMARK VINA RESULT:    -3.764      4.732      7.220
REMARK INTER + INTRA:          -6.012
REMARK INTER:                  -5.619
REMARK INTRA:                  -0.393
REMARK UNBOUND:                -0.267
REMARK SMILES CC1=CCC[C@H](C)C(=O)C[C@@H](C(C)C)C(=O)C1
REMARK SMILES IDX 8 1 9 2 6 3 7 4 5 5 4 6 3 7 2 8 1 9 10 11 11 12 15 13 16 14
REMARK SMILES IDX 17 15 12 17 13 18 14 19
REMARK H PARENT
REMARK Flexibility Score: 70.00
ROOT
ATOM      1  C   UNL     1     -36.179  18.786  10.885  1.00  0.00     0.136 C 
ATOM      2  O   UNL     1     -35.834  19.665  10.109  1.00  0.00    -0.299 OA
ENDROOT
BRANCH   1   3
ATOM      3  C   UNL     1     -36.778  19.159  12.230  1.00  0.00     0.053 C 
ATOM      4  C   UNL     1     -35.794  19.943  13.114  1.00  0.00     0.016 C 
BRANCH   3   5
ATOM      5  C   UNL     1     -38.112  19.945  12.070  1.00  0.00     0.015 C 
BRANCH   5   6
ATOM      6  C   UNL     1     -39.236  19.057  11.500  1.00  0.00     0.028 C 
BRANCH   6   7
ATOM      7  C   UNL     1     -39.561  17.833  12.325  1.00  0.00    -0.028 C 
ATOM      8  C   UNL     1     -39.479  16.526  11.951  1.00  0.00    -0.070 CG0
ATOM      9  C   UNL     1     -39.681  15.499  13.040  1.00  0.00     0.039 C 
ATOM     10  G   UNL     1     -39.386  16.008  10.514  1.00  0.00     0.000 G0
ENDBRANCH   6   7
ENDBRANCH   5   6
ENDBRANCH   3   5
ENDBRANCH   1   3
BRANCH   1  11
ATOM     11  C   UNL     1     -36.056  17.343  10.430  1.00  0.00     0.087 C 
BRANCH  11  12
ATOM     12  C   UNL     1     -37.128  16.837   9.414  1.00  0.00     0.066 C 
BRANCH  12  13
ATOM     13  C   UNL     1     -37.991  15.706   9.991  1.00  0.00     0.140 C 
ATOM     14  O   UNL     1     -37.625  14.543   9.903  1.00  0.00    -0.299 OA
BRANCH  13  15
ATOM     15  C   UNL     1     -39.376  15.997  10.521  1.00  0.00     0.106 CG0
ATOM     16  G   UNL     1     -39.476  16.509  11.959  1.00  0.00     0.000 G0
ENDBRANCH  13  15
ENDBRANCH  12  13
BRANCH  12  17
ATOM     17  C   UNL     1     -36.552  16.510   7.991  1.00  0.00    -0.006 C 
ATOM     18  C   UNL     1     -36.270  17.802   7.197  1.00  0.00     0.008 C 
ATOM     19  C   UNL     1     -35.252  15.685   8.041  1.00  0.00     0.008 C 
ENDBRANCH  12  17
ENDBRANCH  11  12
ENDBRANCH   1  11
TORSDOF 1
ENDMDL
MODEL 7
REMARK VINA RESULT:    -3.737      3.179      5.343
REMARK INTER + INTRA:          -5.969
REMARK INTER:                  -5.883
REMARK INTRA:                  -0.086
REMARK UNBOUND:                -0.267
REMARK SMILES CC1=CCC[C@H](C)C(=O)C[C@@H](C(C)C)C(=O)C1
REMARK SMILES IDX 8 1 9 2 6 3 7 4 5 5 4 6 3 7 2 8 1 9 10 11 11 12 15 13 16 14
REMARK SMILES IDX 17 15 12 17 13 18 14 19
REMARK H PARENT
REMARK Flexibility Score: 70.00
ROOT
ATOM      1  C   UNL     1     -37.020  17.167  11.859  1.00  0.00     0.136 C 
ATOM      2  O   UNL     1     -36.205  16.266  11.718  1.00  0.00    -0.299 OA
ENDROOT
BRANCH   1   3
ATOM      3  C   UNL     1     -37.382  18.048  10.675  1.00  0.00     0.053 C 
ATOM      4  C   UNL     1     -36.301  19.100  10.374  1.00  0.00     0.016 C 
BRANCH   3   5
ATOM      5  C   UNL     1     -37.693  17.207   9.403  1.00  0.00     0.015 C 
BRANCH   5   6
ATOM      6  C   UNL     1     -39.176  17.314   8.994  1.00  0.00     0.028 C 
BRANCH   6   7
ATOM      7  C   UNL     1     -39.953  18.404   9.697  1.00  0.00    -0.028 C 
ATOM      8  C   UNL     1     -40.508  18.367  10.939  1.00  0.00    -0.070 CG0
ATOM      9  C   UNL     1     -41.063  19.669  11.468  1.00  0.00     0.039 C 
ATOM     10  G   UNL     1     -40.783  17.108  11.763  1.00  0.00     0.000 G0
ENDBRANCH   6   7
ENDBRANCH   5   6
ENDBRANCH   3   5
ENDBRANCH   1   3
BRANCH   1  11
ATOM     11  C   UNL     1     -37.692  17.318  13.210  1.00  0.00     0.087 C 
BRANCH  11  12
ATOM     12  C   UNL     1     -38.913  16.386  13.492  1.00  0.00     0.066 C 
BRANCH  12  13
ATOM     13  C   UNL     1     -40.252  17.070  13.185  1.00  0.00     0.140 C 
ATOM     14  O   UNL     1     -40.966  17.468  14.094  1.00  0.00    -0.299 OA
BRANCH  13  15
ATOM     15  C   UNL     1     -40.784  17.108  11.770  1.00  0.00     0.106 CG0
ATOM     16  G   UNL     1     -40.493  18.369  10.953  1.00  0.00     0.000 G0
ENDBRANCH  13  15
ENDBRANCH  12  13
BRANCH  12  17
ATOM     17  C   UNL     1     -38.879  15.700  14.903  1.00  0.00    -0.006 C 
ATOM     18  C   UNL     1     -39.744  14.423  14.919  1.00  0.00     0.008 C 
ATOM     19  C   UNL     1     -37.457  15.321  15.356  1.00  0.00     0.008 C 
ENDBRANCH  12  17
ENDBRANCH  11  12
ENDBRANCH   1  11
TORSDOF 1
ENDMDL
MODEL 8
REMARK VINA RESULT:    -3.686      1.800      4.285
REMARK INTER + INTRA:          -5.892
REMARK INTER:                  -5.523
REMARK INTRA:                  -0.369
REMARK UNBOUND:                -0.267
REMARK SMILES CC1=CCC[C@H](C)C(=O)C[C@@H](C(C)C)C(=O)C1
REMARK SMILES IDX 8 1 9 2 6 3 7 4 5 5 4 6 3 7 2 8 1 9 10 11 11 12 15 13 16 14
REMARK SMILES IDX 17 15 12 17 13 18 14 19
REMARK H PARENT
REMARK Flexibility Score: 70.00
ROOT
ATOM      1  C   UNL     1     -41.922  18.281  13.963  1.00  0.00     0.136 C 
ATOM      2  O   UNL     1     -42.890  17.961  13.287  1.00  0.00    -0.299 OA
ENDROOT
BRANCH   1   3
ATOM      3  C   UNL     1     -42.063  18.402  15.471  1.00  0.00     0.053 C 
ATOM      4  C   UNL     1     -43.524  18.292  15.936  1.00  0.00     0.016 C 
BRANCH   3   5
ATOM      5  C   UNL     1     -41.174  17.366  16.218  1.00  0.00     0.015 C 
BRANCH   5   6
ATOM      6  C   UNL     1     -41.491  15.920  15.785  1.00  0.00     0.028 C 
BRANCH   6   7
ATOM      7  C   UNL     1     -40.330  14.956  15.887  1.00  0.00    -0.028 C 
ATOM      8  C   UNL     1     -39.393  14.674  14.941  1.00  0.00    -0.070 CG0
ATOM      9  C   UNL     1     -38.232  13.812  15.379  1.00  0.00     0.039 C 
ATOM     10  G   UNL     1     -39.500  14.990  13.448  1.00  0.00     0.000 G0
ENDBRANCH   6   7
ENDBRANCH   5   6
ENDBRANCH   3   5
ENDBRANCH   1   3
BRANCH   1  11
ATOM     11  C   UNL     1     -40.593  18.476  13.259  1.00  0.00     0.087 C 
BRANCH  11  12
ATOM     12  C   UNL     1     -40.116  17.314  12.332  1.00  0.00     0.066 C 
BRANCH  12  13
ATOM     13  C   UNL     1     -39.101  16.394  13.023  1.00  0.00     0.140 C 
ATOM     14  O   UNL     1     -37.929  16.729  13.120  1.00  0.00    -0.299 OA
BRANCH  13  15
ATOM     15  C   UNL     1     -39.497  14.995  13.438  1.00  0.00     0.106 CG0
ATOM     16  G   UNL     1     -39.400  14.661  14.928  1.00  0.00     0.000 G0
ENDBRANCH  13  15
ENDBRANCH  12  13
BRANCH  12  17
ATOM     17  C   UNL     1     -39.653  17.785  10.908  1.00  0.00    -0.006 C 
ATOM     18  C   UNL     1     -39.365  16.578   9.992  1.00  0.00     0.008 C 
ATOM     19  C   UNL     1     -40.687  18.683  10.203  1.00  0.00     0.008 C 
ENDBRANCH  12  17
ENDBRANCH  11  12
ENDBRANCH   1  11
TORSDOF 1
ENDMDL
MODEL 9
REMARK VINA RESULT:    -3.541      4.915      7.456
REMARK INTER + INTRA:          -5.671
REMARK INTER:                  -5.190
REMARK INTRA:                  -0.482
REMARK UNBOUND:                -0.267
REMARK SMILES CC1=CCC[C@H](C)C(=O)C[C@@H](C(C)C)C(=O)C1
REMARK SMILES IDX 8 1 9 2 6 3 7 4 5 5 4 6 3 7 2 8 1 9 10 11 11 12 15 13 16 14
REMARK SMILES IDX 17 15 12 17 13 18 14 19
REMARK H PARENT
REMARK Flexibility Score: 70.00
ROOT
ATOM      1  C   UNL     1     -36.840  19.513   9.728  1.00  0.00     0.136 C 
ATOM      2  O   UNL     1     -36.582  19.978  10.829  1.00  0.00    -0.299 OA
ENDROOT
BRANCH   1   3
ATOM      3  C   UNL     1     -37.959  20.118   8.897  1.00  0.00     0.053 C 
ATOM      4  C   UNL     1     -38.060  19.487   7.499  1.00  0.00     0.016 C 
BRANCH   3   5
ATOM      5  C   UNL     1     -39.330  20.040   9.630  1.00  0.00     0.015 C 
BRANCH   5   6
ATOM      6  C   UNL     1     -39.900  18.607   9.629  1.00  0.00     0.028 C 
BRANCH   6   7
ATOM      7  C   UNL     1     -40.017  17.968  10.994  1.00  0.00    -0.028 C 
ATOM      8  C   UNL     1     -39.289  16.933  11.497  1.00  0.00    -0.070 CG0
ATOM      9  C   UNL     1     -39.486  16.621  12.963  1.00  0.00     0.039 C 
ATOM     10  G   UNL     1     -38.441  15.952  10.685  1.00  0.00     0.000 G0
ENDBRANCH   6   7
ENDBRANCH   5   6
ENDBRANCH   3   5
ENDBRANCH   1   3
BRANCH   1  11
ATOM     11  C   UNL     1     -35.971  18.383   9.209  1.00  0.00     0.087 C 
BRANCH  11  12
ATOM     12  C   UNL     1     -36.662  16.994   9.033  1.00  0.00     0.066 C 
BRANCH  12  13
ATOM     13  C   UNL     1     -37.006  16.339  10.378  1.00  0.00     0.140 C 
ATOM     14  O   UNL     1     -36.118  16.013  11.152  1.00  0.00    -0.299 OA
BRANCH  13  15
ATOM     15  C   UNL     1     -38.429  15.934  10.688  1.00  0.00     0.106 CG0
ATOM     16  G   UNL     1     -39.267  16.917  11.510  1.00  0.00     0.000 G0
ENDBRANCH  13  15
ENDBRANCH  12  13
BRANCH  12  17
ATOM     17  C   UNL     1     -35.910  16.028   8.051  1.00  0.00    -0.006 C 
ATOM     18  C   UNL     1     -36.809  14.842   7.645  1.00  0.00     0.008 C 
ATOM     19  C   UNL     1     -35.433  16.728   6.764  1.00  0.00     0.008 C 
ENDBRANCH  12  17
ENDBRANCH  11  12
ENDBRANCH   1  11
TORSDOF 1
ENDMDL
