MODEL 1
REMARK VINA RESULT:    -5.478      0.000      0.000
REMARK INTER + INTRA:          -6.757
REMARK INTER:                  -6.439
REMARK INTRA:                  -0.318
REMARK UNBOUND:                -0.318
REMARK SMILES O=c1cc(-c2ccc(O)c(O)c2)oc2cc(O)cc(O)c12
REMARK SMILES IDX 4 1 3 2 2 3 1 4 21 5 19 6 18 7 16 8 15 9 14 10 13 11 5 12
REMARK SMILES IDX 6 13 7 14 8 15 12 16 10 17 9 18 11 20 20 22 17 24
REMARK H PARENT 9 19 11 21 20 23 17 25
REMARK Flexibility Score: inf
ROOT
ATOM      1  C   UNL     1      14.377  32.022  57.797  1.00  0.00     0.138 A 
ATOM      2  C   UNL     1      15.755  31.768  57.760  1.00  0.00     0.100 A 
ATOM      3  C   UNL     1      16.364  31.106  58.826  1.00  0.00     0.197 A 
ATOM      4  O   UNL     1      17.592  30.845  58.738  1.00  0.00    -0.289 OA
ATOM      5  C   UNL     1      15.594  30.726  59.952  1.00  0.00     0.107 A 
ATOM      6  C   UNL     1      16.112  30.075  61.112  1.00  0.00     0.134 A 
ATOM      7  C   UNL     1      15.234  29.660  62.121  1.00  0.00     0.093 A 
ATOM      8  C   UNL     1      13.867  29.923  62.040  1.00  0.00     0.123 A 
ATOM      9  C   UNL     1      13.355  30.603  60.934  1.00  0.00     0.094 A 
ATOM     10  C   UNL     1      14.200  30.999  59.894  1.00  0.00     0.146 A 
ATOM     11  O   UNL     1      13.670  31.627  58.851  1.00  0.00    -0.456 OA
ENDROOT
BRANCH   1  12
ATOM     12  C   UNL     1      13.678  32.726  56.692  1.00  0.00     0.021 A 
ATOM     13  C   UNL     1      14.420  33.199  55.596  1.00  0.00     0.016 A 
ATOM     14  C   UNL     1      13.788  33.870  54.547  1.00  0.00     0.051 A 
ATOM     15  C   UNL     1      12.409  34.093  54.578  1.00  0.00     0.157 A 
ATOM     16  C   UNL     1      12.291  32.965  56.726  1.00  0.00     0.062 A 
ATOM     17  C   UNL     1      11.656  33.642  55.673  1.00  0.00     0.158 A 
BRANCH  15  18
ATOM     18  O   UNL     1      11.807  34.766  53.515  1.00  0.00    -0.504 OA
ATOM     19  H   UNL     1      11.401  35.688  53.624  1.00  0.00     0.293 HD
ENDBRANCH  15  18
BRANCH  17  20
ATOM     20  O   UNL     1      10.282  33.871  55.716  1.00  0.00    -0.504 OA
ATOM     21  H   UNL     1       9.640  33.369  55.113  1.00  0.00     0.293 HD
ENDBRANCH  17  20
ENDBRANCH   1  12
BRANCH   6  22
ATOM     22  O   UNL     1      17.471  29.835  61.334  1.00  0.00    -0.507 OA
ATOM     23  H   UNL     1      18.213  30.498  61.166  1.00  0.00     0.293 HD
ENDBRANCH   6  22
BRANCH   8  24
ATOM     24  O   UNL     1      13.026  29.508  63.070  1.00  0.00    -0.508 OA
ATOM     25  H   UNL     1      12.624  28.578  63.084  1.00  0.00     0.293 HD
ENDBRANCH   8  24
TORSDOF 5
ENDMDL
MODEL 2
REMARK VINA RESULT:    -5.452      1.579      2.939
REMARK INTER + INTRA:          -6.726
REMARK INTER:                  -6.433
REMARK INTRA:                  -0.293
REMARK UNBOUND:                -0.318
REMARK SMILES O=c1cc(-c2ccc(O)c(O)c2)oc2cc(O)cc(O)c12
REMARK SMILES IDX 4 1 3 2 2 3 1 4 21 5 19 6 18 7 16 8 15 9 14 10 13 11 5 12
REMARK SMILES IDX 6 13 7 14 8 15 12 16 10 17 9 18 11 20 20 22 17 24
REMARK H PARENT 9 19 11 21 20 23 17 25
REMARK Flexibility Score: inf
ROOT
ATOM      1  C   UNL     1      14.574  31.945  58.345  1.00  0.00     0.138 A 
ATOM      2  C   UNL     1      14.042  30.963  59.191  1.00  0.00     0.100 A 
ATOM      3  C   UNL     1      14.851  30.381  60.167  1.00  0.00     0.197 A 
ATOM      4  O   UNL     1      14.330  29.543  60.947  1.00  0.00    -0.289 OA
ATOM      5  C   UNL     1      16.211  30.762  60.273  1.00  0.00     0.107 A 
ATOM      6  C   UNL     1      17.140  30.213  61.209  1.00  0.00     0.134 A 
ATOM      7  C   UNL     1      18.435  30.741  61.284  1.00  0.00     0.093 A 
ATOM      8  C   UNL     1      18.854  31.753  60.423  1.00  0.00     0.123 A 
ATOM      9  C   UNL     1      17.969  32.263  59.470  1.00  0.00     0.094 A 
ATOM     10  C   UNL     1      16.659  31.784  59.393  1.00  0.00     0.146 A 
ATOM     11  O   UNL     1      15.845  32.308  58.485  1.00  0.00    -0.456 OA
ENDROOT
BRANCH   1  12
ATOM     12  C   UNL     1      13.759  32.594  57.285  1.00  0.00     0.021 A 
ATOM     13  C   UNL     1      14.404  33.264  56.232  1.00  0.00     0.016 A 
ATOM     14  C   UNL     1      13.661  33.889  55.227  1.00  0.00     0.051 A 
ATOM     15  C   UNL     1      12.264  33.866  55.261  1.00  0.00     0.157 A 
ATOM     16  C   UNL     1      12.351  32.586  57.324  1.00  0.00     0.062 A 
ATOM     17  C   UNL     1      11.605  33.215  56.316  1.00  0.00     0.158 A 
BRANCH  15  18
ATOM     18  O   UNL     1      11.551  34.498  54.244  1.00  0.00    -0.504 OA
ATOM     19  H   UNL     1      10.848  35.202  54.436  1.00  0.00     0.293 HD
ENDBRANCH  15  18
BRANCH  17  20
ATOM     20  O   UNL     1      10.212  33.199  56.362  1.00  0.00    -0.504 OA
ATOM     21  H   UNL     1       9.691  33.865  56.921  1.00  0.00     0.293 HD
ENDBRANCH  17  20
ENDBRANCH   1  12
BRANCH   6  22
ATOM     22  O   UNL     1      16.853  29.145  62.063  1.00  0.00    -0.507 OA
ATOM     23  H   UNL     1      17.458  28.355  62.227  1.00  0.00     0.293 HD
ENDBRANCH   6  22
BRANCH   8  24
ATOM     24  O   UNL     1      20.154  32.243  60.517  1.00  0.00    -0.508 OA
ATOM     25  H   UNL     1      20.343  33.236  60.583  1.00  0.00     0.293 HD
ENDBRANCH   8  24
TORSDOF 5
ENDMDL
MODEL 3
REMARK VINA RESULT:    -5.366      1.587      7.216
REMARK INTER + INTRA:          -6.625
REMARK INTER:                  -6.328
REMARK INTRA:                  -0.297
REMARK UNBOUND:                -0.318
REMARK SMILES O=c1cc(-c2ccc(O)c(O)c2)oc2cc(O)cc(O)c12
REMARK SMILES IDX 4 1 3 2 2 3 1 4 21 5 19 6 18 7 16 8 15 9 14 10 13 11 5 12
REMARK SMILES IDX 6 13 7 14 8 15 12 16 10 17 9 18 11 20 20 22 17 24
REMARK H PARENT 9 19 11 21 20 23 17 25
REMARK Flexibility Score: inf
ROOT
ATOM      1  C   UNL     1      14.004  31.969  58.056  1.00  0.00     0.138 A 
ATOM      2  C   UNL     1      12.719  32.465  57.802  1.00  0.00     0.100 A 
ATOM      3  C   UNL     1      12.461  33.134  56.605  1.00  0.00     0.197 A 
ATOM      4  O   UNL     1      11.284  33.519  56.383  1.00  0.00    -0.289 OA
ATOM      5  C   UNL     1      13.506  33.338  55.673  1.00  0.00     0.107 A 
ATOM      6  C   UNL     1      13.369  34.034  54.434  1.00  0.00     0.134 A 
ATOM      7  C   UNL     1      14.453  34.086  53.548  1.00  0.00     0.093 A 
ATOM      8  C   UNL     1      15.683  33.518  53.878  1.00  0.00     0.123 A 
ATOM      9  C   UNL     1      15.843  32.878  55.108  1.00  0.00     0.094 A 
ATOM     10  C   UNL     1      14.772  32.778  55.999  1.00  0.00     0.146 A 
ATOM     11  O   UNL     1      14.961  32.145  57.151  1.00  0.00    -0.456 OA
ENDROOT
BRANCH   1  12
ATOM     12  C   UNL     1      14.336  31.253  59.315  1.00  0.00     0.021 A 
ATOM     13  C   UNL     1      15.658  30.837  59.544  1.00  0.00     0.016 A 
ATOM     14  C   UNL     1      15.995  30.156  60.717  1.00  0.00     0.051 A 
ATOM     15  C   UNL     1      15.018  29.868  61.674  1.00  0.00     0.157 A 
ATOM     16  C   UNL     1      13.352  30.949  60.276  1.00  0.00     0.062 A 
ATOM     17  C   UNL     1      13.689  30.264  61.452  1.00  0.00     0.158 A 
BRANCH  15  18
ATOM     18  O   UNL     1      15.385  29.188  62.834  1.00  0.00    -0.504 OA
ATOM     19  H   UNL     1      15.965  29.615  63.547  1.00  0.00     0.293 HD
ENDBRANCH  15  18
BRANCH  17  20
ATOM     20  O   UNL     1      12.708  29.970  62.397  1.00  0.00    -0.504 OA
ATOM     21  H   UNL     1      12.431  29.016  62.598  1.00  0.00     0.293 HD
ENDBRANCH  17  20
ENDBRANCH   1  12
BRANCH   6  22
ATOM     22  O   UNL     1      12.210  34.707  54.038  1.00  0.00    -0.507 OA
ATOM     23  H   UNL     1      11.769  34.622  53.135  1.00  0.00     0.293 HD
ENDBRANCH   6  22
BRANCH   8  24
ATOM     24  O   UNL     1      16.742  33.603  52.978  1.00  0.00    -0.508 OA
ATOM     25  H   UNL     1      17.699  33.711  53.295  1.00  0.00     0.293 HD
ENDBRANCH   8  24
TORSDOF 5
ENDMDL
MODEL 4
REMARK VINA RESULT:    -5.357      4.125      6.702
REMARK INTER + INTRA:          -6.615
REMARK INTER:                  -6.320
REMARK INTRA:                  -0.294
REMARK UNBOUND:                -0.318
REMARK SMILES O=c1cc(-c2ccc(O)c(O)c2)oc2cc(O)cc(O)c12
REMARK SMILES IDX 4 1 3 2 2 3 1 4 21 5 19 6 18 7 16 8 15 9 14 10 13 11 5 12
REMARK SMILES IDX 6 13 7 14 8 15 12 16 10 17 9 18 11 20 20 22 17 24
REMARK H PARENT 9 19 11 21 20 23 17 25
REMARK Flexibility Score: inf
ROOT
ATOM      1  C   UNL     1      15.315  34.778  52.642  1.00  0.00     0.138 A 
ATOM      2  C   UNL     1      16.367  34.003  53.147  1.00  0.00     0.100 A 
ATOM      3  C   UNL     1      16.164  33.217  54.282  1.00  0.00     0.197 A 
ATOM      4  O   UNL     1      17.111  32.490  54.677  1.00  0.00    -0.289 OA
ATOM      5  C   UNL     1      14.908  33.236  54.935  1.00  0.00     0.107 A 
ATOM      6  C   UNL     1      14.594  32.502  56.119  1.00  0.00     0.134 A 
ATOM      7  C   UNL     1      13.285  32.524  56.617  1.00  0.00     0.093 A 
ATOM      8  C   UNL     1      12.295  33.297  56.012  1.00  0.00     0.123 A 
ATOM      9  C   UNL     1      12.603  34.058  54.884  1.00  0.00     0.094 A 
ATOM     10  C   UNL     1      13.890  34.030  54.340  1.00  0.00     0.146 A 
ATOM     11  O   UNL     1      14.136  34.755  53.255  1.00  0.00    -0.456 OA
ENDROOT
BRANCH   1  12
ATOM     12  C   UNL     1      15.478  35.636  51.441  1.00  0.00     0.021 A 
ATOM     13  C   UNL     1      14.337  36.135  50.789  1.00  0.00     0.016 A 
ATOM     14  C   UNL     1      14.462  36.938  49.653  1.00  0.00     0.051 A 
ATOM     15  C   UNL     1      15.725  37.248  49.141  1.00  0.00     0.157 A 
ATOM     16  C   UNL     1      16.748  35.939  50.912  1.00  0.00     0.062 A 
ATOM     17  C   UNL     1      16.874  36.744  49.771  1.00  0.00     0.158 A 
BRANCH  15  18
ATOM     18  O   UNL     1      15.817  38.052  48.006  1.00  0.00    -0.504 OA
ATOM     19  H   UNL     1      15.705  37.678  47.071  1.00  0.00     0.293 HD
ENDBRANCH  15  18
BRANCH  17  20
ATOM     20  O   UNL     1      18.135  37.040  49.258  1.00  0.00    -0.504 OA
ATOM     21  H   UNL     1      18.836  36.320  49.120  1.00  0.00     0.293 HD
ENDBRANCH  17  20
ENDBRANCH   1  12
BRANCH   6  22
ATOM     22  O   UNL     1      15.525  31.760  56.851  1.00  0.00    -0.507 OA
ATOM     23  H   UNL     1      15.297  31.064  57.544  1.00  0.00     0.293 HD
ENDBRANCH   6  22
BRANCH   8  24
ATOM     24  O   UNL     1      11.008  33.306  56.546  1.00  0.00    -0.508 OA
ATOM     25  H   UNL     1      10.841  33.527  57.521  1.00  0.00     0.293 HD
ENDBRANCH   8  24
TORSDOF 5
ENDMDL
MODEL 5
REMARK VINA RESULT:    -5.308      9.818     11.863
REMARK INTER + INTRA:          -6.557
REMARK INTER:                  -6.252
REMARK INTRA:                  -0.305
REMARK UNBOUND:                -0.318
REMARK SMILES O=c1cc(-c2ccc(O)c(O)c2)oc2cc(O)cc(O)c12
REMARK SMILES IDX 4 1 3 2 2 3 1 4 21 5 19 6 18 7 16 8 15 9 14 10 13 11 5 12
REMARK SMILES IDX 6 13 7 14 8 15 12 16 10 17 9 18 11 20 20 22 17 24
REMARK H PARENT 9 19 11 21 20 23 17 25
REMARK Flexibility Score: inf
ROOT
ATOM      1  C   UNL     1      11.887  36.289  47.858  1.00  0.00     0.138 A 
ATOM      2  C   UNL     1      12.764  36.386  46.770  1.00  0.00     0.100 A 
ATOM      3  C   UNL     1      14.092  36.760  46.983  1.00  0.00     0.197 A 
ATOM      4  O   UNL     1      14.868  36.783  45.993  1.00  0.00    -0.289 OA
ATOM      5  C   UNL     1      14.533  37.072  48.291  1.00  0.00     0.107 A 
ATOM      6  C   UNL     1      15.855  37.497  48.626  1.00  0.00     0.134 A 
ATOM      7  C   UNL     1      16.201  37.682  49.970  1.00  0.00     0.093 A 
ATOM      8  C   UNL     1      15.261  37.516  50.986  1.00  0.00     0.123 A 
ATOM      9  C   UNL     1      13.953  37.150  50.668  1.00  0.00     0.094 A 
ATOM     10  C   UNL     1      13.585  36.922  49.339  1.00  0.00     0.146 A 
ATOM     11  O   UNL     1      12.334  36.557  49.081  1.00  0.00    -0.456 OA
ENDROOT
BRANCH   1  12
ATOM     12  C   UNL     1      10.464  35.900  47.688  1.00  0.00     0.021 A 
ATOM     13  C   UNL     1      10.104  35.045  46.633  1.00  0.00     0.016 A 
ATOM     14  C   UNL     1       8.771  34.669  46.447  1.00  0.00     0.051 A 
ATOM     15  C   UNL     1       7.775  35.149  47.301  1.00  0.00     0.157 A 
ATOM     16  C   UNL     1       9.454  36.393  48.538  1.00  0.00     0.062 A 
ATOM     17  C   UNL     1       8.116  36.017  48.350  1.00  0.00     0.158 A 
BRANCH  15  18
ATOM     18  O   UNL     1       6.454  34.755  47.090  1.00  0.00    -0.504 OA
ATOM     19  H   UNL     1       5.691  35.422  47.068  1.00  0.00     0.293 HD
ENDBRANCH  15  18
BRANCH  17  20
ATOM     20  O   UNL     1       7.125  36.508  49.198  1.00  0.00    -0.504 OA
ATOM     21  H   UNL     1       7.297  36.657  50.186  1.00  0.00     0.293 HD
ENDBRANCH  17  20
ENDBRANCH   1  12
BRANCH   6  22
ATOM     22  O   UNL     1      16.851  37.771  47.684  1.00  0.00    -0.507 OA
ATOM     23  H   UNL     1      16.857  38.562  47.059  1.00  0.00     0.293 HD
ENDBRANCH   6  22
BRANCH   8  24
ATOM     24  O   UNL     1      15.638  37.725  52.311  1.00  0.00    -0.508 OA
ATOM     25  H   UNL     1      15.057  37.415  53.082  1.00  0.00     0.293 HD
ENDBRANCH   8  24
TORSDOF 5
ENDMDL
MODEL 6
REMARK VINA RESULT:    -5.208      4.121      8.746
REMARK INTER + INTRA:          -6.439
REMARK INTER:                  -6.121
REMARK INTRA:                  -0.318
REMARK UNBOUND:                -0.318
REMARK SMILES O=c1cc(-c2ccc(O)c(O)c2)oc2cc(O)cc(O)c12
REMARK SMILES IDX 4 1 3 2 2 3 1 4 21 5 19 6 18 7 16 8 15 9 14 10 13 11 5 12
REMARK SMILES IDX 6 13 7 14 8 15 12 16 10 17 9 18 11 20 20 22 17 24
REMARK H PARENT 9 19 11 21 20 23 17 25
REMARK Flexibility Score: inf
ROOT
ATOM      1  C   UNL     1      14.840  34.247  53.362  1.00  0.00     0.138 A 
ATOM      2  C   UNL     1      16.204  33.926  53.386  1.00  0.00     0.100 A 
ATOM      3  C   UNL     1      17.030  34.343  52.342  1.00  0.00     0.197 A 
ATOM      4  O   UNL     1      18.259  34.087  52.419  1.00  0.00    -0.289 OA
ATOM      5  C   UNL     1      16.479  35.056  51.250  1.00  0.00     0.107 A 
ATOM      6  C   UNL     1      17.218  35.504  50.113  1.00  0.00     0.134 A 
ATOM      7  C   UNL     1      16.581  36.288  49.142  1.00  0.00     0.093 A 
ATOM      8  C   UNL     1      15.224  36.590  49.235  1.00  0.00     0.123 A 
ATOM      9  C   UNL     1      14.480  36.116  50.316  1.00  0.00     0.094 A 
ATOM     10  C   UNL     1      15.092  35.362  51.320  1.00  0.00     0.146 A 
ATOM     11  O   UNL     1      14.353  34.945  52.342  1.00  0.00    -0.456 OA
ENDROOT
BRANCH   1  12
ATOM     12  C   UNL     1      13.915  33.825  54.445  1.00  0.00     0.021 A 
ATOM     13  C   UNL     1      14.425  33.140  55.561  1.00  0.00     0.016 A 
ATOM     14  C   UNL     1      13.575  32.726  56.589  1.00  0.00     0.051 A 
ATOM     15  C   UNL     1      12.202  32.977  56.517  1.00  0.00     0.157 A 
ATOM     16  C   UNL     1      12.529  34.063  54.370  1.00  0.00     0.062 A 
ATOM     17  C   UNL     1      11.675  33.646  55.401  1.00  0.00     0.158 A 
BRANCH  15  18
ATOM     18  O   UNL     1      11.380  32.552  57.560  1.00  0.00    -0.504 OA
ATOM     19  H   UNL     1      10.500  33.007  57.771  1.00  0.00     0.293 HD
ENDBRANCH  15  18
BRANCH  17  20
ATOM     20  O   UNL     1      10.305  33.889  55.318  1.00  0.00    -0.504 OA
ATOM     21  H   UNL     1       9.892  34.332  54.506  1.00  0.00     0.293 HD
ENDBRANCH  17  20
ENDBRANCH   1  12
BRANCH   6  22
ATOM     22  O   UNL     1      18.560  35.192  49.878  1.00  0.00    -0.507 OA
ATOM     23  H   UNL     1      19.046  35.341  49.007  1.00  0.00     0.293 HD
ENDBRANCH   6  22
BRANCH   8  24
ATOM     24  O   UNL     1      14.621  37.359  48.242  1.00  0.00    -0.508 OA
ATOM     25  H   UNL     1      15.171  37.852  47.547  1.00  0.00     0.293 HD
ENDBRANCH   8  24
TORSDOF 5
ENDMDL
MODEL 7
REMARK VINA RESULT:    -5.130      3.645      9.228
REMARK INTER + INTRA:          -6.348
REMARK INTER:                  -6.065
REMARK INTRA:                  -0.284
REMARK UNBOUND:                -0.318
REMARK SMILES O=c1cc(-c2ccc(O)c(O)c2)oc2cc(O)cc(O)c12
REMARK SMILES IDX 4 1 3 2 2 3 1 4 21 5 19 6 18 7 16 8 15 9 14 10 13 11 5 12
REMARK SMILES IDX 6 13 7 14 8 15 12 16 10 17 9 18 11 20 20 22 17 24
REMARK H PARENT 9 19 11 21 20 23 17 25
REMARK Flexibility Score: inf
ROOT
ATOM      1  C   UNL     1      13.911  34.324  53.387  1.00  0.00     0.138 A 
ATOM      2  C   UNL     1      12.775  34.260  52.568  1.00  0.00     0.100 A 
ATOM      3  C   UNL     1      12.750  34.967  51.366  1.00  0.00     0.197 A 
ATOM      4  O   UNL     1      11.739  34.846  50.627  1.00  0.00    -0.289 OA
ATOM      5  C   UNL     1      13.857  35.770  50.998  1.00  0.00     0.107 A 
ATOM      6  C   UNL     1      13.931  36.562  49.811  1.00  0.00     0.134 A 
ATOM      7  C   UNL     1      15.119  37.238  49.506  1.00  0.00     0.093 A 
ATOM      8  C   UNL     1      16.212  37.201  50.370  1.00  0.00     0.123 A 
ATOM      9  C   UNL     1      16.134  36.471  51.557  1.00  0.00     0.094 A 
ATOM     10  C   UNL     1      14.976  35.756  51.874  1.00  0.00     0.146 A 
ATOM     11  O   UNL     1      14.949  35.060  53.004  1.00  0.00    -0.456 OA
ENDROOT
BRANCH   1  12
ATOM     12  C   UNL     1      13.990  33.596  54.679  1.00  0.00     0.021 A 
ATOM     13  C   UNL     1      15.214  33.033  55.080  1.00  0.00     0.016 A 
ATOM     14  C   UNL     1      15.313  32.337  56.287  1.00  0.00     0.051 A 
ATOM     15  C   UNL     1      14.193  32.180  57.109  1.00  0.00     0.157 A 
ATOM     16  C   UNL     1      12.861  33.423  55.503  1.00  0.00     0.062 A 
ATOM     17  C   UNL     1      12.960  32.723  56.714  1.00  0.00     0.158 A 
BRANCH  15  18
ATOM     18  O   UNL     1      14.325  31.481  58.308  1.00  0.00    -0.504 OA
ATOM     19  H   UNL     1      14.396  31.954  59.201  1.00  0.00     0.293 HD
ENDBRANCH  15  18
BRANCH  17  20
ATOM     20  O   UNL     1      11.837  32.559  57.523  1.00  0.00    -0.504 OA
ATOM     21  H   UNL     1      11.817  32.894  58.479  1.00  0.00     0.293 HD
ENDBRANCH  17  20
ENDBRANCH   1  12
BRANCH   6  22
ATOM     22  O   UNL     1      12.870  36.735  48.918  1.00  0.00    -0.507 OA
ATOM     23  H   UNL     1      12.801  37.475  48.236  1.00  0.00     0.293 HD
ENDBRANCH   6  22
BRANCH   8  24
ATOM     24  O   UNL     1      17.372  37.899  50.041  1.00  0.00    -0.508 OA
ATOM     25  H   UNL     1      17.765  37.863  49.107  1.00  0.00     0.293 HD
ENDBRANCH   8  24
TORSDOF 5
ENDMDL
MODEL 8
REMARK VINA RESULT:    -5.106      3.239      5.881
REMARK INTER + INTRA:          -6.319
REMARK INTER:                  -6.003
REMARK INTRA:                  -0.316
REMARK UNBOUND:                -0.318
REMARK SMILES O=c1cc(-c2ccc(O)c(O)c2)oc2cc(O)cc(O)c12
REMARK SMILES IDX 4 1 3 2 2 3 1 4 21 5 19 6 18 7 16 8 15 9 14 10 13 11 5 12
REMARK SMILES IDX 6 13 7 14 8 15 12 16 10 17 9 18 11 20 20 22 17 24
REMARK H PARENT 9 19 11 21 20 23 17 25
REMARK Flexibility Score: inf
ROOT
ATOM      1  C   UNL     1      14.287  34.006  53.970  1.00  0.00     0.138 A 
ATOM      2  C   UNL     1      12.890  34.059  53.873  1.00  0.00     0.100 A 
ATOM      3  C   UNL     1      12.107  33.537  54.903  1.00  0.00     0.197 A 
ATOM      4  O   UNL     1      10.857  33.649  54.813  1.00  0.00    -0.289 OA
ATOM      5  C   UNL     1      12.727  32.928  56.021  1.00  0.00     0.107 A 
ATOM      6  C   UNL     1      12.030  32.333  57.116  1.00  0.00     0.134 A 
ATOM      7  C   UNL     1      12.754  31.848  58.213  1.00  0.00     0.093 A 
ATOM      8  C   UNL     1      14.147  31.883  58.230  1.00  0.00     0.123 A 
ATOM      9  C   UNL     1      14.841  32.417  57.143  1.00  0.00     0.094 A 
ATOM     10  C   UNL     1      14.148  32.942  56.049  1.00  0.00     0.146 A 
ATOM     11  O   UNL     1      14.846  33.457  55.044  1.00  0.00    -0.456 OA
ENDROOT
BRANCH   1  12
ATOM     12  C   UNL     1      15.169  34.542  52.901  1.00  0.00     0.021 A 
ATOM     13  C   UNL     1      14.615  35.333  51.881  1.00  0.00     0.016 A 
ATOM     14  C   UNL     1      15.421  35.843  50.861  1.00  0.00     0.051 A 
ATOM     15  C   UNL     1      16.790  35.564  50.834  1.00  0.00     0.157 A 
ATOM     16  C   UNL     1      16.547  34.251  52.863  1.00  0.00     0.062 A 
ATOM     17  C   UNL     1      17.356  34.762  51.837  1.00  0.00     0.158 A 
BRANCH  15  18
ATOM     18  O   UNL     1      17.568  36.089  49.803  1.00  0.00    -0.504 OA
ATOM     19  H   UNL     1      17.310  36.936  49.312  1.00  0.00     0.293 HD
ENDBRANCH  15  18
BRANCH  17  20
ATOM     20  O   UNL     1      18.719  34.471  51.810  1.00  0.00    -0.504 OA
ATOM     21  H   UNL     1      19.420  35.202  51.852  1.00  0.00     0.293 HD
ENDBRANCH  17  20
ENDBRANCH   1  12
BRANCH   6  22
ATOM     22  O   UNL     1      10.643  32.172  57.167  1.00  0.00    -0.507 OA
ATOM     23  H   UNL     1      10.157  31.495  57.736  1.00  0.00     0.293 HD
ENDBRANCH   6  22
BRANCH   8  24
ATOM     24  O   UNL     1      14.834  31.378  59.332  1.00  0.00    -0.508 OA
ATOM     25  H   UNL     1      15.843  31.286  59.330  1.00  0.00     0.293 HD
ENDBRANCH   8  24
TORSDOF 5
ENDMDL
MODEL 9
REMARK VINA RESULT:    -5.026      3.874      7.269
REMARK INTER + INTRA:          -6.226
REMARK INTER:                  -5.917
REMARK INTRA:                  -0.308
REMARK UNBOUND:                -0.318
REMARK SMILES O=c1cc(-c2ccc(O)c(O)c2)oc2cc(O)cc(O)c12
REMARK SMILES IDX 4 1 3 2 2 3 1 4 21 5 19 6 18 7 16 8 15 9 14 10 13 11 5 12
REMARK SMILES IDX 6 13 7 14 8 15 12 16 10 17 9 18 11 20 20 22 17 24
REMARK H PARENT 9 19 11 21 20 23 17 25
REMARK Flexibility Score: inf
ROOT
ATOM      1  C   UNL     1      13.610  34.865  52.258  1.00  0.00     0.138 A 
ATOM      2  C   UNL     1      12.290  34.421  52.107  1.00  0.00     0.100 A 
ATOM      3  C   UNL     1      11.669  33.732  53.149  1.00  0.00     0.197 A 
ATOM      4  O   UNL     1      10.466  33.395  53.004  1.00  0.00    -0.289 OA
ATOM      5  C   UNL     1      12.388  33.455  54.337  1.00  0.00     0.107 A 
ATOM      6  C   UNL     1      11.870  32.731  55.453  1.00  0.00     0.134 A 
ATOM      7  C   UNL     1      12.644  32.606  56.614  1.00  0.00     0.093 A 
ATOM      8  C   UNL     1      13.936  33.125  56.679  1.00  0.00     0.123 A 
ATOM      9  C   UNL     1      14.472  33.792  55.576  1.00  0.00     0.094 A 
ATOM     10  C   UNL     1      13.713  33.965  54.416  1.00  0.00     0.146 A 
ATOM     11  O   UNL     1      14.253  34.621  53.395  1.00  0.00    -0.456 OA
ENDROOT
BRANCH   1  12
ATOM     12  C   UNL     1      14.320  35.600  51.180  1.00  0.00     0.021 A 
ATOM     13  C   UNL     1      13.577  36.319  50.229  1.00  0.00     0.016 A 
ATOM     14  C   UNL     1      14.220  37.013  49.201  1.00  0.00     0.051 A 
ATOM     15  C   UNL     1      15.613  36.991  49.097  1.00  0.00     0.157 A 
ATOM     16  C   UNL     1      15.724  35.569  51.063  1.00  0.00     0.062 A 
ATOM     17  C   UNL     1      16.370  36.264  50.030  1.00  0.00     0.158 A 
BRANCH  15  18
ATOM     18  O   UNL     1      16.226  37.694  48.060  1.00  0.00    -0.504 OA
ATOM     19  H   UNL     1      17.199  37.553  47.817  1.00  0.00     0.293 HD
ENDBRANCH  15  18
BRANCH  17  20
ATOM     20  O   UNL     1      17.759  36.230  49.925  1.00  0.00    -0.504 OA
ATOM     21  H   UNL     1      18.302  35.460  50.299  1.00  0.00     0.293 HD
ENDBRANCH  17  20
ENDBRANCH   1  12
BRANCH   6  22
ATOM     22  O   UNL     1      10.622  32.102  55.468  1.00  0.00    -0.507 OA
ATOM     23  H   UNL     1       9.966  32.095  54.701  1.00  0.00     0.293 HD
ENDBRANCH   6  22
BRANCH   8  24
ATOM     24  O   UNL     1      14.682  32.968  57.844  1.00  0.00    -0.508 OA
ATOM     25  H   UNL     1      15.689  33.087  57.849  1.00  0.00     0.293 HD
ENDBRANCH   8  24
TORSDOF 5
ENDMDL
