MODEL 1
REMARK VINA RESULT:    -4.444      0.000      0.000
REMARK INTER + INTRA:         -16.129
REMARK INTER:                 -11.719
REMARK INTRA:                  -4.410
REMARK UNBOUND:                -4.410
REMARK SMILES CCCCCCCCCCCCCCCCCCCCCCCCCCCCCC(=O)[O-]
REMARK SMILES IDX 16 1 17 2 18 3 19 4 20 5 21 6 22 7 23 8 24 9 25 10 26 11
REMARK SMILES IDX 27 12 28 13 29 14 30 15 31 16 32 17 15 18 14 19 13 20 12 21
REMARK SMILES IDX 11 22 10 23 9 24 8 25 7 26 6 27 5 28 4 29 3 30 2 31 1 32
REMARK H PARENT
REMARK Flexibility Score: inf
ROOT
ATOM      1  C   UNL     1     -27.882 -11.551  17.779  1.00  0.00     0.000 C 
ENDROOT
BRANCH   1   2
ATOM      2  C   UNL     1     -26.752 -12.046  16.853  1.00  0.00     0.000 C 
BRANCH   2   3
ATOM      3  C   UNL     1     -25.796 -13.078  17.483  1.00  0.00     0.000 C 
BRANCH   3   4
ATOM      4  C   UNL     1     -26.479 -14.357  18.009  1.00  0.00     0.000 C 
BRANCH   4   5
ATOM      5  C   UNL     1     -26.101 -15.654  17.262  1.00  0.00     0.000 C 
BRANCH   5   6
ATOM      6  C   UNL     1     -26.711 -16.941  17.846  1.00  0.00     0.000 C 
BRANCH   6   7
ATOM      7  C   UNL     1     -27.450 -17.785  16.793  1.00  0.00     0.000 C 
BRANCH   7   8
ATOM      8  C   UNL     1     -26.550 -18.190  15.612  1.00  0.00     0.000 C 
BRANCH   8   9
ATOM      9  C   UNL     1     -27.279 -19.039  14.546  1.00  0.00     0.000 C 
BRANCH   9  10
ATOM     10  C   UNL     1     -27.203 -18.402  13.146  1.00  0.00     0.000 C 
BRANCH  10  11
ATOM     11  C   UNL     1     -27.424 -19.421  12.016  1.00  0.00     0.000 C 
BRANCH  11  12
ATOM     12  C   UNL     1     -26.499 -20.642  12.128  1.00  0.00     0.000 C 
BRANCH  12  13
ATOM     13  C   UNL     1     -25.565 -20.739  10.915  1.00  0.00     0.006 C 
BRANCH  13  14
ATOM     14  C   UNL     1     -26.284 -20.302   9.632  1.00  0.00     0.053 C 
BRANCH  14  15
ATOM     15  C   UNL     1     -26.916 -21.472   8.941  1.00  0.00     0.041 C 
ATOM     16  O   UNL     1     -28.081 -21.840   9.252  1.00  0.00    -0.550 OA
ATOM     17  O   UNL     1     -26.199 -22.195   7.993  1.00  0.00    -0.550 OA
ENDBRANCH  14  15
ENDBRANCH  13  14
ENDBRANCH  12  13
ENDBRANCH  11  12
ENDBRANCH  10  11
ENDBRANCH   9  10
ENDBRANCH   8   9
ENDBRANCH   7   8
ENDBRANCH   6   7
ENDBRANCH   5   6
ENDBRANCH   4   5
ENDBRANCH   3   4
ENDBRANCH   2   3
ENDBRANCH   1   2
BRANCH   1  18
ATOM     18  C   UNL     1     -29.253 -11.383  17.098  1.00  0.00     0.000 C 
BRANCH  18  19
ATOM     19  C   UNL     1     -29.681 -12.619  16.289  1.00  0.00     0.000 C 
BRANCH  19  20
ATOM     20  C   UNL     1     -30.016 -13.792  17.219  1.00  0.00     0.000 C 
BRANCH  20  21
ATOM     21  C   UNL     1     -29.955 -15.153  16.505  1.00  0.00     0.000 C 
BRANCH  21  22
ATOM     22  C   UNL     1     -30.356 -15.090  15.013  1.00  0.00     0.000 C 
BRANCH  22  23
ATOM     23  C   UNL     1     -29.926 -16.333  14.212  1.00  0.00     0.000 C 
BRANCH  23  24
ATOM     24  C   UNL     1     -31.068 -17.349  13.987  1.00  0.00    -0.000 C 
BRANCH  24  25
ATOM     25  C   UNL     1     -30.890 -18.678  14.751  1.00  0.00    -0.000 C 
BRANCH  25  26
ATOM     26  C   UNL     1     -31.175 -18.580  16.265  1.00  0.00    -0.000 C 
BRANCH  26  27
ATOM     27  C   UNL     1     -32.681 -18.498  16.577  1.00  0.00    -0.000 C 
BRANCH  27  28
ATOM     28  C   UNL     1     -33.098 -17.116  17.120  1.00  0.00    -0.000 C 
BRANCH  28  29
ATOM     29  C   UNL     1     -34.512 -16.672  16.697  1.00  0.00    -0.000 C 
BRANCH  29  30
ATOM     30  C   UNL     1     -34.549 -15.841  15.396  1.00  0.00    -0.000 C 
BRANCH  30  31
ATOM     31  C   UNL     1     -33.688 -14.571  15.488  1.00  0.00    -0.003 C 
ATOM     32  C   UNL     1     -34.557 -13.318  15.532  1.00  0.00     0.004 C 
ENDBRANCH  30  31
ENDBRANCH  29  30
ENDBRANCH  28  29
ENDBRANCH  27  28
ENDBRANCH  26  27
ENDBRANCH  25  26
ENDBRANCH  24  25
ENDBRANCH  23  24
ENDBRANCH  22  23
ENDBRANCH  21  22
ENDBRANCH  20  21
ENDBRANCH  19  20
ENDBRANCH  18  19
ENDBRANCH   1  18
TORSDOF 28
ENDMDL
MODEL 2
REMARK VINA RESULT:    -4.428      1.754      3.455
REMARK INTER + INTRA:         -16.086
REMARK INTER:                 -12.881
REMARK INTRA:                  -3.205
REMARK UNBOUND:                -4.410
REMARK SMILES CCCCCCCCCCCCCCCCCCCCCCCCCCCCCC(=O)[O-]
REMARK SMILES IDX 16 1 17 2 18 3 19 4 20 5 21 6 22 7 23 8 24 9 25 10 26 11
REMARK SMILES IDX 27 12 28 13 29 14 30 15 31 16 32 17 15 18 14 19 13 20 12 21
REMARK SMILES IDX 11 22 10 23 9 24 8 25 7 26 6 27 5 28 4 29 3 30 2 31 1 32
REMARK H PARENT
REMARK Flexibility Score: inf
ROOT
ATOM      1  C   UNL     1     -25.650 -12.704  17.400  1.00  0.00     0.000 C 
ENDROOT
BRANCH   1   2
ATOM      2  C   UNL     1     -26.307 -13.962  18.004  1.00  0.00     0.000 C 
BRANCH   2   3
ATOM      3  C   UNL     1     -25.865 -15.296  17.371  1.00  0.00     0.000 C 
BRANCH   3   4
ATOM      4  C   UNL     1     -26.802 -16.489  17.654  1.00  0.00     0.000 C 
BRANCH   4   5
ATOM      5  C   UNL     1     -28.308 -16.156  17.631  1.00  0.00     0.000 C 
BRANCH   5   6
ATOM      6  C   UNL     1     -28.980 -16.278  16.251  1.00  0.00     0.000 C 
BRANCH   6   7
ATOM      7  C   UNL     1     -30.054 -17.378  16.203  1.00  0.00     0.000 C 
BRANCH   7   8
ATOM      8  C   UNL     1     -30.507 -17.710  14.770  1.00  0.00     0.000 C 
BRANCH   8   9
ATOM      9  C   UNL     1     -29.982 -16.714  13.712  1.00  0.00     0.000 C 
BRANCH   9  10
ATOM     10  C   UNL     1     -29.065 -17.394  12.679  1.00  0.00     0.000 C 
BRANCH  10  11
ATOM     11  C   UNL     1     -28.025 -18.322  13.328  1.00  0.00     0.000 C 
BRANCH  11  12
ATOM     12  C   UNL     1     -27.629 -19.497  12.421  1.00  0.00     0.000 C 
BRANCH  12  13
ATOM     13  C   UNL     1     -26.623 -19.054  11.351  1.00  0.00     0.006 C 
BRANCH  13  14
ATOM     14  C   UNL     1     -27.128 -19.402   9.944  1.00  0.00     0.053 C 
BRANCH  14  15
ATOM     15  C   UNL     1     -26.573 -20.715   9.480  1.00  0.00     0.041 C 
ATOM     16  O   UNL     1     -27.276 -21.486   8.772  1.00  0.00    -0.550 OA
ATOM     17  O   UNL     1     -25.302 -21.116   9.878  1.00  0.00    -0.550 OA
ENDBRANCH  14  15
ENDBRANCH  13  14
ENDBRANCH  12  13
ENDBRANCH  11  12
ENDBRANCH  10  11
ENDBRANCH   9  10
ENDBRANCH   8   9
ENDBRANCH   7   8
ENDBRANCH   6   7
ENDBRANCH   5   6
ENDBRANCH   4   5
ENDBRANCH   3   4
ENDBRANCH   2   3
ENDBRANCH   1   2
BRANCH   1  18
ATOM     18  C   UNL     1     -26.632 -11.683  16.796  1.00  0.00     0.000 C 
BRANCH  18  19
ATOM     19  C   UNL     1     -27.760 -11.286  17.763  1.00  0.00     0.000 C 
BRANCH  19  20
ATOM     20  C   UNL     1     -29.091 -11.128  17.016  1.00  0.00     0.000 C 
BRANCH  20  21
ATOM     21  C   UNL     1     -29.700 -12.477  16.597  1.00  0.00     0.000 C 
BRANCH  21  22
ATOM     22  C   UNL     1     -30.289 -13.286  17.776  1.00  0.00     0.000 C 
BRANCH  22  23
ATOM     23  C   UNL     1     -31.764 -13.676  17.572  1.00  0.00     0.000 C 
BRANCH  23  24
ATOM     24  C   UNL     1     -32.112 -14.038  16.111  1.00  0.00    -0.000 C 
BRANCH  24  25
ATOM     25  C   UNL     1     -33.076 -15.234  15.969  1.00  0.00    -0.000 C 
BRANCH  25  26
ATOM     26  C   UNL     1     -34.509 -14.844  15.548  1.00  0.00    -0.000 C 
BRANCH  26  27
ATOM     27  C   UNL     1     -34.677 -13.324  15.367  1.00  0.00    -0.000 C 
BRANCH  27  28
ATOM     28  C   UNL     1     -35.658 -12.712  16.387  1.00  0.00    -0.000 C 
BRANCH  28  29
ATOM     29  C   UNL     1     -36.858 -11.981  15.751  1.00  0.00    -0.000 C 
BRANCH  29  30
ATOM     30  C   UNL     1     -37.315 -12.577  14.403  1.00  0.00    -0.000 C 
BRANCH  30  31
ATOM     31  C   UNL     1     -37.489 -11.504  13.317  1.00  0.00    -0.003 C 
ATOM     32  C   UNL     1     -38.523 -11.930  12.280  1.00  0.00     0.004 C 
ENDBRANCH  30  31
ENDBRANCH  29  30
ENDBRANCH  28  29
ENDBRANCH  27  28
ENDBRANCH  26  27
ENDBRANCH  25  26
ENDBRANCH  24  25
ENDBRANCH  23  24
ENDBRANCH  22  23
ENDBRANCH  21  22
ENDBRANCH  20  21
ENDBRANCH  19  20
ENDBRANCH  18  19
ENDBRANCH   1  18
TORSDOF 28
ENDMDL
MODEL 3
REMARK VINA RESULT:    -4.351      2.731      5.064
REMARK INTER + INTRA:         -15.882
REMARK INTER:                 -11.661
REMARK INTRA:                  -4.221
REMARK UNBOUND:                -4.410
REMARK SMILES CCCCCCCCCCCCCCCCCCCCCCCCCCCCCC(=O)[O-]
REMARK SMILES IDX 16 1 17 2 18 3 19 4 20 5 21 6 22 7 23 8 24 9 25 10 26 11
REMARK SMILES IDX 27 12 28 13 29 14 30 15 31 16 32 17 15 18 14 19 13 20 12 21
REMARK SMILES IDX 11 22 10 23 9 24 8 25 7 26 6 27 5 28 4 29 3 30 2 31 1 32
REMARK H PARENT
REMARK Flexibility Score: inf
ROOT
ATOM      1  C   UNL     1     -25.711 -12.627  17.146  1.00  0.00     0.000 C 
ENDROOT
BRANCH   1   2
ATOM      2  C   UNL     1     -26.262 -13.817  17.957  1.00  0.00     0.000 C 
BRANCH   2   3
ATOM      3  C   UNL     1     -25.917 -15.209  17.392  1.00  0.00     0.000 C 
BRANCH   3   4
ATOM      4  C   UNL     1     -26.941 -16.314  17.720  1.00  0.00     0.000 C 
BRANCH   4   5
ATOM      5  C   UNL     1     -27.984 -16.587  16.616  1.00  0.00     0.000 C 
BRANCH   5   6
ATOM      6  C   UNL     1     -28.810 -17.872  16.806  1.00  0.00     0.000 C 
BRANCH   6   7
ATOM      7  C   UNL     1     -27.976 -19.153  16.627  1.00  0.00     0.000 C 
BRANCH   7   8
ATOM      8  C   UNL     1     -28.827 -20.369  16.220  1.00  0.00     0.000 C 
BRANCH   8   9
ATOM      9  C   UNL     1     -30.238 -19.991  15.715  1.00  0.00     0.000 C 
BRANCH   9  10
ATOM     10  C   UNL     1     -31.331 -20.316  16.750  1.00  0.00     0.000 C 
BRANCH  10  11
ATOM     11  C   UNL     1     -31.551 -21.827  16.928  1.00  0.00     0.000 C 
BRANCH  11  12
ATOM     12  C   UNL     1     -31.401 -22.608  15.614  1.00  0.00     0.000 C 
BRANCH  12  13
ATOM     13  C   UNL     1     -31.602 -24.112  15.840  1.00  0.00     0.006 C 
BRANCH  13  14
ATOM     14  C   UNL     1     -30.269 -24.866  15.747  1.00  0.00     0.053 C 
BRANCH  14  15
ATOM     15  C   UNL     1     -29.600 -24.620  14.429  1.00  0.00     0.041 C 
ATOM     16  O   UNL     1     -30.093 -25.092  13.369  1.00  0.00    -0.550 OA
ATOM     17  O   UNL     1     -28.399 -23.921  14.374  1.00  0.00    -0.550 OA
ENDBRANCH  14  15
ENDBRANCH  13  14
ENDBRANCH  12  13
ENDBRANCH  11  12
ENDBRANCH  10  11
ENDBRANCH   9  10
ENDBRANCH   8   9
ENDBRANCH   7   8
ENDBRANCH   6   7
ENDBRANCH   5   6
ENDBRANCH   4   5
ENDBRANCH   3   4
ENDBRANCH   2   3
ENDBRANCH   1   2
BRANCH   1  18
ATOM     18  C   UNL     1     -26.745 -11.537  16.805  1.00  0.00     0.000 C 
BRANCH  18  19
ATOM     19  C   UNL     1     -27.919 -11.487  17.796  1.00  0.00     0.000 C 
BRANCH  19  20
ATOM     20  C   UNL     1     -29.262 -11.548  17.056  1.00  0.00     0.000 C 
BRANCH  20  21
ATOM     21  C   UNL     1     -29.573 -12.949  16.503  1.00  0.00     0.000 C 
BRANCH  21  22
ATOM     22  C   UNL     1     -30.182 -13.909  17.550  1.00  0.00     0.000 C 
BRANCH  22  23
ATOM     23  C   UNL     1     -31.673 -13.644  17.827  1.00  0.00     0.000 C 
BRANCH  23  24
ATOM     24  C   UNL     1     -32.617 -14.676  17.170  1.00  0.00    -0.000 C 
BRANCH  24  25
ATOM     25  C   UNL     1     -31.946 -16.027  16.844  1.00  0.00    -0.000 C 
BRANCH  25  26
ATOM     26  C   UNL     1     -32.154 -16.502  15.391  1.00  0.00    -0.000 C 
BRANCH  26  27
ATOM     27  C   UNL     1     -31.007 -16.066  14.459  1.00  0.00    -0.000 C 
BRANCH  27  28
ATOM     28  C   UNL     1     -30.490 -17.222  13.579  1.00  0.00    -0.000 C 
BRANCH  28  29
ATOM     29  C   UNL     1     -29.088 -16.984  12.983  1.00  0.00    -0.000 C 
BRANCH  29  30
ATOM     30  C   UNL     1     -28.199 -18.246  12.942  1.00  0.00    -0.000 C 
BRANCH  30  31
ATOM     31  C   UNL     1     -27.822 -18.651  11.509  1.00  0.00    -0.003 C 
ATOM     32  C   UNL     1     -28.128 -17.530  10.521  1.00  0.00     0.004 C 
ENDBRANCH  30  31
ENDBRANCH  29  30
ENDBRANCH  28  29
ENDBRANCH  27  28
ENDBRANCH  26  27
ENDBRANCH  25  26
ENDBRANCH  24  25
ENDBRANCH  23  24
ENDBRANCH  22  23
ENDBRANCH  21  22
ENDBRANCH  20  21
ENDBRANCH  19  20
ENDBRANCH  18  19
ENDBRANCH   1  18
TORSDOF 28
ENDMDL
MODEL 4
REMARK VINA RESULT:    -4.330      4.078      8.836
REMARK INTER + INTRA:         -15.827
REMARK INTER:                 -11.560
REMARK INTRA:                  -4.268
REMARK UNBOUND:                -4.410
REMARK SMILES CCCCCCCCCCCCCCCCCCCCCCCCCCCCCC(=O)[O-]
REMARK SMILES IDX 16 1 17 2 18 3 19 4 20 5 21 6 22 7 23 8 24 9 25 10 26 11
REMARK SMILES IDX 27 12 28 13 29 14 30 15 31 16 32 17 15 18 14 19 13 20 12 21
REMARK SMILES IDX 11 22 10 23 9 24 8 25 7 26 6 27 5 28 4 29 3 30 2 31 1 32
REMARK H PARENT
REMARK Flexibility Score: inf
ROOT
ATOM      1  C   UNL     1     -30.296 -14.358  17.326  1.00  0.00     0.000 C 
ENDROOT
BRANCH   1   2
ATOM      2  C   UNL     1     -30.062 -14.621  15.825  1.00  0.00     0.000 C 
BRANCH   2   3
ATOM      3  C   UNL     1     -31.278 -15.183  15.063  1.00  0.00     0.000 C 
BRANCH   3   4
ATOM      4  C   UNL     1     -32.075 -16.264  15.821  1.00  0.00     0.000 C 
BRANCH   4   5
ATOM      5  C   UNL     1     -33.605 -16.204  15.628  1.00  0.00     0.000 C 
BRANCH   5   6
ATOM      6  C   UNL     1     -34.408 -15.884  16.902  1.00  0.00     0.000 C 
BRANCH   6   7
ATOM      7  C   UNL     1     -33.949 -14.587  17.590  1.00  0.00     0.000 C 
BRANCH   7   8
ATOM      8  C   UNL     1     -34.878 -13.395  17.300  1.00  0.00     0.000 C 
BRANCH   8   9
ATOM      9  C   UNL     1     -34.830 -12.921  15.830  1.00  0.00     0.000 C 
BRANCH   9  10
ATOM     10  C   UNL     1     -36.231 -12.857  15.195  1.00  0.00     0.000 C 
BRANCH  10  11
ATOM     11  C   UNL     1     -37.359 -13.047  16.223  1.00  0.00     0.000 C 
BRANCH  11  12
ATOM     12  C   UNL     1     -38.193 -14.310  15.964  1.00  0.00     0.000 C 
BRANCH  12  13
ATOM     13  C   UNL     1     -38.142 -14.711  14.485  1.00  0.00     0.006 C 
BRANCH  13  14
ATOM     14  C   UNL     1     -39.360 -14.169  13.725  1.00  0.00     0.053 C 
BRANCH  14  15
ATOM     15  C   UNL     1     -38.940 -13.326  12.560  1.00  0.00     0.041 C 
ATOM     16  O   UNL     1     -38.469 -12.171  12.748  1.00  0.00    -0.550 OA
ATOM     17  O   UNL     1     -39.121 -13.789  11.261  1.00  0.00    -0.550 OA
ENDBRANCH  14  15
ENDBRANCH  13  14
ENDBRANCH  12  13
ENDBRANCH  11  12
ENDBRANCH  10  11
ENDBRANCH   9  10
ENDBRANCH   8   9
ENDBRANCH   7   8
ENDBRANCH   6   7
ENDBRANCH   5   6
ENDBRANCH   4   5
ENDBRANCH   3   4
ENDBRANCH   2   3
ENDBRANCH   1   2
BRANCH   1  18
ATOM     18  C   UNL     1     -30.497 -12.879  17.704  1.00  0.00     0.000 C 
BRANCH  18  19
ATOM     19  C   UNL     1     -29.628 -11.920  16.873  1.00  0.00     0.000 C 
BRANCH  19  20
ATOM     20  C   UNL     1     -28.356 -11.531  17.639  1.00  0.00     0.000 C 
BRANCH  20  21
ATOM     21  C   UNL     1     -27.074 -11.775  16.824  1.00  0.00     0.000 C 
BRANCH  21  22
ATOM     22  C   UNL     1     -26.070 -12.726  17.515  1.00  0.00     0.000 C 
BRANCH  22  23
ATOM     23  C   UNL     1     -26.719 -14.018  18.045  1.00  0.00     0.000 C 
BRANCH  23  24
ATOM     24  C   UNL     1     -26.100 -15.306  17.459  1.00  0.00    -0.000 C 
BRANCH  24  25
ATOM     25  C   UNL     1     -27.136 -16.358  17.012  1.00  0.00    -0.000 C 
BRANCH  25  26
ATOM     26  C   UNL     1     -26.685 -17.818  17.219  1.00  0.00    -0.000 C 
BRANCH  26  27
ATOM     27  C   UNL     1     -27.792 -18.833  16.873  1.00  0.00    -0.000 C 
BRANCH  27  28
ATOM     28  C   UNL     1     -28.994 -18.176  16.165  1.00  0.00    -0.000 C 
BRANCH  28  29
ATOM     29  C   UNL     1     -29.355 -18.815  14.809  1.00  0.00    -0.000 C 
BRANCH  29  30
ATOM     30  C   UNL     1     -29.332 -17.829  13.622  1.00  0.00    -0.000 C 
BRANCH  30  31
ATOM     31  C   UNL     1     -28.178 -18.112  12.647  1.00  0.00    -0.003 C 
ATOM     32  C   UNL     1     -27.505 -19.444  12.963  1.00  0.00     0.004 C 
ENDBRANCH  30  31
ENDBRANCH  29  30
ENDBRANCH  28  29
ENDBRANCH  27  28
ENDBRANCH  26  27
ENDBRANCH  25  26
ENDBRANCH  24  25
ENDBRANCH  23  24
ENDBRANCH  22  23
ENDBRANCH  21  22
ENDBRANCH  20  21
ENDBRANCH  19  20
ENDBRANCH  18  19
ENDBRANCH   1  18
TORSDOF 28
ENDMDL
MODEL 5
REMARK VINA RESULT:    -4.294      3.314      7.605
REMARK INTER + INTRA:         -15.734
REMARK INTER:                 -11.575
REMARK INTRA:                  -4.159
REMARK UNBOUND:                -4.410
REMARK SMILES CCCCCCCCCCCCCCCCCCCCCCCCCCCCCC(=O)[O-]
REMARK SMILES IDX 16 1 17 2 18 3 19 4 20 5 21 6 22 7 23 8 24 9 25 10 26 11
REMARK SMILES IDX 27 12 28 13 29 14 30 15 31 16 32 17 15 18 14 19 13 20 12 21
REMARK SMILES IDX 11 22 10 23 9 24 8 25 7 26 6 27 5 28 4 29 3 30 2 31 1 32
REMARK H PARENT
REMARK Flexibility Score: inf
ROOT
ATOM      1  C   UNL     1     -28.664 -17.208  16.574  1.00  0.00     0.000 C 
ENDROOT
BRANCH   1   2
ATOM      2  C   UNL     1     -27.209 -16.839  16.930  1.00  0.00     0.000 C 
BRANCH   2   3
ATOM      3  C   UNL     1     -27.042 -15.524  17.716  1.00  0.00     0.000 C 
BRANCH   3   4
ATOM      4  C   UNL     1     -25.788 -14.705  17.350  1.00  0.00     0.000 C 
BRANCH   4   5
ATOM      5  C   UNL     1     -25.625 -13.379  18.123  1.00  0.00     0.000 C 
BRANCH   5   6
ATOM      6  C   UNL     1     -25.273 -12.158  17.253  1.00  0.00     0.000 C 
BRANCH   6   7
ATOM      7  C   UNL     1     -26.498 -11.556  16.544  1.00  0.00     0.000 C 
BRANCH   7   8
ATOM      8  C   UNL     1     -27.453 -10.832  17.509  1.00  0.00     0.000 C 
BRANCH   8   9
ATOM      9  C   UNL     1     -28.893 -11.391  17.486  1.00  0.00     0.000 C 
BRANCH   9  10
ATOM     10  C   UNL     1     -29.146 -12.292  16.264  1.00  0.00     0.000 C 
BRANCH  10  11
ATOM     11  C   UNL     1     -29.937 -13.563  16.616  1.00  0.00     0.000 C 
BRANCH  11  12
ATOM     12  C   UNL     1     -30.993 -13.323  17.705  1.00  0.00     0.000 C 
BRANCH  12  13
ATOM     13  C   UNL     1     -32.070 -14.414  17.679  1.00  0.00     0.006 C 
BRANCH  13  14
ATOM     14  C   UNL     1     -33.447 -13.819  17.356  1.00  0.00     0.053 C 
BRANCH  14  15
ATOM     15  C   UNL     1     -33.805 -14.033  15.916  1.00  0.00     0.041 C 
ATOM     16  O   UNL     1     -32.975 -14.562  15.128  1.00  0.00    -0.550 OA
ATOM     17  O   UNL     1     -35.032 -13.596  15.429  1.00  0.00    -0.550 OA
ENDBRANCH  14  15
ENDBRANCH  13  14
ENDBRANCH  12  13
ENDBRANCH  11  12
ENDBRANCH  10  11
ENDBRANCH   9  10
ENDBRANCH   8   9
ENDBRANCH   7   8
ENDBRANCH   6   7
ENDBRANCH   5   6
ENDBRANCH   4   5
ENDBRANCH   3   4
ENDBRANCH   2   3
ENDBRANCH   1   2
BRANCH   1  18
ATOM     18  C   UNL     1     -29.067 -16.926  15.114  1.00  0.00     0.000 C 
BRANCH  18  19
ATOM     19  C   UNL     1     -30.508 -17.354  14.793  1.00  0.00     0.000 C 
BRANCH  19  20
ATOM     20  C   UNL     1     -31.196 -17.935  16.035  1.00  0.00     0.000 C 
BRANCH  20  21
ATOM     21  C   UNL     1     -32.278 -18.971  15.686  1.00  0.00     0.000 C 
BRANCH  21  22
ATOM     22  C   UNL     1     -31.758 -20.427  15.664  1.00  0.00     0.000 C 
BRANCH  22  23
ATOM     23  C   UNL     1     -30.393 -20.598  16.354  1.00  0.00     0.000 C 
BRANCH  23  24
ATOM     24  C   UNL     1     -29.953 -22.073  16.499  1.00  0.00    -0.000 C 
BRANCH  24  25
ATOM     25  C   UNL     1     -28.668 -22.427  15.722  1.00  0.00    -0.000 C 
BRANCH  25  26
ATOM     26  C   UNL     1     -27.508 -21.432  15.930  1.00  0.00    -0.000 C 
BRANCH  26  27
ATOM     27  C   UNL     1     -26.813 -21.052  14.609  1.00  0.00    -0.000 C 
BRANCH  27  28
ATOM     28  C   UNL     1     -26.112 -19.680  14.683  1.00  0.00    -0.000 C 
BRANCH  28  29
ATOM     29  C   UNL     1     -26.305 -18.803  13.430  1.00  0.00    -0.000 C 
BRANCH  29  30
ATOM     30  C   UNL     1     -27.664 -19.002  12.725  1.00  0.00    -0.000 C 
BRANCH  30  31
ATOM     31  C   UNL     1     -27.681 -18.407  11.309  1.00  0.00    -0.003 C 
ATOM     32  C   UNL     1     -28.504 -17.124  11.260  1.00  0.00     0.004 C 
ENDBRANCH  30  31
ENDBRANCH  29  30
ENDBRANCH  28  29
ENDBRANCH  27  28
ENDBRANCH  26  27
ENDBRANCH  25  26
ENDBRANCH  24  25
ENDBRANCH  23  24
ENDBRANCH  22  23
ENDBRANCH  21  22
ENDBRANCH  20  21
ENDBRANCH  19  20
ENDBRANCH  18  19
ENDBRANCH   1  18
TORSDOF 28
ENDMDL
MODEL 6
REMARK VINA RESULT:    -4.215      2.309      5.200
REMARK INTER + INTRA:         -15.525
REMARK INTER:                 -11.988
REMARK INTRA:                  -3.537
REMARK UNBOUND:                -4.410
REMARK SMILES CCCCCCCCCCCCCCCCCCCCCCCCCCCCCC(=O)[O-]
REMARK SMILES IDX 16 1 17 2 18 3 19 4 20 5 21 6 22 7 23 8 24 9 25 10 26 11
REMARK SMILES IDX 27 12 28 13 29 14 30 15 31 16 32 17 15 18 14 19 13 20 12 21
REMARK SMILES IDX 11 22 10 23 9 24 8 25 7 26 6 27 5 28 4 29 3 30 2 31 1 32
REMARK H PARENT
REMARK Flexibility Score: inf
ROOT
ATOM      1  C   UNL     1     -30.419 -14.924  17.046  1.00  0.00     0.000 C 
ENDROOT
BRANCH   1   2
ATOM      2  C   UNL     1     -30.685 -13.412  17.194  1.00  0.00     0.000 C 
BRANCH   2   3
ATOM      3  C   UNL     1     -29.661 -12.497  16.494  1.00  0.00     0.000 C 
BRANCH   3   4
ATOM      4  C   UNL     1     -29.278 -11.229  17.283  1.00  0.00     0.000 C 
BRANCH   4   5
ATOM      5  C   UNL     1     -27.821 -11.192  17.793  1.00  0.00     0.000 C 
BRANCH   5   6
ATOM      6  C   UNL     1     -26.747 -11.336  16.700  1.00  0.00     0.000 C 
BRANCH   6   7
ATOM      7  C   UNL     1     -25.620 -12.308  17.092  1.00  0.00     0.000 C 
BRANCH   7   8
ATOM      8  C   UNL     1     -26.113 -13.470  17.973  1.00  0.00     0.000 C 
BRANCH   8   9
ATOM      9  C   UNL     1     -25.856 -14.862  17.355  1.00  0.00     0.000 C 
BRANCH   9  10
ATOM     10  C   UNL     1     -26.603 -15.978  18.109  1.00  0.00     0.000 C 
BRANCH  10  11
ATOM     11  C   UNL     1     -26.966 -17.166  17.203  1.00  0.00     0.000 C 
BRANCH  11  12
ATOM     12  C   UNL     1     -25.730 -17.872  16.625  1.00  0.00     0.000 C 
BRANCH  12  13
ATOM     13  C   UNL     1     -26.136 -19.002  15.671  1.00  0.00     0.006 C 
BRANCH  13  14
ATOM     14  C   UNL     1     -27.424 -18.648  14.916  1.00  0.00     0.053 C 
BRANCH  14  15
ATOM     15  C   UNL     1     -27.224 -18.739  13.433  1.00  0.00     0.041 C 
ATOM     16  O   UNL     1     -28.175 -19.093  12.684  1.00  0.00    -0.550 OA
ATOM     17  O   UNL     1     -25.972 -18.491  12.881  1.00  0.00    -0.550 OA
ENDBRANCH  14  15
ENDBRANCH  13  14
ENDBRANCH  12  13
ENDBRANCH  11  12
ENDBRANCH  10  11
ENDBRANCH   9  10
ENDBRANCH   8   9
ENDBRANCH   7   8
ENDBRANCH   6   7
ENDBRANCH   5   6
ENDBRANCH   4   5
ENDBRANCH   3   4
ENDBRANCH   2   3
ENDBRANCH   1   2
BRANCH   1  18
ATOM     18  C   UNL     1     -29.613 -15.324  15.796  1.00  0.00     0.000 C 
BRANCH  18  19
ATOM     19  C   UNL     1     -30.481 -15.448  14.533  1.00  0.00     0.000 C 
BRANCH  19  20
ATOM     20  C   UNL     1     -30.558 -16.908  14.064  1.00  0.00     0.000 C 
BRANCH  20  21
ATOM     21  C   UNL     1     -31.489 -17.765  14.939  1.00  0.00     0.000 C 
BRANCH  21  22
ATOM     22  C   UNL     1     -32.984 -17.393  14.804  1.00  0.00     0.000 C 
BRANCH  22  23
ATOM     23  C   UNL     1     -33.517 -16.568  15.990  1.00  0.00     0.000 C 
BRANCH  23  24
ATOM     24  C   UNL     1     -34.508 -15.458  15.576  1.00  0.00    -0.000 C 
BRANCH  24  25
ATOM     25  C   UNL     1     -33.868 -14.061  15.430  1.00  0.00    -0.000 C 
BRANCH  25  26
ATOM     26  C   UNL     1     -34.863 -12.892  15.580  1.00  0.00    -0.000 C 
BRANCH  26  27
ATOM     27  C   UNL     1     -36.321 -13.322  15.333  1.00  0.00    -0.000 C 
BRANCH  27  28
ATOM     28  C   UNL     1     -37.338 -12.278  15.838  1.00  0.00    -0.000 C 
BRANCH  28  29
ATOM     29  C   UNL     1     -38.625 -12.189  14.993  1.00  0.00    -0.000 C 
BRANCH  29  30
ATOM     30  C   UNL     1     -38.813 -10.836  14.274  1.00  0.00    -0.000 C 
BRANCH  30  31
ATOM     31  C   UNL     1     -37.708 -10.563  13.240  1.00  0.00    -0.003 C 
ATOM     32  C   UNL     1     -37.799 -11.534  12.068  1.00  0.00     0.004 C 
ENDBRANCH  30  31
ENDBRANCH  29  30
ENDBRANCH  28  29
ENDBRANCH  27  28
ENDBRANCH  26  27
ENDBRANCH  25  26
ENDBRANCH  24  25
ENDBRANCH  23  24
ENDBRANCH  22  23
ENDBRANCH  21  22
ENDBRANCH  20  21
ENDBRANCH  19  20
ENDBRANCH  18  19
ENDBRANCH   1  18
TORSDOF 28
ENDMDL
MODEL 7
REMARK VINA RESULT:    -4.214      2.103      5.682
REMARK INTER + INTRA:         -15.521
REMARK INTER:                 -11.396
REMARK INTRA:                  -4.125
REMARK UNBOUND:                -4.410
REMARK SMILES CCCCCCCCCCCCCCCCCCCCCCCCCCCCCC(=O)[O-]
REMARK SMILES IDX 16 1 17 2 18 3 19 4 20 5 21 6 22 7 23 8 24 9 25 10 26 11
REMARK SMILES IDX 27 12 28 13 29 14 30 15 31 16 32 17 15 18 14 19 13 20 12 21
REMARK SMILES IDX 11 22 10 23 9 24 8 25 7 26 6 27 5 28 4 29 3 30 2 31 1 32
REMARK H PARENT
REMARK Flexibility Score: inf
ROOT
ATOM      1  C   UNL     1     -30.734 -17.061  16.495  1.00  0.00     0.000 C 
ENDROOT
BRANCH   1   2
ATOM      2  C   UNL     1     -31.499 -16.835  15.175  1.00  0.00     0.000 C 
BRANCH   2   3
ATOM      3  C   UNL     1     -30.828 -17.431  13.922  1.00  0.00     0.000 C 
BRANCH   3   4
ATOM      4  C   UNL     1     -29.446 -16.837  13.583  1.00  0.00     0.000 C 
BRANCH   4   5
ATOM      5  C   UNL     1     -28.693 -17.548  12.439  1.00  0.00     0.000 C 
BRANCH   5   6
ATOM      6  C   UNL     1     -27.923 -18.815  12.856  1.00  0.00     0.000 C 
BRANCH   6   7
ATOM      7  C   UNL     1     -26.413 -18.717  12.578  1.00  0.00     0.000 C 
BRANCH   7   8
ATOM      8  C   UNL     1     -25.835 -20.000  11.957  1.00  0.00     0.000 C 
BRANCH   8   9
ATOM      9  C   UNL     1     -26.640 -21.271  12.309  1.00  0.00     0.000 C 
BRANCH   9  10
ATOM     10  C   UNL     1     -26.787 -22.217  11.103  1.00  0.00     0.000 C 
BRANCH  10  11
ATOM     11  C   UNL     1     -27.849 -21.739  10.100  1.00  0.00     0.000 C 
BRANCH  11  12
ATOM     12  C   UNL     1     -27.660 -22.345   8.701  1.00  0.00     0.000 C 
BRANCH  12  13
ATOM     13  C   UNL     1     -28.993 -22.411   7.944  1.00  0.00     0.006 C 
BRANCH  13  14
ATOM     14  C   UNL     1     -30.057 -23.149   8.767  1.00  0.00     0.053 C 
BRANCH  14  15
ATOM     15  C   UNL     1     -30.680 -24.258   7.974  1.00  0.00     0.041 C 
ATOM     16  O   UNL     1     -31.538 -24.000   7.087  1.00  0.00    -0.550 OA
ATOM     17  O   UNL     1     -30.360 -25.582   8.254  1.00  0.00    -0.550 OA
ENDBRANCH  14  15
ENDBRANCH  13  14
ENDBRANCH  12  13
ENDBRANCH  11  12
ENDBRANCH  10  11
ENDBRANCH   9  10
ENDBRANCH   8   9
ENDBRANCH   7   8
ENDBRANCH   6   7
ENDBRANCH   5   6
ENDBRANCH   4   5
ENDBRANCH   3   4
ENDBRANCH   2   3
ENDBRANCH   1   2
BRANCH   1  18
ATOM     18  C   UNL     1     -30.504 -15.792  17.338  1.00  0.00     0.000 C 
BRANCH  18  19
ATOM     19  C   UNL     1     -30.044 -14.586  16.502  1.00  0.00     0.000 C 
BRANCH  19  20
ATOM     20  C   UNL     1     -30.265 -13.275  17.267  1.00  0.00     0.000 C 
BRANCH  20  21
ATOM     21  C   UNL     1     -29.525 -12.085  16.632  1.00  0.00     0.000 C 
BRANCH  21  22
ATOM     22  C   UNL     1     -28.329 -11.578  17.470  1.00  0.00     0.000 C 
BRANCH  22  23
ATOM     23  C   UNL     1     -26.982 -11.676  16.731  1.00  0.00     0.000 C 
BRANCH  23  24
ATOM     24  C   UNL     1     -25.981 -12.647  17.396  1.00  0.00    -0.000 C 
BRANCH  24  25
ATOM     25  C   UNL     1     -26.634 -13.901  18.014  1.00  0.00    -0.000 C 
BRANCH  25  26
ATOM     26  C   UNL     1     -25.935 -15.225  17.645  1.00  0.00    -0.000 C 
BRANCH  26  27
ATOM     27  C   UNL     1     -26.909 -16.418  17.615  1.00  0.00    -0.000 C 
BRANCH  27  28
ATOM     28  C   UNL     1     -26.899 -17.155  16.260  1.00  0.00    -0.000 C 
BRANCH  28  29
ATOM     29  C   UNL     1     -26.809 -18.689  16.375  1.00  0.00    -0.000 C 
BRANCH  29  30
ATOM     30  C   UNL     1     -28.117 -19.363  16.843  1.00  0.00    -0.000 C 
BRANCH  30  31
ATOM     31  C   UNL     1     -28.538 -20.523  15.928  1.00  0.00    -0.003 C 
ATOM     32  C   UNL     1     -30.056 -20.609  15.809  1.00  0.00     0.004 C 
ENDBRANCH  30  31
ENDBRANCH  29  30
ENDBRANCH  28  29
ENDBRANCH  27  28
ENDBRANCH  26  27
ENDBRANCH  25  26
ENDBRANCH  24  25
ENDBRANCH  23  24
ENDBRANCH  22  23
ENDBRANCH  21  22
ENDBRANCH  20  21
ENDBRANCH  19  20
ENDBRANCH  18  19
ENDBRANCH   1  18
TORSDOF 28
ENDMDL
MODEL 8
REMARK VINA RESULT:    -4.115      2.310      6.244
REMARK INTER + INTRA:         -15.261
REMARK INTER:                 -10.723
REMARK INTRA:                  -4.538
REMARK UNBOUND:                -4.410
REMARK SMILES CCCCCCCCCCCCCCCCCCCCCCCCCCCCCC(=O)[O-]
REMARK SMILES IDX 16 1 17 2 18 3 19 4 20 5 21 6 22 7 23 8 24 9 25 10 26 11
REMARK SMILES IDX 27 12 28 13 29 14 30 15 31 16 32 17 15 18 14 19 13 20 12 21
REMARK SMILES IDX 11 22 10 23 9 24 8 25 7 26 6 27 5 28 4 29 3 30 2 31 1 32
REMARK H PARENT
REMARK Flexibility Score: inf
ROOT
ATOM      1  C   UNL     1     -32.574 -17.017  14.952  1.00  0.00     0.000 C 
ENDROOT
BRANCH   1   2
ATOM      2  C   UNL     1     -31.549 -17.851  14.154  1.00  0.00     0.000 C 
BRANCH   2   3
ATOM      3  C   UNL     1     -30.371 -17.049  13.566  1.00  0.00     0.000 C 
BRANCH   3   4
ATOM      4  C   UNL     1     -28.984 -17.435  14.119  1.00  0.00     0.000 C 
BRANCH   4   5
ATOM      5  C   UNL     1     -28.713 -18.952  14.201  1.00  0.00     0.000 C 
BRANCH   5   6
ATOM      6  C   UNL     1     -27.351 -19.400  13.639  1.00  0.00     0.000 C 
BRANCH   6   7
ATOM      7  C   UNL     1     -26.858 -18.510  12.484  1.00  0.00     0.000 C 
BRANCH   7   8
ATOM      8  C   UNL     1     -27.609 -18.770  11.166  1.00  0.00     0.000 C 
BRANCH   8   9
ATOM      9  C   UNL     1     -26.787 -19.581  10.140  1.00  0.00     0.000 C 
BRANCH   9  10
ATOM     10  C   UNL     1     -27.127 -21.082  10.181  1.00  0.00     0.000 C 
BRANCH  10  11
ATOM     11  C   UNL     1     -26.037 -21.920  10.870  1.00  0.00     0.000 C 
BRANCH  11  12
ATOM     12  C   UNL     1     -26.597 -23.177  11.553  1.00  0.00     0.000 C 
BRANCH  12  13
ATOM     13  C   UNL     1     -26.964 -22.893  13.015  1.00  0.00     0.006 C 
BRANCH  13  14
ATOM     14  C   UNL     1     -26.740 -24.135  13.889  1.00  0.00     0.053 C 
BRANCH  14  15
ATOM     15  C   UNL     1     -25.278 -24.387  14.104  1.00  0.00     0.041 C 
ATOM     16  O   UNL     1     -24.761 -25.476  13.735  1.00  0.00    -0.550 OA
ATOM     17  O   UNL     1     -24.496 -23.447  14.766  1.00  0.00    -0.550 OA
ENDBRANCH  14  15
ENDBRANCH  13  14
ENDBRANCH  12  13
ENDBRANCH  11  12
ENDBRANCH  10  11
ENDBRANCH   9  10
ENDBRANCH   8   9
ENDBRANCH   7   8
ENDBRANCH   6   7
ENDBRANCH   5   6
ENDBRANCH   4   5
ENDBRANCH   3   4
ENDBRANCH   2   3
ENDBRANCH   1   2
BRANCH   1  18
ATOM     18  C   UNL     1     -32.536 -17.227  16.477  1.00  0.00     0.000 C 
BRANCH  18  19
ATOM     19  C   UNL     1     -31.434 -18.201  16.926  1.00  0.00     0.000 C 
BRANCH  19  20
ATOM     20  C   UNL     1     -30.251 -17.442  17.541  1.00  0.00     0.000 C 
BRANCH  20  21
ATOM     21  C   UNL     1     -30.540 -15.943  17.730  1.00  0.00     0.000 C 
BRANCH  21  22
ATOM     22  C   UNL     1     -29.577 -15.021  16.948  1.00  0.00     0.000 C 
BRANCH  22  23
ATOM     23  C   UNL     1     -30.300 -13.910  16.163  1.00  0.00     0.000 C 
BRANCH  23  24
ATOM     24  C   UNL     1     -29.568 -12.550  16.200  1.00  0.00    -0.000 C 
BRANCH  24  25
ATOM     25  C   UNL     1     -28.614 -12.379  17.401  1.00  0.00    -0.000 C 
BRANCH  25  26
ATOM     26  C   UNL     1     -27.359 -11.534  17.097  1.00  0.00    -0.000 C 
BRANCH  26  27
ATOM     27  C   UNL     1     -26.053 -12.328  17.285  1.00  0.00    -0.000 C 
BRANCH  27  28
ATOM     28  C   UNL     1     -26.261 -13.623  18.096  1.00  0.00    -0.000 C 
BRANCH  28  29
ATOM     29  C   UNL     1     -25.854 -14.909  17.350  1.00  0.00    -0.000 C 
BRANCH  29  30
ATOM     30  C   UNL     1     -26.334 -16.210  18.029  1.00  0.00    -0.000 C 
BRANCH  30  31
ATOM     31  C   UNL     1     -26.575 -17.343  17.019  1.00  0.00    -0.003 C 
ATOM     32  C   UNL     1     -25.267 -17.803  16.384  1.00  0.00     0.004 C 
ENDBRANCH  30  31
ENDBRANCH  29  30
ENDBRANCH  28  29
ENDBRANCH  27  28
ENDBRANCH  26  27
ENDBRANCH  25  26
ENDBRANCH  24  25
ENDBRANCH  23  24
ENDBRANCH  22  23
ENDBRANCH  21  22
ENDBRANCH  20  21
ENDBRANCH  19  20
ENDBRANCH  18  19
ENDBRANCH   1  18
TORSDOF 28
ENDMDL
MODEL 9
REMARK VINA RESULT:    -4.092      2.784      3.755
REMARK INTER + INTRA:         -15.200
REMARK INTER:                 -10.853
REMARK INTRA:                  -4.347
REMARK UNBOUND:                -4.410
REMARK SMILES CCCCCCCCCCCCCCCCCCCCCCCCCCCCCC(=O)[O-]
REMARK SMILES IDX 16 1 17 2 18 3 19 4 20 5 21 6 22 7 23 8 24 9 25 10 26 11
REMARK SMILES IDX 27 12 28 13 29 14 30 15 31 16 32 17 15 18 14 19 13 20 12 21
REMARK SMILES IDX 11 22 10 23 9 24 8 25 7 26 6 27 5 28 4 29 3 30 2 31 1 32
REMARK H PARENT
REMARK Flexibility Score: inf
ROOT
ATOM      1  C   UNL     1     -27.864 -11.771  17.883  1.00  0.00     0.000 C 
ENDROOT
BRANCH   1   2
ATOM      2  C   UNL     1     -26.735 -12.388  17.033  1.00  0.00     0.000 C 
BRANCH   2   3
ATOM      3  C   UNL     1     -25.968 -13.544  17.705  1.00  0.00     0.000 C 
BRANCH   3   4
ATOM      4  C   UNL     1     -26.726 -14.887  17.746  1.00  0.00     0.000 C 
BRANCH   4   5
ATOM      5  C   UNL     1     -25.903 -16.116  17.304  1.00  0.00     0.000 C 
BRANCH   5   6
ATOM      6  C   UNL     1     -26.586 -17.475  17.543  1.00  0.00     0.000 C 
BRANCH   6   7
ATOM      7  C   UNL     1     -27.861 -17.660  16.703  1.00  0.00     0.000 C 
BRANCH   7   8
ATOM      8  C   UNL     1     -27.587 -18.311  15.335  1.00  0.00     0.000 C 
BRANCH   8   9
ATOM      9  C   UNL     1     -28.584 -19.436  14.979  1.00  0.00     0.000 C 
BRANCH   9  10
ATOM     10  C   UNL     1     -27.932 -20.830  15.044  1.00  0.00     0.000 C 
BRANCH  10  11
ATOM     11  C   UNL     1     -28.815 -21.866  15.758  1.00  0.00     0.000 C 
BRANCH  11  12
ATOM     12  C   UNL     1     -30.149 -21.278  16.242  1.00  0.00     0.000 C 
BRANCH  12  13
ATOM     13  C   UNL     1     -31.330 -22.143  15.787  1.00  0.00     0.006 C 
BRANCH  13  14
ATOM     14  C   UNL     1     -31.357 -23.479  16.543  1.00  0.00     0.053 C 
BRANCH  14  15
ATOM     15  C   UNL     1     -31.611 -24.624  15.609  1.00  0.00     0.041 C 
ATOM     16  O   UNL     1     -31.849 -25.774  16.066  1.00  0.00    -0.550 OA
ATOM     17  O   UNL     1     -31.527 -24.436  14.234  1.00  0.00    -0.550 OA
ENDBRANCH  14  15
ENDBRANCH  13  14
ENDBRANCH  12  13
ENDBRANCH  11  12
ENDBRANCH  10  11
ENDBRANCH   9  10
ENDBRANCH   8   9
ENDBRANCH   7   8
ENDBRANCH   6   7
ENDBRANCH   5   6
ENDBRANCH   4   5
ENDBRANCH   3   4
ENDBRANCH   2   3
ENDBRANCH   1   2
BRANCH   1  18
ATOM     18  C   UNL     1     -29.128 -11.375  17.097  1.00  0.00     0.000 C 
BRANCH  18  19
ATOM     19  C   UNL     1     -29.723 -12.538  16.285  1.00  0.00     0.000 C 
BRANCH  19  20
ATOM     20  C   UNL     1     -30.202 -13.663  17.212  1.00  0.00     0.000 C 
BRANCH  20  21
ATOM     21  C   UNL     1     -30.161 -15.045  16.539  1.00  0.00     0.000 C 
BRANCH  21  22
ATOM     22  C   UNL     1     -30.639 -15.035  15.069  1.00  0.00     0.000 C 
BRANCH  22  23
ATOM     23  C   UNL     1     -30.575 -16.419  14.397  1.00  0.00     0.000 C 
BRANCH  23  24
ATOM     24  C   UNL     1     -31.942 -17.137  14.327  1.00  0.00    -0.000 C 
BRANCH  24  25
ATOM     25  C   UNL     1     -32.001 -18.459  15.120  1.00  0.00    -0.000 C 
BRANCH  25  26
ATOM     26  C   UNL     1     -32.132 -18.275  16.647  1.00  0.00    -0.000 C 
BRANCH  26  27
ATOM     27  C   UNL     1     -33.440 -17.564  17.044  1.00  0.00    -0.000 C 
BRANCH  27  28
ATOM     28  C   UNL     1     -33.190 -16.186  17.688  1.00  0.00    -0.000 C 
BRANCH  28  29
ATOM     29  C   UNL     1     -34.246 -15.120  17.331  1.00  0.00    -0.000 C 
BRANCH  29  30
ATOM     30  C   UNL     1     -34.293 -14.758  15.831  1.00  0.00    -0.000 C 
BRANCH  30  31
ATOM     31  C   UNL     1     -34.574 -13.266  15.598  1.00  0.00    -0.003 C 
ATOM     32  C   UNL     1     -36.029 -13.034  15.203  1.00  0.00     0.004 C 
ENDBRANCH  30  31
ENDBRANCH  29  30
ENDBRANCH  28  29
ENDBRANCH  27  28
ENDBRANCH  26  27
ENDBRANCH  25  26
ENDBRANCH  24  25
ENDBRANCH  23  24
ENDBRANCH  22  23
ENDBRANCH  21  22
ENDBRANCH  20  21
ENDBRANCH  19  20
ENDBRANCH  18  19
ENDBRANCH   1  18
TORSDOF 28
ENDMDL
