MODEL 1
REMARK VINA RESULT:     1.481      0.000      0.000
REMARK INTER + INTRA:           0.499
REMARK INTER:                   1.957
REMARK INTRA:                  -1.458
REMARK UNBOUND:                -1.458
REMARK SMILES CC(C)=CCC[C@@H](C(=O)[O-])[C@@H]1CC[C@@]2(C)C3=C(CC[C@@]12C)[C@@]1(C)CC[C@H](O)C(C)(C)[C@H]1CC3
REMARK SMILES IDX 6 1 7 2 8 3 9 4 10 5 11 6 12 7 20 8 13 9 14 10 19 11 21 12
REMARK SMILES IDX 15 13 16 14 18 15 17 16 33 17 22 18 32 19 31 20 24 21 23 22
REMARK SMILES IDX 28 23 25 24 26 25 29 26 30 27 27 28 5 30 4 31 2 32 1 33 3 34
REMARK H PARENT 27 29
REMARK Flexibility Score: inf
ROOT
ATOM      1  C   UNL     1       2.229  39.591  13.332  1.00  0.00     0.014 C 
ENDROOT
BRANCH   1   2
ATOM      2  C   UNL     1       3.080  40.777  12.791  1.00  0.00     0.039 C 
BRANCH   2   3
ATOM      3  C   UNL     1       4.470  40.279  12.463  1.00  0.00     0.045 C 
ATOM      4  O   UNL     1       5.406  41.106  12.300  1.00  0.00    -0.550 OA
ATOM      5  O   UNL     1       4.763  38.922  12.442  1.00  0.00    -0.550 OA
ENDBRANCH   2   3
BRANCH   2   6
ATOM      6  C   UNL     1       2.364  41.554  11.618  1.00  0.00     0.004 C 
ATOM      7  C   UNL     1       3.014  41.335  10.245  1.00  0.00     0.006 C 
ATOM      8  C   UNL     1       2.138  43.112  11.768  1.00  0.00    -0.020 C 
ATOM      9  C   UNL     1       3.608  42.655   9.777  1.00  0.00     0.012 C 
ATOM     10  C   UNL     1       3.158  43.793  10.737  1.00  0.00    -0.006 C 
ATOM     11  C   UNL     1       0.646  43.446  11.413  1.00  0.00     0.012 C 
ATOM     12  C   UNL     1       2.297  43.612  13.237  1.00  0.00     0.012 C 
ATOM     13  C   UNL     1       4.430  44.325  11.466  1.00  0.00     0.017 C 
ATOM     14  C   UNL     1       2.515  44.929   9.874  1.00  0.00    -0.064 C 
ATOM     15  C   UNL     1       0.437  43.624   9.924  1.00  0.00     0.032 C 
ATOM     16  C   UNL     1       1.209  44.851   9.483  1.00  0.00    -0.064 C 
ATOM     17  C   UNL     1       3.396  45.942   9.180  1.00  0.00     0.032 C 
ATOM     18  C   UNL     1       0.503  45.907   8.576  1.00  0.00    -0.008 C 
ATOM     19  C   UNL     1       2.679  47.264   9.019  1.00  0.00     0.009 C 
ATOM     20  C   UNL     1       1.444  47.112   8.106  1.00  0.00     0.007 C 
ATOM     21  C   UNL     1      -0.765  46.454   9.323  1.00  0.00     0.014 C 
ATOM     22  C   UNL     1       0.047  45.125   7.313  1.00  0.00     0.016 C 
ATOM     23  C   UNL     1       0.695  48.503   7.919  1.00  0.00    -0.006 C 
ATOM     24  C   UNL     1      -0.487  47.718  10.130  1.00  0.00     0.033 C 
ATOM     25  C   UNL     1      -0.050  48.910   9.244  1.00  0.00     0.120 C 
ATOM     26  C   UNL     1      -0.276  48.436   6.704  1.00  0.00     0.014 C 
ATOM     27  C   UNL     1       1.700  49.635   7.558  1.00  0.00     0.014 C 
BRANCH  25  28
ATOM     28  O   UNL     1      -1.125  49.785   8.993  1.00  0.00    -0.393 OA
ATOM     29  H   UNL     1      -0.831  50.707   9.213  1.00  0.00     0.210 HD
ENDBRANCH  25  28
ENDBRANCH   2   6
ENDBRANCH   1   2
BRANCH   1  30
ATOM     30  C   UNL     1       0.720  39.891  13.416  1.00  0.00     0.028 C 
BRANCH  30  31
ATOM     31  C   UNL     1       0.307  40.303  14.811  1.00  0.00    -0.028 C 
ATOM     32  C   UNL     1      -0.545  41.315  15.090  1.00  0.00    -0.080 C 
ATOM     33  C   UNL     1      -1.125  42.195  14.007  1.00  0.00     0.039 C 
ATOM     34  C   UNL     1      -0.907  41.571  16.529  1.00  0.00     0.039 C 
ENDBRANCH  30  31
ENDBRANCH   1  30
TORSDOF 6
ENDMDL
MODEL 2
REMARK VINA RESULT:     2.502      1.893      8.500
REMARK INTER + INTRA:           1.849
REMARK INTER:                   2.543
REMARK INTRA:                  -0.694
REMARK UNBOUND:                -1.458
REMARK SMILES CC(C)=CCC[C@@H](C(=O)[O-])[C@@H]1CC[C@@]2(C)C3=C(CC[C@@]12C)[C@@]1(C)CC[C@H](O)C(C)(C)[C@H]1CC3
REMARK SMILES IDX 6 1 7 2 8 3 9 4 10 5 11 6 12 7 20 8 13 9 14 10 19 11 21 12
REMARK SMILES IDX 15 13 16 14 18 15 17 16 33 17 22 18 32 19 31 20 24 21 23 22
REMARK SMILES IDX 28 23 25 24 26 25 29 26 30 27 27 28 5 30 4 31 2 32 1 33 3 34
REMARK H PARENT 27 29
REMARK Flexibility Score: inf
ROOT
ATOM      1  C   UNL     1       2.932  48.838   7.198  1.00  0.00     0.014 C 
ENDROOT
BRANCH   1   2
ATOM      2  C   UNL     1       2.156  48.189   8.383  1.00  0.00     0.039 C 
BRANCH   2   3
ATOM      3  C   UNL     1       0.716  48.652   8.344  1.00  0.00     0.045 C 
ATOM      4  O   UNL     1      -0.132  48.110   9.100  1.00  0.00    -0.550 OA
ATOM      5  O   UNL     1       0.329  49.736   7.569  1.00  0.00    -0.550 OA
ENDBRANCH   2   3
BRANCH   2   6
ATOM      6  C   UNL     1       2.343  46.623   8.446  1.00  0.00     0.004 C 
ATOM      7  C   UNL     1       1.141  45.834   7.910  1.00  0.00     0.006 C 
ATOM      8  C   UNL     1       2.738  45.963   9.828  1.00  0.00    -0.020 C 
ATOM      9  C   UNL     1       0.511  45.072   9.067  1.00  0.00     0.012 C 
ATOM     10  C   UNL     1       1.428  45.182  10.318  1.00  0.00    -0.006 C 
ATOM     11  C   UNL     1       3.943  44.984   9.600  1.00  0.00     0.012 C 
ATOM     12  C   UNL     1       3.281  46.995  10.863  1.00  0.00     0.012 C 
ATOM     13  C   UNL     1       0.653  45.997  11.399  1.00  0.00     0.017 C 
ATOM     14  C   UNL     1       1.715  43.734  10.837  1.00  0.00    -0.064 C 
ATOM     15  C   UNL     1       3.490  43.612   9.146  1.00  0.00     0.032 C 
ATOM     16  C   UNL     1       2.705  42.978  10.277  1.00  0.00    -0.064 C 
ATOM     17  C   UNL     1       0.704  43.029  11.712  1.00  0.00     0.032 C 
ATOM     18  C   UNL     1       3.024  41.508  10.691  1.00  0.00    -0.008 C 
ATOM     19  C   UNL     1       1.382  42.044  12.638  1.00  0.00     0.009 C 
ATOM     20  C   UNL     1       2.072  40.921  11.836  1.00  0.00     0.007 C 
ATOM     21  C   UNL     1       4.531  41.414  11.123  1.00  0.00     0.014 C 
ATOM     22  C   UNL     1       2.813  40.663   9.404  1.00  0.00     0.016 C 
ATOM     23  C   UNL     1       2.773  39.872  12.806  1.00  0.00    -0.006 C 
ATOM     24  C   UNL     1       4.738  41.604  12.621  1.00  0.00     0.033 C 
ATOM     25  C   UNL     1       4.054  40.502  13.466  1.00  0.00     0.120 C 
ATOM     26  C   UNL     1       3.102  38.559  12.036  1.00  0.00     0.014 C 
ATOM     27  C   UNL     1       1.807  39.430  13.943  1.00  0.00     0.014 C 
BRANCH  25  28
ATOM     28  O   UNL     1       4.976  39.516  13.866  1.00  0.00    -0.393 OA
ATOM     29  H   UNL     1       4.982  39.482  14.858  1.00  0.00     0.210 HD
ENDBRANCH  25  28
ENDBRANCH   2   6
ENDBRANCH   1   2
BRANCH   1  30
ATOM     30  C   UNL     1       4.304  49.418   7.592  1.00  0.00     0.028 C 
BRANCH  30  31
ATOM     31  C   UNL     1       5.218  48.357   8.161  1.00  0.00    -0.028 C 
ATOM     32  C   UNL     1       6.292  48.610   8.943  1.00  0.00    -0.080 C 
ATOM     33  C   UNL     1       6.729  50.019   9.271  1.00  0.00     0.039 C 
ATOM     34  C   UNL     1       7.075  47.444   9.485  1.00  0.00     0.039 C 
ENDBRANCH  30  31
ENDBRANCH   1  30
TORSDOF 6
ENDMDL
MODEL 3
REMARK VINA RESULT:     2.754      1.406      2.137
REMARK INTER + INTRA:           2.181
REMARK INTER:                   3.138
REMARK INTRA:                  -0.957
REMARK UNBOUND:                -1.458
REMARK SMILES CC(C)=CCC[C@@H](C(=O)[O-])[C@@H]1CC[C@@]2(C)C3=C(CC[C@@]12C)[C@@]1(C)CC[C@H](O)C(C)(C)[C@H]1CC3
REMARK SMILES IDX 6 1 7 2 8 3 9 4 10 5 11 6 12 7 20 8 13 9 14 10 19 11 21 12
REMARK SMILES IDX 15 13 16 14 18 15 17 16 33 17 22 18 32 19 31 20 24 21 23 22
REMARK SMILES IDX 28 23 25 24 26 25 29 26 30 27 27 28 5 30 4 31 2 32 1 33 3 34
REMARK H PARENT 27 29
REMARK Flexibility Score: inf
ROOT
ATOM      1  C   UNL     1       2.293  39.408  13.869  1.00  0.00     0.014 C 
ENDROOT
BRANCH   1   2
ATOM      2  C   UNL     1       3.253  40.444  13.211  1.00  0.00     0.039 C 
BRANCH   2   3
ATOM      3  C   UNL     1       4.577  39.772  12.916  1.00  0.00     0.045 C 
ATOM      4  O   UNL     1       5.630  40.214  13.445  1.00  0.00    -0.550 OA
ATOM      5  O   UNL     1       4.643  38.612  12.157  1.00  0.00    -0.550 OA
ENDBRANCH   2   3
BRANCH   2   6
ATOM      6  C   UNL     1       2.600  41.182  11.979  1.00  0.00     0.004 C 
ATOM      7  C   UNL     1       3.380  41.008  10.669  1.00  0.00     0.006 C 
ATOM      8  C   UNL     1       2.269  42.723  12.108  1.00  0.00    -0.020 C 
ATOM      9  C   UNL     1       3.934  42.363  10.254  1.00  0.00     0.012 C 
ATOM     10  C   UNL     1       3.334  43.468  11.171  1.00  0.00    -0.006 C 
ATOM     11  C   UNL     1       0.797  42.971  11.621  1.00  0.00     0.012 C 
ATOM     12  C   UNL     1       2.268  43.224  13.584  1.00  0.00     0.012 C 
ATOM     13  C   UNL     1       4.502  44.071  12.008  1.00  0.00     0.017 C 
ATOM     14  C   UNL     1       2.704  44.568  10.253  1.00  0.00    -0.064 C 
ATOM     15  C   UNL     1       0.711  43.142  10.119  1.00  0.00     0.032 C 
ATOM     16  C   UNL     1       1.444  44.415   9.748  1.00  0.00    -0.064 C 
ATOM     17  C   UNL     1       3.581  45.635   9.640  1.00  0.00     0.032 C 
ATOM     18  C   UNL     1       0.760  45.431   8.781  1.00  0.00    -0.008 C 
ATOM     19  C   UNL     1       2.804  46.913   9.415  1.00  0.00     0.009 C 
ATOM     20  C   UNL     1       1.666  46.692   8.395  1.00  0.00     0.007 C 
ATOM     21  C   UNL     1      -0.599  45.900   9.413  1.00  0.00     0.014 C 
ATOM     22  C   UNL     1       0.465  44.630   7.483  1.00  0.00     0.016 C 
ATOM     23  C   UNL     1       0.856  48.038   8.142  1.00  0.00    -0.006 C 
ATOM     24  C   UNL     1      -0.469  47.174  10.240  1.00  0.00     0.033 C 
ATOM     25  C   UNL     1      -0.026  48.394   9.396  1.00  0.00     0.120 C 
ATOM     26  C   UNL     1       0.001  47.919   6.846  1.00  0.00     0.014 C 
ATOM     27  C   UNL     1       1.820  49.229   7.871  1.00  0.00     0.014 C 
BRANCH  25  28
ATOM     28  O   UNL     1      -1.125  49.205   9.050  1.00  0.00    -0.393 OA
ATOM     29  H   UNL     1      -1.755  49.216   9.817  1.00  0.00     0.210 HD
ENDBRANCH  25  28
ENDBRANCH   2   6
ENDBRANCH   1   2
BRANCH   1  30
ATOM     30  C   UNL     1       1.110  38.995  12.971  1.00  0.00     0.028 C 
BRANCH  30  31
ATOM     31  C   UNL     1       1.303  37.613  12.392  1.00  0.00    -0.028 C 
ATOM     32  C   UNL     1       0.307  36.722  12.186  1.00  0.00    -0.080 C 
ATOM     33  C   UNL     1      -1.120  37.010  12.593  1.00  0.00     0.039 C 
ATOM     34  C   UNL     1       0.645  35.403  11.545  1.00  0.00     0.039 C 
ENDBRANCH  30  31
ENDBRANCH   1  30
TORSDOF 6
ENDMDL
