MODEL 1
REMARK VINA RESULT:     3.585      0.000      0.000
REMARK INTER + INTRA:           7.103
REMARK INTER:                   5.261
REMARK INTRA:                   1.842
REMARK UNBOUND:                 1.842
REMARK SMILES O=c1c(O[C@H]2O[C@H](CO)[C@H](O)[C@@H](O)[C@H]2O)c(-c2ccc(O)c(O)c2)oc2cc(O)cc(O)c12
REMARK SMILES IDX 4 1 3 2 16 3 25 4 2 5 26 6 1 7 33 8 27 9 31 10 28 11 30 12
REMARK SMILES IDX 17 13 18 14 19 15 20 16 24 17 22 18 21 19 23 21 32 23 29 25
REMARK SMILES IDX 5 27 14 28 6 29 12 30 7 31 10 32 15 33 13 35 8 37 9 38 11 40
REMARK H PARENT 21 20 23 22 32 24 29 26 15 34 13 36 9 39 11 41
REMARK Flexibility Score: inf
ROOT
ATOM      1  O   UNL     1      -0.736   4.230   1.221  1.00  0.00    -0.454 OA
ENDROOT
BRANCH   1   2
ATOM      2  C   UNL     1       0.300   5.140   0.956  1.00  0.00     0.214 A 
ATOM      3  C   UNL     1       0.047   6.444   0.475  1.00  0.00     0.180 A 
ATOM      4  O   UNL     1       1.067   7.233   0.148  1.00  0.00    -0.452 OA
ATOM      5  C   UNL     1       1.625   4.760   1.202  1.00  0.00     0.239 A 
ATOM      6  C   UNL     1       2.339   6.885   0.300  1.00  0.00     0.146 A 
ATOM      7  O   UNL     1       1.857   3.637   1.728  1.00  0.00    -0.285 OA
ATOM      8  C   UNL     1       2.680   5.630   0.855  1.00  0.00     0.111 A 
ATOM      9  C   UNL     1       3.341   7.782  -0.082  1.00  0.00     0.094 A 
ATOM     10  C   UNL     1       4.044   5.298   1.028  1.00  0.00     0.134 A 
ATOM     11  C   UNL     1       4.688   7.448   0.090  1.00  0.00     0.123 A 
ATOM     12  C   UNL     1       5.036   6.214   0.644  1.00  0.00     0.093 A 
BRANCH   3  13
ATOM     13  C   UNL     1      -1.319   6.997   0.345  1.00  0.00     0.025 A 
ATOM     14  C   UNL     1      -2.367   6.231  -0.192  1.00  0.00     0.016 A 
ATOM     15  C   UNL     1      -3.655   6.759  -0.276  1.00  0.00     0.051 A 
ATOM     16  C   UNL     1      -3.927   8.055   0.176  1.00  0.00     0.157 A 
ATOM     17  C   UNL     1      -1.594   8.288   0.821  1.00  0.00     0.062 A 
ATOM     18  C   UNL     1      -2.883   8.829   0.737  1.00  0.00     0.158 A 
BRANCH  16  19
ATOM     19  O   UNL     1      -5.233   8.531   0.048  1.00  0.00    -0.504 OA
ATOM     20  H   UNL     1      -5.487   9.506   0.102  1.00  0.00     0.293 HD
ENDBRANCH  16  19
BRANCH  18  21
ATOM     21  O   UNL     1      -3.079  10.125   1.217  1.00  0.00    -0.504 OA
ATOM     22  H   UNL     1      -3.979  10.499   1.479  1.00  0.00     0.293 HD
ENDBRANCH  18  21
ENDBRANCH   3  13
BRANCH  10  23
ATOM     23  O   UNL     1       4.423   4.068   1.568  1.00  0.00    -0.507 OA
ATOM     24  H   UNL     1       3.877   3.229   1.416  1.00  0.00     0.293 HD
ENDBRANCH  10  23
BRANCH  11  25
ATOM     25  O   UNL     1       5.693   8.339  -0.285  1.00  0.00    -0.508 OA
ATOM     26  H   UNL     1       6.414   8.075  -0.947  1.00  0.00     0.293 HD
ENDBRANCH  11  25
ENDBRANCH   1   2
BRANCH   1  27
ATOM     27  C   UNL     1      -0.663   2.816   0.985  1.00  0.00     0.339 C 
ATOM     28  C   UNL     1      -1.140   2.016   2.221  1.00  0.00     0.214 C 
ATOM     29  O   UNL     1       0.648   2.428   0.613  1.00  0.00    -0.332 OA
ATOM     30  C   UNL     1      -0.729   0.516   2.122  1.00  0.00     0.180 C 
ATOM     31  C   UNL     1       0.707   1.098   0.101  1.00  0.00     0.179 C 
ATOM     32  C   UNL     1      -0.362   0.116   0.677  1.00  0.00     0.177 C 
BRANCH  28  33
ATOM     33  O   UNL     1      -0.632   2.587   3.399  1.00  0.00    -0.384 OA
ATOM     34  H   UNL     1      -1.390   3.055   3.839  1.00  0.00     0.211 HD
ENDBRANCH  28  33
BRANCH  30  35
ATOM     35  O   UNL     1       0.327   0.198   2.999  1.00  0.00    -0.387 OA
ATOM     36  H   UNL     1       0.090   0.534   3.902  1.00  0.00     0.211 HD
ENDBRANCH  30  35
BRANCH  31  37
ATOM     37  C   UNL     1       0.774   1.104  -1.437  1.00  0.00     0.191 C 
BRANCH  37  38
ATOM     38  O   UNL     1       0.444  -0.157  -1.961  1.00  0.00    -0.394 OA
ATOM     39  H   UNL     1       1.294  -0.612  -2.199  1.00  0.00     0.210 HD
ENDBRANCH  37  38
ENDBRANCH  31  37
BRANCH  32  40
ATOM     40  O   UNL     1      -1.520   0.109  -0.122  1.00  0.00    -0.387 OA
ATOM     41  H   UNL     1      -1.723   1.055  -0.348  1.00  0.00     0.211 HD
ENDBRANCH  32  40
ENDBRANCH   1  27
TORSDOF 12
ENDMDL
MODEL 2
REMARK VINA RESULT:     4.318      1.492      6.872
REMARK INTER + INTRA:           8.179
REMARK INTER:                   6.268
REMARK INTRA:                   1.911
REMARK UNBOUND:                 1.842
REMARK SMILES O=c1c(O[C@H]2O[C@H](CO)[C@H](O)[C@@H](O)[C@H]2O)c(-c2ccc(O)c(O)c2)oc2cc(O)cc(O)c12
REMARK SMILES IDX 4 1 3 2 16 3 25 4 2 5 26 6 1 7 33 8 27 9 31 10 28 11 30 12
REMARK SMILES IDX 17 13 18 14 19 15 20 16 24 17 22 18 21 19 23 21 32 23 29 25
REMARK SMILES IDX 5 27 14 28 6 29 12 30 7 31 10 32 15 33 13 35 8 37 9 38 11 40
REMARK H PARENT 21 20 23 22 32 24 29 26 15 34 13 36 9 39 11 41
REMARK Flexibility Score: inf
ROOT
ATOM      1  O   UNL     1       1.189   5.960   2.024  1.00  0.00    -0.454 OA
ENDROOT
BRANCH   1   2
ATOM      2  C   UNL     1      -0.015   6.163   1.331  1.00  0.00     0.214 A 
ATOM      3  C   UNL     1      -0.786   5.087   0.836  1.00  0.00     0.180 A 
ATOM      4  O   UNL     1      -1.868   5.336   0.103  1.00  0.00    -0.452 OA
ATOM      5  C   UNL     1      -0.488   7.468   1.147  1.00  0.00     0.239 A 
ATOM      6  C   UNL     1      -2.312   6.560  -0.153  1.00  0.00     0.146 A 
ATOM      7  O   UNL     1       0.136   8.430   1.673  1.00  0.00    -0.285 OA
ATOM      8  C   UNL     1      -1.648   7.691   0.376  1.00  0.00     0.111 A 
ATOM      9  C   UNL     1      -3.455   6.719  -0.941  1.00  0.00     0.094 A 
ATOM     10  C   UNL     1      -2.160   8.982   0.106  1.00  0.00     0.134 A 
ATOM     11  C   UNL     1      -3.956   7.998  -1.207  1.00  0.00     0.123 A 
ATOM     12  C   UNL     1      -3.313   9.121  -0.683  1.00  0.00     0.093 A 
BRANCH   3  13
ATOM     13  C   UNL     1      -0.462   3.673   1.126  1.00  0.00     0.025 A 
ATOM     14  C   UNL     1      -1.016   3.010   2.232  1.00  0.00     0.016 A 
ATOM     15  C   UNL     1      -0.723   1.667   2.470  1.00  0.00     0.051 A 
ATOM     16  C   UNL     1       0.123   0.958   1.611  1.00  0.00     0.157 A 
ATOM     17  C   UNL     1       0.368   2.958   0.249  1.00  0.00     0.062 A 
ATOM     18  C   UNL     1       0.673   1.610   0.482  1.00  0.00     0.158 A 
BRANCH  16  19
ATOM     19  O   UNL     1       0.391  -0.379   1.914  1.00  0.00    -0.504 OA
ATOM     20  H   UNL     1       0.197  -1.149   1.290  1.00  0.00     0.293 HD
ENDBRANCH  16  19
BRANCH  18  21
ATOM     21  O   UNL     1       1.517   0.966  -0.425  1.00  0.00    -0.504 OA
ATOM     22  H   UNL     1       2.431   1.307  -0.684  1.00  0.00     0.293 HD
ENDBRANCH  18  21
ENDBRANCH   3  13
BRANCH  10  23
ATOM     23  O   UNL     1      -1.533  10.125   0.606  1.00  0.00    -0.507 OA
ATOM     24  H   UNL     1      -1.552  11.005   0.105  1.00  0.00     0.293 HD
ENDBRANCH  10  23
BRANCH  11  25
ATOM     25  O   UNL     1      -5.098   8.164  -1.990  1.00  0.00    -0.508 OA
ATOM     26  H   UNL     1      -5.564   9.061  -2.062  1.00  0.00     0.293 HD
ENDBRANCH  11  25
ENDBRANCH   1   2
BRANCH   1  27
ATOM     27  C   UNL     1       2.493   6.013   1.428  1.00  0.00     0.339 C 
ATOM     28  C   UNL     1       2.639   7.247   0.505  1.00  0.00     0.214 C 
ATOM     29  O   UNL     1       2.779   4.821   0.717  1.00  0.00    -0.332 OA
ATOM     30  C   UNL     1       3.888   7.125  -0.417  1.00  0.00     0.180 C 
ATOM     31  C   UNL     1       4.153   4.711   0.349  1.00  0.00     0.179 C 
ATOM     32  C   UNL     1       4.885   6.069   0.104  1.00  0.00     0.177 C 
BRANCH  28  33
ATOM     33  O   UNL     1       1.476   7.422  -0.263  1.00  0.00    -0.384 OA
ATOM     34  H   UNL     1       1.635   8.212  -0.844  1.00  0.00     0.211 HD
ENDBRANCH  28  33
BRANCH  30  35
ATOM     35  O   UNL     1       3.534   6.844  -1.753  1.00  0.00    -0.387 OA
ATOM     36  H   UNL     1       4.081   7.423  -2.345  1.00  0.00     0.211 HD
ENDBRANCH  30  35
BRANCH  31  37
ATOM     37  C   UNL     1       4.904   3.769   1.307  1.00  0.00     0.191 C 
BRANCH  37  38
ATOM     38  O   UNL     1       5.226   4.423   2.507  1.00  0.00    -0.394 OA
ATOM     39  H   UNL     1       6.199   4.623   2.487  1.00  0.00     0.210 HD
ENDBRANCH  37  38
ENDBRANCH  31  37
BRANCH  32  40
ATOM     40  O   UNL     1       5.493   6.531   1.285  1.00  0.00    -0.387 OA
ATOM     41  H   UNL     1       5.639   5.740   1.867  1.00  0.00     0.211 HD
ENDBRANCH  32  40
ENDBRANCH   1  27
TORSDOF 12
ENDMDL
MODEL 3
REMARK VINA RESULT:     4.853     10.534     14.387
REMARK INTER + INTRA:           8.965
REMARK INTER:                   7.501
REMARK INTRA:                   1.464
REMARK UNBOUND:                 1.842
REMARK SMILES O=c1c(O[C@H]2O[C@H](CO)[C@H](O)[C@@H](O)[C@H]2O)c(-c2ccc(O)c(O)c2)oc2cc(O)cc(O)c12
REMARK SMILES IDX 4 1 3 2 16 3 25 4 2 5 26 6 1 7 33 8 27 9 31 10 28 11 30 12
REMARK SMILES IDX 17 13 18 14 19 15 20 16 24 17 22 18 21 19 23 21 32 23 29 25
REMARK SMILES IDX 5 27 14 28 6 29 12 30 7 31 10 32 15 33 13 35 8 37 9 38 11 40
REMARK H PARENT 21 20 23 22 32 24 29 26 15 34 13 36 9 39 11 41
REMARK Flexibility Score: inf
ROOT
ATOM      1  O   UNL     1       0.303  -3.660  -9.975  1.00  0.00    -0.454 OA
ENDROOT
BRANCH   1   2
ATOM      2  C   UNL     1      -0.859  -2.879  -9.871  1.00  0.00     0.214 A 
ATOM      3  C   UNL     1      -2.152  -3.443  -9.954  1.00  0.00     0.180 A 
ATOM      4  O   UNL     1      -3.218  -2.648  -9.946  1.00  0.00    -0.452 OA
ATOM      5  C   UNL     1      -0.741  -1.502  -9.647  1.00  0.00     0.239 A 
ATOM      6  C   UNL     1      -3.146  -1.330  -9.806  1.00  0.00     0.146 A 
ATOM      7  O   UNL     1       0.403  -1.002  -9.468  1.00  0.00    -0.285 OA
ATOM      8  C   UNL     1      -1.897  -0.693  -9.630  1.00  0.00     0.111 A 
ATOM      9  C   UNL     1      -4.325  -0.579  -9.819  1.00  0.00     0.094 A 
ATOM     10  C   UNL     1      -1.855   0.711  -9.458  1.00  0.00     0.134 A 
ATOM     11  C   UNL     1      -4.279   0.809  -9.649  1.00  0.00     0.123 A 
ATOM     12  C   UNL     1      -3.050   1.448  -9.468  1.00  0.00     0.093 A 
BRANCH   3  13
ATOM     13  C   UNL     1      -2.383  -4.904 -10.019  1.00  0.00     0.025 A 
ATOM     14  C   UNL     1      -1.311  -5.811 -10.020  1.00  0.00     0.016 A 
ATOM     15  C   UNL     1      -1.550  -7.185 -10.050  1.00  0.00     0.051 A 
ATOM     16  C   UNL     1      -2.858  -7.682 -10.073  1.00  0.00     0.157 A 
ATOM     17  C   UNL     1      -3.695  -5.399 -10.018  1.00  0.00     0.062 A 
ATOM     18  C   UNL     1      -3.946  -6.777 -10.052  1.00  0.00     0.158 A 
BRANCH  16  19
ATOM     19  O   UNL     1      -3.029  -9.067 -10.119  1.00  0.00    -0.504 OA
ATOM     20  H   UNL     1      -2.327  -9.732  -9.830  1.00  0.00     0.293 HD
ENDBRANCH  16  19
BRANCH  18  21
ATOM     21  O   UNL     1      -5.277  -7.198 -10.065  1.00  0.00    -0.504 OA
ATOM     22  H   UNL     1      -6.067  -6.570 -10.060  1.00  0.00     0.293 HD
ENDBRANCH  18  21
ENDBRANCH   3  13
BRANCH  10  23
ATOM     23  O   UNL     1      -0.642   1.379  -9.286  1.00  0.00    -0.507 OA
ATOM     24  H   UNL     1      -0.490   2.015  -8.512  1.00  0.00     0.293 HD
ENDBRANCH  10  23
BRANCH  11  25
ATOM     25  O   UNL     1      -5.450   1.564  -9.658  1.00  0.00    -0.508 OA
ATOM     26  H   UNL     1      -5.714   2.123 -10.461  1.00  0.00     0.293 HD
ENDBRANCH  11  25
ENDBRANCH   1   2
BRANCH   1  27
ATOM     27  C   UNL     1       1.623  -3.210  -9.637  1.00  0.00     0.339 C 
ATOM     28  C   UNL     1       2.698  -4.211 -10.124  1.00  0.00     0.214 C 
ATOM     29  O   UNL     1       1.744  -2.985  -8.244  1.00  0.00    -0.332 OA
ATOM     30  C   UNL     1       4.079  -3.932  -9.458  1.00  0.00     0.180 C 
ATOM     31  C   UNL     1       2.934  -2.277  -7.898  1.00  0.00     0.179 C 
ATOM     32  C   UNL     1       4.148  -2.515  -8.851  1.00  0.00     0.177 C 
BRANCH  28  33
ATOM     33  O   UNL     1       2.288  -5.530  -9.871  1.00  0.00    -0.384 OA
ATOM     34  H   UNL     1       2.013  -5.915 -10.743  1.00  0.00     0.211 HD
ENDBRANCH  28  33
BRANCH  30  35
ATOM     35  O   UNL     1       4.400  -4.897  -8.482  1.00  0.00    -0.387 OA
ATOM     36  H   UNL     1       3.626  -5.512  -8.389  1.00  0.00     0.211 HD
ENDBRANCH  30  35
BRANCH  31  37
ATOM     37  C   UNL     1       2.634  -0.789  -7.642  1.00  0.00     0.191 C 
BRANCH  37  38
ATOM     38  O   UNL     1       3.580  -0.227  -6.769  1.00  0.00    -0.394 OA
ATOM     39  H   UNL     1       3.831   0.662  -7.134  1.00  0.00     0.210 HD
ENDBRANCH  37  38
ENDBRANCH  31  37
BRANCH  32  40
ATOM     40  O   UNL     1       4.172  -1.558  -9.882  1.00  0.00    -0.387 OA
ATOM     41  H   UNL     1       3.233  -1.419 -10.173  1.00  0.00     0.211 HD
ENDBRANCH  32  40
ENDBRANCH   1  27
TORSDOF 12
ENDMDL
MODEL 4
REMARK VINA RESULT:     5.192      2.323      5.847
REMARK INTER + INTRA:           9.462
REMARK INTER:                   8.988
REMARK INTRA:                   0.474
REMARK UNBOUND:                 1.842
REMARK SMILES O=c1c(O[C@H]2O[C@H](CO)[C@H](O)[C@@H](O)[C@H]2O)c(-c2ccc(O)c(O)c2)oc2cc(O)cc(O)c12
REMARK SMILES IDX 4 1 3 2 16 3 25 4 2 5 26 6 1 7 33 8 27 9 31 10 28 11 30 12
REMARK SMILES IDX 17 13 18 14 19 15 20 16 24 17 22 18 21 19 23 21 32 23 29 25
REMARK SMILES IDX 5 27 14 28 6 29 12 30 7 31 10 32 15 33 13 35 8 37 9 38 11 40
REMARK H PARENT 21 20 23 22 32 24 29 26 15 34 13 36 9 39 11 41
REMARK Flexibility Score: inf
ROOT
ATOM      1  O   UNL     1       2.783   1.475   0.172  1.00  0.00    -0.454 OA
ENDROOT
BRANCH   1   2
ATOM      2  C   UNL     1       2.009   2.599   0.501  1.00  0.00     0.214 A 
ATOM      3  C   UNL     1       0.658   2.488   0.901  1.00  0.00     0.180 A 
ATOM      4  O   UNL     1      -0.059   3.590   1.109  1.00  0.00    -0.452 OA
ATOM      5  C   UNL     1       2.595   3.870   0.463  1.00  0.00     0.239 A 
ATOM      6  C   UNL     1       0.441   4.815   1.015  1.00  0.00     0.146 A 
ATOM      7  O   UNL     1       3.826   3.973   0.208  1.00  0.00    -0.285 OA
ATOM      8  C   UNL     1       1.806   5.014   0.704  1.00  0.00     0.111 A 
ATOM      9  C   UNL     1      -0.396   5.912   1.244  1.00  0.00     0.094 A 
ATOM     10  C   UNL     1       2.315   6.332   0.636  1.00  0.00     0.134 A 
ATOM     11  C   UNL     1       0.112   7.213   1.175  1.00  0.00     0.123 A 
ATOM     12  C   UNL     1       1.461   7.420   0.875  1.00  0.00     0.093 A 
BRANCH   3  13
ATOM     13  C   UNL     1      -0.001   1.184   1.136  1.00  0.00     0.025 A 
ATOM     14  C   UNL     1      -0.819   0.595   0.159  1.00  0.00     0.016 A 
ATOM     15  C   UNL     1      -1.406  -0.650   0.388  1.00  0.00     0.051 A 
ATOM     16  C   UNL     1      -1.186  -1.333   1.589  1.00  0.00     0.157 A 
ATOM     17  C   UNL     1       0.241   0.490   2.332  1.00  0.00     0.062 A 
ATOM     18  C   UNL     1      -0.347  -0.758   2.572  1.00  0.00     0.158 A 
BRANCH  16  19
ATOM     19  O   UNL     1      -1.816  -2.568   1.762  1.00  0.00    -0.504 OA
ATOM     20  H   UNL     1      -1.749  -3.332   1.106  1.00  0.00     0.293 HD
ENDBRANCH  16  19
BRANCH  18  21
ATOM     21  O   UNL     1      -0.074  -1.384   3.790  1.00  0.00    -0.504 OA
ATOM     22  H   UNL     1      -0.659  -2.095   4.202  1.00  0.00     0.293 HD
ENDBRANCH  18  21
ENDBRANCH   3  13
BRANCH  10  23
ATOM     23  O   UNL     1       3.655   6.571   0.328  1.00  0.00    -0.507 OA
ATOM     24  H   UNL     1       4.349   6.720   1.050  1.00  0.00     0.293 HD
ENDBRANCH  10  23
BRANCH  11  25
ATOM     25  O   UNL     1      -0.716   8.311   1.405  1.00  0.00    -0.508 OA
ATOM     26  H   UNL     1      -0.519   9.217   0.996  1.00  0.00     0.293 HD
ENDBRANCH  11  25
ENDBRANCH   1   2
BRANCH   1  27
ATOM     27  C   UNL     1       2.550   0.626  -0.962  1.00  0.00     0.339 C 
ATOM     28  C   UNL     1       1.764  -0.644  -0.560  1.00  0.00     0.214 C 
ATOM     29  O   UNL     1       3.767   0.281  -1.599  1.00  0.00    -0.332 OA
ATOM     30  C   UNL     1       1.823  -1.728  -1.677  1.00  0.00     0.180 C 
ATOM     31  C   UNL     1       3.572  -0.321  -2.878  1.00  0.00     0.179 C 
ATOM     32  C   UNL     1       2.245  -1.130  -3.036  1.00  0.00     0.177 C 
BRANCH  28  33
ATOM     33  O   UNL     1       2.256  -1.161   0.651  1.00  0.00    -0.384 OA
ATOM     34  H   UNL     1       2.065  -0.481   1.349  1.00  0.00     0.211 HD
ENDBRANCH  28  33
BRANCH  30  35
ATOM     35  O   UNL     1       2.671  -2.800  -1.332  1.00  0.00    -0.387 OA
ATOM     36  H   UNL     1       2.900  -3.293  -2.162  1.00  0.00     0.211 HD
ENDBRANCH  30  35
BRANCH  31  37
ATOM     37  C   UNL     1       3.810   0.699  -4.007  1.00  0.00     0.191 C 
BRANCH  37  38
ATOM     38  O   UNL     1       4.468   0.102  -5.095  1.00  0.00    -0.394 OA
ATOM     39  H   UNL     1       4.956  -0.691  -4.749  1.00  0.00     0.210 HD
ENDBRANCH  37  38
ENDBRANCH  31  37
BRANCH  32  40
ATOM     40  O   UNL     1       1.215  -0.313  -3.536  1.00  0.00    -0.387 OA
ATOM     41  H   UNL     1       1.301  -0.309  -4.525  1.00  0.00     0.211 HD
ENDBRANCH  32  40
ENDBRANCH   1  27
TORSDOF 12
ENDMDL
MODEL 5
REMARK VINA RESULT:     5.863      1.496      7.250
REMARK INTER + INTRA:          10.447
REMARK INTER:                  11.477
REMARK INTRA:                  -1.030
REMARK UNBOUND:                 1.842
REMARK SMILES O=c1c(O[C@H]2O[C@H](CO)[C@H](O)[C@@H](O)[C@H]2O)c(-c2ccc(O)c(O)c2)oc2cc(O)cc(O)c12
REMARK SMILES IDX 4 1 3 2 16 3 25 4 2 5 26 6 1 7 33 8 27 9 31 10 28 11 30 12
REMARK SMILES IDX 17 13 18 14 19 15 20 16 24 17 22 18 21 19 23 21 32 23 29 25
REMARK SMILES IDX 5 27 14 28 6 29 12 30 7 31 10 32 15 33 13 35 8 37 9 38 11 40
REMARK H PARENT 21 20 23 22 32 24 29 26 15 34 13 36 9 39 11 41
REMARK Flexibility Score: inf
ROOT
ATOM      1  O   UNL     1       1.061   6.085   1.487  1.00  0.00    -0.454 OA
ENDROOT
BRANCH   1   2
ATOM      2  C   UNL     1      -0.272   6.234   1.071  1.00  0.00     0.214 A 
ATOM      3  C   UNL     1      -1.121   5.124   0.864  1.00  0.00     0.180 A 
ATOM      4  O   UNL     1      -2.345   5.313   0.377  1.00  0.00    -0.452 OA
ATOM      5  C   UNL     1      -0.791   7.521   0.880  1.00  0.00     0.239 A 
ATOM      6  C   UNL     1      -2.850   6.513   0.117  1.00  0.00     0.146 A 
ATOM      7  O   UNL     1      -0.075   8.521   1.159  1.00  0.00    -0.285 OA
ATOM      8  C   UNL     1      -2.098   7.682   0.376  1.00  0.00     0.111 A 
ATOM      9  C   UNL     1      -4.145   6.608  -0.402  1.00  0.00     0.094 A 
ATOM     10  C   UNL     1      -2.674   8.947   0.112  1.00  0.00     0.134 A 
ATOM     11  C   UNL     1      -4.709   7.861  -0.662  1.00  0.00     0.123 A 
ATOM     12  C   UNL     1      -3.977   9.022  -0.404  1.00  0.00     0.093 A 
BRANCH   3  13
ATOM     13  C   UNL     1      -0.722   3.739   1.201  1.00  0.00     0.025 A 
ATOM     14  C   UNL     1      -1.126   3.136   2.403  1.00  0.00     0.016 A 
ATOM     15  C   UNL     1      -0.764   1.819   2.688  1.00  0.00     0.051 A 
ATOM     16  C   UNL     1      -0.000   1.076   1.781  1.00  0.00     0.157 A 
ATOM     17  C   UNL     1       0.025   2.989   0.279  1.00  0.00     0.062 A 
ATOM     18  C   UNL     1       0.396   1.667   0.558  1.00  0.00     0.158 A 
BRANCH  16  19
ATOM     19  O   UNL     1       0.342  -0.231   2.133  1.00  0.00    -0.504 OA
ATOM     20  H   UNL     1       0.826  -0.478   2.983  1.00  0.00     0.293 HD
ENDBRANCH  16  19
BRANCH  18  21
ATOM     21  O   UNL     1       1.151   0.987  -0.399  1.00  0.00    -0.504 OA
ATOM     22  H   UNL     1       0.767   0.594  -1.246  1.00  0.00     0.293 HD
ENDBRANCH  18  21
ENDBRANCH   3  13
BRANCH  10  23
ATOM     23  O   UNL     1      -1.964  10.125   0.349  1.00  0.00    -0.507 OA
ATOM     24  H   UNL     1      -2.335  10.860   0.939  1.00  0.00     0.293 HD
ENDBRANCH  10  23
BRANCH  11  25
ATOM     25  O   UNL     1      -6.000   7.964  -1.177  1.00  0.00    -0.508 OA
ATOM     26  H   UNL     1      -6.816   7.878  -0.581  1.00  0.00     0.293 HD
ENDBRANCH  11  25
ENDBRANCH   1   2
BRANCH   1  27
ATOM     27  C   UNL     1       2.204   6.527   0.740  1.00  0.00     0.339 C 
ATOM     28  C   UNL     1       3.316   5.451   0.729  1.00  0.00     0.214 C 
ATOM     29  O   UNL     1       2.701   7.754   1.246  1.00  0.00    -0.332 OA
ATOM     30  C   UNL     1       4.676   6.042   0.250  1.00  0.00     0.180 C 
ATOM     31  C   UNL     1       3.649   8.368   0.376  1.00  0.00     0.179 C 
ATOM     32  C   UNL     1       4.489   7.380  -0.495  1.00  0.00     0.177 C 
BRANCH  28  33
ATOM     33  O   UNL     1       3.453   4.875   2.002  1.00  0.00    -0.384 OA
ATOM     34  H   UNL     1       4.384   4.536   2.064  1.00  0.00     0.211 HD
ENDBRANCH  28  33
BRANCH  30  35
ATOM     35  O   UNL     1       5.589   6.198   1.312  1.00  0.00    -0.387 OA
ATOM     36  H   UNL     1       6.499   6.009   0.967  1.00  0.00     0.211 HD
ENDBRANCH  30  35
BRANCH  31  37
ATOM     37  C   UNL     1       2.996   9.502  -0.435  1.00  0.00     0.191 C 
BRANCH  37  38
ATOM     38  O   UNL     1       1.954  10.104   0.288  1.00  0.00    -0.394 OA
ATOM     39  H   UNL     1       2.283  10.257   1.213  1.00  0.00     0.210 HD
ENDBRANCH  37  38
ENDBRANCH  31  37
BRANCH  32  40
ATOM     40  O   UNL     1       3.867   7.151  -1.736  1.00  0.00    -0.387 OA
ATOM     41  H   UNL     1       3.522   8.026  -2.054  1.00  0.00     0.211 HD
ENDBRANCH  32  40
ENDBRANCH   1  27
TORSDOF 12
ENDMDL
MODEL 6
REMARK VINA RESULT:     6.022      1.540      6.462
REMARK INTER + INTRA:          10.681
REMARK INTER:                   6.336
REMARK INTRA:                   4.345
REMARK UNBOUND:                 1.842
REMARK SMILES O=c1c(O[C@H]2O[C@H](CO)[C@H](O)[C@@H](O)[C@H]2O)c(-c2ccc(O)c(O)c2)oc2cc(O)cc(O)c12
REMARK SMILES IDX 4 1 3 2 16 3 25 4 2 5 26 6 1 7 33 8 27 9 31 10 28 11 30 12
REMARK SMILES IDX 17 13 18 14 19 15 20 16 24 17 22 18 21 19 23 21 32 23 29 25
REMARK SMILES IDX 5 27 14 28 6 29 12 30 7 31 10 32 15 33 13 35 8 37 9 38 11 40
REMARK H PARENT 21 20 23 22 32 24 29 26 15 34 13 36 9 39 11 41
REMARK Flexibility Score: inf
ROOT
ATOM      1  O   UNL     1      -1.299   5.728   0.811  1.00  0.00    -0.454 OA
ENDROOT
BRANCH   1   2
ATOM      2  C   UNL     1       0.100   5.792   0.714  1.00  0.00     0.214 A 
ATOM      3  C   UNL     1       0.921   4.670   0.964  1.00  0.00     0.180 A 
ATOM      4  O   UNL     1       2.245   4.808   0.953  1.00  0.00    -0.452 OA
ATOM      5  C   UNL     1       0.706   6.995   0.328  1.00  0.00     0.239 A 
ATOM      6  C   UNL     1       2.858   5.948   0.661  1.00  0.00     0.146 A 
ATOM      7  O   UNL     1      -0.020   7.973   0.002  1.00  0.00    -0.285 OA
ATOM      8  C   UNL     1       2.112   7.098   0.314  1.00  0.00     0.111 A 
ATOM      9  C   UNL     1       4.255   5.995   0.684  1.00  0.00     0.094 A 
ATOM     10  C   UNL     1       2.796   8.292  -0.017  1.00  0.00     0.134 A 
ATOM     11  C   UNL     1       4.926   7.178   0.357  1.00  0.00     0.123 A 
ATOM     12  C   UNL     1       4.199   8.317   0.006  1.00  0.00     0.093 A 
BRANCH   3  13
ATOM     13  C   UNL     1       0.373   3.318   1.211  1.00  0.00     0.025 A 
ATOM     14  C   UNL     1      -0.564   3.087   2.231  1.00  0.00     0.016 A 
ATOM     15  C   UNL     1      -1.093   1.812   2.427  1.00  0.00     0.051 A 
ATOM     16  C   UNL     1      -0.705   0.744   1.610  1.00  0.00     0.157 A 
ATOM     17  C   UNL     1       0.746   2.255   0.375  1.00  0.00     0.062 A 
ATOM     18  C   UNL     1       0.224   0.969   0.567  1.00  0.00     0.158 A 
BRANCH  16  19
ATOM     19  O   UNL     1      -1.259  -0.511   1.869  1.00  0.00    -0.504 OA
ATOM     20  H   UNL     1      -1.565  -0.816   2.781  1.00  0.00     0.293 HD
ENDBRANCH  16  19
BRANCH  18  21
ATOM     21  O   UNL     1       0.652  -0.044  -0.294  1.00  0.00    -0.504 OA
ATOM     22  H   UNL     1       1.611  -0.172  -0.580  1.00  0.00     0.293 HD
ENDBRANCH  18  21
ENDBRANCH   3  13
BRANCH  10  23
ATOM     23  O   UNL     1       2.097   9.450  -0.361  1.00  0.00    -0.507 OA
ATOM     24  H   UNL     1       2.471  10.121  -1.021  1.00  0.00     0.293 HD
ENDBRANCH  10  23
BRANCH  11  25
ATOM     25  O   UNL     1       6.319   7.231   0.375  1.00  0.00    -0.508 OA
ATOM     26  H   UNL     1       6.838   7.223   1.246  1.00  0.00     0.293 HD
ENDBRANCH  11  25
ENDBRANCH   1   2
BRANCH   1  27
ATOM     27  C   UNL     1      -2.185   6.837   0.598  1.00  0.00     0.339 C 
ATOM     28  C   UNL     1      -2.976   6.677  -0.722  1.00  0.00     0.214 C 
ATOM     29  O   UNL     1      -1.479   8.065   0.612  1.00  0.00    -0.332 OA
ATOM     30  C   UNL     1      -3.653   8.014  -1.146  1.00  0.00     0.180 C 
ATOM     31  C   UNL     1      -2.341   9.199   0.686  1.00  0.00     0.179 C 
ATOM     32  C   UNL     1      -3.746   9.009   0.030  1.00  0.00     0.177 C 
BRANCH  28  33
ATOM     33  O   UNL     1      -2.133   6.208  -1.743  1.00  0.00    -0.384 OA
ATOM     34  H   UNL     1      -2.260   5.225  -1.789  1.00  0.00     0.211 HD
ENDBRANCH  28  33
BRANCH  30  35
ATOM     35  O   UNL     1      -3.001   8.614  -2.242  1.00  0.00    -0.387 OA
ATOM     36  H   UNL     1      -3.686   9.063  -2.801  1.00  0.00     0.211 HD
ENDBRANCH  30  35
BRANCH  31  37
ATOM     37  C   UNL     1      -2.401   9.751   2.122  1.00  0.00     0.191 C 
BRANCH  37  38
ATOM     38  O   UNL     1      -1.124  10.125   2.571  1.00  0.00    -0.394 OA
ATOM     39  H   UNL     1      -0.907  11.002   2.158  1.00  0.00     0.210 HD
ENDBRANCH  37  38
ENDBRANCH  31  37
BRANCH  32  40
ATOM     40  O   UNL     1      -4.681   8.545   0.973  1.00  0.00    -0.387 OA
ATOM     41  H   UNL     1      -5.213   7.833   0.529  1.00  0.00     0.211 HD
ENDBRANCH  32  40
ENDBRANCH   1  27
TORSDOF 12
ENDMDL
MODEL 7
REMARK VINA RESULT:     6.053      2.196      6.018
REMARK INTER + INTRA:          10.725
REMARK INTER:                   7.840
REMARK INTRA:                   2.886
REMARK UNBOUND:                 1.842
REMARK SMILES O=c1c(O[C@H]2O[C@H](CO)[C@H](O)[C@@H](O)[C@H]2O)c(-c2ccc(O)c(O)c2)oc2cc(O)cc(O)c12
REMARK SMILES IDX 4 1 3 2 16 3 25 4 2 5 26 6 1 7 33 8 27 9 31 10 28 11 30 12
REMARK SMILES IDX 17 13 18 14 19 15 20 16 24 17 22 18 21 19 23 21 32 23 29 25
REMARK SMILES IDX 5 27 14 28 6 29 12 30 7 31 10 32 15 33 13 35 8 37 9 38 11 40
REMARK H PARENT 21 20 23 22 32 24 29 26 15 34 13 36 9 39 11 41
REMARK Flexibility Score: inf
ROOT
ATOM      1  O   UNL     1       2.766   1.373   0.419  1.00  0.00    -0.454 OA
ENDROOT
BRANCH   1   2
ATOM      2  C   UNL     1       1.913   2.459   0.670  1.00  0.00     0.214 A 
ATOM      3  C   UNL     1       0.556   2.282   1.020  1.00  0.00     0.180 A 
ATOM      4  O   UNL     1      -0.234   3.344   1.153  1.00  0.00    -0.452 OA
ATOM      5  C   UNL     1       2.424   3.761   0.601  1.00  0.00     0.239 A 
ATOM      6  C   UNL     1       0.195   4.593   1.027  1.00  0.00     0.146 A 
ATOM      7  O   UNL     1       3.656   3.930   0.390  1.00  0.00    -0.285 OA
ATOM      8  C   UNL     1       1.558   4.863   0.761  1.00  0.00     0.111 A 
ATOM      9  C   UNL     1      -0.715   5.644   1.176  1.00  0.00     0.094 A 
ATOM     10  C   UNL     1       1.989   6.207   0.658  1.00  0.00     0.134 A 
ATOM     11  C   UNL     1      -0.284   6.971   1.072  1.00  0.00     0.123 A 
ATOM     12  C   UNL     1       1.061   7.248   0.817  1.00  0.00     0.093 A 
BRANCH   3  13
ATOM     13  C   UNL     1      -0.033   0.950   1.284  1.00  0.00     0.025 A 
ATOM     14  C   UNL     1      -0.944   0.366   0.390  1.00  0.00     0.016 A 
ATOM     15  C   UNL     1      -1.464  -0.904   0.641  1.00  0.00     0.051 A 
ATOM     16  C   UNL     1      -1.083  -1.619   1.782  1.00  0.00     0.157 A 
ATOM     17  C   UNL     1       0.369   0.226   2.417  1.00  0.00     0.062 A 
ATOM     18  C   UNL     1      -0.150  -1.048   2.680  1.00  0.00     0.158 A 
BRANCH  16  19
ATOM     19  O   UNL     1      -1.652  -2.878   1.984  1.00  0.00    -0.504 OA
ATOM     20  H   UNL     1      -1.964  -3.482   1.238  1.00  0.00     0.293 HD
ENDBRANCH  16  19
BRANCH  18  21
ATOM     21  O   UNL     1       0.284  -1.704   3.834  1.00  0.00    -0.504 OA
ATOM     22  H   UNL     1      -0.258  -2.401   4.324  1.00  0.00     0.293 HD
ENDBRANCH  18  21
ENDBRANCH   3  13
BRANCH  10  23
ATOM     23  O   UNL     1       3.324   6.516   0.393  1.00  0.00    -0.507 OA
ATOM     24  H   UNL     1       3.720   6.414  -0.534  1.00  0.00     0.293 HD
ENDBRANCH  10  23
BRANCH  11  25
ATOM     25  O   UNL     1      -1.185   8.023   1.222  1.00  0.00    -0.508 OA
ATOM     26  H   UNL     1      -1.407   8.644   0.452  1.00  0.00     0.293 HD
ENDBRANCH  11  25
ENDBRANCH   1   2
BRANCH   1  27
ATOM     27  C   UNL     1       2.582   0.415  -0.635  1.00  0.00     0.339 C 
ATOM     28  C   UNL     1       1.781   1.023  -1.811  1.00  0.00     0.214 C 
ATOM     29  O   UNL     1       1.951  -0.758  -0.154  1.00  0.00    -0.332 OA
ATOM     30  C   UNL     1       1.264  -0.082  -2.780  1.00  0.00     0.180 C 
ATOM     31  C   UNL     1       2.001  -1.836  -1.087  1.00  0.00     0.179 C 
ATOM     32  C   UNL     1       2.024  -1.412  -2.590  1.00  0.00     0.177 C 
BRANCH  28  33
ATOM     33  O   UNL     1       0.710   1.793  -1.328  1.00  0.00    -0.384 OA
ATOM     34  H   UNL     1      -0.057   1.628  -1.936  1.00  0.00     0.211 HD
ENDBRANCH  28  33
BRANCH  30  35
ATOM     35  O   UNL     1      -0.124  -0.290  -2.652  1.00  0.00    -0.387 OA
ATOM     36  H   UNL     1      -0.455  -0.690  -3.497  1.00  0.00     0.211 HD
ENDBRANCH  30  35
BRANCH  31  37
ATOM     37  C   UNL     1       3.109  -2.837  -0.712  1.00  0.00     0.191 C 
BRANCH  37  38
ATOM     38  O   UNL     1       2.728  -4.151  -1.027  1.00  0.00    -0.394 OA
ATOM     39  H   UNL     1       3.272  -4.441  -1.806  1.00  0.00     0.210 HD
ENDBRANCH  37  38
ENDBRANCH  31  37
BRANCH  32  40
ATOM     40  O   UNL     1       3.345  -1.275  -3.053  1.00  0.00    -0.387 OA
ATOM     41  H   UNL     1       3.768  -2.171  -2.995  1.00  0.00     0.211 HD
ENDBRANCH  32  40
ENDBRANCH   1  27
TORSDOF 12
ENDMDL
