MODEL 1
REMARK VINA RESULT:    -7.039      0.000      0.000
REMARK INTER + INTRA:          -8.768
REMARK INTER:                  -8.480
REMARK INTRA:                  -0.289
REMARK UNBOUND:                -0.289
REMARK SMILES O=c1c(O)c(-c2ccc(O)c(O)c2)oc2cc(O)cc(O)c12
REMARK SMILES IDX 5 1 3 2 2 3 1 4 22 5 20 6 19 7 17 8 16 9 15 10 14 11 6 12
REMARK SMILES IDX 7 13 8 14 9 15 13 16 11 17 10 18 12 20 4 22 21 24 18 26
REMARK H PARENT 10 19 12 21 4 23 21 25 18 27
REMARK Flexibility Score: inf
ROOT
ATOM      1  C   UNL     1      16.482  18.158  25.510  1.00  0.00     0.180 A 
ATOM      2  C   UNL     1      17.488  17.383  24.907  1.00  0.00     0.208 A 
ATOM      3  C   UNL     1      18.815  17.536  25.339  1.00  0.00     0.238 A 
ATOM      4  O   UNL     1      19.719  16.880  24.759  1.00  0.00    -0.285 OA
ATOM      5  C   UNL     1      19.117  18.447  26.379  1.00  0.00     0.111 A 
ATOM      6  C   UNL     1      20.421  18.653  26.923  1.00  0.00     0.134 A 
ATOM      7  C   UNL     1      20.625  19.674  27.859  1.00  0.00     0.093 A 
ATOM      8  C   UNL     1      19.564  20.453  28.318  1.00  0.00     0.123 A 
ATOM      9  C   UNL     1      18.274  20.221  27.838  1.00  0.00     0.094 A 
ATOM     10  C   UNL     1      18.046  19.234  26.876  1.00  0.00     0.146 A 
ATOM     11  O   UNL     1      16.806  19.052  26.436  1.00  0.00    -0.452 OA
ENDROOT
BRANCH   1  12
ATOM     12  C   UNL     1      15.057  18.036  25.125  1.00  0.00     0.025 A 
ATOM     13  C   UNL     1      14.272  16.952  25.559  1.00  0.00     0.016 A 
ATOM     14  C   UNL     1      12.923  16.871  25.204  1.00  0.00     0.051 A 
ATOM     15  C   UNL     1      12.334  17.874  24.424  1.00  0.00     0.157 A 
ATOM     16  C   UNL     1      14.457  19.050  24.362  1.00  0.00     0.062 A 
ATOM     17  C   UNL     1      13.106  18.972  24.004  1.00  0.00     0.158 A 
BRANCH  15  18
ATOM     18  O   UNL     1      10.989  17.790  24.070  1.00  0.00    -0.504 OA
ATOM     19  H   UNL     1      10.618  18.290  23.271  1.00  0.00     0.293 HD
ENDBRANCH  15  18
BRANCH  17  20
ATOM     20  O   UNL     1      12.549  19.991  23.233  1.00  0.00    -0.504 OA
ATOM     21  H   UNL     1      12.583  20.962  23.519  1.00  0.00     0.293 HD
ENDBRANCH  17  20
ENDBRANCH   1  12
BRANCH   2  22
ATOM     22  O   UNL     1      17.171  16.505  23.867  1.00  0.00    -0.502 OA
ATOM     23  H   UNL     1      16.284  16.540  23.377  1.00  0.00     0.293 HD
ENDBRANCH   2  22
BRANCH   6  24
ATOM     24  O   UNL     1      21.533  17.871  26.601  1.00  0.00    -0.507 OA
ATOM     25  H   UNL     1      22.053  17.937  25.740  1.00  0.00     0.293 HD
ENDBRANCH   6  24
BRANCH   8  26
ATOM     26  O   UNL     1      19.801  21.451  29.263  1.00  0.00    -0.508 OA
ATOM     27  H   UNL     1      19.063  22.070  29.575  1.00  0.00     0.293 HD
ENDBRANCH   8  26
TORSDOF 6
ENDMDL
MODEL 2
REMARK VINA RESULT:    -6.948      5.520      7.293
REMARK INTER + INTRA:          -8.658
REMARK INTER:                  -8.385
REMARK INTRA:                  -0.273
REMARK UNBOUND:                -0.289
REMARK SMILES O=c1c(O)c(-c2ccc(O)c(O)c2)oc2cc(O)cc(O)c12
REMARK SMILES IDX 5 1 3 2 2 3 1 4 22 5 20 6 19 7 17 8 16 9 15 10 14 11 6 12
REMARK SMILES IDX 7 13 8 14 9 15 13 16 11 17 10 18 12 20 4 22 21 24 18 26
REMARK H PARENT 10 19 12 21 4 23 21 25 18 27
REMARK Flexibility Score: inf
ROOT
ATOM      1  C   UNL     1      18.106  18.677  20.031  1.00  0.00     0.180 A 
ATOM      2  C   UNL     1      18.021  17.946  18.833  1.00  0.00     0.208 A 
ATOM      3  C   UNL     1      18.259  16.563  18.863  1.00  0.00     0.238 A 
ATOM      4  O   UNL     1      18.235  15.923  17.779  1.00  0.00    -0.285 OA
ATOM      5  C   UNL     1      18.561  15.925  20.090  1.00  0.00     0.111 A 
ATOM      6  C   UNL     1      18.780  14.523  20.242  1.00  0.00     0.134 A 
ATOM      7  C   UNL     1      19.201  14.021  21.479  1.00  0.00     0.093 A 
ATOM      8  C   UNL     1      19.348  14.858  22.584  1.00  0.00     0.123 A 
ATOM      9  C   UNL     1      19.079  16.222  22.462  1.00  0.00     0.094 A 
ATOM     10  C   UNL     1      18.693  16.758  21.231  1.00  0.00     0.146 A 
ATOM     11  O   UNL     1      18.457  18.063  21.154  1.00  0.00    -0.452 OA
ENDROOT
BRANCH   1  12
ATOM     12  C   UNL     1      17.845  20.135  20.085  1.00  0.00     0.025 A 
ATOM     13  C   UNL     1      18.797  21.065  19.629  1.00  0.00     0.016 A 
ATOM     14  C   UNL     1      18.520  22.434  19.667  1.00  0.00     0.051 A 
ATOM     15  C   UNL     1      17.287  22.894  20.147  1.00  0.00     0.157 A 
ATOM     16  C   UNL     1      16.603  20.599  20.545  1.00  0.00     0.062 A 
ATOM     17  C   UNL     1      16.322  21.970  20.585  1.00  0.00     0.158 A 
BRANCH  15  18
ATOM     18  O   UNL     1      17.014  24.260  20.185  1.00  0.00    -0.504 OA
ATOM     19  H   UNL     1      16.452  24.668  20.923  1.00  0.00     0.293 HD
ENDBRANCH  15  18
BRANCH  17  20
ATOM     20  O   UNL     1      15.083  22.394  21.061  1.00  0.00    -0.504 OA
ATOM     21  H   UNL     1      14.230  21.880  20.875  1.00  0.00     0.293 HD
ENDBRANCH  17  20
ENDBRANCH   1  12
BRANCH   2  22
ATOM     22  O   UNL     1      17.743  18.600  17.629  1.00  0.00    -0.502 OA
ATOM     23  H   UNL     1      17.442  18.104  16.799  1.00  0.00     0.293 HD
ENDBRANCH   2  22
BRANCH   6  24
ATOM     24  O   UNL     1      18.573  13.586  19.226  1.00  0.00    -0.507 OA
ATOM     25  H   UNL     1      19.150  13.492  18.404  1.00  0.00     0.293 HD
ENDBRANCH   6  24
BRANCH   8  26
ATOM     26  O   UNL     1      19.754  14.320  23.805  1.00  0.00    -0.508 OA
ATOM     27  H   UNL     1      20.298  13.468  23.853  1.00  0.00     0.293 HD
ENDBRANCH   8  26
TORSDOF 6
ENDMDL
MODEL 3
REMARK VINA RESULT:    -6.945      4.982      8.025
REMARK INTER + INTRA:          -8.655
REMARK INTER:                  -8.406
REMARK INTRA:                  -0.249
REMARK UNBOUND:                -0.289
REMARK SMILES O=c1c(O)c(-c2ccc(O)c(O)c2)oc2cc(O)cc(O)c12
REMARK SMILES IDX 5 1 3 2 2 3 1 4 22 5 20 6 19 7 17 8 16 9 15 10 14 11 6 12
REMARK SMILES IDX 7 13 8 14 9 15 13 16 11 17 10 18 12 20 4 22 21 24 18 26
REMARK H PARENT 10 19 12 21 4 23 21 25 18 27
REMARK Flexibility Score: inf
ROOT
ATOM      1  C   UNL     1      14.694  20.394  21.421  1.00  0.00     0.180 A 
ATOM      2  C   UNL     1      13.464  20.632  20.784  1.00  0.00     0.208 A 
ATOM      3  C   UNL     1      12.298  20.065  21.322  1.00  0.00     0.238 A 
ATOM      4  O   UNL     1      11.208  20.237  20.716  1.00  0.00    -0.285 OA
ATOM      5  C   UNL     1      12.373  19.283  22.499  1.00  0.00     0.111 A 
ATOM      6  C   UNL     1      11.249  18.694  23.153  1.00  0.00     0.134 A 
ATOM      7  C   UNL     1      11.456  17.831  24.237  1.00  0.00     0.093 A 
ATOM      8  C   UNL     1      12.737  17.587  24.730  1.00  0.00     0.123 A 
ATOM      9  C   UNL     1      13.838  18.205  24.135  1.00  0.00     0.094 A 
ATOM     10  C   UNL     1      13.667  19.042  23.029  1.00  0.00     0.146 A 
ATOM     11  O   UNL     1      14.742  19.601  22.485  1.00  0.00    -0.452 OA
ENDROOT
BRANCH   1  12
ATOM     12  C   UNL     1      15.963  20.976  20.928  1.00  0.00     0.025 A 
ATOM     13  C   UNL     1      16.232  22.352  21.048  1.00  0.00     0.016 A 
ATOM     14  C   UNL     1      17.447  22.875  20.598  1.00  0.00     0.051 A 
ATOM     15  C   UNL     1      18.415  22.034  20.034  1.00  0.00     0.157 A 
ATOM     16  C   UNL     1      16.945  20.134  20.381  1.00  0.00     0.062 A 
ATOM     17  C   UNL     1      18.162  20.655  19.928  1.00  0.00     0.158 A 
BRANCH  15  18
ATOM     18  O   UNL     1      19.625  22.559  19.584  1.00  0.00    -0.504 OA
ATOM     19  H   UNL     1      20.114  23.282  20.099  1.00  0.00     0.293 HD
ENDBRANCH  15  18
BRANCH  17  20
ATOM     20  O   UNL     1      19.107  19.790  19.379  1.00  0.00    -0.504 OA
ATOM     21  H   UNL     1      18.901  19.205  18.578  1.00  0.00     0.293 HD
ENDBRANCH  17  20
ENDBRANCH   1  12
BRANCH   2  22
ATOM     22  O   UNL     1      13.416  21.389  19.610  1.00  0.00    -0.502 OA
ATOM     23  H   UNL     1      13.686  21.014  18.709  1.00  0.00     0.293 HD
ENDBRANCH   2  22
BRANCH   6  24
ATOM     24  O   UNL     1       9.921  18.944  22.800  1.00  0.00    -0.507 OA
ATOM     25  H   UNL     1       9.619  19.686  22.187  1.00  0.00     0.293 HD
ENDBRANCH   6  24
BRANCH   8  26
ATOM     26  O   UNL     1      12.904  16.735  25.820  1.00  0.00    -0.508 OA
ATOM     27  H   UNL     1      12.925  17.088  26.769  1.00  0.00     0.293 HD
ENDBRANCH   8  26
TORSDOF 6
ENDMDL
MODEL 4
REMARK VINA RESULT:    -6.833      6.690      9.236
REMARK INTER + INTRA:          -8.519
REMARK INTER:                  -8.268
REMARK INTRA:                  -0.252
REMARK UNBOUND:                -0.289
REMARK SMILES O=c1c(O)c(-c2ccc(O)c(O)c2)oc2cc(O)cc(O)c12
REMARK SMILES IDX 5 1 3 2 2 3 1 4 22 5 20 6 19 7 17 8 16 9 15 10 14 11 6 12
REMARK SMILES IDX 7 13 8 14 9 15 13 16 11 17 10 18 12 20 4 22 21 24 18 26
REMARK H PARENT 10 19 12 21 4 23 21 25 18 27
REMARK Flexibility Score: inf
ROOT
ATOM      1  C   UNL     1      17.298  19.271  19.034  1.00  0.00     0.180 A 
ATOM      2  C   UNL     1      18.154  18.215  19.392  1.00  0.00     0.208 A 
ATOM      3  C   UNL     1      17.963  16.955  18.805  1.00  0.00     0.238 A 
ATOM      4  O   UNL     1      18.698  16.000  19.170  1.00  0.00    -0.285 OA
ATOM      5  C   UNL     1      16.930  16.769  17.855  1.00  0.00     0.111 A 
ATOM      6  C   UNL     1      16.672  15.545  17.168  1.00  0.00     0.134 A 
ATOM      7  C   UNL     1      15.543  15.440  16.347  1.00  0.00     0.093 A 
ATOM      8  C   UNL     1      14.700  16.530  16.137  1.00  0.00     0.123 A 
ATOM      9  C   UNL     1      14.976  17.750  16.757  1.00  0.00     0.094 A 
ATOM     10  C   UNL     1      16.075  17.875  17.611  1.00  0.00     0.146 A 
ATOM     11  O   UNL     1      16.297  19.049  18.190  1.00  0.00    -0.452 OA
ENDROOT
BRANCH   1  12
ATOM     12  C   UNL     1      17.451  20.634  19.592  1.00  0.00     0.025 A 
ATOM     13  C   UNL     1      18.526  21.461  19.218  1.00  0.00     0.016 A 
ATOM     14  C   UNL     1      18.637  22.753  19.738  1.00  0.00     0.051 A 
ATOM     15  C   UNL     1      17.672  23.244  20.627  1.00  0.00     0.157 A 
ATOM     16  C   UNL     1      16.475  21.138  20.466  1.00  0.00     0.062 A 
ATOM     17  C   UNL     1      16.583  22.432  20.990  1.00  0.00     0.158 A 
BRANCH  15  18
ATOM     18  O   UNL     1      17.786  24.532  21.146  1.00  0.00    -0.504 OA
ATOM     19  H   UNL     1      18.688  24.979  21.261  1.00  0.00     0.293 HD
ENDBRANCH  15  18
BRANCH  17  20
ATOM     20  O   UNL     1      15.602  22.892  21.867  1.00  0.00    -0.504 OA
ATOM     21  H   UNL     1      15.359  22.393  22.714  1.00  0.00     0.293 HD
ENDBRANCH  17  20
ENDBRANCH   1  12
BRANCH   2  22
ATOM     22  O   UNL     1      19.154  18.415  20.349  1.00  0.00    -0.502 OA
ATOM     23  H   UNL     1      20.112  18.121  20.204  1.00  0.00     0.293 HD
ENDBRANCH   2  22
BRANCH   6  24
ATOM     24  O   UNL     1      17.502  14.422  17.234  1.00  0.00    -0.507 OA
ATOM     25  H   UNL     1      17.577  13.810  18.031  1.00  0.00     0.293 HD
ENDBRANCH   6  24
BRANCH   8  26
ATOM     26  O   UNL     1      13.593  16.393  15.301  1.00  0.00    -0.508 OA
ATOM     27  H   UNL     1      13.001  17.183  15.073  1.00  0.00     0.293 HD
ENDBRANCH   8  26
TORSDOF 6
ENDMDL
MODEL 5
REMARK VINA RESULT:    -6.800      5.305      6.435
REMARK INTER + INTRA:          -8.480
REMARK INTER:                  -8.147
REMARK INTRA:                  -0.334
REMARK UNBOUND:                -0.289
REMARK SMILES O=c1c(O)c(-c2ccc(O)c(O)c2)oc2cc(O)cc(O)c12
REMARK SMILES IDX 5 1 3 2 2 3 1 4 22 5 20 6 19 7 17 8 16 9 15 10 14 11 6 12
REMARK SMILES IDX 7 13 8 14 9 15 13 16 11 17 10 18 12 20 4 22 21 24 18 26
REMARK H PARENT 10 19 12 21 4 23 21 25 18 27
REMARK Flexibility Score: inf
ROOT
ATOM      1  C   UNL     1      14.392  21.274  22.390  1.00  0.00     0.180 A 
ATOM      2  C   UNL     1      14.569  22.376  23.245  1.00  0.00     0.208 A 
ATOM      3  C   UNL     1      15.633  23.260  23.004  1.00  0.00     0.238 A 
ATOM      4  O   UNL     1      15.819  24.214  23.804  1.00  0.00    -0.285 OA
ATOM      5  C   UNL     1      16.496  23.041  21.904  1.00  0.00     0.111 A 
ATOM      6  C   UNL     1      17.582  23.894  21.543  1.00  0.00     0.134 A 
ATOM      7  C   UNL     1      18.449  23.509  20.514  1.00  0.00     0.093 A 
ATOM      8  C   UNL     1      18.235  22.337  19.791  1.00  0.00     0.123 A 
ATOM      9  C   UNL     1      17.142  21.524  20.095  1.00  0.00     0.094 A 
ATOM     10  C   UNL     1      16.279  21.864  21.141  1.00  0.00     0.146 A 
ATOM     11  O   UNL     1      15.258  21.058  21.407  1.00  0.00    -0.452 OA
ENDROOT
BRANCH   1  12
ATOM     12  C   UNL     1      13.280  20.312  22.565  1.00  0.00     0.025 A 
ATOM     13  C   UNL     1      12.023  20.533  21.973  1.00  0.00     0.016 A 
ATOM     14  C   UNL     1      10.995  19.599  22.131  1.00  0.00     0.051 A 
ATOM     15  C   UNL     1      11.210  18.428  22.868  1.00  0.00     0.157 A 
ATOM     16  C   UNL     1      13.496  19.127  23.285  1.00  0.00     0.062 A 
ATOM     17  C   UNL     1      12.469  18.190  23.446  1.00  0.00     0.158 A 
BRANCH  15  18
ATOM     18  O   UNL     1      10.182  17.499  23.026  1.00  0.00    -0.504 OA
ATOM     19  H   UNL     1       9.402  17.672  23.649  1.00  0.00     0.293 HD
ENDBRANCH  15  18
BRANCH  17  20
ATOM     20  O   UNL     1      12.718  17.031  24.180  1.00  0.00    -0.504 OA
ATOM     21  H   UNL     1      12.248  16.837  25.056  1.00  0.00     0.293 HD
ENDBRANCH  17  20
ENDBRANCH   1  12
BRANCH   2  22
ATOM     22  O   UNL     1      13.718  22.561  24.338  1.00  0.00    -0.502 OA
ATOM     23  H   UNL     1      12.989  23.264  24.347  1.00  0.00     0.293 HD
ENDBRANCH   2  22
BRANCH   6  24
ATOM     24  O   UNL     1      17.833  25.133  22.140  1.00  0.00    -0.507 OA
ATOM     25  H   UNL     1      18.651  25.353  22.685  1.00  0.00     0.293 HD
ENDBRANCH   6  24
BRANCH   8  26
ATOM     26  O   UNL     1      19.110  21.993  18.762  1.00  0.00    -0.508 OA
ATOM     27  H   UNL     1      19.897  21.376  18.921  1.00  0.00     0.293 HD
ENDBRANCH   8  26
TORSDOF 6
ENDMDL
MODEL 6
REMARK VINA RESULT:    -6.767      5.402      5.925
REMARK INTER + INTRA:          -8.440
REMARK INTER:                  -8.148
REMARK INTRA:                  -0.292
REMARK UNBOUND:                -0.289
REMARK SMILES O=c1c(O)c(-c2ccc(O)c(O)c2)oc2cc(O)cc(O)c12
REMARK SMILES IDX 5 1 3 2 2 3 1 4 22 5 20 6 19 7 17 8 16 9 15 10 14 11 6 12
REMARK SMILES IDX 7 13 8 14 9 15 13 16 11 17 10 18 12 20 4 22 21 24 18 26
REMARK H PARENT 10 19 12 21 4 23 21 25 18 27
REMARK Flexibility Score: inf
ROOT
ATOM      1  C   UNL     1      14.355  20.606  21.671  1.00  0.00     0.180 A 
ATOM      2  C   UNL     1      14.969  20.164  20.486  1.00  0.00     0.208 A 
ATOM      3  C   UNL     1      16.097  20.848  20.008  1.00  0.00     0.238 A 
ATOM      4  O   UNL     1      16.610  20.481  18.918  1.00  0.00    -0.285 OA
ATOM      5  C   UNL     1      16.608  21.954  20.728  1.00  0.00     0.111 A 
ATOM      6  C   UNL     1      17.769  22.697  20.357  1.00  0.00     0.134 A 
ATOM      7  C   UNL     1      18.107  23.852  21.071  1.00  0.00     0.093 A 
ATOM      8  C   UNL     1      17.365  24.257  22.180  1.00  0.00     0.123 A 
ATOM      9  C   UNL     1      16.262  23.506  22.588  1.00  0.00     0.094 A 
ATOM     10  C   UNL     1      15.879  22.368  21.873  1.00  0.00     0.146 A 
ATOM     11  O   UNL     1      14.817  21.687  22.288  1.00  0.00    -0.452 OA
ENDROOT
BRANCH   1  12
ATOM     12  C   UNL     1      13.176  19.922  22.251  1.00  0.00     0.025 A 
ATOM     13  C   UNL     1      11.882  20.142  21.747  1.00  0.00     0.016 A 
ATOM     14  C   UNL     1      10.787  19.467  22.293  1.00  0.00     0.051 A 
ATOM     15  C   UNL     1      10.969  18.554  23.340  1.00  0.00     0.157 A 
ATOM     16  C   UNL     1      13.356  18.990  23.285  1.00  0.00     0.062 A 
ATOM     17  C   UNL     1      12.262  18.312  23.836  1.00  0.00     0.158 A 
BRANCH  15  18
ATOM     18  O   UNL     1       9.875  17.883  23.884  1.00  0.00    -0.504 OA
ATOM     19  H   UNL     1       9.369  17.180  23.359  1.00  0.00     0.293 HD
ENDBRANCH  15  18
BRANCH  17  20
ATOM     20  O   UNL     1      12.478  17.405  24.872  1.00  0.00    -0.504 OA
ATOM     21  H   UNL     1      12.003  17.482  25.764  1.00  0.00     0.293 HD
ENDBRANCH  17  20
ENDBRANCH   1  12
BRANCH   2  22
ATOM     22  O   UNL     1      14.434  19.082  19.779  1.00  0.00    -0.502 OA
ATOM     23  H   UNL     1      13.521  18.695  19.986  1.00  0.00     0.293 HD
ENDBRANCH   2  22
BRANCH   6  24
ATOM     24  O   UNL     1      18.633  22.328  19.322  1.00  0.00    -0.507 OA
ATOM     25  H   UNL     1      18.460  21.580  18.667  1.00  0.00     0.293 HD
ENDBRANCH   6  24
BRANCH   8  26
ATOM     26  O   UNL     1      17.740  25.405  22.876  1.00  0.00    -0.508 OA
ATOM     27  H   UNL     1      18.705  25.582  23.125  1.00  0.00     0.293 HD
ENDBRANCH   8  26
TORSDOF 6
ENDMDL
MODEL 7
REMARK VINA RESULT:    -6.761      1.717      3.671
REMARK INTER + INTRA:          -8.433
REMARK INTER:                  -8.221
REMARK INTRA:                  -0.212
REMARK UNBOUND:                -0.289
REMARK SMILES O=c1c(O)c(-c2ccc(O)c(O)c2)oc2cc(O)cc(O)c12
REMARK SMILES IDX 5 1 3 2 2 3 1 4 22 5 20 6 19 7 17 8 16 9 15 10 14 11 6 12
REMARK SMILES IDX 7 13 8 14 9 15 13 16 11 17 10 18 12 20 4 22 21 24 18 26
REMARK H PARENT 10 19 12 21 4 23 21 25 18 27
REMARK Flexibility Score: inf
ROOT
ATOM      1  C   UNL     1      16.608  17.513  24.990  1.00  0.00     0.180 A 
ATOM      2  C   UNL     1      17.403  18.280  25.859  1.00  0.00     0.208 A 
ATOM      3  C   UNL     1      18.772  17.986  25.967  1.00  0.00     0.238 A 
ATOM      4  O   UNL     1      19.467  18.640  26.787  1.00  0.00    -0.285 OA
ATOM      5  C   UNL     1      19.331  16.942  25.193  1.00  0.00     0.111 A 
ATOM      6  C   UNL     1      20.713  16.584  25.193  1.00  0.00     0.134 A 
ATOM      7  C   UNL     1      21.133  15.450  24.487  1.00  0.00     0.093 A 
ATOM      8  C   UNL     1      20.235  14.700  23.730  1.00  0.00     0.123 A 
ATOM      9  C   UNL     1      18.891  15.074  23.675  1.00  0.00     0.094 A 
ATOM     10  C   UNL     1      18.436  16.180  24.398  1.00  0.00     0.146 A 
ATOM     11  O   UNL     1      17.148  16.497  24.327  1.00  0.00    -0.452 OA
ENDROOT
BRANCH   1  12
ATOM     12  C   UNL     1      15.162  17.777  24.804  1.00  0.00     0.025 A 
ATOM     13  C   UNL     1      14.188  16.898  25.310  1.00  0.00     0.016 A 
ATOM     14  C   UNL     1      12.829  17.180  25.145  1.00  0.00     0.051 A 
ATOM     15  C   UNL     1      12.424  18.347  24.485  1.00  0.00     0.157 A 
ATOM     16  C   UNL     1      14.751  18.956  24.163  1.00  0.00     0.062 A 
ATOM     17  C   UNL     1      13.391  19.241  23.994  1.00  0.00     0.158 A 
BRANCH  15  18
ATOM     18  O   UNL     1      11.068  18.625  24.320  1.00  0.00    -0.504 OA
ATOM     19  H   UNL     1      10.737  19.233  23.579  1.00  0.00     0.293 HD
ENDBRANCH  15  18
BRANCH  17  20
ATOM     20  O   UNL     1      13.021  20.415  23.339  1.00  0.00    -0.504 OA
ATOM     21  H   UNL     1      12.577  20.407  22.428  1.00  0.00     0.293 HD
ENDBRANCH  17  20
ENDBRANCH   1  12
BRANCH   2  22
ATOM     22  O   UNL     1      16.825  19.292  26.631  1.00  0.00    -0.502 OA
ATOM     23  H   UNL     1      17.303  20.162  26.833  1.00  0.00     0.293 HD
ENDBRANCH   2  22
BRANCH   6  24
ATOM     24  O   UNL     1      21.710  17.320  25.841  1.00  0.00    -0.507 OA
ATOM     25  H   UNL     1      22.446  17.827  25.374  1.00  0.00     0.293 HD
ENDBRANCH   6  24
BRANCH   8  26
ATOM     26  O   UNL     1      20.690  13.585  23.027  1.00  0.00    -0.508 OA
ATOM     27  H   UNL     1      21.549  13.613  22.491  1.00  0.00     0.293 HD
ENDBRANCH   8  26
TORSDOF 6
ENDMDL
MODEL 8
REMARK VINA RESULT:    -6.758      6.940      9.228
REMARK INTER + INTRA:          -8.429
REMARK INTER:                  -8.113
REMARK INTRA:                  -0.316
REMARK UNBOUND:                -0.289
REMARK SMILES O=c1c(O)c(-c2ccc(O)c(O)c2)oc2cc(O)cc(O)c12
REMARK SMILES IDX 5 1 3 2 2 3 1 4 22 5 20 6 19 7 17 8 16 9 15 10 14 11 6 12
REMARK SMILES IDX 7 13 8 14 9 15 13 16 11 17 10 18 12 20 4 22 21 24 18 26
REMARK H PARENT 10 19 12 21 4 23 21 25 18 27
REMARK Flexibility Score: inf
ROOT
ATOM      1  C   UNL     1      17.676  18.983  18.920  1.00  0.00     0.180 A 
ATOM      2  C   UNL     1      18.091  17.899  19.713  1.00  0.00     0.208 A 
ATOM      3  C   UNL     1      18.232  16.636  19.118  1.00  0.00     0.238 A 
ATOM      4  O   UNL     1      18.551  15.658  19.844  1.00  0.00    -0.285 OA
ATOM      5  C   UNL     1      17.974  16.475  17.736  1.00  0.00     0.111 A 
ATOM      6  C   UNL     1      18.123  15.248  17.021  1.00  0.00     0.134 A 
ATOM      7  C   UNL     1      17.714  15.174  15.684  1.00  0.00     0.093 A 
ATOM      8  C   UNL     1      17.221  16.296  15.019  1.00  0.00     0.123 A 
ATOM      9  C   UNL     1      17.126  17.515  15.690  1.00  0.00     0.094 A 
ATOM     10  C   UNL     1      17.493  17.611  17.035  1.00  0.00     0.146 A 
ATOM     11  O   UNL     1      17.377  18.787  17.642  1.00  0.00    -0.452 OA
ENDROOT
BRANCH   1  12
ATOM     12  C   UNL     1      17.528  20.351  19.470  1.00  0.00     0.025 A 
ATOM     13  C   UNL     1      18.555  21.304  19.347  1.00  0.00     0.016 A 
ATOM     14  C   UNL     1      18.383  22.595  19.852  1.00  0.00     0.051 A 
ATOM     15  C   UNL     1      17.181  22.959  20.473  1.00  0.00     0.157 A 
ATOM     16  C   UNL     1      16.317  20.726  20.074  1.00  0.00     0.062 A 
ATOM     17  C   UNL     1      16.142  22.019  20.581  1.00  0.00     0.158 A 
BRANCH  15  18
ATOM     18  O   UNL     1      17.013  24.247  20.977  1.00  0.00    -0.504 OA
ATOM     19  H   UNL     1      17.404  25.056  20.506  1.00  0.00     0.293 HD
ENDBRANCH  15  18
BRANCH  17  20
ATOM     20  O   UNL     1      14.930  22.351  21.186  1.00  0.00    -0.504 OA
ATOM     21  H   UNL     1      14.795  22.291  22.189  1.00  0.00     0.293 HD
ENDBRANCH  17  20
ENDBRANCH   1  12
BRANCH   2  22
ATOM     22  O   UNL     1      18.320  18.076  21.081  1.00  0.00    -0.502 OA
ATOM     23  H   UNL     1      18.419  17.297  21.721  1.00  0.00     0.293 HD
ENDBRANCH   2  22
BRANCH   6  24
ATOM     24  O   UNL     1      18.690  14.092  17.565  1.00  0.00    -0.507 OA
ATOM     25  H   UNL     1      18.166  13.324  17.955  1.00  0.00     0.293 HD
ENDBRANCH   6  24
BRANCH   8  26
ATOM     26  O   UNL     1      16.838  16.189  13.683  1.00  0.00    -0.508 OA
ATOM     27  H   UNL     1      17.349  16.660  12.946  1.00  0.00     0.293 HD
ENDBRANCH   8  26
TORSDOF 6
ENDMDL
MODEL 9
REMARK VINA RESULT:    -6.573      2.126      7.275
REMARK INTER + INTRA:          -8.207
REMARK INTER:                  -7.894
REMARK INTRA:                  -0.313
REMARK UNBOUND:                -0.289
REMARK SMILES O=c1c(O)c(-c2ccc(O)c(O)c2)oc2cc(O)cc(O)c12
REMARK SMILES IDX 5 1 3 2 2 3 1 4 22 5 20 6 19 7 17 8 16 9 15 10 14 11 6 12
REMARK SMILES IDX 7 13 8 14 9 15 13 16 11 17 10 18 12 20 4 22 21 24 18 26
REMARK H PARENT 10 19 12 21 4 23 21 25 18 27
REMARK Flexibility Score: inf
ROOT
ATOM      1  C   UNL     1      14.951  18.181  24.517  1.00  0.00     0.180 A 
ATOM      2  C   UNL     1      13.738  17.546  24.832  1.00  0.00     0.208 A 
ATOM      3  C   UNL     1      12.581  17.894  24.116  1.00  0.00     0.238 A 
ATOM      4  O   UNL     1      11.487  17.361  24.439  1.00  0.00    -0.285 OA
ATOM      5  C   UNL     1      12.655  18.859  23.083  1.00  0.00     0.111 A 
ATOM      6  C   UNL     1      11.555  19.258  22.267  1.00  0.00     0.134 A 
ATOM      7  C   UNL     1      11.714  20.316  21.364  1.00  0.00     0.093 A 
ATOM      8  C   UNL     1      12.947  20.945  21.201  1.00  0.00     0.123 A 
ATOM      9  C   UNL     1      14.045  20.524  21.951  1.00  0.00     0.094 A 
ATOM     10  C   UNL     1      13.909  19.495  22.887  1.00  0.00     0.146 A 
ATOM     11  O   UNL     1      14.975  19.131  23.589  1.00  0.00    -0.452 OA
ENDROOT
BRANCH   1  12
ATOM     12  C   UNL     1      16.217  17.851  25.211  1.00  0.00     0.025 A 
ATOM     13  C   UNL     1      16.657  18.594  26.321  1.00  0.00     0.016 A 
ATOM     14  C   UNL     1      17.843  18.250  26.976  1.00  0.00     0.051 A 
ATOM     15  C   UNL     1      18.598  17.153  26.542  1.00  0.00     0.157 A 
ATOM     16  C   UNL     1      16.967  16.740  24.793  1.00  0.00     0.062 A 
ATOM     17  C   UNL     1      18.155  16.393  25.445  1.00  0.00     0.158 A 
BRANCH  15  18
ATOM     18  O   UNL     1      19.781  16.813  27.195  1.00  0.00    -0.504 OA
ATOM     19  H   UNL     1      19.849  15.982  27.773  1.00  0.00     0.293 HD
ENDBRANCH  15  18
BRANCH  17  20
ATOM     20  O   UNL     1      18.880  15.291  24.993  1.00  0.00    -0.504 OA
ATOM     21  H   UNL     1      19.292  15.260  24.068  1.00  0.00     0.293 HD
ENDBRANCH  17  20
ENDBRANCH   1  12
BRANCH   2  22
ATOM     22  O   UNL     1      13.683  16.612  25.871  1.00  0.00    -0.502 OA
ATOM     23  H   UNL     1      13.330  16.842  26.792  1.00  0.00     0.293 HD
ENDBRANCH   2  22
BRANCH   6  24
ATOM     24  O   UNL     1      10.304  18.635  22.284  1.00  0.00    -0.507 OA
ATOM     25  H   UNL     1       9.422  19.117  22.371  1.00  0.00     0.293 HD
ENDBRANCH   6  24
BRANCH   8  26
ATOM     26  O   UNL     1      13.073  21.985  20.280  1.00  0.00    -0.508 OA
ATOM     27  H   UNL     1      13.703  22.761  20.441  1.00  0.00     0.293 HD
ENDBRANCH   8  26
TORSDOF 6
ENDMDL
