MODEL 1
REMARK VINA RESULT:    -8.064      0.000      0.000
REMARK INTER + INTRA:          -8.796
REMARK INTER:                  -8.535
REMARK INTRA:                  -0.261
REMARK UNBOUND:                -0.261
REMARK SMILES O=c1cc(-c2ccccc2)oc2ccccc12
REMARK SMILES IDX 4 1 3 2 2 3 1 4 17 5 16 6 15 7 14 8 13 9 12 10 11 11 5 12
REMARK SMILES IDX 8 13 7 14 9 15 6 16 10 17
REMARK H PARENT
REMARK Flexibility Score: inf
ROOT
ATOM      1  C   UNL     1     166.006 152.783 150.548  1.00  0.00     0.138 A 
ATOM      2  C   UNL     1     167.100 153.149 149.737  1.00  0.00     0.100 A 
ATOM      3  C   UNL     1     166.988 153.058 148.347  1.00  0.00     0.193 A 
ATOM      4  O   UNL     1     167.968 153.385 147.623  1.00  0.00    -0.289 OA
ATOM      5  C   UNL     1     165.789 152.605 147.780  1.00  0.00     0.065 A 
ATOM      6  C   UNL     1     165.610 152.491 146.389  1.00  0.00     0.016 A 
ATOM      7  C   UNL     1     164.394 152.033 145.875  1.00  0.00     0.001 A 
ATOM      8  C   UNL     1     163.350 151.688 146.739  1.00  0.00     0.004 A 
ATOM      9  C   UNL     1     163.520 151.799 148.122  1.00  0.00     0.048 A 
ATOM     10  C   UNL     1     164.734 152.256 148.648  1.00  0.00     0.138 A 
ATOM     11  O   UNL     1     164.884 152.357 149.964  1.00  0.00    -0.456 OA
ENDROOT
BRANCH   1  12
ATOM     12  C   UNL     1     166.042 152.849 152.042  1.00  0.00     0.017 A 
ATOM     13  C   UNL     1     166.034 152.911 154.864  1.00  0.00     0.000 A 
ATOM     14  C   UNL     1     166.958 153.676 154.150  1.00  0.00     0.001 A 
ATOM     15  C   UNL     1     165.116 152.116 154.181  1.00  0.00     0.001 A 
ATOM     16  C   UNL     1     166.966 153.649 152.752  1.00  0.00     0.012 A 
ATOM     17  C   UNL     1     165.117 152.084 152.784  1.00  0.00     0.012 A 
ENDBRANCH   1  12
TORSDOF 1
ENDMDL
MODEL 2
REMARK VINA RESULT:    -8.011      3.268      4.049
REMARK INTER + INTRA:          -8.741
REMARK INTER:                  -8.517
REMARK INTRA:                  -0.224
REMARK UNBOUND:                -0.261
REMARK SMILES O=c1cc(-c2ccccc2)oc2ccccc12
REMARK SMILES IDX 4 1 3 2 2 3 1 4 17 5 16 6 15 7 14 8 13 9 12 10 11 11 5 12
REMARK SMILES IDX 8 13 7 14 9 15 6 16 10 17
REMARK H PARENT
REMARK Flexibility Score: inf
ROOT
ATOM      1  C   UNL     1     163.914 151.138 151.151  1.00  0.00     0.138 A 
ATOM      2  C   UNL     1     164.403 151.243 149.833  1.00  0.00     0.100 A 
ATOM      3  C   UNL     1     164.259 150.164 148.957  1.00  0.00     0.193 A 
ATOM      4  O   UNL     1     164.697 150.258 147.778  1.00  0.00    -0.289 OA
ATOM      5  C   UNL     1     163.629 148.994 149.403  1.00  0.00     0.065 A 
ATOM      6  C   UNL     1     163.451 147.871 148.572  1.00  0.00     0.016 A 
ATOM      7  C   UNL     1     162.816 146.729 149.067  1.00  0.00     0.001 A 
ATOM      8  C   UNL     1     162.356 146.695 150.386  1.00  0.00     0.004 A 
ATOM      9  C   UNL     1     162.528 147.805 151.217  1.00  0.00     0.048 A 
ATOM     10  C   UNL     1     163.163 148.955 150.733  1.00  0.00     0.138 A 
ATOM     11  O   UNL     1     163.322 150.005 151.532  1.00  0.00    -0.456 OA
ENDROOT
BRANCH   1  12
ATOM     12  C   UNL     1     164.028 152.244 152.152  1.00  0.00     0.017 A 
ATOM     13  C   UNL     1     164.174 154.381 153.991  1.00  0.00     0.000 A 
ATOM     14  C   UNL     1     164.971 153.249 154.169  1.00  0.00     0.001 A 
ATOM     15  C   UNL     1     163.305 154.454 152.903  1.00  0.00     0.001 A 
ATOM     16  C   UNL     1     164.902 152.188 153.262  1.00  0.00     0.012 A 
ATOM     17  C   UNL     1     163.231 153.398 151.991  1.00  0.00     0.012 A 
ENDBRANCH   1  12
TORSDOF 1
ENDMDL
MODEL 3
REMARK VINA RESULT:    -7.929      2.867      5.077
REMARK INTER + INTRA:          -8.654
REMARK INTER:                  -8.391
REMARK INTRA:                  -0.262
REMARK UNBOUND:                -0.261
REMARK SMILES O=c1cc(-c2ccccc2)oc2ccccc12
REMARK SMILES IDX 4 1 3 2 2 3 1 4 17 5 16 6 15 7 14 8 13 9 12 10 11 11 5 12
REMARK SMILES IDX 8 13 7 14 9 15 6 16 10 17
REMARK H PARENT
REMARK Flexibility Score: inf
ROOT
ATOM      1  C   UNL     1     164.378 150.495 149.234  1.00  0.00     0.138 A 
ATOM      2  C   UNL     1     164.433 151.056 147.941  1.00  0.00     0.100 A 
ATOM      3  C   UNL     1     165.160 152.229 147.730  1.00  0.00     0.193 A 
ATOM      4  O   UNL     1     165.208 152.730 146.573  1.00  0.00    -0.289 OA
ATOM      5  C   UNL     1     165.825 152.832 148.806  1.00  0.00     0.065 A 
ATOM      6  C   UNL     1     166.575 154.015 148.662  1.00  0.00     0.016 A 
ATOM      7  C   UNL     1     167.219 154.574 149.769  1.00  0.00     0.001 A 
ATOM      8  C   UNL     1     167.121 153.964 151.023  1.00  0.00     0.004 A 
ATOM      9  C   UNL     1     166.379 152.789 151.175  1.00  0.00     0.048 A 
ATOM     10  C   UNL     1     165.730 152.220 150.074  1.00  0.00     0.138 A 
ATOM     11  O   UNL     1     165.027 151.103 150.229  1.00  0.00    -0.456 OA
ENDROOT
BRANCH   1  12
ATOM     12  C   UNL     1     163.623 149.243 149.548  1.00  0.00     0.017 A 
ATOM     13  C   UNL     1     162.197 146.857 150.043  1.00  0.00     0.000 A 
ATOM     14  C   UNL     1     162.561 147.687 151.104  1.00  0.00     0.001 A 
ATOM     15  C   UNL     1     162.540 147.207 148.738  1.00  0.00     0.001 A 
ATOM     16  C   UNL     1     163.267 148.870 150.864  1.00  0.00     0.012 A 
ATOM     17  C   UNL     1     163.245 148.388 148.490  1.00  0.00     0.012 A 
ENDBRANCH   1  12
TORSDOF 1
ENDMDL
MODEL 4
REMARK VINA RESULT:    -7.883      3.024      5.409
REMARK INTER + INTRA:          -8.606
REMARK INTER:                  -8.344
REMARK INTRA:                  -0.261
REMARK UNBOUND:                -0.261
REMARK SMILES O=c1cc(-c2ccccc2)oc2ccccc12
REMARK SMILES IDX 4 1 3 2 2 3 1 4 17 5 16 6 15 7 14 8 13 9 12 10 11 11 5 12
REMARK SMILES IDX 8 13 7 14 9 15 6 16 10 17
REMARK H PARENT
REMARK Flexibility Score: inf
ROOT
ATOM      1  C   UNL     1     163.993 150.670 150.496  1.00  0.00     0.138 A 
ATOM      2  C   UNL     1     163.666 151.340 151.693  1.00  0.00     0.100 A 
ATOM      3  C   UNL     1     164.187 152.613 151.934  1.00  0.00     0.193 A 
ATOM      4  O   UNL     1     163.895 153.212 153.005  1.00  0.00    -0.289 OA
ATOM      5  C   UNL     1     165.028 153.206 150.982  1.00  0.00     0.065 A 
ATOM      6  C   UNL     1     165.586 154.485 151.162  1.00  0.00     0.016 A 
ATOM      7  C   UNL     1     166.418 155.030 150.180  1.00  0.00     0.001 A 
ATOM      8  C   UNL     1     166.700 154.309 149.016  1.00  0.00     0.004 A 
ATOM      9  C   UNL     1     166.149 153.038 148.829  1.00  0.00     0.048 A 
ATOM     10  C   UNL     1     165.314 152.482 149.806  1.00  0.00     0.138 A 
ATOM     11  O   UNL     1     164.797 151.272 149.618  1.00  0.00    -0.456 OA
ENDROOT
BRANCH   1  12
ATOM     12  C   UNL     1     163.479 149.306 150.159  1.00  0.00     0.017 A 
ATOM     13  C   UNL     1     162.489 146.718 149.619  1.00  0.00     0.000 A 
ATOM     14  C   UNL     1     162.969 147.514 148.579  1.00  0.00     0.001 A 
ATOM     15  C   UNL     1     162.500 147.202 150.926  1.00  0.00     0.001 A 
ATOM     16  C   UNL     1     163.460 148.797 148.840  1.00  0.00     0.012 A 
ATOM     17  C   UNL     1     162.989 148.483 151.196  1.00  0.00     0.012 A 
ENDBRANCH   1  12
TORSDOF 1
ENDMDL
MODEL 5
REMARK VINA RESULT:    -7.865      3.005      5.331
REMARK INTER + INTRA:          -8.587
REMARK INTER:                  -8.329
REMARK INTRA:                  -0.257
REMARK UNBOUND:                -0.261
REMARK SMILES O=c1cc(-c2ccccc2)oc2ccccc12
REMARK SMILES IDX 4 1 3 2 2 3 1 4 17 5 16 6 15 7 14 8 13 9 12 10 11 11 5 12
REMARK SMILES IDX 8 13 7 14 9 15 6 16 10 17
REMARK H PARENT
REMARK Flexibility Score: inf
ROOT
ATOM      1  C   UNL     1     164.069 151.304 150.487  1.00  0.00     0.138 A 
ATOM      2  C   UNL     1     165.040 151.964 149.706  1.00  0.00     0.100 A 
ATOM      3  C   UNL     1     165.400 153.276 150.021  1.00  0.00     0.193 A 
ATOM      4  O   UNL     1     166.268 153.867 149.321  1.00  0.00    -0.289 OA
ATOM      5  C   UNL     1     164.792 153.916 151.109  1.00  0.00     0.065 A 
ATOM      6  C   UNL     1     165.110 155.237 151.480  1.00  0.00     0.016 A 
ATOM      7  C   UNL     1     164.473 155.828 152.575  1.00  0.00     0.001 A 
ATOM      8  C   UNL     1     163.520 155.112 153.306  1.00  0.00     0.004 A 
ATOM      9  C   UNL     1     163.199 153.801 152.944  1.00  0.00     0.048 A 
ATOM     10  C   UNL     1     163.830 153.198 151.849  1.00  0.00     0.138 A 
ATOM     11  O   UNL     1     163.517 151.952 151.514  1.00  0.00    -0.456 OA
ENDROOT
BRANCH   1  12
ATOM     12  C   UNL     1     163.626 149.900 150.219  1.00  0.00     0.017 A 
ATOM     13  C   UNL     1     162.768 147.242 149.807  1.00  0.00     0.000 A 
ATOM     14  C   UNL     1     163.227 148.003 148.732  1.00  0.00     0.001 A 
ATOM     15  C   UNL     1     162.732 147.798 151.086  1.00  0.00     0.001 A 
ATOM     16  C   UNL     1     163.654 149.320 148.930  1.00  0.00     0.012 A 
ATOM     17  C   UNL     1     163.157 149.113 151.292  1.00  0.00     0.012 A 
ENDBRANCH   1  12
TORSDOF 1
ENDMDL
MODEL 6
REMARK VINA RESULT:    -7.801      1.370      2.744
REMARK INTER + INTRA:          -8.518
REMARK INTER:                  -8.261
REMARK INTRA:                  -0.257
REMARK UNBOUND:                -0.261
REMARK SMILES O=c1cc(-c2ccccc2)oc2ccccc12
REMARK SMILES IDX 4 1 3 2 2 3 1 4 17 5 16 6 15 7 14 8 13 9 12 10 11 11 5 12
REMARK SMILES IDX 8 13 7 14 9 15 6 16 10 17
REMARK H PARENT
REMARK Flexibility Score: inf
ROOT
ATOM      1  C   UNL     1     165.641 152.123 150.706  1.00  0.00     0.138 A 
ATOM      2  C   UNL     1     164.430 151.600 150.207  1.00  0.00     0.100 A 
ATOM      3  C   UNL     1     164.341 151.235 148.862  1.00  0.00     0.193 A 
ATOM      4  O   UNL     1     163.257 150.768 148.416  1.00  0.00    -0.289 OA
ATOM      5  C   UNL     1     165.457 151.393 148.029  1.00  0.00     0.065 A 
ATOM      6  C   UNL     1     165.434 151.044 146.665  1.00  0.00     0.016 A 
ATOM      7  C   UNL     1     166.575 151.222 145.879  1.00  0.00     0.001 A 
ATOM      8  C   UNL     1     167.743 151.746 146.441  1.00  0.00     0.004 A 
ATOM      9  C   UNL     1     167.774 152.094 147.794  1.00  0.00     0.048 A 
ATOM     10  C   UNL     1     166.637 151.921 148.592  1.00  0.00     0.138 A 
ATOM     11  O   UNL     1     166.678 152.256 149.877  1.00  0.00    -0.456 OA
ENDROOT
BRANCH   1  12
ATOM     12  C   UNL     1     165.822 152.539 152.132  1.00  0.00     0.017 A 
ATOM     13  C   UNL     1     166.231 153.389 154.792  1.00  0.00     0.000 A 
ATOM     14  C   UNL     1     165.303 152.385 154.514  1.00  0.00     0.001 A 
ATOM     15  C   UNL     1     166.955 153.973 153.754  1.00  0.00     0.001 A 
ATOM     16  C   UNL     1     165.096 151.960 153.198  1.00  0.00     0.012 A 
ATOM     17  C   UNL     1     166.755 153.554 152.436  1.00  0.00     0.012 A 
ENDBRANCH   1  12
TORSDOF 1
ENDMDL
MODEL 7
REMARK VINA RESULT:    -7.765      3.088      5.744
REMARK INTER + INTRA:          -8.480
REMARK INTER:                  -8.216
REMARK INTRA:                  -0.264
REMARK UNBOUND:                -0.261
REMARK SMILES O=c1cc(-c2ccccc2)oc2ccccc12
REMARK SMILES IDX 4 1 3 2 2 3 1 4 17 5 16 6 15 7 14 8 13 9 12 10 11 11 5 12
REMARK SMILES IDX 8 13 7 14 9 15 6 16 10 17
REMARK H PARENT
REMARK Flexibility Score: inf
ROOT
ATOM      1  C   UNL     1     164.125 152.893 151.386  1.00  0.00     0.138 A 
ATOM      2  C   UNL     1     163.522 153.205 152.622  1.00  0.00     0.100 A 
ATOM      3  C   UNL     1     163.708 154.472 153.178  1.00  0.00     0.193 A 
ATOM      4  O   UNL     1     163.169 154.751 154.284  1.00  0.00    -0.289 OA
ATOM      5  C   UNL     1     164.492 155.415 152.500  1.00  0.00     0.065 A 
ATOM      6  C   UNL     1     164.719 156.710 153.004  1.00  0.00     0.016 A 
ATOM      7  C   UNL     1     165.509 157.612 152.286  1.00  0.00     0.001 A 
ATOM      8  C   UNL     1     166.077 157.234 151.065  1.00  0.00     0.004 A 
ATOM      9  C   UNL     1     165.855 155.951 150.557  1.00  0.00     0.048 A 
ATOM     10  C   UNL     1     165.066 155.039 151.267  1.00  0.00     0.138 A 
ATOM     11  O   UNL     1     164.863 153.822 150.775  1.00  0.00    -0.456 OA
ENDROOT
BRANCH   1  12
ATOM     12  C   UNL     1     163.978 151.561 150.721  1.00  0.00     0.017 A 
ATOM     13  C   UNL     1     163.661 149.013 149.549  1.00  0.00     0.000 A 
ATOM     14  C   UNL     1     164.200 150.062 148.805  1.00  0.00     0.001 A 
ATOM     15  C   UNL     1     163.278 149.225 150.873  1.00  0.00     0.001 A 
ATOM     16  C   UNL     1     164.359 151.327 149.380  1.00  0.00     0.012 A 
ATOM     17  C   UNL     1     163.434 150.485 151.455  1.00  0.00     0.012 A 
ENDBRANCH   1  12
TORSDOF 1
ENDMDL
MODEL 8
REMARK VINA RESULT:    -7.630      2.700      5.778
REMARK INTER + INTRA:          -8.337
REMARK INTER:                  -8.085
REMARK INTRA:                  -0.252
REMARK UNBOUND:                -0.261
REMARK SMILES O=c1cc(-c2ccccc2)oc2ccccc12
REMARK SMILES IDX 4 1 3 2 2 3 1 4 17 5 16 6 15 7 14 8 13 9 12 10 11 11 5 12
REMARK SMILES IDX 8 13 7 14 9 15 6 16 10 17
REMARK H PARENT
REMARK Flexibility Score: inf
ROOT
ATOM      1  C   UNL     1     165.176 153.240 151.233  1.00  0.00     0.138 A 
ATOM      2  C   UNL     1     165.916 152.933 152.393  1.00  0.00     0.100 A 
ATOM      3  C   UNL     1     166.375 153.969 153.211  1.00  0.00     0.193 A 
ATOM      4  O   UNL     1     167.038 153.694 154.248  1.00  0.00    -0.289 OA
ATOM      5  C   UNL     1     166.092 155.297 152.865  1.00  0.00     0.065 A 
ATOM      6  C   UNL     1     166.524 156.387 153.645  1.00  0.00     0.016 A 
ATOM      7  C   UNL     1     166.214 157.693 153.255  1.00  0.00     0.001 A 
ATOM      8  C   UNL     1     165.474 157.923 152.091  1.00  0.00     0.004 A 
ATOM      9  C   UNL     1     165.041 156.847 151.312  1.00  0.00     0.048 A 
ATOM     10  C   UNL     1     165.346 155.535 151.692  1.00  0.00     0.138 A 
ATOM     11  O   UNL     1     164.930 154.519 150.944  1.00  0.00    -0.456 OA
ENDROOT
BRANCH   1  12
ATOM     12  C   UNL     1     164.648 152.193 150.304  1.00  0.00     0.017 A 
ATOM     13  C   UNL     1     163.635 150.160 148.627  1.00  0.00     0.000 A 
ATOM     14  C   UNL     1     164.073 151.366 148.078  1.00  0.00     0.001 A 
ATOM     15  C   UNL     1     163.698 149.961 150.006  1.00  0.00     0.001 A 
ATOM     16  C   UNL     1     164.576 152.376 148.904  1.00  0.00     0.012 A 
ATOM     17  C   UNL     1     164.199 150.966 150.838  1.00  0.00     0.012 A 
ENDBRANCH   1  12
TORSDOF 1
ENDMDL
MODEL 9
REMARK VINA RESULT:    -7.373      2.662      5.741
REMARK INTER + INTRA:          -8.066
REMARK INTER:                  -7.827
REMARK INTRA:                  -0.239
REMARK UNBOUND:                -0.261
REMARK SMILES O=c1cc(-c2ccccc2)oc2ccccc12
REMARK SMILES IDX 4 1 3 2 2 3 1 4 17 5 16 6 15 7 14 8 13 9 12 10 11 11 5 12
REMARK SMILES IDX 8 13 7 14 9 15 6 16 10 17
REMARK H PARENT
REMARK Flexibility Score: inf
ROOT
ATOM      1  C   UNL     1     166.455 153.097 150.621  1.00  0.00     0.138 A 
ATOM      2  C   UNL     1     165.556 152.069 150.975  1.00  0.00     0.100 A 
ATOM      3  C   UNL     1     164.511 152.344 151.860  1.00  0.00     0.193 A 
ATOM      4  O   UNL     1     163.708 151.424 152.177  1.00  0.00    -0.289 OA
ATOM      5  C   UNL     1     164.371 153.636 152.382  1.00  0.00     0.065 A 
ATOM      6  C   UNL     1     163.340 153.980 153.277  1.00  0.00     0.016 A 
ATOM      7  C   UNL     1     163.245 155.285 153.768  1.00  0.00     0.001 A 
ATOM      8  C   UNL     1     164.172 156.254 153.373  1.00  0.00     0.004 A 
ATOM      9  C   UNL     1     165.198 155.922 152.484  1.00  0.00     0.048 A 
ATOM     10  C   UNL     1     165.303 154.618 151.986  1.00  0.00     0.138 A 
ATOM     11  O   UNL     1     166.283 154.313 151.142  1.00  0.00    -0.456 OA
ENDROOT
BRANCH   1  12
ATOM     12  C   UNL     1     167.600 152.889 149.681  1.00  0.00     0.017 A 
ATOM     13  C   UNL     1     169.822 152.534 147.976  1.00  0.00     0.000 A 
ATOM     14  C   UNL     1     168.548 152.154 147.552  1.00  0.00     0.001 A 
ATOM     15  C   UNL     1     169.996 153.089 149.243  1.00  0.00     0.001 A 
ATOM     16  C   UNL     1     167.443 152.327 148.393  1.00  0.00     0.012 A 
ATOM     17  C   UNL     1     168.898 153.266 150.089  1.00  0.00     0.012 A 
ENDBRANCH   1  12
TORSDOF 1
ENDMDL
