MODEL 1
REMARK VINA RESULT:    18.450      0.000      0.000
REMARK INTER + INTRA:          23.616
REMARK INTER:                  23.303
REMARK INTRA:                   0.313
REMARK UNBOUND:                 0.313
REMARK SMILES Oc1ccc(CCc2cc(O)cc(O)c2)cc1
REMARK SMILES IDX 6 1 5 2 4 3 3 4 2 5 16 6 17 7 1 8 7 10 8 11 15 12 9 13 13 14
REMARK SMILES IDX 10 15 12 16 14 17 11 19
REMARK H PARENT 1 9 14 18 11 20
REMARK Flexibility Score: inf
ROOT
ATOM      1  C   UNL     1       7.267  42.204  26.364  1.00  0.00     0.040 C 
ENDROOT
BRANCH   1   2
ATOM      2  C   UNL     1       6.138  42.251  25.366  1.00  0.00    -0.047 A 
ATOM      3  C   UNL     1       6.021  43.332  24.477  1.00  0.00     0.007 A 
ATOM      4  C   UNL     1       4.946  43.400  23.586  1.00  0.00     0.046 A 
ATOM      5  C   UNL     1       3.975  42.393  23.578  1.00  0.00     0.115 A 
ATOM      6  C   UNL     1       5.157  41.246  25.360  1.00  0.00     0.007 A 
ATOM      7  C   UNL     1       4.084  41.315  24.468  1.00  0.00     0.046 A 
BRANCH   5   8
ATOM      8  O   UNL     1       2.908  42.474  22.686  1.00  0.00    -0.508 OA
ATOM      9  H   UNL     1       2.747  43.303  22.126  1.00  0.00     0.293 HD
ENDBRANCH   5   8
ENDBRANCH   1   2
BRANCH   1  10
ATOM     10  C   UNL     1       8.114  40.933  26.208  1.00  0.00     0.040 C 
BRANCH  10  11
ATOM     11  C   UNL     1       8.791  40.876  24.862  1.00  0.00    -0.040 A 
ATOM     12  C   UNL     1       8.027  40.880  23.685  1.00  0.00     0.050 A 
ATOM     13  C   UNL     1      10.194  40.883  24.774  1.00  0.00     0.050 A 
ATOM     14  C   UNL     1       8.655  40.876  22.433  1.00  0.00     0.119 A 
ATOM     15  C   UNL     1      10.823  40.883  23.522  1.00  0.00     0.119 A 
ATOM     16  C   UNL     1      10.052  40.875  22.355  1.00  0.00     0.092 A 
BRANCH  14  17
ATOM     17  O   UNL     1       7.902  40.877  21.261  1.00  0.00    -0.508 OA
ATOM     18  H   UNL     1       7.762  41.723  20.722  1.00  0.00     0.293 HD
ENDBRANCH  14  17
BRANCH  15  19
ATOM     19  O   UNL     1      12.213  40.892  23.427  1.00  0.00    -0.508 OA
ATOM     20  H   UNL     1      12.710  41.669  23.008  1.00  0.00     0.293 HD
ENDBRANCH  15  19
ENDBRANCH  10  11
ENDBRANCH   1  10
TORSDOF 6
ENDMDL
MODEL 2
REMARK VINA RESULT:    18.535      2.105      6.229
REMARK INTER + INTRA:          23.724
REMARK INTER:                  24.221
REMARK INTRA:                  -0.497
REMARK UNBOUND:                 0.313
REMARK SMILES Oc1ccc(CCc2cc(O)cc(O)c2)cc1
REMARK SMILES IDX 6 1 5 2 4 3 3 4 2 5 16 6 17 7 1 8 7 10 8 11 15 12 9 13 13 14
REMARK SMILES IDX 10 15 12 16 14 17 11 19
REMARK H PARENT 1 9 14 18 11 20
REMARK Flexibility Score: inf
ROOT
ATOM      1  C   UNL     1       9.202  40.875  23.449  1.00  0.00     0.040 C 
ENDROOT
BRANCH   1   2
ATOM      2  C   UNL     1      10.480  41.570  23.051  1.00  0.00    -0.047 A 
ATOM      3  C   UNL     1      10.452  42.898  22.593  1.00  0.00     0.007 A 
ATOM      4  C   UNL     1      11.631  43.525  22.177  1.00  0.00     0.046 A 
ATOM      5  C   UNL     1      12.845  42.832  22.208  1.00  0.00     0.115 A 
ATOM      6  C   UNL     1      11.700  40.875  23.074  1.00  0.00     0.007 A 
ATOM      7  C   UNL     1      12.876  41.504  22.658  1.00  0.00     0.046 A 
BRANCH   5   8
ATOM      8  O   UNL     1      14.011  43.468  21.789  1.00  0.00    -0.508 OA
ATOM      9  H   UNL     1      14.679  43.842  22.453  1.00  0.00     0.293 HD
ENDBRANCH   5   8
ENDBRANCH   1   2
BRANCH   1  10
ATOM     10  C   UNL     1       8.640  41.427  24.766  1.00  0.00     0.040 C 
BRANCH  10  11
ATOM     11  C   UNL     1       7.258  42.002  24.586  1.00  0.00    -0.040 A 
ATOM     12  C   UNL     1       6.133  41.290  25.032  1.00  0.00     0.050 A 
ATOM     13  C   UNL     1       7.089  43.280  24.027  1.00  0.00     0.050 A 
ATOM     14  C   UNL     1       4.852  41.843  24.909  1.00  0.00     0.119 A 
ATOM     15  C   UNL     1       5.807  43.834  23.908  1.00  0.00     0.119 A 
ATOM     16  C   UNL     1       4.692  43.113  24.345  1.00  0.00     0.092 A 
BRANCH  14  17
ATOM     17  O   UNL     1       3.731  41.141  25.347  1.00  0.00    -0.508 OA
ATOM     18  H   UNL     1       2.996  41.595  25.878  1.00  0.00     0.293 HD
ENDBRANCH  14  17
BRANCH  15  19
ATOM     19  O   UNL     1       5.632  45.103  23.357  1.00  0.00    -0.508 OA
ATOM     20  H   UNL     1       4.739  45.579  23.397  1.00  0.00     0.293 HD
ENDBRANCH  15  19
ENDBRANCH  10  11
ENDBRANCH   1  10
TORSDOF 6
ENDMDL
MODEL 3
REMARK VINA RESULT:    18.647      1.951      6.263
REMARK INTER + INTRA:          23.866
REMARK INTER:                  24.344
REMARK INTRA:                  -0.478
REMARK UNBOUND:                 0.313
REMARK SMILES Oc1ccc(CCc2cc(O)cc(O)c2)cc1
REMARK SMILES IDX 6 1 5 2 4 3 3 4 2 5 16 6 17 7 1 8 7 10 8 11 15 12 9 13 13 14
REMARK SMILES IDX 10 15 12 16 14 17 11 19
REMARK H PARENT 1 9 14 18 11 20
REMARK Flexibility Score: inf
ROOT
ATOM      1  C   UNL     1       8.741  40.875  23.474  1.00  0.00     0.040 C 
ENDROOT
BRANCH   1   2
ATOM      2  C   UNL     1      10.034  41.553  23.095  1.00  0.00    -0.047 A 
ATOM      3  C   UNL     1      11.257  40.875  23.230  1.00  0.00     0.007 A 
ATOM      4  C   UNL     1      12.458  41.522  22.926  1.00  0.00     0.046 A 
ATOM      5  C   UNL     1      12.451  42.851  22.489  1.00  0.00     0.115 A 
ATOM      6  C   UNL     1      10.031  42.889  22.663  1.00  0.00     0.007 A 
ATOM      7  C   UNL     1      11.234  43.533  22.359  1.00  0.00     0.046 A 
BRANCH   5   8
ATOM      8  O   UNL     1      13.656  43.483  22.191  1.00  0.00    -0.508 OA
ATOM      9  H   UNL     1      14.190  43.243  21.364  1.00  0.00     0.293 HD
ENDBRANCH   5   8
ENDBRANCH   1   2
BRANCH   1  10
ATOM     10  C   UNL     1       8.220  41.362  24.833  1.00  0.00     0.040 C 
BRANCH  10  11
ATOM     11  C   UNL     1       6.888  42.056  24.704  1.00  0.00    -0.040 A 
ATOM     12  C   UNL     1       6.799  43.298  24.056  1.00  0.00     0.050 A 
ATOM     13  C   UNL     1       5.717  41.437  25.174  1.00  0.00     0.050 A 
ATOM     14  C   UNL     1       5.556  43.923  23.892  1.00  0.00     0.119 A 
ATOM     15  C   UNL     1       4.473  42.061  25.006  1.00  0.00     0.119 A 
ATOM     16  C   UNL     1       4.397  43.303  24.370  1.00  0.00     0.092 A 
BRANCH  14  17
ATOM     17  O   UNL     1       5.460  45.158  23.253  1.00  0.00    -0.508 OA
ATOM     18  H   UNL     1       6.252  45.567  22.771  1.00  0.00     0.293 HD
ENDBRANCH  14  17
BRANCH  15  19
ATOM     19  O   UNL     1       3.308  41.452  25.468  1.00  0.00    -0.508 OA
ATOM     20  H   UNL     1       3.211  41.154  26.431  1.00  0.00     0.293 HD
ENDBRANCH  15  19
ENDBRANCH  10  11
ENDBRANCH   1  10
TORSDOF 6
ENDMDL
MODEL 4
REMARK VINA RESULT:    18.724      3.927      5.391
REMARK INTER + INTRA:          23.963
REMARK INTER:                  24.544
REMARK INTRA:                  -0.581
REMARK UNBOUND:                 0.313
REMARK SMILES Oc1ccc(CCc2cc(O)cc(O)c2)cc1
REMARK SMILES IDX 6 1 5 2 4 3 3 4 2 5 16 6 17 7 1 8 7 10 8 11 15 12 9 13 13 14
REMARK SMILES IDX 10 15 12 16 14 17 11 19
REMARK H PARENT 1 9 14 18 11 20
REMARK Flexibility Score: inf
ROOT
ATOM      1  C   UNL     1       6.756  45.931  23.586  1.00  0.00     0.040 C 
ENDROOT
BRANCH   1   2
ATOM      2  C   UNL     1       6.291  46.890  24.652  1.00  0.00    -0.047 A 
ATOM      3  C   UNL     1       5.772  48.147  24.299  1.00  0.00     0.007 A 
ATOM      4  C   UNL     1       5.387  49.055  25.291  1.00  0.00     0.046 A 
ATOM      5  C   UNL     1       5.521  48.720  26.641  1.00  0.00     0.115 A 
ATOM      6  C   UNL     1       6.431  46.560  26.010  1.00  0.00     0.007 A 
ATOM      7  C   UNL     1       6.045  47.469  26.999  1.00  0.00     0.046 A 
BRANCH   5   8
ATOM      8  O   UNL     1       5.135  49.634  27.619  1.00  0.00    -0.508 OA
ATOM      9  H   UNL     1       4.175  49.699  27.934  1.00  0.00     0.293 HD
ENDBRANCH   5   8
ENDBRANCH   1   2
BRANCH   1  10
ATOM     10  C   UNL     1       5.666  44.916  23.217  1.00  0.00     0.040 C 
BRANCH  10  11
ATOM     11  C   UNL     1       5.884  43.590  23.899  1.00  0.00    -0.040 A 
ATOM     12  C   UNL     1       4.790  42.861  24.393  1.00  0.00     0.050 A 
ATOM     13  C   UNL     1       7.175  43.043  23.991  1.00  0.00     0.050 A 
ATOM     14  C   UNL     1       4.986  41.606  24.985  1.00  0.00     0.119 A 
ATOM     15  C   UNL     1       7.370  41.786  24.580  1.00  0.00     0.119 A 
ATOM     16  C   UNL     1       6.275  41.074  25.079  1.00  0.00     0.092 A 
BRANCH  14  17
ATOM     17  O   UNL     1       3.905  40.879  25.480  1.00  0.00    -0.508 OA
ATOM     18  H   UNL     1       3.767  40.746  26.475  1.00  0.00     0.293 HD
ENDBRANCH  14  17
BRANCH  15  19
ATOM     19  O   UNL     1       8.648  41.237  24.672  1.00  0.00    -0.508 OA
ATOM     20  H   UNL     1       9.374  41.675  25.225  1.00  0.00     0.293 HD
ENDBRANCH  15  19
ENDBRANCH  10  11
ENDBRANCH   1  10
TORSDOF 6
ENDMDL
MODEL 5
REMARK VINA RESULT:    18.856      3.941      5.675
REMARK INTER + INTRA:          24.130
REMARK INTER:                  24.678
REMARK INTRA:                  -0.548
REMARK UNBOUND:                 0.313
REMARK SMILES Oc1ccc(CCc2cc(O)cc(O)c2)cc1
REMARK SMILES IDX 6 1 5 2 4 3 3 4 2 5 16 6 17 7 1 8 7 10 8 11 15 12 9 13 13 14
REMARK SMILES IDX 10 15 12 16 14 17 11 19
REMARK H PARENT 1 9 14 18 11 20
REMARK Flexibility Score: inf
ROOT
ATOM      1  C   UNL     1       6.975  45.829  23.875  1.00  0.00     0.040 C 
ENDROOT
BRANCH   1   2
ATOM      2  C   UNL     1       6.434  46.838  24.856  1.00  0.00    -0.047 A 
ATOM      3  C   UNL     1       5.819  48.015  24.396  1.00  0.00     0.007 A 
ATOM      4  C   UNL     1       5.362  48.973  25.307  1.00  0.00     0.046 A 
ATOM      5  C   UNL     1       5.520  48.769  26.681  1.00  0.00     0.115 A 
ATOM      6  C   UNL     1       6.597  46.641  26.236  1.00  0.00     0.007 A 
ATOM      7  C   UNL     1       6.140  47.600  27.144  1.00  0.00     0.046 A 
BRANCH   5   8
ATOM      8  O   UNL     1       5.062  49.733  27.577  1.00  0.00    -0.508 OA
ATOM      9  H   UNL     1       5.460  50.665  27.601  1.00  0.00     0.293 HD
ENDBRANCH   5   8
ENDBRANCH   1   2
BRANCH   1  10
ATOM     10  C   UNL     1       5.873  44.900  23.347  1.00  0.00     0.040 C 
BRANCH  10  11
ATOM     11  C   UNL     1       5.997  43.509  23.915  1.00  0.00    -0.040 A 
ATOM     12  C   UNL     1       7.258  42.906  24.039  1.00  0.00     0.050 A 
ATOM     13  C   UNL     1       4.858  42.830  24.383  1.00  0.00     0.050 A 
ATOM     14  C   UNL     1       7.380  41.632  24.611  1.00  0.00     0.119 A 
ATOM     15  C   UNL     1       4.981  41.558  24.958  1.00  0.00     0.119 A 
ATOM     16  C   UNL     1       6.241  40.962  25.067  1.00  0.00     0.092 A 
BRANCH  14  17
ATOM     17  O   UNL     1       8.629  41.027  24.735  1.00  0.00    -0.508 OA
ATOM     18  H   UNL     1       8.989  40.404  24.021  1.00  0.00     0.293 HD
ENDBRANCH  14  17
BRANCH  15  19
ATOM     19  O   UNL     1       3.857  40.880  25.426  1.00  0.00    -0.508 OA
ATOM     20  H   UNL     1       2.950  41.329  25.476  1.00  0.00     0.293 HD
ENDBRANCH  15  19
ENDBRANCH  10  11
ENDBRANCH   1  10
TORSDOF 6
ENDMDL
MODEL 6
REMARK VINA RESULT:    19.164      1.365      5.570
REMARK INTER + INTRA:          24.519
REMARK INTER:                  25.081
REMARK INTRA:                  -0.562
REMARK UNBOUND:                 0.313
REMARK SMILES Oc1ccc(CCc2cc(O)cc(O)c2)cc1
REMARK SMILES IDX 6 1 5 2 4 3 3 4 2 5 16 6 17 7 1 8 7 10 8 11 15 12 9 13 13 14
REMARK SMILES IDX 10 15 12 16 14 17 11 19
REMARK H PARENT 1 9 14 18 11 20
REMARK Flexibility Score: inf
ROOT
ATOM      1  C   UNL     1       7.103  40.875  25.901  1.00  0.00     0.040 C 
ENDROOT
BRANCH   1   2
ATOM      2  C   UNL     1       8.343  40.890  25.044  1.00  0.00    -0.047 A 
ATOM      3  C   UNL     1       9.616  40.875  25.638  1.00  0.00     0.007 A 
ATOM      4  C   UNL     1      10.765  40.940  24.843  1.00  0.00     0.046 A 
ATOM      5  C   UNL     1      10.655  41.026  23.452  1.00  0.00     0.115 A 
ATOM      6  C   UNL     1       8.236  40.985  23.647  1.00  0.00     0.007 A 
ATOM      7  C   UNL     1       9.386  41.048  22.855  1.00  0.00     0.046 A 
BRANCH   5   8
ATOM      8  O   UNL     1      11.808  41.092  22.673  1.00  0.00    -0.508 OA
ATOM      9  H   UNL     1      12.000  40.406  21.953  1.00  0.00     0.293 HD
ENDBRANCH   5   8
ENDBRANCH   1   2
BRANCH   1  10
ATOM     10  C   UNL     1       6.580  42.292  26.172  1.00  0.00     0.040 C 
BRANCH  10  11
ATOM     11  C   UNL     1       5.862  42.861  24.975  1.00  0.00    -0.040 A 
ATOM     12  C   UNL     1       6.354  44.011  24.337  1.00  0.00     0.050 A 
ATOM     13  C   UNL     1       4.733  42.210  24.450  1.00  0.00     0.050 A 
ATOM     14  C   UNL     1       5.716  44.514  23.195  1.00  0.00     0.119 A 
ATOM     15  C   UNL     1       4.097  42.711  23.306  1.00  0.00     0.119 A 
ATOM     16  C   UNL     1       4.588  43.863  22.684  1.00  0.00     0.092 A 
BRANCH  14  17
ATOM     17  O   UNL     1       6.197  45.656  22.558  1.00  0.00    -0.508 OA
ATOM     18  H   UNL     1       5.569  46.369  22.206  1.00  0.00     0.293 HD
ENDBRANCH  14  17
BRANCH  15  19
ATOM     19  O   UNL     1       2.979  42.069  22.778  1.00  0.00    -0.508 OA
ATOM     20  H   UNL     1       3.038  41.502  21.941  1.00  0.00     0.293 HD
ENDBRANCH  15  19
ENDBRANCH  10  11
ENDBRANCH   1  10
TORSDOF 6
ENDMDL
MODEL 7
REMARK VINA RESULT:    19.409     12.758     14.951
REMARK INTER + INTRA:          24.828
REMARK INTER:                  25.238
REMARK INTRA:                  -0.410
REMARK UNBOUND:                 0.313
REMARK SMILES Oc1ccc(CCc2cc(O)cc(O)c2)cc1
REMARK SMILES IDX 6 1 5 2 4 3 3 4 2 5 16 6 17 7 1 8 7 10 8 11 15 12 9 13 13 14
REMARK SMILES IDX 10 15 12 16 14 17 11 19
REMARK H PARENT 1 9 14 18 11 20
REMARK Flexibility Score: inf
ROOT
ATOM      1  C   UNL     1      14.861  46.714  14.132  1.00  0.00     0.040 C 
ENDROOT
BRANCH   1   2
ATOM      2  C   UNL     1      15.229  45.356  13.591  1.00  0.00    -0.047 A 
ATOM      3  C   UNL     1      14.497  44.218  13.971  1.00  0.00     0.007 A 
ATOM      4  C   UNL     1      14.871  42.953  13.508  1.00  0.00     0.046 A 
ATOM      5  C   UNL     1      15.980  42.810  12.668  1.00  0.00     0.115 A 
ATOM      6  C   UNL     1      16.347  45.207  12.754  1.00  0.00     0.007 A 
ATOM      7  C   UNL     1      16.718  43.941  12.292  1.00  0.00     0.046 A 
BRANCH   5   8
ATOM      8  O   UNL     1      16.342  41.543  12.216  1.00  0.00    -0.508 OA
ATOM      9  H   UNL     1      17.297  41.327  11.953  1.00  0.00     0.293 HD
ENDBRANCH   5   8
ENDBRANCH   1   2
BRANCH   1  10
ATOM     10  C   UNL     1      14.710  47.752  13.011  1.00  0.00     0.040 C 
BRANCH  10  11
ATOM     11  C   UNL     1      13.613  48.741  13.310  1.00  0.00    -0.040 A 
ATOM     12  C   UNL     1      13.661  50.035  12.768  1.00  0.00     0.050 A 
ATOM     13  C   UNL     1      12.502  48.357  14.082  1.00  0.00     0.050 A 
ATOM     14  C   UNL     1      12.619  50.941  13.006  1.00  0.00     0.119 A 
ATOM     15  C   UNL     1      11.458  49.262  14.316  1.00  0.00     0.119 A 
ATOM     16  C   UNL     1      11.522  50.552  13.781  1.00  0.00     0.092 A 
BRANCH  14  17
ATOM     17  O   UNL     1      12.661  52.228  12.473  1.00  0.00    -0.508 OA
ATOM     18  H   UNL     1      13.538  52.720  12.348  1.00  0.00     0.293 HD
ENDBRANCH  14  17
BRANCH  15  19
ATOM     19  O   UNL     1      10.353  48.887  15.078  1.00  0.00    -0.508 OA
ATOM     20  H   UNL     1       9.666  49.566  15.385  1.00  0.00     0.293 HD
ENDBRANCH  15  19
ENDBRANCH  10  11
ENDBRANCH   1  10
TORSDOF 6
ENDMDL
MODEL 8
REMARK VINA RESULT:    19.410     12.773     14.939
REMARK INTER + INTRA:          24.829
REMARK INTER:                  25.253
REMARK INTRA:                  -0.424
REMARK UNBOUND:                 0.313
REMARK SMILES Oc1ccc(CCc2cc(O)cc(O)c2)cc1
REMARK SMILES IDX 6 1 5 2 4 3 3 4 2 5 16 6 17 7 1 8 7 10 8 11 15 12 9 13 13 14
REMARK SMILES IDX 10 15 12 16 14 17 11 19
REMARK H PARENT 1 9 14 18 11 20
REMARK Flexibility Score: inf
ROOT
ATOM      1  C   UNL     1      14.871  46.732  14.124  1.00  0.00     0.040 C 
ENDROOT
BRANCH   1   2
ATOM      2  C   UNL     1      15.233  45.371  13.586  1.00  0.00    -0.047 A 
ATOM      3  C   UNL     1      14.493  44.239  13.965  1.00  0.00     0.007 A 
ATOM      4  C   UNL     1      14.862  42.970  13.506  1.00  0.00     0.046 A 
ATOM      5  C   UNL     1      15.972  42.820  12.670  1.00  0.00     0.115 A 
ATOM      6  C   UNL     1      16.353  45.215  12.753  1.00  0.00     0.007 A 
ATOM      7  C   UNL     1      16.718  43.946  12.295  1.00  0.00     0.046 A 
BRANCH   5   8
ATOM      8  O   UNL     1      16.329  41.550  12.221  1.00  0.00    -0.508 OA
ATOM      9  H   UNL     1      15.983  40.712  12.674  1.00  0.00     0.293 HD
ENDBRANCH   5   8
ENDBRANCH   1   2
BRANCH   1  10
ATOM     10  C   UNL     1      14.766  47.778  13.005  1.00  0.00     0.040 C 
BRANCH  10  11
ATOM     11  C   UNL     1      13.626  48.735  13.241  1.00  0.00    -0.040 A 
ATOM     12  C   UNL     1      12.530  48.349  14.029  1.00  0.00     0.050 A 
ATOM     13  C   UNL     1      13.680  50.042  12.727  1.00  0.00     0.050 A 
ATOM     14  C   UNL     1      11.492  49.253  14.289  1.00  0.00     0.119 A 
ATOM     15  C   UNL     1      12.643  50.948  12.991  1.00  0.00     0.119 A 
ATOM     16  C   UNL     1      11.551  50.550  13.767  1.00  0.00     0.092 A 
BRANCH  14  17
ATOM     17  O   UNL     1      10.400  48.876  15.068  1.00  0.00    -0.508 OA
ATOM     18  H   UNL     1      10.357  49.091  16.058  1.00  0.00     0.293 HD
ENDBRANCH  14  17
BRANCH  15  19
ATOM     19  O   UNL     1      12.691  52.246  12.487  1.00  0.00    -0.508 OA
ATOM     20  H   UNL     1      11.988  52.934  12.727  1.00  0.00     0.293 HD
ENDBRANCH  15  19
ENDBRANCH  10  11
ENDBRANCH   1  10
TORSDOF 6
ENDMDL
