MODEL 1
REMARK VINA RESULT:    -4.018      0.000      0.000
REMARK INTER + INTRA:          -4.814
REMARK INTER:                  -6.133
REMARK INTRA:                   1.319
REMARK UNBOUND:                 1.319
REMARK SMILES CC1=CCC[C@H](C)C(=O)C[C@@H](C(C)C)C(=O)C1
REMARK SMILES IDX 8 1 9 2 6 3 7 4 5 5 4 6 3 7 2 8 1 9 10 11 11 12 15 13 16 14
REMARK SMILES IDX 17 15 12 17 13 18 14 19
REMARK H PARENT
REMARK Flexibility Score: 70.00
ROOT
ATOM      1  C   UNL     1       2.639  13.231  -7.433  1.00  0.00     0.136 C 
ATOM      2  O   UNL     1       1.880  12.930  -6.529  1.00  0.00    -0.299 OA
ENDROOT
BRANCH   1   3
ATOM      3  C   UNL     1       3.399  12.114  -8.142  1.00  0.00     0.053 C 
ATOM      4  C   UNL     1       2.429  11.161  -8.851  1.00  0.00     0.016 C 
BRANCH   3   5
ATOM      5  C   UNL     1       4.467  12.655  -9.124  1.00  0.00     0.015 C 
BRANCH   5   6
ATOM      6  C   UNL     1       5.932  12.543  -8.646  1.00  0.00     0.028 C 
BRANCH   6   7
ATOM      7  C   UNL     1       6.147  12.090  -7.222  1.00  0.00    -0.028 C 
ATOM      8  C   UNL     1       6.242  12.890  -6.136  1.00  0.00    -0.070 CG0
ATOM      9  C   UNL     1       6.647  12.255  -4.830  1.00  0.00     0.039 C 
ATOM     10  G   UNL     1       5.913  14.368  -6.141  1.00  0.00     0.000 G0
ENDBRANCH   6   7
ENDBRANCH   5   6
ENDBRANCH   3   5
ENDBRANCH   1   3
BRANCH   1  11
ATOM     11  C   UNL     1       2.756  14.696  -7.816  1.00  0.00     0.087 C 
BRANCH  11  12
ATOM     12  C   UNL     1       3.684  15.524  -6.883  1.00  0.00     0.066 C 
BRANCH  12  13
ATOM     13  C   UNL     1       4.464  14.642  -5.927  1.00  0.00     0.140 C 
ATOM     14  O   UNL     1       3.885  14.066  -5.019  1.00  0.00    -0.299 OA
BRANCH  13  15
ATOM     15  C   UNL     1       5.940  14.391  -6.131  1.00  0.00     0.106 CG0
ATOM     16  G   UNL     1       6.219  12.903  -6.139  1.00  0.00     0.000 G0
ENDBRANCH  13  15
ENDBRANCH  12  13
BRANCH  12  17
ATOM     17  C   UNL     1       2.974  16.716  -6.160  1.00  0.00    -0.006 C 
ATOM     18  C   UNL     1       1.868  16.217  -5.211  1.00  0.00     0.008 C 
ATOM     19  C   UNL     1       3.908  17.680  -5.405  1.00  0.00     0.008 C 
ENDBRANCH  12  17
ENDBRANCH  11  12
ENDBRANCH   1  11
TORSDOF 1
ENDMDL
MODEL 2
REMARK VINA RESULT:    -3.702      1.370      1.606
REMARK INTER + INTRA:          -4.330
REMARK INTER:                  -5.181
REMARK INTRA:                   0.850
REMARK UNBOUND:                 1.319
REMARK SMILES CC1=CCC[C@H](C)C(=O)C[C@@H](C(C)C)C(=O)C1
REMARK SMILES IDX 8 1 9 2 6 3 7 4 5 5 4 6 3 7 2 8 1 9 10 11 11 12 15 13 16 14
REMARK SMILES IDX 17 15 12 17 13 18 14 19
REMARK H PARENT
REMARK Flexibility Score: 70.00
ROOT
ATOM      1  C   UNL     1       2.590  12.779  -7.933  1.00  0.00     0.136 C 
ATOM      2  O   UNL     1       2.086  13.348  -8.884  1.00  0.00    -0.299 OA
ENDROOT
BRANCH   1   3
ATOM      3  C   UNL     1       3.143  11.372  -8.141  1.00  0.00     0.053 C 
ATOM      4  C   UNL     1       2.034  10.414  -8.591  1.00  0.00     0.016 C 
BRANCH   3   5
ATOM      5  C   UNL     1       4.338  11.345  -9.125  1.00  0.00     0.015 C 
BRANCH   5   6
ATOM      6  C   UNL     1       5.674  11.886  -8.570  1.00  0.00     0.028 C 
BRANCH   6   7
ATOM      7  C   UNL     1       5.834  11.885  -7.069  1.00  0.00    -0.028 C 
ATOM      8  C   UNL     1       6.127  12.955  -6.296  1.00  0.00    -0.070 CG0
ATOM      9  C   UNL     1       6.431  12.709  -4.840  1.00  0.00     0.039 C 
ATOM     10  G   UNL     1       6.112  14.386  -6.791  1.00  0.00     0.000 G0
ENDBRANCH   6   7
ENDBRANCH   5   6
ENDBRANCH   3   5
ENDBRANCH   1   3
BRANCH   1  11
ATOM     11  C   UNL     1       2.662  13.518  -6.608  1.00  0.00     0.087 C 
BRANCH  11  12
ATOM     12  C   UNL     1       3.493  14.832  -6.657  1.00  0.00     0.066 C 
BRANCH  12  13
ATOM     13  C   UNL     1       4.759  14.674  -7.478  1.00  0.00     0.140 C 
ATOM     14  O   UNL     1       4.726  14.845  -8.687  1.00  0.00    -0.299 OA
BRANCH  13  15
ATOM     15  C   UNL     1       6.086  14.392  -6.813  1.00  0.00     0.106 CG0
ATOM     16  G   UNL     1       6.116  12.971  -6.293  1.00  0.00     0.000 G0
ENDBRANCH  13  15
ENDBRANCH  12  13
BRANCH  12  17
ATOM     17  C   UNL     1       3.759  15.479  -5.257  1.00  0.00    -0.006 C 
ATOM     18  C   UNL     1       3.657  17.014  -5.322  1.00  0.00     0.008 C 
ATOM     19  C   UNL     1       2.880  14.949  -4.109  1.00  0.00     0.008 C 
ENDBRANCH  12  17
ENDBRANCH  11  12
ENDBRANCH   1  11
TORSDOF 1
ENDMDL
MODEL 3
REMARK VINA RESULT:    -3.612      1.661      2.105
REMARK INTER + INTRA:          -4.193
REMARK INTER:                  -6.252
REMARK INTRA:                   2.059
REMARK UNBOUND:                 1.319
REMARK SMILES CC1=CCC[C@H](C)C(=O)C[C@@H](C(C)C)C(=O)C1
REMARK SMILES IDX 8 1 9 2 6 3 7 4 5 5 4 6 3 7 2 8 1 9 10 11 11 12 15 13 16 14
REMARK SMILES IDX 17 15 12 17 13 18 14 19
REMARK H PARENT
REMARK Flexibility Score: 70.00
ROOT
ATOM      1  C   UNL     1       2.394  12.985  -7.860  1.00  0.00     0.136 C 
ATOM      2  O   UNL     1       2.087  13.354  -8.980  1.00  0.00    -0.299 OA
ENDROOT
BRANCH   1   3
ATOM      3  C   UNL     1       3.131  11.658  -7.712  1.00  0.00     0.053 C 
ATOM      4  C   UNL     1       3.572  11.126  -9.080  1.00  0.00     0.016 C 
BRANCH   3   5
ATOM      5  C   UNL     1       4.330  11.752  -6.736  1.00  0.00     0.015 C 
BRANCH   5   6
ATOM      6  C   UNL     1       5.719  11.495  -7.359  1.00  0.00     0.028 C 
BRANCH   6   7
ATOM      7  C   UNL     1       6.311  12.615  -8.180  1.00  0.00    -0.028 C 
ATOM      8  C   UNL     1       6.009  13.928  -8.074  1.00  0.00    -0.070 CG0
ATOM      9  C   UNL     1       6.570  14.865  -9.115  1.00  0.00     0.039 C 
ATOM     10  G   UNL     1       5.192  14.521  -6.945  1.00  0.00     0.000 G0
ENDBRANCH   6   7
ENDBRANCH   5   6
ENDBRANCH   3   5
ENDBRANCH   1   3
BRANCH   1  11
ATOM     11  C   UNL     1       2.047  13.886  -6.687  1.00  0.00     0.087 C 
BRANCH  11  12
ATOM     12  C   UNL     1       2.676  15.306  -6.768  1.00  0.00     0.066 C 
BRANCH  12  13
ATOM     13  C   UNL     1       4.000  15.300  -7.509  1.00  0.00     0.140 C 
ATOM     14  O   UNL     1       4.125  15.944  -8.538  1.00  0.00    -0.299 OA
BRANCH  13  15
ATOM     15  C   UNL     1       5.202  14.579  -6.945  1.00  0.00     0.106 CG0
ATOM     16  G   UNL     1       5.992  13.932  -8.063  1.00  0.00     0.000 G0
ENDBRANCH  13  15
ENDBRANCH  12  13
BRANCH  12  17
ATOM     17  C   UNL     1       2.755  16.055  -5.397  1.00  0.00    -0.006 C 
ATOM     18  C   UNL     1       3.304  15.138  -4.288  1.00  0.00     0.008 C 
ATOM     19  C   UNL     1       3.545  17.377  -5.413  1.00  0.00     0.008 C 
ENDBRANCH  12  17
ENDBRANCH  11  12
ENDBRANCH   1  11
TORSDOF 1
ENDMDL
MODEL 4
REMARK VINA RESULT:    -3.426      1.688      4.252
REMARK INTER + INTRA:          -3.910
REMARK INTER:                  -4.514
REMARK INTRA:                   0.604
REMARK UNBOUND:                 1.319
REMARK SMILES CC1=CCC[C@H](C)C(=O)C[C@@H](C(C)C)C(=O)C1
REMARK SMILES IDX 8 1 9 2 6 3 7 4 5 5 4 6 3 7 2 8 1 9 10 11 11 12 15 13 16 14
REMARK SMILES IDX 17 15 12 17 13 18 14 19
REMARK H PARENT
REMARK Flexibility Score: 70.00
ROOT
ATOM      1  C   UNL     1       2.938  13.002  -8.294  1.00  0.00     0.136 C 
ATOM      2  O   UNL     1       2.784  12.124  -9.124  1.00  0.00    -0.299 OA
ENDROOT
BRANCH   1   3
ATOM      3  C   UNL     1       1.809  13.267  -7.303  1.00  0.00     0.053 C 
ATOM      4  C   UNL     1       2.042  12.500  -5.996  1.00  0.00     0.016 C 
BRANCH   3   5
ATOM      5  C   UNL     1       1.599  14.777  -7.033  1.00  0.00     0.015 C 
BRANCH   5   6
ATOM      6  C   UNL     1       1.947  15.256  -5.607  1.00  0.00     0.028 C 
BRANCH   6   7
ATOM      7  C   UNL     1       2.497  16.655  -5.477  1.00  0.00    -0.028 C 
ATOM      8  C   UNL     1       3.661  17.107  -5.998  1.00  0.00    -0.070 CG0
ATOM      9  C   UNL     1       4.123  18.485  -5.595  1.00  0.00     0.039 C 
ATOM     10  G   UNL     1       4.495  16.338  -7.001  1.00  0.00     0.000 G0
ENDBRANCH   6   7
ENDBRANCH   5   6
ENDBRANCH   3   5
ENDBRANCH   1   3
BRANCH   1  11
ATOM     11  C   UNL     1       4.256  13.757  -8.281  1.00  0.00     0.087 C 
BRANCH  11  12
ATOM     12  C   UNL     1       4.983  13.743  -6.907  1.00  0.00     0.066 C 
BRANCH  12  13
ATOM     13  C   UNL     1       5.152  15.139  -6.338  1.00  0.00     0.140 C 
ATOM     14  O   UNL     1       5.880  15.320  -5.375  1.00  0.00    -0.299 OA
BRANCH  13  15
ATOM     15  C   UNL     1       4.501  16.330  -7.000  1.00  0.00     0.106 CG0
ATOM     16  G   UNL     1       3.682  17.105  -5.988  1.00  0.00     0.000 G0
ENDBRANCH  13  15
ENDBRANCH  12  13
BRANCH  12  17
ATOM     17  C   UNL     1       6.314  12.919  -6.889  1.00  0.00    -0.006 C 
ATOM     18  C   UNL     1       6.489  12.167  -5.557  1.00  0.00     0.008 C 
ATOM     19  C   UNL     1       6.498  11.941  -8.064  1.00  0.00     0.008 C 
ENDBRANCH  12  17
ENDBRANCH  11  12
ENDBRANCH   1  11
TORSDOF 1
ENDMDL
MODEL 5
REMARK VINA RESULT:    -3.225      1.304      2.170
REMARK INTER + INTRA:          -3.603
REMARK INTER:                  -4.828
REMARK INTRA:                   1.226
REMARK UNBOUND:                 1.319
REMARK SMILES CC1=CCC[C@H](C)C(=O)C[C@@H](C(C)C)C(=O)C1
REMARK SMILES IDX 8 1 9 2 6 3 7 4 5 5 4 6 3 7 2 8 1 9 10 11 11 12 15 13 16 14
REMARK SMILES IDX 17 15 12 17 13 18 14 19
REMARK H PARENT
REMARK Flexibility Score: 70.00
ROOT
ATOM      1  C   UNL     1       2.471  12.893  -6.698  1.00  0.00     0.136 C 
ATOM      2  O   UNL     1       2.682  11.835  -6.132  1.00  0.00    -0.299 OA
ENDROOT
BRANCH   1   3
ATOM      3  C   UNL     1       1.959  12.855  -8.135  1.00  0.00     0.053 C 
ATOM      4  C   UNL     1       2.252  14.179  -8.851  1.00  0.00     0.016 C 
BRANCH   3   5
ATOM      5  C   UNL     1       2.520  11.653  -8.933  1.00  0.00     0.015 C 
BRANCH   5   6
ATOM      6  C   UNL     1       4.013  11.333  -8.698  1.00  0.00     0.028 C 
BRANCH   6   7
ATOM      7  C   UNL     1       5.006  12.388  -9.120  1.00  0.00    -0.028 C 
ATOM      8  C   UNL     1       5.660  13.243  -8.301  1.00  0.00    -0.070 CG0
ATOM      9  C   UNL     1       6.467  14.347  -8.937  1.00  0.00     0.039 C 
ATOM     10  G   UNL     1       5.676  13.124  -6.792  1.00  0.00     0.000 G0
ENDBRANCH   6   7
ENDBRANCH   5   6
ENDBRANCH   3   5
ENDBRANCH   1   3
BRANCH   1  11
ATOM     11  C   UNL     1       2.704  14.180  -5.927  1.00  0.00     0.087 C 
BRANCH  11  12
ATOM     12  C   UNL     1       3.859  15.057  -6.487  1.00  0.00     0.066 C 
BRANCH  12  13
ATOM     13  C   UNL     1       5.222  14.466  -6.179  1.00  0.00     0.140 C 
ATOM     14  O   UNL     1       5.961  15.021  -5.381  1.00  0.00    -0.299 OA
BRANCH  13  15
ATOM     15  C   UNL     1       5.651  13.149  -6.782  1.00  0.00     0.106 CG0
ATOM     16  G   UNL     1       5.672  13.249  -8.292  1.00  0.00     0.000 G0
ENDBRANCH  13  15
ENDBRANCH  12  13
BRANCH  12  17
ATOM     17  C   UNL     1       3.760  16.573  -6.111  1.00  0.00    -0.006 C 
ATOM     18  C   UNL     1       4.081  17.472  -7.318  1.00  0.00     0.008 C 
ATOM     19  C   UNL     1       2.423  17.008  -5.482  1.00  0.00     0.008 C 
ENDBRANCH  12  17
ENDBRANCH  11  12
ENDBRANCH   1  11
TORSDOF 1
ENDMDL
MODEL 6
REMARK VINA RESULT:    -3.198      1.874      3.279
REMARK INTER + INTRA:          -3.562
REMARK INTER:                  -4.523
REMARK INTRA:                   0.962
REMARK UNBOUND:                 1.319
REMARK SMILES CC1=CCC[C@H](C)C(=O)C[C@@H](C(C)C)C(=O)C1
REMARK SMILES IDX 8 1 9 2 6 3 7 4 5 5 4 6 3 7 2 8 1 9 10 11 11 12 15 13 16 14
REMARK SMILES IDX 17 15 12 17 13 18 14 19
REMARK H PARENT
REMARK Flexibility Score: 70.00
ROOT
ATOM      1  C   UNL     1       5.615  13.453  -6.231  1.00  0.00     0.136 C 
ATOM      2  O   UNL     1       5.056  12.954  -5.271  1.00  0.00    -0.299 OA
ENDROOT
BRANCH   1   3
ATOM      3  C   UNL     1       6.241  12.525  -7.267  1.00  0.00     0.053 C 
ATOM      4  C   UNL     1       6.008  11.056  -6.892  1.00  0.00     0.016 C 
BRANCH   3   5
ATOM      5  C   UNL     1       5.745  12.819  -8.704  1.00  0.00     0.015 C 
BRANCH   5   6
ATOM      6  C   UNL     1       4.407  12.155  -9.098  1.00  0.00     0.028 C 
BRANCH   6   7
ATOM      7  C   UNL     1       3.213  12.472  -8.230  1.00  0.00    -0.028 C 
ATOM      8  C   UNL     1       2.655  13.691  -8.054  1.00  0.00    -0.070 CG0
ATOM      9  C   UNL     1       1.586  13.828  -6.999  1.00  0.00     0.039 C 
ATOM     10  G   UNL     1       2.997  14.907  -8.888  1.00  0.00     0.000 G0
ENDBRANCH   6   7
ENDBRANCH   5   6
ENDBRANCH   3   5
ENDBRANCH   1   3
BRANCH   1  11
ATOM     11  C   UNL     1       5.626  14.967  -6.350  1.00  0.00     0.087 C 
BRANCH  11  12
ATOM     12  C   UNL     1       4.231  15.592  -6.637  1.00  0.00     0.066 C 
BRANCH  12  13
ATOM     13  C   UNL     1       3.988  15.784  -8.122  1.00  0.00     0.140 C 
ATOM     14  O   UNL     1       4.656  16.590  -8.750  1.00  0.00    -0.299 OA
BRANCH  13  15
ATOM     15  C   UNL     1       2.988  14.926  -8.862  1.00  0.00     0.106 CG0
ATOM     16  G   UNL     1       2.657  13.693  -8.048  1.00  0.00     0.000 G0
ENDBRANCH  13  15
ENDBRANCH  12  13
BRANCH  12  17
ATOM     17  C   UNL     1       3.917  16.879  -5.804  1.00  0.00    -0.006 C 
ATOM     18  C   UNL     1       2.403  17.148  -5.739  1.00  0.00     0.008 C 
ATOM     19  C   UNL     1       4.510  16.904  -4.383  1.00  0.00     0.008 C 
ENDBRANCH  12  17
ENDBRANCH  11  12
ENDBRANCH   1  11
TORSDOF 1
ENDMDL
MODEL 7
REMARK VINA RESULT:    -3.166      2.010      4.723
REMARK INTER + INTRA:          -3.513
REMARK INTER:                  -4.448
REMARK INTRA:                   0.936
REMARK UNBOUND:                 1.319
REMARK SMILES CC1=CCC[C@H](C)C(=O)C[C@@H](C(C)C)C(=O)C1
REMARK SMILES IDX 8 1 9 2 6 3 7 4 5 5 4 6 3 7 2 8 1 9 10 11 11 12 15 13 16 14
REMARK SMILES IDX 17 15 12 17 13 18 14 19
REMARK H PARENT
REMARK Flexibility Score: 70.00
ROOT
ATOM      1  C   UNL     1       3.346  13.669  -5.365  1.00  0.00     0.136 C 
ATOM      2  O   UNL     1       4.403  13.252  -4.925  1.00  0.00    -0.299 OA
ENDROOT
BRANCH   1   3
ATOM      3  C   UNL     1       2.774  14.954  -4.777  1.00  0.00     0.053 C 
ATOM      4  C   UNL     1       3.711  15.526  -3.706  1.00  0.00     0.016 C 
BRANCH   3   5
ATOM      5  C   UNL     1       2.455  16.012  -5.861  1.00  0.00     0.015 C 
BRANCH   5   6
ATOM      6  C   UNL     1       3.621  16.951  -6.242  1.00  0.00     0.028 C 
BRANCH   6   7
ATOM      7  C   UNL     1       4.740  16.346  -7.054  1.00  0.00    -0.028 C 
ATOM      8  C   UNL     1       4.604  15.629  -8.192  1.00  0.00    -0.070 CG0
ATOM      9  C   UNL     1       5.831  14.951  -8.747  1.00  0.00     0.039 C 
ATOM     10  G   UNL     1       3.310  15.515  -8.971  1.00  0.00     0.000 G0
ENDBRANCH   6   7
ENDBRANCH   5   6
ENDBRANCH   3   5
ENDBRANCH   1   3
BRANCH   1  11
ATOM     11  C   UNL     1       2.682  12.897  -6.493  1.00  0.00     0.087 C 
BRANCH  11  12
ATOM     12  C   UNL     1       3.350  13.101  -7.882  1.00  0.00     0.066 C 
BRANCH  12  13
ATOM     13  C   UNL     1       2.647  14.167  -8.700  1.00  0.00     0.140 C 
ATOM     14  O   UNL     1       1.499  13.989  -9.077  1.00  0.00    -0.299 OA
BRANCH  13  15
ATOM     15  C   UNL     1       3.314  15.492  -8.986  1.00  0.00     0.106 CG0
ATOM     16  G   UNL     1       4.599  15.610  -8.193  1.00  0.00     0.000 G0
ENDBRANCH  13  15
ENDBRANCH  12  13
BRANCH  12  17
ATOM     17  C   UNL     1       3.582  11.779  -8.686  1.00  0.00    -0.006 C 
ATOM     18  C   UNL     1       5.039  11.295  -8.560  1.00  0.00     0.008 C 
ATOM     19  C   UNL     1       2.622  10.624  -8.346  1.00  0.00     0.008 C 
ENDBRANCH  12  17
ENDBRANCH  11  12
ENDBRANCH   1  11
TORSDOF 1
ENDMDL
MODEL 8
REMARK VINA RESULT:    -2.812      1.583      3.144
REMARK INTER + INTRA:          -2.972
REMARK INTER:                  -4.380
REMARK INTRA:                   1.408
REMARK UNBOUND:                 1.319
REMARK SMILES CC1=CCC[C@H](C)C(=O)C[C@@H](C(C)C)C(=O)C1
REMARK SMILES IDX 8 1 9 2 6 3 7 4 5 5 4 6 3 7 2 8 1 9 10 11 11 12 15 13 16 14
REMARK SMILES IDX 17 15 12 17 13 18 14 19
REMARK H PARENT
REMARK Flexibility Score: 70.00
ROOT
ATOM      1  C   UNL     1       6.008  13.309  -6.072  1.00  0.00     0.136 C 
ATOM      2  O   UNL     1       6.130  12.993  -4.901  1.00  0.00    -0.299 OA
ENDROOT
BRANCH   1   3
ATOM      3  C   UNL     1       6.463  12.320  -7.140  1.00  0.00     0.053 C 
ATOM      4  C   UNL     1       5.608  11.048  -7.102  1.00  0.00     0.016 C 
BRANCH   3   5
ATOM      5  C   UNL     1       6.476  12.942  -8.558  1.00  0.00     0.015 C 
BRANCH   5   6
ATOM      6  C   UNL     1       5.106  13.414  -9.092  1.00  0.00     0.028 C 
BRANCH   6   7
ATOM      7  C   UNL     1       3.989  12.399  -9.083  1.00  0.00    -0.028 C 
ATOM      8  C   UNL     1       2.850  12.472  -8.359  1.00  0.00    -0.070 CG0
ATOM      9  C   UNL     1       1.947  11.264  -8.346  1.00  0.00     0.039 C 
ATOM     10  G   UNL     1       2.400  13.709  -7.611  1.00  0.00     0.000 G0
ENDBRANCH   6   7
ENDBRANCH   5   6
ENDBRANCH   3   5
ENDBRANCH   1   3
BRANCH   1  11
ATOM     11  C   UNL     1       5.383  14.656  -6.391  1.00  0.00     0.087 C 
BRANCH  11  12
ATOM     12  C   UNL     1       3.957  14.851  -5.802  1.00  0.00     0.066 C 
BRANCH  12  13
ATOM     13  C   UNL     1       3.009  13.747  -6.229  1.00  0.00     0.140 C 
ATOM     14  O   UNL     1       2.661  12.897  -5.424  1.00  0.00    -0.299 OA
BRANCH  13  15
ATOM     15  C   UNL     1       2.414  13.729  -7.618  1.00  0.00     0.106 CG0
ATOM     16  G   UNL     1       2.839  12.472  -8.349  1.00  0.00     0.000 G0
ENDBRANCH  13  15
ENDBRANCH  12  13
BRANCH  12  17
ATOM     17  C   UNL     1       3.358  16.280  -6.023  1.00  0.00    -0.006 C 
ATOM     18  C   UNL     1       1.860  16.319  -5.671  1.00  0.00     0.008 C 
ATOM     19  C   UNL     1       4.092  17.421  -5.294  1.00  0.00     0.008 C 
ENDBRANCH  12  17
ENDBRANCH  11  12
ENDBRANCH   1  11
TORSDOF 1
ENDMDL
MODEL 9
REMARK VINA RESULT:    -2.736      2.040      4.840
REMARK INTER + INTRA:          -2.857
REMARK INTER:                  -4.597
REMARK INTRA:                   1.740
REMARK UNBOUND:                 1.319
REMARK SMILES CC1=CCC[C@H](C)C(=O)C[C@@H](C(C)C)C(=O)C1
REMARK SMILES IDX 8 1 9 2 6 3 7 4 5 5 4 6 3 7 2 8 1 9 10 11 11 12 15 13 16 14
REMARK SMILES IDX 17 15 12 17 13 18 14 19
REMARK H PARENT
REMARK Flexibility Score: 70.00
ROOT
ATOM      1  C   UNL     1       4.435  15.569  -5.292  1.00  0.00     0.136 C 
ATOM      2  O   UNL     1       5.466  16.186  -5.089  1.00  0.00    -0.299 OA
ENDROOT
BRANCH   1   3
ATOM      3  C   UNL     1       3.107  16.265  -5.012  1.00  0.00     0.053 C 
ATOM      4  C   UNL     1       3.028  17.603  -5.757  1.00  0.00     0.016 C 
BRANCH   3   5
ATOM      5  C   UNL     1       1.887  15.370  -5.341  1.00  0.00     0.015 C 
BRANCH   5   6
ATOM      6  C   UNL     1       1.736  14.966  -6.824  1.00  0.00     0.028 C 
BRANCH   6   7
ATOM      7  C   UNL     1       1.821  13.492  -7.137  1.00  0.00    -0.028 C 
ATOM      8  C   UNL     1       2.451  12.936  -8.197  1.00  0.00    -0.070 CG0
ATOM      9  C   UNL     1       2.259  11.459  -8.433  1.00  0.00     0.039 C 
ATOM     10  G   UNL     1       3.380  13.693  -9.123  1.00  0.00     0.000 G0
ENDBRANCH   6   7
ENDBRANCH   5   6
ENDBRANCH   3   5
ENDBRANCH   1   3
BRANCH   1  11
ATOM     11  C   UNL     1       4.540  14.156  -5.839  1.00  0.00     0.087 C 
BRANCH  11  12
ATOM     12  C   UNL     1       5.207  14.065  -7.241  1.00  0.00     0.066 C 
BRANCH  12  13
ATOM     13  C   UNL     1       4.306  14.603  -8.336  1.00  0.00     0.140 C 
ATOM     14  O   UNL     1       4.363  15.783  -8.647  1.00  0.00    -0.299 OA
BRANCH  13  15
ATOM     15  C   UNL     1       3.395  13.683  -9.115  1.00  0.00     0.106 CG0
ATOM     16  G   UNL     1       2.452  12.964  -8.173  1.00  0.00     0.000 G0
ENDBRANCH  13  15
ENDBRANCH  12  13
BRANCH  12  17
ATOM     17  C   UNL     1       5.797  12.657  -7.584  1.00  0.00    -0.006 C 
ATOM     18  C   UNL     1       6.846  12.748  -8.707  1.00  0.00     0.008 C 
ATOM     19  C   UNL     1       6.383  11.880  -6.390  1.00  0.00     0.008 C 
ENDBRANCH  12  17
ENDBRANCH  11  12
ENDBRANCH   1  11
TORSDOF 1
ENDMDL
