MODEL 1
REMARK VINA RESULT:    -5.751      0.000      0.000
REMARK INTER + INTRA:          -7.031
REMARK INTER:                  -6.759
REMARK INTRA:                  -0.272
REMARK UNBOUND:                -0.272
REMARK SMILES O=c1cc(-c2ccc(O)c(O)c2)oc2cc(O)cc(O)c12
REMARK SMILES IDX 4 1 3 2 2 3 1 4 21 5 19 6 18 7 16 8 15 9 14 10 13 11 5 12
REMARK SMILES IDX 6 13 7 14 8 15 12 16 10 17 9 18 11 20 20 22 17 24
REMARK H PARENT 9 19 11 21 20 23 17 25
REMARK Flexibility Score: inf
ROOT
ATOM      1  C   UNL     1       5.018  -3.285  26.645  1.00  0.00     0.138 A 
ATOM      2  C   UNL     1       5.127  -3.446  25.254  1.00  0.00     0.100 A 
ATOM      3  C   UNL     1       6.134  -4.260  24.732  1.00  0.00     0.197 A 
ATOM      4  O   UNL     1       6.223  -4.397  23.483  1.00  0.00    -0.289 OA
ATOM      5  C   UNL     1       7.030  -4.904  25.609  1.00  0.00     0.107 A 
ATOM      6  C   UNL     1       8.077  -5.746  25.163  1.00  0.00     0.134 A 
ATOM      7  C   UNL     1       8.931  -6.348  26.100  1.00  0.00     0.093 A 
ATOM      8  C   UNL     1       8.758  -6.123  27.468  1.00  0.00     0.123 A 
ATOM      9  C   UNL     1       7.726  -5.293  27.914  1.00  0.00     0.094 A 
ATOM     10  C   UNL     1       6.863  -4.684  26.997  1.00  0.00     0.146 A 
ATOM     11  O   UNL     1       5.887  -3.901  27.445  1.00  0.00    -0.456 OA
ENDROOT
BRANCH   1  12
ATOM     12  C   UNL     1       3.968  -2.432  27.256  1.00  0.00     0.021 A 
ATOM     13  C   UNL     1       2.619  -2.813  27.147  1.00  0.00     0.016 A 
ATOM     14  C   UNL     1       1.611  -2.025  27.706  1.00  0.00     0.051 A 
ATOM     15  C   UNL     1       1.930  -0.837  28.374  1.00  0.00     0.157 A 
ATOM     16  C   UNL     1       4.282  -1.229  27.917  1.00  0.00     0.062 A 
ATOM     17  C   UNL     1       3.272  -0.436  28.476  1.00  0.00     0.158 A 
BRANCH  15  18
ATOM     18  O   UNL     1       0.922  -0.053  28.931  1.00  0.00    -0.504 OA
ATOM     19  H   UNL     1       0.665  -0.134  29.909  1.00  0.00     0.293 HD
ENDBRANCH  15  18
BRANCH  17  20
ATOM     20  O   UNL     1       3.623   0.748  29.124  1.00  0.00    -0.504 OA
ATOM     21  H   UNL     1       4.518   0.865  29.583  1.00  0.00     0.293 HD
ENDBRANCH  17  20
ENDBRANCH   1  12
BRANCH   6  22
ATOM     22  O   UNL     1       8.275  -5.988  23.804  1.00  0.00    -0.507 OA
ATOM     23  H   UNL     1       8.123  -6.904  23.398  1.00  0.00     0.293 HD
ENDBRANCH   6  22
BRANCH   8  24
ATOM     24  O   UNL     1       9.621  -6.732  28.378  1.00  0.00    -0.508 OA
ATOM     25  H   UNL     1       9.414  -7.639  28.779  1.00  0.00     0.293 HD
ENDBRANCH   8  24
TORSDOF 5
ENDMDL
MODEL 2
REMARK VINA RESULT:    -5.482      1.543      6.981
REMARK INTER + INTRA:          -6.715
REMARK INTER:                  -6.440
REMARK INTRA:                  -0.275
REMARK UNBOUND:                -0.272
REMARK SMILES O=c1cc(-c2ccc(O)c(O)c2)oc2cc(O)cc(O)c12
REMARK SMILES IDX 4 1 3 2 2 3 1 4 21 5 19 6 18 7 16 8 15 9 14 10 13 11 5 12
REMARK SMILES IDX 6 13 7 14 8 15 12 16 10 17 9 18 11 20 20 22 17 24
REMARK H PARENT 9 19 11 21 20 23 17 25
REMARK Flexibility Score: inf
ROOT
ATOM      1  C   UNL     1       5.058  -4.115  26.186  1.00  0.00     0.138 A 
ATOM      2  C   UNL     1       3.821  -4.766  26.045  1.00  0.00     0.100 A 
ATOM      3  C   UNL     1       2.664  -4.158  26.535  1.00  0.00     0.197 A 
ATOM      4  O   UNL     1       1.560  -4.750  26.403  1.00  0.00    -0.289 OA
ATOM      5  C   UNL     1       2.755  -2.902  27.167  1.00  0.00     0.107 A 
ATOM      6  C   UNL     1       1.632  -2.216  27.690  1.00  0.00     0.134 A 
ATOM      7  C   UNL     1       1.806  -0.970  28.311  1.00  0.00     0.093 A 
ATOM      8  C   UNL     1       3.076  -0.399  28.419  1.00  0.00     0.123 A 
ATOM      9  C   UNL     1       4.189  -1.072  27.904  1.00  0.00     0.094 A 
ATOM     10  C   UNL     1       4.037  -2.314  27.281  1.00  0.00     0.146 A 
ATOM     11  O   UNL     1       5.109  -2.933  26.797  1.00  0.00    -0.456 OA
ENDROOT
BRANCH   1  12
ATOM     12  C   UNL     1       6.320  -4.715  25.685  1.00  0.00     0.021 A 
ATOM     13  C   UNL     1       6.475  -4.949  24.307  1.00  0.00     0.016 A 
ATOM     14  C   UNL     1       7.649  -5.519  23.811  1.00  0.00     0.051 A 
ATOM     15  C   UNL     1       8.686  -5.874  24.681  1.00  0.00     0.157 A 
ATOM     16  C   UNL     1       7.361  -5.086  26.557  1.00  0.00     0.062 A 
ATOM     17  C   UNL     1       8.539  -5.660  26.062  1.00  0.00     0.158 A 
BRANCH  15  18
ATOM     18  O   UNL     1       9.857  -6.442  24.183  1.00  0.00    -0.504 OA
ATOM     19  H   UNL     1       9.897  -7.415  23.902  1.00  0.00     0.293 HD
ENDBRANCH  15  18
BRANCH  17  20
ATOM     20  O   UNL     1       9.548  -6.013  26.957  1.00  0.00    -0.504 OA
ATOM     21  H   UNL     1       9.360  -6.193  27.936  1.00  0.00     0.293 HD
ENDBRANCH  17  20
ENDBRANCH   1  12
BRANCH   6  22
ATOM     22  O   UNL     1       0.351  -2.761  27.598  1.00  0.00    -0.507 OA
ATOM     23  H   UNL     1      -0.392  -2.294  27.092  1.00  0.00     0.293 HD
ENDBRANCH   6  22
BRANCH   8  24
ATOM     24  O   UNL     1       3.222   0.839  29.041  1.00  0.00    -0.508 OA
ATOM     25  H   UNL     1       3.007   1.703  28.558  1.00  0.00     0.293 HD
ENDBRANCH   8  24
TORSDOF 5
ENDMDL
MODEL 3
REMARK VINA RESULT:    -5.372      2.114      7.393
REMARK INTER + INTRA:          -6.586
REMARK INTER:                  -6.269
REMARK INTRA:                  -0.317
REMARK UNBOUND:                -0.272
REMARK SMILES O=c1cc(-c2ccc(O)c(O)c2)oc2cc(O)cc(O)c12
REMARK SMILES IDX 4 1 3 2 2 3 1 4 21 5 19 6 18 7 16 8 15 9 14 10 13 11 5 12
REMARK SMILES IDX 6 13 7 14 8 15 12 16 10 17 9 18 11 20 20 22 17 24
REMARK H PARENT 9 19 11 21 20 23 17 25
REMARK Flexibility Score: inf
ROOT
ATOM      1  C   UNL     1       5.700  -4.340  26.091  1.00  0.00     0.138 A 
ATOM      2  C   UNL     1       5.710  -3.382  27.118  1.00  0.00     0.100 A 
ATOM      3  C   UNL     1       4.531  -2.705  27.438  1.00  0.00     0.197 A 
ATOM      4  O   UNL     1       4.551  -1.847  28.361  1.00  0.00    -0.289 OA
ATOM      5  C   UNL     1       3.351  -2.991  26.724  1.00  0.00     0.107 A 
ATOM      6  C   UNL     1       2.115  -2.352  26.985  1.00  0.00     0.134 A 
ATOM      7  C   UNL     1       0.985  -2.688  26.225  1.00  0.00     0.093 A 
ATOM      8  C   UNL     1       1.067  -3.647  25.212  1.00  0.00     0.123 A 
ATOM      9  C   UNL     1       2.286  -4.281  24.949  1.00  0.00     0.094 A 
ATOM     10  C   UNL     1       3.424  -3.961  25.696  1.00  0.00     0.146 A 
ATOM     11  O   UNL     1       4.570  -4.579  25.430  1.00  0.00    -0.456 OA
ENDROOT
BRANCH   1  12
ATOM     12  C   UNL     1       6.923  -5.089  25.708  1.00  0.00     0.021 A 
ATOM     13  C   UNL     1       8.075  -4.989  26.509  1.00  0.00     0.016 A 
ATOM     14  C   UNL     1       9.240  -5.678  26.167  1.00  0.00     0.051 A 
ATOM     15  C   UNL     1       9.281  -6.471  25.014  1.00  0.00     0.157 A 
ATOM     16  C   UNL     1       6.975  -5.878  24.543  1.00  0.00     0.062 A 
ATOM     17  C   UNL     1       8.143  -6.568  24.196  1.00  0.00     0.158 A 
BRANCH  15  18
ATOM     18  O   UNL     1      10.445  -7.157  24.675  1.00  0.00    -0.504 OA
ATOM     19  H   UNL     1      10.773  -7.948  25.220  1.00  0.00     0.293 HD
ENDBRANCH  15  18
BRANCH  17  20
ATOM     20  O   UNL     1       8.154  -7.340  23.035  1.00  0.00    -0.504 OA
ATOM     21  H   UNL     1       7.548  -7.138  22.249  1.00  0.00     0.293 HD
ENDBRANCH  17  20
ENDBRANCH   1  12
BRANCH   6  22
ATOM     22  O   UNL     1       2.002  -1.390  27.989  1.00  0.00    -0.507 OA
ATOM     23  H   UNL     1       1.149  -0.860  28.126  1.00  0.00     0.293 HD
ENDBRANCH   6  22
BRANCH   8  24
ATOM     24  O   UNL     1      -0.070  -3.962  24.471  1.00  0.00    -0.508 OA
ATOM     25  H   UNL     1      -0.155  -3.704  23.494  1.00  0.00     0.293 HD
ENDBRANCH   8  24
TORSDOF 5
ENDMDL
MODEL 4
REMARK VINA RESULT:    -5.370      3.401      8.963
REMARK INTER + INTRA:          -6.584
REMARK INTER:                  -6.313
REMARK INTRA:                  -0.271
REMARK UNBOUND:                -0.272
REMARK SMILES O=c1cc(-c2ccc(O)c(O)c2)oc2cc(O)cc(O)c12
REMARK SMILES IDX 4 1 3 2 2 3 1 4 21 5 19 6 18 7 16 8 15 9 14 10 13 11 5 12
REMARK SMILES IDX 6 13 7 14 8 15 12 16 10 17 9 18 11 20 20 22 17 24
REMARK H PARENT 9 19 11 21 20 23 17 25
REMARK Flexibility Score: inf
ROOT
ATOM      1  C   UNL     1       9.620  -7.315  24.781  1.00  0.00     0.138 A 
ATOM      2  C   UNL     1      10.031  -7.478  26.114  1.00  0.00     0.100 A 
ATOM      3  C   UNL     1       9.370  -6.782  27.128  1.00  0.00     0.197 A 
ATOM      4  O   UNL     1       9.747  -6.936  28.320  1.00  0.00    -0.289 OA
ATOM      5  C   UNL     1       8.302  -5.924  26.798  1.00  0.00     0.107 A 
ATOM      6  C   UNL     1       7.578  -5.184  27.764  1.00  0.00     0.134 A 
ATOM      7  C   UNL     1       6.531  -4.345  27.354  1.00  0.00     0.093 A 
ATOM      8  C   UNL     1       6.195  -4.233  26.002  1.00  0.00     0.123 A 
ATOM      9  C   UNL     1       6.907  -4.962  25.044  1.00  0.00     0.094 A 
ATOM     10  C   UNL     1       7.954  -5.804  25.432  1.00  0.00     0.146 A 
ATOM     11  O   UNL     1       8.614  -6.488  24.503  1.00  0.00    -0.456 OA
ENDROOT
BRANCH   1  12
ATOM     12  C   UNL     1      10.287  -8.028  23.663  1.00  0.00     0.021 A 
ATOM     13  C   UNL     1       9.517  -8.814  22.787  1.00  0.00     0.016 A 
ATOM     14  C   UNL     1      10.120  -9.501  21.732  1.00  0.00     0.051 A 
ATOM     15  C   UNL     1      11.505  -9.424  21.538  1.00  0.00     0.157 A 
ATOM     16  C   UNL     1      11.680  -7.966  23.470  1.00  0.00     0.062 A 
ATOM     17  C   UNL     1      12.288  -8.656  22.414  1.00  0.00     0.158 A 
BRANCH  15  18
ATOM     18  O   UNL     1      12.104 -10.110  20.483  1.00  0.00    -0.504 OA
ATOM     19  H   UNL     1      11.852  -9.926  19.518  1.00  0.00     0.293 HD
ENDBRANCH  15  18
BRANCH  17  20
ATOM     20  O   UNL     1      13.671  -8.569  22.256  1.00  0.00    -0.504 OA
ATOM     21  H   UNL     1      14.299  -9.279  22.612  1.00  0.00     0.293 HD
ENDBRANCH  17  20
ENDBRANCH   1  12
BRANCH   6  22
ATOM     22  O   UNL     1       7.891  -5.274  29.120  1.00  0.00    -0.507 OA
ATOM     23  H   UNL     1       8.850  -5.296  29.445  1.00  0.00     0.293 HD
ENDBRANCH   6  22
BRANCH   8  24
ATOM     24  O   UNL     1       5.151  -3.393  25.622  1.00  0.00    -0.508 OA
ATOM     25  H   UNL     1       5.204  -2.389  25.753  1.00  0.00     0.293 HD
ENDBRANCH   8  24
TORSDOF 5
ENDMDL
MODEL 5
REMARK VINA RESULT:    -5.329      2.055      4.393
REMARK INTER + INTRA:          -6.535
REMARK INTER:                  -6.217
REMARK INTRA:                  -0.318
REMARK UNBOUND:                -0.272
REMARK SMILES O=c1cc(-c2ccc(O)c(O)c2)oc2cc(O)cc(O)c12
REMARK SMILES IDX 4 1 3 2 2 3 1 4 21 5 19 6 18 7 16 8 15 9 14 10 13 11 5 12
REMARK SMILES IDX 6 13 7 14 8 15 12 16 10 17 9 18 11 20 20 22 17 24
REMARK H PARENT 9 19 11 21 20 23 17 25
REMARK Flexibility Score: inf
ROOT
ATOM      1  C   UNL     1       7.712  -5.397  26.918  1.00  0.00     0.138 A 
ATOM      2  C   UNL     1       8.224  -6.012  28.073  1.00  0.00     0.100 A 
ATOM      3  C   UNL     1       9.232  -6.969  27.953  1.00  0.00     0.197 A 
ATOM      4  O   UNL     1       9.684  -7.514  28.995  1.00  0.00    -0.289 OA
ATOM      5  C   UNL     1       9.720  -7.307  26.675  1.00  0.00     0.107 A 
ATOM      6  C   UNL     1      10.741  -8.264  26.465  1.00  0.00     0.134 A 
ATOM      7  C   UNL     1      11.168  -8.550  25.159  1.00  0.00     0.093 A 
ATOM      8  C   UNL     1      10.595  -7.899  24.064  1.00  0.00     0.123 A 
ATOM      9  C   UNL     1       9.586  -6.952  24.266  1.00  0.00     0.094 A 
ATOM     10  C   UNL     1       9.147  -6.652  25.559  1.00  0.00     0.146 A 
ATOM     11  O   UNL     1       8.188  -5.747  25.725  1.00  0.00    -0.456 OA
ENDROOT
BRANCH   1  12
ATOM     12  C   UNL     1       6.638  -4.373  26.986  1.00  0.00     0.021 A 
ATOM     13  C   UNL     1       6.145  -3.971  28.240  1.00  0.00     0.016 A 
ATOM     14  C   UNL     1       5.131  -3.016  28.331  1.00  0.00     0.051 A 
ATOM     15  C   UNL     1       4.584  -2.452  27.173  1.00  0.00     0.157 A 
ATOM     16  C   UNL     1       6.074  -3.813  25.824  1.00  0.00     0.062 A 
ATOM     17  C   UNL     1       5.055  -2.856  25.913  1.00  0.00     0.158 A 
BRANCH  15  18
ATOM     18  O   UNL     1       3.572  -1.498  27.267  1.00  0.00    -0.504 OA
ATOM     19  H   UNL     1       3.780  -0.506  27.308  1.00  0.00     0.293 HD
ENDBRANCH  15  18
BRANCH  17  20
ATOM     20  O   UNL     1       4.524  -2.323  24.740  1.00  0.00    -0.504 OA
ATOM     21  H   UNL     1       5.026  -1.645  24.181  1.00  0.00     0.293 HD
ENDBRANCH  17  20
ENDBRANCH   1  12
BRANCH   6  22
ATOM     22  O   UNL     1      11.331  -8.932  27.539  1.00  0.00    -0.507 OA
ATOM     23  H   UNL     1      11.714  -8.431  28.332  1.00  0.00     0.293 HD
ENDBRANCH   6  22
BRANCH   8  24
ATOM     24  O   UNL     1      11.036  -8.201  22.777  1.00  0.00    -0.508 OA
ATOM     25  H   UNL     1      11.324  -7.475  22.132  1.00  0.00     0.293 HD
ENDBRANCH   8  24
TORSDOF 5
ENDMDL
MODEL 6
REMARK VINA RESULT:    -5.276      2.100      7.219
REMARK INTER + INTRA:          -6.473
REMARK INTER:                  -6.194
REMARK INTRA:                  -0.279
REMARK UNBOUND:                -0.272
REMARK SMILES O=c1cc(-c2ccc(O)c(O)c2)oc2cc(O)cc(O)c12
REMARK SMILES IDX 4 1 3 2 2 3 1 4 21 5 19 6 18 7 16 8 15 9 14 10 13 11 5 12
REMARK SMILES IDX 6 13 7 14 8 15 12 16 10 17 9 18 11 20 20 22 17 24
REMARK H PARENT 9 19 11 21 20 23 17 25
REMARK Flexibility Score: inf
ROOT
ATOM      1  C   UNL     1       5.756  -4.303  26.245  1.00  0.00     0.138 A 
ATOM      2  C   UNL     1       5.709  -3.282  27.209  1.00  0.00     0.100 A 
ATOM      3  C   UNL     1       4.504  -2.623  27.455  1.00  0.00     0.197 A 
ATOM      4  O   UNL     1       4.473  -1.709  28.322  1.00  0.00    -0.289 OA
ATOM      5  C   UNL     1       3.352  -2.990  26.731  1.00  0.00     0.107 A 
ATOM      6  C   UNL     1       2.091  -2.375  26.920  1.00  0.00     0.134 A 
ATOM      7  C   UNL     1       0.992  -2.793  26.154  1.00  0.00     0.093 A 
ATOM      8  C   UNL     1       1.131  -3.810  25.207  1.00  0.00     0.123 A 
ATOM      9  C   UNL     1       2.374  -4.421  25.016  1.00  0.00     0.094 A 
ATOM     10  C   UNL     1       3.481  -4.020  25.770  1.00  0.00     0.146 A 
ATOM     11  O   UNL     1       4.652  -4.617  25.572  1.00  0.00    -0.456 OA
ENDROOT
BRANCH   1  12
ATOM     12  C   UNL     1       7.011  -5.036  25.941  1.00  0.00     0.021 A 
ATOM     13  C   UNL     1       7.358  -5.286  24.602  1.00  0.00     0.016 A 
ATOM     14  C   UNL     1       8.529  -5.979  24.289  1.00  0.00     0.051 A 
ATOM     15  C   UNL     1       9.369  -6.445  25.308  1.00  0.00     0.157 A 
ATOM     16  C   UNL     1       7.853  -5.518  26.961  1.00  0.00     0.062 A 
ATOM     17  C   UNL     1       9.027  -6.216  26.650  1.00  0.00     0.158 A 
BRANCH  15  18
ATOM     18  O   UNL     1      10.537  -7.136  24.992  1.00  0.00    -0.504 OA
ATOM     19  H   UNL     1      10.974  -7.052  24.081  1.00  0.00     0.293 HD
ENDBRANCH  15  18
BRANCH  17  20
ATOM     20  O   UNL     1       9.836  -6.677  27.688  1.00  0.00    -0.504 OA
ATOM     21  H   UNL     1      10.340  -6.044  28.298  1.00  0.00     0.293 HD
ENDBRANCH  17  20
ENDBRANCH   1  12
BRANCH   6  22
ATOM     22  O   UNL     1       1.922  -1.356  27.858  1.00  0.00    -0.507 OA
ATOM     23  H   UNL     1       1.029  -1.184  28.303  1.00  0.00     0.293 HD
ENDBRANCH   6  22
BRANCH   8  24
ATOM     24  O   UNL     1       0.024  -4.207  24.458  1.00  0.00    -0.508 OA
ATOM     25  H   UNL     1      -0.910  -3.878  24.679  1.00  0.00     0.293 HD
ENDBRANCH   8  24
TORSDOF 5
ENDMDL
MODEL 7
REMARK VINA RESULT:    -5.188      2.118      7.318
REMARK INTER + INTRA:          -6.370
REMARK INTER:                  -6.081
REMARK INTRA:                  -0.289
REMARK UNBOUND:                -0.272
REMARK SMILES O=c1cc(-c2ccc(O)c(O)c2)oc2cc(O)cc(O)c12
REMARK SMILES IDX 4 1 3 2 2 3 1 4 21 5 19 6 18 7 16 8 15 9 14 10 13 11 5 12
REMARK SMILES IDX 6 13 7 14 8 15 12 16 10 17 9 18 11 20 20 22 17 24
REMARK H PARENT 9 19 11 21 20 23 17 25
REMARK Flexibility Score: inf
ROOT
ATOM      1  C   UNL     1       6.241  -5.410  25.373  1.00  0.00     0.138 A 
ATOM      2  C   UNL     1       5.034  -5.949  24.898  1.00  0.00     0.100 A 
ATOM      3  C   UNL     1       3.835  -5.278  25.145  1.00  0.00     0.197 A 
ATOM      4  O   UNL     1       2.759  -5.771  24.714  1.00  0.00    -0.289 OA
ATOM      5  C   UNL     1       3.853  -4.070  25.871  1.00  0.00     0.107 A 
ATOM      6  C   UNL     1       2.685  -3.326  26.164  1.00  0.00     0.134 A 
ATOM      7  C   UNL     1       2.786  -2.135  26.898  1.00  0.00     0.093 A 
ATOM      8  C   UNL     1       4.028  -1.676  27.343  1.00  0.00     0.123 A 
ATOM      9  C   UNL     1       5.185  -2.407  27.057  1.00  0.00     0.094 A 
ATOM     10  C   UNL     1       5.107  -3.596  26.326  1.00  0.00     0.146 A 
ATOM     11  O   UNL     1       6.221  -4.272  26.064  1.00  0.00    -0.456 OA
ENDROOT
BRANCH   1  12
ATOM     12  C   UNL     1       7.544  -6.081  25.140  1.00  0.00     0.021 A 
ATOM     13  C   UNL     1       8.592  -5.892  26.058  1.00  0.00     0.016 A 
ATOM     14  C   UNL     1       9.830  -6.506  25.859  1.00  0.00     0.051 A 
ATOM     15  C   UNL     1      10.048  -7.312  24.735  1.00  0.00     0.157 A 
ATOM     16  C   UNL     1       7.773  -6.882  24.005  1.00  0.00     0.062 A 
ATOM     17  C   UNL     1       9.015  -7.496  23.801  1.00  0.00     0.158 A 
BRANCH  15  18
ATOM     18  O   UNL     1      11.284  -7.924  24.539  1.00  0.00    -0.504 OA
ATOM     19  H   UNL     1      11.671  -8.568  25.220  1.00  0.00     0.293 HD
ENDBRANCH  15  18
BRANCH  17  20
ATOM     20  O   UNL     1       9.202  -8.283  22.666  1.00  0.00    -0.504 OA
ATOM     21  H   UNL     1      10.020  -8.189  22.075  1.00  0.00     0.293 HD
ENDBRANCH  17  20
ENDBRANCH   1  12
BRANCH   6  22
ATOM     22  O   UNL     1       1.431  -3.760  25.734  1.00  0.00    -0.507 OA
ATOM     23  H   UNL     1       0.819  -3.164  25.189  1.00  0.00     0.293 HD
ENDBRANCH   6  22
BRANCH   8  24
ATOM     24  O   UNL     1       4.101  -0.489  28.071  1.00  0.00    -0.508 OA
ATOM     25  H   UNL     1       3.943   0.411  27.634  1.00  0.00     0.293 HD
ENDBRANCH   8  24
TORSDOF 5
ENDMDL
