MODEL 1
REMARK VINA RESULT:    -6.153      0.000      0.000
REMARK INTER + INTRA:         -11.006
REMARK INTER:                  -9.031
REMARK INTRA:                  -1.975
REMARK UNBOUND:                -1.975
REMARK SMILES O=c1c(O[C@H]2O[C@H](CO)[C@H](O)[C@@H](O)[C@H]2O)c(-c2ccc(O)c(O)c2)oc2cc(O)cc(O)c12
REMARK SMILES IDX 4 1 3 2 16 3 25 4 2 5 26 6 1 7 33 8 27 9 31 10 28 11 30 12
REMARK SMILES IDX 17 13 18 14 19 15 20 16 24 17 22 18 21 19 23 21 32 23 29 25
REMARK SMILES IDX 5 27 14 28 6 29 12 30 7 31 10 32 15 33 13 35 8 37 9 38 11 40
REMARK H PARENT 21 20 23 22 32 24 29 26 15 34 13 36 9 39 11 41
REMARK Flexibility Score: inf
ROOT
ATOM      1  O   UNL     1      15.556  37.903 122.273  1.00  0.00    -0.454 OA
ENDROOT
BRANCH   1   2
ATOM      2  C   UNL     1      14.586  37.954 123.283  1.00  0.00     0.214 A 
ATOM      3  C   UNL     1      13.703  36.882 123.528  1.00  0.00     0.180 A 
ATOM      4  O   UNL     1      12.864  36.940 124.557  1.00  0.00    -0.452 OA
ATOM      5  C   UNL     1      14.497  39.099 124.082  1.00  0.00     0.239 A 
ATOM      6  C   UNL     1      12.772  37.992 125.363  1.00  0.00     0.146 A 
ATOM      7  O   UNL     1      15.256  40.077 123.841  1.00  0.00    -0.285 OA
ATOM      8  C   UNL     1      13.580  39.134 125.152  1.00  0.00     0.111 A 
ATOM      9  C   UNL     1      11.858  37.961 126.420  1.00  0.00     0.094 A 
ATOM     10  C   UNL     1      13.445  40.244 126.019  1.00  0.00     0.134 A 
ATOM     11  C   UNL     1      11.730  39.061 127.276  1.00  0.00     0.123 A 
ATOM     12  C   UNL     1      12.520  40.195 127.072  1.00  0.00     0.093 A 
BRANCH   3  13
ATOM     13  C   UNL     1      13.659  35.687 122.660  1.00  0.00     0.025 A 
ATOM     14  C   UNL     1      14.193  34.461 123.091  1.00  0.00     0.016 A 
ATOM     15  C   UNL     1      14.154  33.343 122.255  1.00  0.00     0.051 A 
ATOM     16  C   UNL     1      13.599  33.436 120.975  1.00  0.00     0.157 A 
ATOM     17  C   UNL     1      13.125  35.786 121.366  1.00  0.00     0.062 A 
ATOM     18  C   UNL     1      13.085  34.663 120.526  1.00  0.00     0.158 A 
BRANCH  16  19
ATOM     19  O   UNL     1      13.570  32.301 120.165  1.00  0.00    -0.504 OA
ATOM     20  H   UNL     1      12.704  31.919 119.806  1.00  0.00     0.293 HD
ENDBRANCH  16  19
BRANCH  18  21
ATOM     21  O   UNL     1      12.538  34.765 119.248  1.00  0.00    -0.504 OA
ATOM     22  H   UNL     1      12.942  35.372 118.544  1.00  0.00     0.293 HD
ENDBRANCH  18  21
ENDBRANCH   3  13
BRANCH  10  23
ATOM     23  O   UNL     1      14.221  41.391 125.844  1.00  0.00    -0.507 OA
ATOM     24  H   UNL     1      13.862  42.210 125.369  1.00  0.00     0.293 HD
ENDBRANCH  10  23
BRANCH  11  25
ATOM     25  O   UNL     1      10.821  39.038 128.330  1.00  0.00    -0.508 OA
ATOM     26  H   UNL     1      11.083  39.336 129.263  1.00  0.00     0.293 HD
ENDBRANCH  11  25
ENDBRANCH   1   2
BRANCH   1  27
ATOM     27  C   UNL     1      16.900  37.458 122.499  1.00  0.00     0.339 C 
ATOM     28  C   UNL     1      17.918  38.479 121.955  1.00  0.00     0.214 C 
ATOM     29  O   UNL     1      17.108  36.172 121.936  1.00  0.00    -0.332 OA
ATOM     30  C   UNL     1      17.894  38.517 120.414  1.00  0.00     0.180 C 
ATOM     31  C   UNL     1      16.935  36.187 120.527  1.00  0.00     0.179 C 
ATOM     32  C   UNL     1      17.997  37.088 119.849  1.00  0.00     0.177 C 
BRANCH  28  33
ATOM     33  O   UNL     1      17.643  39.750 122.485  1.00  0.00    -0.384 OA
ATOM     34  H   UNL     1      17.924  40.411 121.800  1.00  0.00     0.211 HD
ENDBRANCH  28  33
BRANCH  30  35
ATOM     35  O   UNL     1      16.713  39.134 119.969  1.00  0.00    -0.387 OA
ATOM     36  H   UNL     1      16.132  38.416 119.605  1.00  0.00     0.211 HD
ENDBRANCH  30  35
BRANCH  31  37
ATOM     37  C   UNL     1      16.976  34.747 119.999  1.00  0.00     0.191 C 
BRANCH  37  38
ATOM     38  O   UNL     1      17.846  34.646 118.904  1.00  0.00    -0.394 OA
ATOM     39  H   UNL     1      17.304  34.861 118.101  1.00  0.00     0.210 HD
ENDBRANCH  37  38
ENDBRANCH  31  37
BRANCH  32  40
ATOM     40  O   UNL     1      19.291  36.594 120.092  1.00  0.00    -0.387 OA
ATOM     41  H   UNL     1      19.599  36.984 120.952  1.00  0.00     0.211 HD
ENDBRANCH  32  40
ENDBRANCH   1  27
TORSDOF 12
ENDMDL
MODEL 2
REMARK VINA RESULT:    -6.151      1.972      5.011
REMARK INTER + INTRA:         -11.002
REMARK INTER:                  -9.039
REMARK INTRA:                  -1.963
REMARK UNBOUND:                -1.975
REMARK SMILES O=c1c(O[C@H]2O[C@H](CO)[C@H](O)[C@@H](O)[C@H]2O)c(-c2ccc(O)c(O)c2)oc2cc(O)cc(O)c12
REMARK SMILES IDX 4 1 3 2 16 3 25 4 2 5 26 6 1 7 33 8 27 9 31 10 28 11 30 12
REMARK SMILES IDX 17 13 18 14 19 15 20 16 24 17 22 18 21 19 23 21 32 23 29 25
REMARK SMILES IDX 5 27 14 28 6 29 12 30 7 31 10 32 15 33 13 35 8 37 9 38 11 40
REMARK H PARENT 21 20 23 22 32 24 29 26 15 34 13 36 9 39 11 41
REMARK Flexibility Score: inf
ROOT
ATOM      1  O   UNL     1      13.215  35.234 123.107  1.00  0.00    -0.454 OA
ENDROOT
BRANCH   1   2
ATOM      2  C   UNL     1      12.710  36.091 124.093  1.00  0.00     0.214 A 
ATOM      3  C   UNL     1      13.412  37.238 124.521  1.00  0.00     0.180 A 
ATOM      4  O   UNL     1      12.849  38.070 125.390  1.00  0.00    -0.452 OA
ATOM      5  C   UNL     1      11.464  35.810 124.664  1.00  0.00     0.239 A 
ATOM      6  C   UNL     1      11.652  37.861 125.929  1.00  0.00     0.146 A 
ATOM      7  O   UNL     1      10.850  34.765 124.314  1.00  0.00    -0.285 OA
ATOM      8  C   UNL     1      10.906  36.705 125.599  1.00  0.00     0.111 A 
ATOM      9  C   UNL     1      11.142  38.793 126.836  1.00  0.00     0.094 A 
ATOM     10  C   UNL     1       9.642  36.504 126.203  1.00  0.00     0.134 A 
ATOM     11  C   UNL     1       9.891  38.591 127.429  1.00  0.00     0.123 A 
ATOM     12  C   UNL     1       9.149  37.450 127.114  1.00  0.00     0.093 A 
BRANCH   3  13
ATOM     13  C   UNL     1      14.779  37.542 124.050  1.00  0.00     0.025 A 
ATOM     14  C   UNL     1      15.010  38.572 123.122  1.00  0.00     0.016 A 
ATOM     15  C   UNL     1      16.306  38.842 122.678  1.00  0.00     0.051 A 
ATOM     16  C   UNL     1      17.384  38.079 123.137  1.00  0.00     0.157 A 
ATOM     17  C   UNL     1      15.858  36.762 124.491  1.00  0.00     0.062 A 
ATOM     18  C   UNL     1      17.160  37.031 124.045  1.00  0.00     0.158 A 
BRANCH  16  19
ATOM     19  O   UNL     1      18.667  38.375 122.679  1.00  0.00    -0.504 OA
ATOM     20  H   UNL     1      18.843  39.117 122.012  1.00  0.00     0.293 HD
ENDBRANCH  16  19
BRANCH  18  21
ATOM     21  O   UNL     1      18.229  36.262 124.501  1.00  0.00    -0.504 OA
ATOM     22  H   UNL     1      18.812  35.732 123.863  1.00  0.00     0.293 HD
ENDBRANCH  18  21
ENDBRANCH   3  13
BRANCH  10  23
ATOM     23  O   UNL     1       8.875  35.376 125.907  1.00  0.00    -0.507 OA
ATOM     24  H   UNL     1       8.612  35.146 124.956  1.00  0.00     0.293 HD
ENDBRANCH  10  23
BRANCH  11  25
ATOM     25  O   UNL     1       9.377  39.515 128.335  1.00  0.00    -0.508 OA
ATOM     26  H   UNL     1       9.837  40.402 128.505  1.00  0.00     0.293 HD
ENDBRANCH  11  25
ENDBRANCH   1   2
BRANCH   1  27
ATOM     27  C   UNL     1      13.044  35.468 121.702  1.00  0.00     0.339 C 
ATOM     28  C   UNL     1      12.486  34.215 121.000  1.00  0.00     0.214 C 
ATOM     29  O   UNL     1      14.261  35.894 121.109  1.00  0.00    -0.332 OA
ATOM     30  C   UNL     1      13.535  33.085 120.966  1.00  0.00     0.180 C 
ATOM     31  C   UNL     1      15.269  34.900 121.217  1.00  0.00     0.179 C 
ATOM     32  C   UNL     1      14.875  33.625 120.432  1.00  0.00     0.177 C 
BRANCH  28  33
ATOM     33  O   UNL     1      11.318  33.786 121.652  1.00  0.00    -0.384 OA
ATOM     34  H   UNL     1      11.600  33.421 122.531  1.00  0.00     0.211 HD
ENDBRANCH  28  33
BRANCH  30  35
ATOM     35  O   UNL     1      13.704  32.551 122.255  1.00  0.00    -0.387 OA
ATOM     36  H   UNL     1      12.807  32.257 122.564  1.00  0.00     0.211 HD
ENDBRANCH  30  35
BRANCH  31  37
ATOM     37  C   UNL     1      16.604  35.484 120.739  1.00  0.00     0.191 C 
BRANCH  37  38
ATOM     38  O   UNL     1      17.219  34.625 119.818  1.00  0.00    -0.394 OA
ATOM     39  H   UNL     1      17.197  35.096 118.945  1.00  0.00     0.210 HD
ENDBRANCH  37  38
ENDBRANCH  31  37
BRANCH  32  40
ATOM     40  O   UNL     1      14.736  33.912 119.062  1.00  0.00    -0.387 OA
ATOM     41  H   UNL     1      14.650  34.898 118.974  1.00  0.00     0.211 HD
ENDBRANCH  32  40
ENDBRANCH   1  27
TORSDOF 12
ENDMDL
MODEL 3
REMARK VINA RESULT:    -6.100      1.672      4.787
REMARK INTER + INTRA:         -10.928
REMARK INTER:                  -9.162
REMARK INTRA:                  -1.767
REMARK UNBOUND:                -1.975
REMARK SMILES O=c1c(O[C@H]2O[C@H](CO)[C@H](O)[C@@H](O)[C@H]2O)c(-c2ccc(O)c(O)c2)oc2cc(O)cc(O)c12
REMARK SMILES IDX 4 1 3 2 16 3 25 4 2 5 26 6 1 7 33 8 27 9 31 10 28 11 30 12
REMARK SMILES IDX 17 13 18 14 19 15 20 16 24 17 22 18 21 19 23 21 32 23 29 25
REMARK SMILES IDX 5 27 14 28 6 29 12 30 7 31 10 32 15 33 13 35 8 37 9 38 11 40
REMARK H PARENT 21 20 23 22 32 24 29 26 15 34 13 36 9 39 11 41
REMARK Flexibility Score: inf
ROOT
ATOM      1  O   UNL     1      14.119  36.609 123.810  1.00  0.00    -0.454 OA
ENDROOT
BRANCH   1   2
ATOM      2  C   UNL     1      14.120  37.912 124.323  1.00  0.00     0.214 A 
ATOM      3  C   UNL     1      14.725  38.987 123.638  1.00  0.00     0.180 A 
ATOM      4  O   UNL     1      14.618  40.221 124.119  1.00  0.00    -0.452 OA
ATOM      5  C   UNL     1      13.491  38.161 125.549  1.00  0.00     0.239 A 
ATOM      6  C   UNL     1      13.998  40.507 125.259  1.00  0.00     0.146 A 
ATOM      7  O   UNL     1      12.985  37.197 126.185  1.00  0.00    -0.285 OA
ATOM      8  C   UNL     1      13.415  39.480 126.039  1.00  0.00     0.111 A 
ATOM      9  C   UNL     1      13.936  41.836 125.686  1.00  0.00     0.094 A 
ATOM     10  C   UNL     1      12.777  39.817 127.257  1.00  0.00     0.134 A 
ATOM     11  C   UNL     1      13.303  42.164 126.890  1.00  0.00     0.123 A 
ATOM     12  C   UNL     1      12.729  41.157 127.669  1.00  0.00     0.093 A 
BRANCH   3  13
ATOM     13  C   UNL     1      15.503  38.789 122.398  1.00  0.00     0.025 A 
ATOM     14  C   UNL     1      14.870  38.763 121.144  1.00  0.00     0.016 A 
ATOM     15  C   UNL     1      15.617  38.564 119.981  1.00  0.00     0.051 A 
ATOM     16  C   UNL     1      16.999  38.369 120.054  1.00  0.00     0.157 A 
ATOM     17  C   UNL     1      16.887  38.568 122.472  1.00  0.00     0.062 A 
ATOM     18  C   UNL     1      17.638  38.367 121.305  1.00  0.00     0.158 A 
BRANCH  16  19
ATOM     19  O   UNL     1      17.719  38.177 118.875  1.00  0.00    -0.504 OA
ATOM     20  H   UNL     1      17.836  37.262 118.459  1.00  0.00     0.293 HD
ENDBRANCH  16  19
BRANCH  18  21
ATOM     21  O   UNL     1      19.015  38.166 121.385  1.00  0.00    -0.504 OA
ATOM     22  H   UNL     1      19.416  37.479 122.013  1.00  0.00     0.293 HD
ENDBRANCH  18  21
ENDBRANCH   3  13
BRANCH  10  23
ATOM     23  O   UNL     1      12.191  38.834 128.057  1.00  0.00    -0.507 OA
ATOM     24  H   UNL     1      12.723  38.329 128.755  1.00  0.00     0.293 HD
ENDBRANCH  10  23
BRANCH  11  25
ATOM     25  O   UNL     1      13.239  43.486 127.321  1.00  0.00    -0.508 OA
ATOM     26  H   UNL     1      13.609  43.768 128.222  1.00  0.00     0.293 HD
ENDBRANCH  11  25
ENDBRANCH   1   2
BRANCH   1  27
ATOM     27  C   UNL     1      13.114  36.121 122.912  1.00  0.00     0.339 C 
ATOM     28  C   UNL     1      12.436  34.858 123.478  1.00  0.00     0.214 C 
ATOM     29  O   UNL     1      13.660  35.881 121.624  1.00  0.00    -0.332 OA
ATOM     30  C   UNL     1      13.409  33.661 123.480  1.00  0.00     0.180 C 
ATOM     31  C   UNL     1      14.666  34.879 121.664  1.00  0.00     0.179 C 
ATOM     32  C   UNL     1      14.072  33.517 122.098  1.00  0.00     0.177 C 
BRANCH  28  33
ATOM     33  O   UNL     1      11.964  35.113 124.775  1.00  0.00    -0.384 OA
ATOM     34  H   UNL     1      11.030  34.780 124.810  1.00  0.00     0.211 HD
ENDBRANCH  28  33
BRANCH  30  35
ATOM     35  O   UNL     1      14.387  33.843 124.473  1.00  0.00    -0.387 OA
ATOM     36  H   UNL     1      13.922  34.203 125.273  1.00  0.00     0.211 HD
ENDBRANCH  30  35
BRANCH  31  37
ATOM     37  C   UNL     1      15.352  34.801 120.294  1.00  0.00     0.191 C 
BRANCH  37  38
ATOM     38  O   UNL     1      15.604  33.468 119.942  1.00  0.00    -0.394 OA
ATOM     39  H   UNL     1      15.263  33.359 119.016  1.00  0.00     0.210 HD
ENDBRANCH  37  38
ENDBRANCH  31  37
BRANCH  32  40
ATOM     40  O   UNL     1      13.105  33.082 121.173  1.00  0.00    -0.387 OA
ATOM     41  H   UNL     1      12.759  32.209 121.496  1.00  0.00     0.211 HD
ENDBRANCH  32  40
ENDBRANCH   1  27
TORSDOF 12
ENDMDL
MODEL 4
REMARK VINA RESULT:    -5.971      2.076      5.504
REMARK INTER + INTRA:         -10.739
REMARK INTER:                  -8.745
REMARK INTRA:                  -1.994
REMARK UNBOUND:                -1.975
REMARK SMILES O=c1c(O[C@H]2O[C@H](CO)[C@H](O)[C@@H](O)[C@H]2O)c(-c2ccc(O)c(O)c2)oc2cc(O)cc(O)c12
REMARK SMILES IDX 4 1 3 2 16 3 25 4 2 5 26 6 1 7 33 8 27 9 31 10 28 11 30 12
REMARK SMILES IDX 17 13 18 14 19 15 20 16 24 17 22 18 21 19 23 21 32 23 29 25
REMARK SMILES IDX 5 27 14 28 6 29 12 30 7 31 10 32 15 33 13 35 8 37 9 38 11 40
REMARK H PARENT 21 20 23 22 32 24 29 26 15 34 13 36 9 39 11 41
REMARK Flexibility Score: inf
ROOT
ATOM      1  O   UNL     1      12.852  37.114 125.280  1.00  0.00    -0.454 OA
ENDROOT
BRANCH   1   2
ATOM      2  C   UNL     1      13.286  38.423 125.524  1.00  0.00     0.214 A 
ATOM      3  C   UNL     1      14.440  38.956 124.913  1.00  0.00     0.180 A 
ATOM      4  O   UNL     1      14.758  40.232 125.102  1.00  0.00    -0.452 OA
ATOM      5  C   UNL     1      12.546  39.234 126.391  1.00  0.00     0.239 A 
ATOM      6  C   UNL     1      14.063  41.047 125.888  1.00  0.00     0.146 A 
ATOM      7  O   UNL     1      11.536  38.751 126.972  1.00  0.00    -0.285 OA
ATOM      8  C   UNL     1      12.925  40.578 126.585  1.00  0.00     0.111 A 
ATOM      9  C   UNL     1      14.475  42.375 126.026  1.00  0.00     0.094 A 
ATOM     10  C   UNL     1      12.216  41.468 127.427  1.00  0.00     0.134 A 
ATOM     11  C   UNL     1      13.770  43.252 126.858  1.00  0.00     0.123 A 
ATOM     12  C   UNL     1      12.648  42.797 127.554  1.00  0.00     0.093 A 
BRANCH   3  13
ATOM     13  C   UNL     1      15.336  38.132 124.075  1.00  0.00     0.025 A 
ATOM     14  C   UNL     1      15.370  38.294 122.679  1.00  0.00     0.016 A 
ATOM     15  C   UNL     1      16.214  37.501 121.899  1.00  0.00     0.051 A 
ATOM     16  C   UNL     1      17.019  36.525 122.495  1.00  0.00     0.157 A 
ATOM     17  C   UNL     1      16.125  37.136 124.669  1.00  0.00     0.062 A 
ATOM     18  C   UNL     1      16.972  36.338 123.886  1.00  0.00     0.158 A 
BRANCH  16  19
ATOM     19  O   UNL     1      17.854  35.752 121.690  1.00  0.00    -0.504 OA
ATOM     20  H   UNL     1      18.418  36.157 120.953  1.00  0.00     0.293 HD
ENDBRANCH  16  19
BRANCH  18  21
ATOM     21  O   UNL     1      17.766  35.362 124.486  1.00  0.00    -0.504 OA
ATOM     22  H   UNL     1      17.528  34.378 124.434  1.00  0.00     0.293 HD
ENDBRANCH  18  21
ENDBRANCH   3  13
BRANCH  10  23
ATOM     23  O   UNL     1      11.089  41.045 128.134  1.00  0.00    -0.507 OA
ATOM     24  H   UNL     1      11.168  40.551 129.015  1.00  0.00     0.293 HD
ENDBRANCH  10  23
BRANCH  11  25
ATOM     25  O   UNL     1      14.176  44.576 127.001  1.00  0.00    -0.508 OA
ATOM     26  H   UNL     1      14.217  45.022 127.910  1.00  0.00     0.293 HD
ENDBRANCH  11  25
ENDBRANCH   1   2
BRANCH   1  27
ATOM     27  C   UNL     1      11.922  36.777 124.242  1.00  0.00     0.339 C 
ATOM     28  C   UNL     1      10.773  35.908 124.791  1.00  0.00     0.214 C 
ATOM     29  O   UNL     1      12.582  36.136 123.161  1.00  0.00    -0.332 OA
ATOM     30  C   UNL     1      11.278  34.503 125.178  1.00  0.00     0.180 C 
ATOM     31  C   UNL     1      13.174  34.911 123.565  1.00  0.00     0.179 C 
ATOM     32  C   UNL     1      12.094  33.899 124.021  1.00  0.00     0.177 C 
BRANCH  28  33
ATOM     33  O   UNL     1      10.186  36.544 125.897  1.00  0.00    -0.384 OA
ATOM     34  H   UNL     1      10.620  36.168 126.707  1.00  0.00     0.211 HD
ENDBRANCH  28  33
BRANCH  30  35
ATOM     35  O   UNL     1      12.064  34.581 126.341  1.00  0.00    -0.387 OA
ATOM     36  H   UNL     1      12.171  35.545 126.552  1.00  0.00     0.211 HD
ENDBRANCH  30  35
BRANCH  31  37
ATOM     37  C   UNL     1      14.032  34.364 122.418  1.00  0.00     0.191 C 
BRANCH  37  38
ATOM     38  O   UNL     1      13.755  33.008 122.195  1.00  0.00    -0.394 OA
ATOM     39  H   UNL     1      14.157  32.786 121.314  1.00  0.00     0.210 HD
ENDBRANCH  37  38
ENDBRANCH  31  37
BRANCH  32  40
ATOM     40  O   UNL     1      11.223  33.595 122.959  1.00  0.00    -0.387 OA
ATOM     41  H   UNL     1      11.553  32.758 122.537  1.00  0.00     0.211 HD
ENDBRANCH  32  40
ENDBRANCH   1  27
TORSDOF 12
ENDMDL
MODEL 5
REMARK VINA RESULT:    -5.897      1.888      5.156
REMARK INTER + INTRA:         -10.629
REMARK INTER:                  -8.624
REMARK INTRA:                  -2.005
REMARK UNBOUND:                -1.975
REMARK SMILES O=c1c(O[C@H]2O[C@H](CO)[C@H](O)[C@@H](O)[C@H]2O)c(-c2ccc(O)c(O)c2)oc2cc(O)cc(O)c12
REMARK SMILES IDX 4 1 3 2 16 3 25 4 2 5 26 6 1 7 33 8 27 9 31 10 28 11 30 12
REMARK SMILES IDX 17 13 18 14 19 15 20 16 24 17 22 18 21 19 23 21 32 23 29 25
REMARK SMILES IDX 5 27 14 28 6 29 12 30 7 31 10 32 15 33 13 35 8 37 9 38 11 40
REMARK H PARENT 21 20 23 22 32 24 29 26 15 34 13 36 9 39 11 41
REMARK Flexibility Score: inf
ROOT
ATOM      1  O   UNL     1      12.682  36.297 124.427  1.00  0.00    -0.454 OA
ENDROOT
BRANCH   1   2
ATOM      2  C   UNL     1      12.745  37.501 125.139  1.00  0.00     0.214 A 
ATOM      3  C   UNL     1      13.788  38.432 124.948  1.00  0.00     0.180 A 
ATOM      4  O   UNL     1      13.753  39.601 125.579  1.00  0.00    -0.452 OA
ATOM      5  C   UNL     1      11.736  37.798 126.062  1.00  0.00     0.239 A 
ATOM      6  C   UNL     1      12.795  39.939 126.435  1.00  0.00     0.146 A 
ATOM      7  O   UNL     1      10.823  36.952 126.267  1.00  0.00    -0.285 OA
ATOM      8  C   UNL     1      11.742  39.040 126.729  1.00  0.00     0.111 A 
ATOM      9  C   UNL     1      12.844  41.192 127.051  1.00  0.00     0.094 A 
ATOM     10  C   UNL     1      10.746  39.425 127.658  1.00  0.00     0.134 A 
ATOM     11  C   UNL     1      11.856  41.568 127.968  1.00  0.00     0.123 A 
ATOM     12  C   UNL     1      10.815  40.686 128.268  1.00  0.00     0.093 A 
BRANCH   3  13
ATOM     13  C   UNL     1      14.946  38.144 124.078  1.00  0.00     0.025 A 
ATOM     14  C   UNL     1      15.126  38.829 122.865  1.00  0.00     0.016 A 
ATOM     15  C   UNL     1      16.220  38.539 122.046  1.00  0.00     0.051 A 
ATOM     16  C   UNL     1      17.137  37.552 122.417  1.00  0.00     0.157 A 
ATOM     17  C   UNL     1      15.854  37.135 124.437  1.00  0.00     0.062 A 
ATOM     18  C   UNL     1      16.953  36.843 123.616  1.00  0.00     0.158 A 
BRANCH  16  19
ATOM     19  O   UNL     1      18.223  37.287 121.582  1.00  0.00    -0.504 OA
ATOM     20  H   UNL     1      18.268  36.456 121.005  1.00  0.00     0.293 HD
ENDBRANCH  16  19
BRANCH  18  21
ATOM     21  O   UNL     1      17.860  35.851 123.987  1.00  0.00    -0.504 OA
ATOM     22  H   UNL     1      18.729  35.713 123.486  1.00  0.00     0.293 HD
ENDBRANCH  18  21
ENDBRANCH   3  13
BRANCH  10  23
ATOM     23  O   UNL     1       9.693  38.568 127.978  1.00  0.00    -0.507 OA
ATOM     24  H   UNL     1       9.330  38.498 128.921  1.00  0.00     0.293 HD
ENDBRANCH  10  23
BRANCH  11  25
ATOM     25  O   UNL     1      11.899  42.815 128.586  1.00  0.00    -0.508 OA
ATOM     26  H   UNL     1      11.640  43.661 128.092  1.00  0.00     0.293 HD
ENDBRANCH  11  25
ENDBRANCH   1   2
BRANCH   1  27
ATOM     27  C   UNL     1      12.003  36.165 123.171  1.00  0.00     0.339 C 
ATOM     28  C   UNL     1      11.048  34.955 123.185  1.00  0.00     0.214 C 
ATOM     29  O   UNL     1      12.931  36.076 122.101  1.00  0.00    -0.332 OA
ATOM     30  C   UNL     1      11.836  33.629 123.216  1.00  0.00     0.180 C 
ATOM     31  C   UNL     1      13.756  34.927 122.221  1.00  0.00     0.179 C 
ATOM     32  C   UNL     1      12.915  33.631 122.117  1.00  0.00     0.177 C 
BRANCH  28  33
ATOM     33  O   UNL     1      10.187  35.043 124.291  1.00  0.00    -0.384 OA
ATOM     34  H   UNL     1       9.689  35.896 124.198  1.00  0.00     0.211 HD
ENDBRANCH  28  33
BRANCH  30  35
ATOM     35  O   UNL     1      12.425  33.452 124.479  1.00  0.00    -0.387 OA
ATOM     36  H   UNL     1      12.784  32.527 124.502  1.00  0.00     0.211 HD
ENDBRANCH  30  35
BRANCH  31  37
ATOM     37  C   UNL     1      14.859  34.987 121.157  1.00  0.00     0.191 C 
BRANCH  37  38
ATOM     38  O   UNL     1      15.141  33.705 120.663  1.00  0.00    -0.394 OA
ATOM     39  H   UNL     1      14.303  33.183 120.757  1.00  0.00     0.210 HD
ENDBRANCH  37  38
ENDBRANCH  31  37
BRANCH  32  40
ATOM     40  O   UNL     1      12.286  33.548 120.861  1.00  0.00    -0.387 OA
ATOM     41  H   UNL     1      12.032  32.598 120.721  1.00  0.00     0.211 HD
ENDBRANCH  32  40
ENDBRANCH   1  27
TORSDOF 12
ENDMDL
MODEL 6
REMARK VINA RESULT:    -5.801      2.103      3.024
REMARK INTER + INTRA:         -10.489
REMARK INTER:                  -8.658
REMARK INTRA:                  -1.832
REMARK UNBOUND:                -1.975
REMARK SMILES O=c1c(O[C@H]2O[C@H](CO)[C@H](O)[C@@H](O)[C@H]2O)c(-c2ccc(O)c(O)c2)oc2cc(O)cc(O)c12
REMARK SMILES IDX 4 1 3 2 16 3 25 4 2 5 26 6 1 7 33 8 27 9 31 10 28 11 30 12
REMARK SMILES IDX 17 13 18 14 19 15 20 16 24 17 22 18 21 19 23 21 32 23 29 25
REMARK SMILES IDX 5 27 14 28 6 29 12 30 7 31 10 32 15 33 13 35 8 37 9 38 11 40
REMARK H PARENT 21 20 23 22 32 24 29 26 15 34 13 36 9 39 11 41
REMARK Flexibility Score: inf
ROOT
ATOM      1  O   UNL     1      14.291  38.343 123.811  1.00  0.00    -0.454 OA
ENDROOT
BRANCH   1   2
ATOM      2  C   UNL     1      13.518  38.950 124.809  1.00  0.00     0.214 A 
ATOM      3  C   UNL     1      12.596  38.221 125.590  1.00  0.00     0.180 A 
ATOM      4  O   UNL     1      11.955  38.822 126.587  1.00  0.00    -0.452 OA
ATOM      5  C   UNL     1      13.671  40.320 125.048  1.00  0.00     0.239 A 
ATOM      6  C   UNL     1      12.098  40.112 126.872  1.00  0.00     0.146 A 
ATOM      7  O   UNL     1      14.463  40.984 124.326  1.00  0.00    -0.285 OA
ATOM      8  C   UNL     1      12.958  40.929 126.101  1.00  0.00     0.111 A 
ATOM      9  C   UNL     1      11.381  40.656 127.941  1.00  0.00     0.094 A 
ATOM     10  C   UNL     1      13.076  42.303 126.422  1.00  0.00     0.134 A 
ATOM     11  C   UNL     1      11.502  42.014 128.254  1.00  0.00     0.123 A 
ATOM     12  C   UNL     1      12.344  42.830 127.496  1.00  0.00     0.093 A 
BRANCH   3  13
ATOM     13  C   UNL     1      12.296  36.799 125.326  1.00  0.00     0.025 A 
ATOM     14  C   UNL     1      12.995  35.777 125.990  1.00  0.00     0.016 A 
ATOM     15  C   UNL     1      12.707  34.437 125.722  1.00  0.00     0.051 A 
ATOM     16  C   UNL     1      11.734  34.098 124.777  1.00  0.00     0.157 A 
ATOM     17  C   UNL     1      11.337  36.458 124.359  1.00  0.00     0.062 A 
ATOM     18  C   UNL     1      11.048  35.112 124.089  1.00  0.00     0.158 A 
BRANCH  16  19
ATOM     19  O   UNL     1      11.466  32.751 124.535  1.00  0.00    -0.504 OA
ATOM     20  H   UNL     1      11.110  32.135 125.255  1.00  0.00     0.293 HD
ENDBRANCH  16  19
BRANCH  18  21
ATOM     21  O   UNL     1      10.082  34.781 123.140  1.00  0.00    -0.504 OA
ATOM     22  H   UNL     1      10.336  34.430 122.224  1.00  0.00     0.293 HD
ENDBRANCH  18  21
ENDBRANCH   3  13
BRANCH  10  23
ATOM     23  O   UNL     1      13.911  43.143 125.685  1.00  0.00    -0.507 OA
ATOM     24  H   UNL     1      14.787  42.817 125.296  1.00  0.00     0.293 HD
ENDBRANCH  10  23
BRANCH  11  25
ATOM     25  O   UNL     1      10.788  42.563 129.317  1.00  0.00    -0.508 OA
ATOM     26  H   UNL     1      11.171  43.314 129.880  1.00  0.00     0.293 HD
ENDBRANCH  11  25
ENDBRANCH   1   2
BRANCH   1  27
ATOM     27  C   UNL     1      15.575  37.756 124.063  1.00  0.00     0.339 C 
ATOM     28  C   UNL     1      16.641  38.335 123.113  1.00  0.00     0.214 C 
ATOM     29  O   UNL     1      15.512  36.342 123.967  1.00  0.00    -0.332 OA
ATOM     30  C   UNL     1      16.403  37.868 121.663  1.00  0.00     0.180 C 
ATOM     31  C   UNL     1      15.143  35.924 122.661  1.00  0.00     0.179 C 
ATOM     32  C   UNL     1      16.216  36.340 121.625  1.00  0.00     0.177 C 
BRANCH  28  33
ATOM     33  O   UNL     1      16.632  39.737 123.187  1.00  0.00    -0.384 OA
ATOM     34  H   UNL     1      15.702  40.006 123.406  1.00  0.00     0.211 HD
ENDBRANCH  28  33
BRANCH  30  35
ATOM     35  O   UNL     1      15.271  38.511 121.133  1.00  0.00    -0.387 OA
ATOM     36  H   UNL     1      15.447  38.652 120.166  1.00  0.00     0.211 HD
ENDBRANCH  30  35
BRANCH  31  37
ATOM     37  C   UNL     1      14.900  34.410 122.667  1.00  0.00     0.191 C 
BRANCH  37  38
ATOM     38  O   UNL     1      13.778  34.085 121.892  1.00  0.00    -0.394 OA
ATOM     39  H   UNL     1      13.176  33.563 122.484  1.00  0.00     0.210 HD
ENDBRANCH  37  38
ENDBRANCH  31  37
BRANCH  32  40
ATOM     40  O   UNL     1      17.447  35.723 121.913  1.00  0.00    -0.387 OA
ATOM     41  H   UNL     1      18.156  36.258 121.469  1.00  0.00     0.211 HD
ENDBRANCH  32  40
ENDBRANCH   1  27
TORSDOF 12
ENDMDL
MODEL 7
REMARK VINA RESULT:    -5.718      2.044      6.644
REMARK INTER + INTRA:         -10.368
REMARK INTER:                  -8.707
REMARK INTRA:                  -1.661
REMARK UNBOUND:                -1.975
REMARK SMILES O=c1c(O[C@H]2O[C@H](CO)[C@H](O)[C@@H](O)[C@H]2O)c(-c2ccc(O)c(O)c2)oc2cc(O)cc(O)c12
REMARK SMILES IDX 4 1 3 2 16 3 25 4 2 5 26 6 1 7 33 8 27 9 31 10 28 11 30 12
REMARK SMILES IDX 17 13 18 14 19 15 20 16 24 17 22 18 21 19 23 21 32 23 29 25
REMARK SMILES IDX 5 27 14 28 6 29 12 30 7 31 10 32 15 33 13 35 8 37 9 38 11 40
REMARK H PARENT 21 20 23 22 32 24 29 26 15 34 13 36 9 39 11 41
REMARK Flexibility Score: inf
ROOT
ATOM      1  O   UNL     1      14.386  38.626 124.365  1.00  0.00    -0.454 OA
ENDROOT
BRANCH   1   2
ATOM      2  C   UNL     1      15.010  37.759 123.459  1.00  0.00     0.214 A 
ATOM      3  C   UNL     1      14.546  36.446 123.238  1.00  0.00     0.180 A 
ATOM      4  O   UNL     1      15.114  35.694 122.300  1.00  0.00    -0.452 OA
ATOM      5  C   UNL     1      16.123  38.212 122.742  1.00  0.00     0.239 A 
ATOM      6  C   UNL     1      16.149  36.098 121.571  1.00  0.00     0.146 A 
ATOM      7  O   UNL     1      16.567  39.371 122.966  1.00  0.00    -0.285 OA
ATOM      8  C   UNL     1      16.714  37.380 121.770  1.00  0.00     0.111 A 
ATOM      9  C   UNL     1      16.680  35.236 120.608  1.00  0.00     0.094 A 
ATOM     10  C   UNL     1      17.826  37.773 120.987  1.00  0.00     0.134 A 
ATOM     11  C   UNL     1      17.778  35.631 119.836  1.00  0.00     0.123 A 
ATOM     12  C   UNL     1      18.346  36.892 120.028  1.00  0.00     0.093 A 
BRANCH   3  13
ATOM     13  C   UNL     1      13.450  35.855 124.033  1.00  0.00     0.025 A 
ATOM     14  C   UNL     1      13.589  35.655 125.417  1.00  0.00     0.016 A 
ATOM     15  C   UNL     1      12.549  35.086 126.155  1.00  0.00     0.051 A 
ATOM     16  C   UNL     1      11.366  34.693 125.522  1.00  0.00     0.157 A 
ATOM     17  C   UNL     1      12.272  35.438 123.395  1.00  0.00     0.062 A 
ATOM     18  C   UNL     1      11.227  34.866 124.135  1.00  0.00     0.158 A 
BRANCH  16  19
ATOM     19  O   UNL     1      10.343  34.132 126.286  1.00  0.00    -0.504 OA
ATOM     20  H   UNL     1      10.493  33.815 127.236  1.00  0.00     0.293 HD
ENDBRANCH  16  19
BRANCH  18  21
ATOM     21  O   UNL     1      10.053  34.469 123.496  1.00  0.00    -0.504 OA
ATOM     22  H   UNL     1       9.847  33.492 123.323  1.00  0.00     0.293 HD
ENDBRANCH  18  21
ENDBRANCH   3  13
BRANCH  10  23
ATOM     23  O   UNL     1      18.414  39.028 121.154  1.00  0.00    -0.507 OA
ATOM     24  H   UNL     1      17.869  39.842 121.412  1.00  0.00     0.293 HD
ENDBRANCH  10  23
BRANCH  11  25
ATOM     25  O   UNL     1      18.314  34.776 118.875  1.00  0.00    -0.508 OA
ATOM     26  H   UNL     1      18.976  35.107 118.182  1.00  0.00     0.293 HD
ENDBRANCH  11  25
ENDBRANCH   1   2
BRANCH   1  27
ATOM     27  C   UNL     1      13.607  39.758 123.956  1.00  0.00     0.339 C 
ATOM     28  C   UNL     1      13.727  40.907 124.977  1.00  0.00     0.214 C 
ATOM     29  O   UNL     1      12.252  39.392 123.749  1.00  0.00    -0.332 OA
ATOM     30  C   UNL     1      13.020  40.548 126.300  1.00  0.00     0.180 C 
ATOM     31  C   UNL     1      11.652  38.919 124.946  1.00  0.00     0.179 C 
ATOM     32  C   UNL     1      11.596  40.037 126.016  1.00  0.00     0.177 C 
BRANCH  28  33
ATOM     33  O   UNL     1      15.081  41.200 125.204  1.00  0.00    -0.384 OA
ATOM     34  H   UNL     1      15.462  40.428 125.697  1.00  0.00     0.211 HD
ENDBRANCH  28  33
BRANCH  30  35
ATOM     35  O   UNL     1      13.761  39.572 126.988  1.00  0.00    -0.387 OA
ATOM     36  H   UNL     1      13.864  39.894 127.921  1.00  0.00     0.211 HD
ENDBRANCH  30  35
BRANCH  31  37
ATOM     37  C   UNL     1      10.261  38.357 124.624  1.00  0.00     0.191 C 
BRANCH  37  38
ATOM     38  O   UNL     1       9.499  38.220 125.793  1.00  0.00    -0.394 OA
ATOM     39  H   UNL     1      10.112  38.421 126.547  1.00  0.00     0.210 HD
ENDBRANCH  37  38
ENDBRANCH  31  37
BRANCH  32  40
ATOM     40  O   UNL     1      10.807  41.112 125.566  1.00  0.00    -0.387 OA
ATOM     41  H   UNL     1      11.349  41.618 124.905  1.00  0.00     0.211 HD
ENDBRANCH  32  40
ENDBRANCH   1  27
TORSDOF 12
ENDMDL
MODEL 8
REMARK VINA RESULT:    -5.645      1.133      2.421
REMARK INTER + INTRA:         -10.260
REMARK INTER:                  -8.903
REMARK INTRA:                  -1.357
REMARK UNBOUND:                -1.975
REMARK SMILES O=c1c(O[C@H]2O[C@H](CO)[C@H](O)[C@@H](O)[C@H]2O)c(-c2ccc(O)c(O)c2)oc2cc(O)cc(O)c12
REMARK SMILES IDX 4 1 3 2 16 3 25 4 2 5 26 6 1 7 33 8 27 9 31 10 28 11 30 12
REMARK SMILES IDX 17 13 18 14 19 15 20 16 24 17 22 18 21 19 23 21 32 23 29 25
REMARK SMILES IDX 5 27 14 28 6 29 12 30 7 31 10 32 15 33 13 35 8 37 9 38 11 40
REMARK H PARENT 21 20 23 22 32 24 29 26 15 34 13 36 9 39 11 41
REMARK Flexibility Score: inf
ROOT
ATOM      1  O   UNL     1      15.573  36.794 122.148  1.00  0.00    -0.454 OA
ENDROOT
BRANCH   1   2
ATOM      2  C   UNL     1      14.498  36.966 123.030  1.00  0.00     0.214 A 
ATOM      3  C   UNL     1      13.408  36.072 123.067  1.00  0.00     0.180 A 
ATOM      4  O   UNL     1      12.459  36.225 123.984  1.00  0.00    -0.452 OA
ATOM      5  C   UNL     1      14.510  38.053 123.911  1.00  0.00     0.239 A 
ATOM      6  C   UNL     1      12.451  37.221 124.864  1.00  0.00     0.146 A 
ATOM      7  O   UNL     1      15.462  38.878 123.855  1.00  0.00    -0.285 OA
ATOM      8  C   UNL     1      13.476  38.196 124.858  1.00  0.00     0.111 A 
ATOM      9  C   UNL     1      11.409  37.300 125.792  1.00  0.00     0.094 A 
ATOM     10  C   UNL     1      13.428  39.253 125.798  1.00  0.00     0.134 A 
ATOM     11  C   UNL     1      11.368  38.346 126.720  1.00  0.00     0.123 A 
ATOM     12  C   UNL     1      12.372  39.316 126.719  1.00  0.00     0.093 A 
BRANCH   3  13
ATOM     13  C   UNL     1      13.266  34.967 122.096  1.00  0.00     0.025 A 
ATOM     14  C   UNL     1      13.947  33.752 122.280  1.00  0.00     0.016 A 
ATOM     15  C   UNL     1      13.812  32.720 121.349  1.00  0.00     0.051 A 
ATOM     16  C   UNL     1      13.013  32.892 120.215  1.00  0.00     0.157 A 
ATOM     17  C   UNL     1      12.484  35.147 120.945  1.00  0.00     0.062 A 
ATOM     18  C   UNL     1      12.348  34.112 120.009  1.00  0.00     0.158 A 
BRANCH  16  19
ATOM     19  O   UNL     1      12.893  31.842 119.305  1.00  0.00    -0.504 OA
ATOM     20  H   UNL     1      13.137  31.947 118.327  1.00  0.00     0.293 HD
ENDBRANCH  16  19
BRANCH  18  21
ATOM     21  O   UNL     1      11.556  34.293 118.875  1.00  0.00    -0.504 OA
ATOM     22  H   UNL     1      11.180  33.506 118.360  1.00  0.00     0.293 HD
ENDBRANCH  18  21
ENDBRANCH   3  13
BRANCH  10  23
ATOM     23  O   UNL     1      14.418  40.236 125.824  1.00  0.00    -0.507 OA
ATOM     24  H   UNL     1      15.286  40.105 126.329  1.00  0.00     0.293 HD
ENDBRANCH  10  23
BRANCH  11  25
ATOM     25  O   UNL     1      10.332  38.432 127.647  1.00  0.00    -0.508 OA
ATOM     26  H   UNL     1      10.441  38.093 128.597  1.00  0.00     0.293 HD
ENDBRANCH  11  25
ENDBRANCH   1   2
BRANCH   1  27
ATOM     27  C   UNL     1      15.632  37.411 120.855  1.00  0.00     0.339 C 
ATOM     28  C   UNL     1      16.377  36.512 119.849  1.00  0.00     0.214 C 
ATOM     29  O   UNL     1      16.226  38.698 120.936  1.00  0.00    -0.332 OA
ATOM     30  C   UNL     1      17.879  36.431 120.186  1.00  0.00     0.180 C 
ATOM     31  C   UNL     1      17.568  38.623 121.393  1.00  0.00     0.179 C 
ATOM     32  C   UNL     1      18.452  37.846 120.388  1.00  0.00     0.177 C 
BRANCH  28  33
ATOM     33  O   UNL     1      15.802  35.231 119.842  1.00  0.00    -0.384 OA
ATOM     34  H   UNL     1      15.973  34.837 120.736  1.00  0.00     0.211 HD
ENDBRANCH  28  33
BRANCH  30  35
ATOM     35  O   UNL     1      18.068  35.658 121.345  1.00  0.00    -0.387 OA
ATOM     36  H   UNL     1      18.108  34.710 121.054  1.00  0.00     0.211 HD
ENDBRANCH  30  35
BRANCH  31  37
ATOM     37  C   UNL     1      18.092  40.043 121.648  1.00  0.00     0.191 C 
BRANCH  37  38
ATOM     38  O   UNL     1      18.176  40.300 123.023  1.00  0.00    -0.394 OA
ATOM     39  H   UNL     1      19.142  40.277 123.249  1.00  0.00     0.210 HD
ENDBRANCH  37  38
ENDBRANCH  31  37
BRANCH  32  40
ATOM     40  O   UNL     1      18.485  38.506 119.145  1.00  0.00    -0.387 OA
ATOM     41  H   UNL     1      17.804  38.074 118.565  1.00  0.00     0.211 HD
ENDBRANCH  32  40
ENDBRANCH   1  27
TORSDOF 12
ENDMDL
MODEL 9
REMARK VINA RESULT:    -5.596      2.093      7.810
REMARK INTER + INTRA:         -10.188
REMARK INTER:                  -8.415
REMARK INTRA:                  -1.772
REMARK UNBOUND:                -1.975
REMARK SMILES O=c1c(O[C@H]2O[C@H](CO)[C@H](O)[C@@H](O)[C@H]2O)c(-c2ccc(O)c(O)c2)oc2cc(O)cc(O)c12
REMARK SMILES IDX 4 1 3 2 16 3 25 4 2 5 26 6 1 7 33 8 27 9 31 10 28 11 30 12
REMARK SMILES IDX 17 13 18 14 19 15 20 16 24 17 22 18 21 19 23 21 32 23 29 25
REMARK SMILES IDX 5 27 14 28 6 29 12 30 7 31 10 32 15 33 13 35 8 37 9 38 11 40
REMARK H PARENT 21 20 23 22 32 24 29 26 15 34 13 36 9 39 11 41
REMARK Flexibility Score: inf
ROOT
ATOM      1  O   UNL     1      13.170  35.949 123.458  1.00  0.00    -0.454 OA
ENDROOT
BRANCH   1   2
ATOM      2  C   UNL     1      14.335  36.506 122.915  1.00  0.00     0.214 A 
ATOM      3  C   UNL     1      14.813  37.774 123.307  1.00  0.00     0.180 A 
ATOM      4  O   UNL     1      15.972  38.218 122.832  1.00  0.00    -0.452 OA
ATOM      5  C   UNL     1      15.055  35.778 121.961  1.00  0.00     0.239 A 
ATOM      6  C   UNL     1      16.706  37.543 121.954  1.00  0.00     0.146 A 
ATOM      7  O   UNL     1      14.610  34.662 121.577  1.00  0.00    -0.285 OA
ATOM      8  C   UNL     1      16.270  36.289 121.463  1.00  0.00     0.111 A 
ATOM      9  C   UNL     1      17.913  38.092 121.511  1.00  0.00     0.094 A 
ATOM     10  C   UNL     1      17.068  35.604 120.516  1.00  0.00     0.134 A 
ATOM     11  C   UNL     1      18.698  37.409 120.575  1.00  0.00     0.123 A 
ATOM     12  C   UNL     1      18.274  36.174 120.081  1.00  0.00     0.093 A 
BRANCH   3  13
ATOM     13  C   UNL     1      14.054  38.651 124.222  1.00  0.00     0.025 A 
ATOM     14  C   UNL     1      13.163  39.617 123.723  1.00  0.00     0.016 A 
ATOM     15  C   UNL     1      12.460  40.446 124.600  1.00  0.00     0.051 A 
ATOM     16  C   UNL     1      12.648  40.336 125.981  1.00  0.00     0.157 A 
ATOM     17  C   UNL     1      14.261  38.558 125.607  1.00  0.00     0.062 A 
ATOM     18  C   UNL     1      13.556  39.391 126.488  1.00  0.00     0.158 A 
BRANCH  16  19
ATOM     19  O   UNL     1      11.929  41.175 126.831  1.00  0.00    -0.504 OA
ATOM     20  H   UNL     1      11.005  41.515 126.596  1.00  0.00     0.293 HD
ENDBRANCH  16  19
BRANCH  18  21
ATOM     21  O   UNL     1      13.754  39.282 127.863  1.00  0.00    -0.504 OA
ATOM     22  H   UNL     1      14.670  39.403 128.279  1.00  0.00     0.293 HD
ENDBRANCH  18  21
ENDBRANCH   3  13
BRANCH  10  23
ATOM     23  O   UNL     1      16.673  34.367 120.005  1.00  0.00    -0.507 OA
ATOM     24  H   UNL     1      16.389  33.607 120.611  1.00  0.00     0.293 HD
ENDBRANCH  10  23
BRANCH  11  25
ATOM     25  O   UNL     1      19.901  37.951 120.129  1.00  0.00    -0.508 OA
ATOM     26  H   UNL     1      19.992  38.938 119.918  1.00  0.00     0.293 HD
ENDBRANCH  11  25
ENDBRANCH   1   2
BRANCH   1  27
ATOM     27  C   UNL     1      13.144  35.260 124.715  1.00  0.00     0.339 C 
ATOM     28  C   UNL     1      12.512  33.862 124.563  1.00  0.00     0.214 C 
ATOM     29  O   UNL     1      12.468  36.027 125.699  1.00  0.00    -0.332 OA
ATOM     30  C   UNL     1      11.001  33.966 124.273  1.00  0.00     0.180 C 
ATOM     31  C   UNL     1      11.110  36.246 125.347  1.00  0.00     0.179 C 
ATOM     32  C   UNL     1      10.332  34.908 125.291  1.00  0.00     0.177 C 
BRANCH  28  33
ATOM     33  O   UNL     1      13.165  33.155 123.540  1.00  0.00    -0.384 OA
ATOM     34  H   UNL     1      12.678  33.357 122.699  1.00  0.00     0.211 HD
ENDBRANCH  28  33
BRANCH  30  35
ATOM     35  O   UNL     1      10.797  34.437 122.964  1.00  0.00    -0.387 OA
ATOM     36  H   UNL     1      11.659  34.331 122.483  1.00  0.00     0.211 HD
ENDBRANCH  30  35
BRANCH  31  37
ATOM     37  C   UNL     1      10.486  37.236 126.338  1.00  0.00     0.191 C 
BRANCH  37  38
ATOM     38  O   UNL     1       9.159  36.884 126.622  1.00  0.00    -0.394 OA
ATOM     39  H   UNL     1       8.600  37.640 126.305  1.00  0.00     0.210 HD
ENDBRANCH  37  38
ENDBRANCH  31  37
BRANCH  32  40
ATOM     40  O   UNL     1      10.327  34.286 126.553  1.00  0.00    -0.387 OA
ATOM     41  H   UNL     1       9.661  34.765 127.114  1.00  0.00     0.211 HD
ENDBRANCH  32  40
ENDBRANCH   1  27
TORSDOF 12
ENDMDL
