MODEL 1
REMARK VINA RESULT:    -3.272      0.000      0.000
REMARK INTER + INTRA:          -8.448
REMARK INTER:                  -5.949
REMARK INTRA:                  -2.499
REMARK UNBOUND:                -2.499
REMARK SMILES CCCCCCCCCCCCCCCC(=O)[O-]
REMARK SMILES IDX 9 1 10 2 11 3 12 4 13 5 14 6 15 7 16 8 17 9 18 10 8 11 7 12
REMARK SMILES IDX 6 13 5 14 4 15 3 16 2 17 1 18
REMARK H PARENT
REMARK Flexibility Score: inf
ROOT
ATOM      1  C   UNL     1      27.890  -4.856 -27.599  1.00  0.00     0.000 C 
ENDROOT
BRANCH   1   2
ATOM      2  C   UNL     1      26.446  -4.559 -28.043  1.00  0.00     0.000 C 
BRANCH   2   3
ATOM      3  C   UNL     1      26.342  -3.268 -28.872  1.00  0.00     0.000 C 
BRANCH   3   4
ATOM      4  C   UNL     1      24.968  -3.113 -29.549  1.00  0.00     0.000 C 
BRANCH   4   5
ATOM      5  C   UNL     1      24.072  -4.352 -29.372  1.00  0.00     0.000 C 
BRANCH   5   6
ATOM      6  C   UNL     1      23.802  -5.150 -30.662  1.00  0.00     0.006 C 
BRANCH   6   7
ATOM      7  C   UNL     1      25.040  -5.278 -31.557  1.00  0.00     0.053 C 
BRANCH   7   8
ATOM      8  C   UNL     1      24.730  -4.816 -32.946  1.00  0.00     0.041 C 
ATOM      9  O   UNL     1      25.514  -5.087 -33.893  1.00  0.00    -0.550 OA
ATOM     10  O   UNL     1      23.550  -4.130 -33.204  1.00  0.00    -0.550 OA
ENDBRANCH   7   8
ENDBRANCH   6   7
ENDBRANCH   5   6
ENDBRANCH   4   5
ENDBRANCH   3   4
ENDBRANCH   2   3
ENDBRANCH   1   2
BRANCH   1  11
ATOM     11  C   UNL     1      28.403  -6.214 -28.111  1.00  0.00     0.000 C 
BRANCH  11  12
ATOM     12  C   UNL     1      27.564  -6.851 -29.238  1.00  0.00    -0.000 C 
BRANCH  12  13
ATOM     13  C   UNL     1      26.794  -8.123 -28.838  1.00  0.00    -0.000 C 
BRANCH  13  14
ATOM     14  C   UNL     1      25.284  -8.011 -29.094  1.00  0.00    -0.000 C 
BRANCH  14  15
ATOM     15  C   UNL     1      24.520  -7.794 -27.778  1.00  0.00    -0.000 C 
BRANCH  15  16
ATOM     16  C   UNL     1      25.407  -7.977 -26.533  1.00  0.00    -0.000 C 
BRANCH  16  17
ATOM     17  C   UNL     1      25.115  -6.998 -25.382  1.00  0.00    -0.003 C 
ATOM     18  C   UNL     1      24.122  -5.902 -25.767  1.00  0.00     0.004 C 
ENDBRANCH  16  17
ENDBRANCH  15  16
ENDBRANCH  14  15
ENDBRANCH  13  14
ENDBRANCH  12  13
ENDBRANCH  11  12
ENDBRANCH   1  11
TORSDOF 14
ENDMDL
MODEL 2
REMARK VINA RESULT:    -3.067     14.409     16.732
REMARK INTER + INTRA:          -8.076
REMARK INTER:                  -6.525
REMARK INTRA:                  -1.550
REMARK UNBOUND:                -2.499
REMARK SMILES CCCCCCCCCCCCCCCC(=O)[O-]
REMARK SMILES IDX 9 1 10 2 11 3 12 4 13 5 14 6 15 7 16 8 17 9 18 10 8 11 7 12
REMARK SMILES IDX 6 13 5 14 4 15 3 16 2 17 1 18
REMARK H PARENT
REMARK Flexibility Score: inf
ROOT
ATOM      1  C   UNL     1      33.088   7.373 -29.690  1.00  0.00     0.000 C 
ENDROOT
BRANCH   1   2
ATOM      2  C   UNL     1      32.719   8.517 -30.651  1.00  0.00     0.000 C 
BRANCH   2   3
ATOM      3  C   UNL     1      32.685   9.885 -29.949  1.00  0.00     0.000 C 
BRANCH   3   4
ATOM      4  C   UNL     1      31.503  10.014 -28.971  1.00  0.00     0.000 C 
BRANCH   4   5
ATOM      5  C   UNL     1      31.953  10.191 -27.509  1.00  0.00     0.000 C 
BRANCH   5   6
ATOM      6  C   UNL     1      33.434  10.572 -27.325  1.00  0.00     0.006 C 
BRANCH   6   7
ATOM      7  C   UNL     1      33.642  11.682 -26.288  1.00  0.00     0.053 C 
BRANCH   7   8
ATOM      8  C   UNL     1      33.353  11.172 -24.911  1.00  0.00     0.041 C 
ATOM      9  O   UNL     1      32.408  11.662 -24.240  1.00  0.00    -0.550 OA
ATOM     10  O   UNL     1      34.096  10.121 -24.389  1.00  0.00    -0.550 OA
ENDBRANCH   7   8
ENDBRANCH   6   7
ENDBRANCH   5   6
ENDBRANCH   4   5
ENDBRANCH   3   4
ENDBRANCH   2   3
ENDBRANCH   1   2
BRANCH   1  11
ATOM     11  C   UNL     1      34.257   6.515 -30.206  1.00  0.00     0.000 C 
BRANCH  11  12
ATOM     12  C   UNL     1      34.970   7.062 -31.459  1.00  0.00    -0.000 C 
BRANCH  12  13
ATOM     13  C   UNL     1      35.752   6.016 -32.274  1.00  0.00    -0.000 C 
BRANCH  13  14
ATOM     14  C   UNL     1      34.920   5.397 -33.407  1.00  0.00    -0.000 C 
BRANCH  14  15
ATOM     15  C   UNL     1      34.426   3.994 -33.020  1.00  0.00    -0.000 C 
BRANCH  15  16
ATOM     16  C   UNL     1      32.934   3.778 -33.327  1.00  0.00    -0.000 C 
BRANCH  16  17
ATOM     17  C   UNL     1      32.011   4.930 -32.891  1.00  0.00    -0.003 C 
ATOM     18  C   UNL     1      31.315   4.666 -31.557  1.00  0.00     0.004 C 
ENDBRANCH  16  17
ENDBRANCH  15  16
ENDBRANCH  14  15
ENDBRANCH  13  14
ENDBRANCH  12  13
ENDBRANCH  11  12
ENDBRANCH   1  11
TORSDOF 14
ENDMDL
MODEL 3
REMARK VINA RESULT:    -3.042     11.649     13.828
REMARK INTER + INTRA:          -8.032
REMARK INTER:                  -6.651
REMARK INTRA:                  -1.381
REMARK UNBOUND:                -2.499
REMARK SMILES CCCCCCCCCCCCCCCC(=O)[O-]
REMARK SMILES IDX 9 1 10 2 11 3 12 4 13 5 14 6 15 7 16 8 17 9 18 10 8 11 7 12
REMARK SMILES IDX 6 13 5 14 4 15 3 16 2 17 1 18
REMARK H PARENT
REMARK Flexibility Score: inf
ROOT
ATOM      1  C   UNL     1      33.769   1.562 -34.083  1.00  0.00     0.000 C 
ENDROOT
BRANCH   1   2
ATOM      2  C   UNL     1      32.541   2.420 -33.726  1.00  0.00     0.000 C 
BRANCH   2   3
ATOM      3  C   UNL     1      32.922   3.860 -33.348  1.00  0.00     0.000 C 
BRANCH   3   4
ATOM      4  C   UNL     1      34.411   3.998 -32.982  1.00  0.00     0.000 C 
BRANCH   4   5
ATOM      5  C   UNL     1      34.992   5.376 -33.348  1.00  0.00     0.000 C 
BRANCH   5   6
ATOM      6  C   UNL     1      35.778   6.071 -32.221  1.00  0.00     0.006 C 
BRANCH   6   7
ATOM      7  C   UNL     1      34.936   6.304 -30.961  1.00  0.00     0.053 C 
BRANCH   7   8
ATOM      8  C   UNL     1      33.866   7.315 -31.226  1.00  0.00     0.041 C 
ATOM      9  O   UNL     1      34.172   8.497 -31.531  1.00  0.00    -0.550 OA
ATOM     10  O   UNL     1      32.529   6.939 -31.186  1.00  0.00    -0.550 OA
ENDBRANCH   7   8
ENDBRANCH   6   7
ENDBRANCH   5   6
ENDBRANCH   4   5
ENDBRANCH   3   4
ENDBRANCH   2   3
ENDBRANCH   1   2
BRANCH   1  11
ATOM     11  C   UNL     1      33.479   0.541 -35.197  1.00  0.00     0.000 C 
BRANCH  11  12
ATOM     12  C   UNL     1      32.034   0.550 -35.737  1.00  0.00    -0.000 C 
BRANCH  12  13
ATOM     13  C   UNL     1      31.909   0.445 -37.268  1.00  0.00    -0.000 C 
BRANCH  13  14
ATOM     14  C   UNL     1      33.261   0.229 -37.964  1.00  0.00    -0.000 C 
BRANCH  14  15
ATOM     15  C   UNL     1      33.257  -1.076 -38.776  1.00  0.00    -0.000 C 
BRANCH  15  16
ATOM     16  C   UNL     1      32.919  -2.312 -37.923  1.00  0.00    -0.000 C 
BRANCH  16  17
ATOM     17  C   UNL     1      33.998  -2.704 -36.898  1.00  0.00    -0.003 C 
ATOM     18  C   UNL     1      33.419  -3.334 -35.632  1.00  0.00     0.004 C 
ENDBRANCH  16  17
ENDBRANCH  15  16
ENDBRANCH  14  15
ENDBRANCH  13  14
ENDBRANCH  12  13
ENDBRANCH  11  12
ENDBRANCH   1  11
TORSDOF 14
ENDMDL
MODEL 4
REMARK VINA RESULT:    -3.020      1.182      2.915
REMARK INTER + INTRA:          -7.992
REMARK INTER:                  -5.931
REMARK INTRA:                  -2.061
REMARK UNBOUND:                -2.499
REMARK SMILES CCCCCCCCCCCCCCCC(=O)[O-]
REMARK SMILES IDX 9 1 10 2 11 3 12 4 13 5 14 6 15 7 16 8 17 9 18 10 8 11 7 12
REMARK SMILES IDX 6 13 5 14 4 15 3 16 2 17 1 18
REMARK H PARENT
REMARK Flexibility Score: inf
ROOT
ATOM      1  C   UNL     1      23.818  -5.253 -26.805  1.00  0.00     0.000 C 
ENDROOT
BRANCH   1   2
ATOM      2  C   UNL     1      24.200  -3.879 -27.385  1.00  0.00     0.000 C 
BRANCH   2   3
ATOM      3  C   UNL     1      24.784  -3.983 -28.804  1.00  0.00     0.000 C 
BRANCH   3   4
ATOM      4  C   UNL     1      23.700  -4.229 -29.869  1.00  0.00     0.000 C 
BRANCH   4   5
ATOM      5  C   UNL     1      23.963  -5.491 -30.710  1.00  0.00     0.000 C 
BRANCH   5   6
ATOM      6  C   UNL     1      24.044  -5.256 -32.230  1.00  0.00     0.006 C 
BRANCH   6   7
ATOM      7  C   UNL     1      24.967  -4.092 -32.607  1.00  0.00     0.053 C 
BRANCH   7   8
ATOM      8  C   UNL     1      26.161  -4.593 -33.357  1.00  0.00     0.041 C 
ATOM      9  O   UNL     1      27.319  -4.418 -32.896  1.00  0.00    -0.550 OA
ATOM     10  O   UNL     1      25.991  -5.298 -34.542  1.00  0.00    -0.550 OA
ENDBRANCH   7   8
ENDBRANCH   6   7
ENDBRANCH   5   6
ENDBRANCH   4   5
ENDBRANCH   3   4
ENDBRANCH   2   3
ENDBRANCH   1   2
BRANCH   1  11
ATOM     11  C   UNL     1      24.972  -5.915 -26.030  1.00  0.00     0.000 C 
BRANCH  11  12
ATOM     12  C   UNL     1      25.309  -7.357 -26.458  1.00  0.00    -0.000 C 
BRANCH  12  13
ATOM     13  C   UNL     1      24.627  -7.830 -27.755  1.00  0.00    -0.000 C 
BRANCH  13  14
ATOM     14  C   UNL     1      25.592  -7.896 -28.947  1.00  0.00    -0.000 C 
BRANCH  14  15
ATOM     15  C   UNL     1      27.053  -7.927 -28.468  1.00  0.00    -0.000 C 
BRANCH  15  16
ATOM     16  C   UNL     1      27.959  -6.958 -29.246  1.00  0.00    -0.000 C 
BRANCH  16  17
ATOM     17  C   UNL     1      27.913  -5.498 -28.759  1.00  0.00    -0.003 C 
ATOM     18  C   UNL     1      28.387  -5.335 -27.316  1.00  0.00     0.004 C 
ENDBRANCH  16  17
ENDBRANCH  15  16
ENDBRANCH  14  15
ENDBRANCH  13  14
ENDBRANCH  12  13
ENDBRANCH  11  12
ENDBRANCH   1  11
TORSDOF 14
ENDMDL
MODEL 5
REMARK VINA RESULT:    -2.999      1.738      3.446
REMARK INTER + INTRA:          -7.953
REMARK INTER:                  -5.909
REMARK INTRA:                  -2.043
REMARK UNBOUND:                -2.499
REMARK SMILES CCCCCCCCCCCCCCCC(=O)[O-]
REMARK SMILES IDX 9 1 10 2 11 3 12 4 13 5 14 6 15 7 16 8 17 9 18 10 8 11 7 12
REMARK SMILES IDX 6 13 5 14 4 15 3 16 2 17 1 18
REMARK H PARENT
REMARK Flexibility Score: inf
ROOT
ATOM      1  C   UNL     1      24.529  -3.495 -29.093  1.00  0.00     0.000 C 
ENDROOT
BRANCH   1   2
ATOM      2  C   UNL     1      23.575  -3.897 -30.232  1.00  0.00     0.000 C 
BRANCH   2   3
ATOM      3  C   UNL     1      23.766  -5.360 -30.668  1.00  0.00     0.000 C 
BRANCH   3   4
ATOM      4  C   UNL     1      24.345  -5.479 -32.089  1.00  0.00     0.000 C 
BRANCH   4   5
ATOM      5  C   UNL     1      23.971  -4.287 -32.989  1.00  0.00     0.000 C 
BRANCH   5   6
ATOM      6  C   UNL     1      25.144  -3.671 -33.774  1.00  0.00     0.006 C 
BRANCH   6   7
ATOM      7  C   UNL     1      24.895  -3.630 -35.287  1.00  0.00     0.053 C 
BRANCH   7   8
ATOM      8  C   UNL     1      26.176  -3.838 -36.032  1.00  0.00     0.041 C 
ATOM      9  O   UNL     1      26.331  -4.858 -36.754  1.00  0.00    -0.550 OA
ATOM     10  O   UNL     1      27.180  -2.880 -35.970  1.00  0.00    -0.550 OA
ENDBRANCH   7   8
ENDBRANCH   6   7
ENDBRANCH   5   6
ENDBRANCH   4   5
ENDBRANCH   3   4
ENDBRANCH   2   3
ENDBRANCH   1   2
BRANCH   1  11
ATOM     11  C   UNL     1      25.979  -3.299 -29.571  1.00  0.00     0.000 C 
BRANCH  11  12
ATOM     12  C   UNL     1      27.000  -4.305 -29.003  1.00  0.00    -0.000 C 
BRANCH  12  13
ATOM     13  C   UNL     1      27.497  -5.366 -30.002  1.00  0.00    -0.000 C 
BRANCH  13  14
ATOM     14  C   UNL     1      28.184  -6.556 -29.316  1.00  0.00    -0.000 C 
BRANCH  14  15
ATOM     15  C   UNL     1      27.213  -7.276 -28.367  1.00  0.00    -0.000 C 
BRANCH  15  16
ATOM     16  C   UNL     1      26.015  -7.906 -29.099  1.00  0.00    -0.000 C 
BRANCH  16  17
ATOM     17  C   UNL     1      24.699  -7.909 -28.300  1.00  0.00    -0.003 C 
ATOM     18  C   UNL     1      24.631  -6.797 -27.256  1.00  0.00     0.004 C 
ENDBRANCH  16  17
ENDBRANCH  15  16
ENDBRANCH  14  15
ENDBRANCH  13  14
ENDBRANCH  12  13
ENDBRANCH  11  12
ENDBRANCH   1  11
TORSDOF 14
ENDMDL
MODEL 6
REMARK VINA RESULT:    -2.995      9.752     11.843
REMARK INTER + INTRA:          -7.945
REMARK INTER:                  -5.571
REMARK INTRA:                  -2.374
REMARK UNBOUND:                -2.499
REMARK SMILES CCCCCCCCCCCCCCCC(=O)[O-]
REMARK SMILES IDX 9 1 10 2 11 3 12 4 13 5 14 6 15 7 16 8 17 9 18 10 8 11 7 12
REMARK SMILES IDX 6 13 5 14 4 15 3 16 2 17 1 18
REMARK H PARENT
REMARK Flexibility Score: inf
ROOT
ATOM      1  C   UNL     1      33.161   0.101 -38.235  1.00  0.00     0.000 C 
ENDROOT
BRANCH   1   2
ATOM      2  C   UNL     1      33.305  -1.356 -38.710  1.00  0.00     0.000 C 
BRANCH   2   3
ATOM      3  C   UNL     1      33.536  -2.333 -37.546  1.00  0.00     0.000 C 
BRANCH   3   4
ATOM      4  C   UNL     1      32.293  -3.185 -37.237  1.00  0.00     0.000 C 
BRANCH   4   5
ATOM      5  C   UNL     1      31.616  -2.797 -35.910  1.00  0.00     0.000 C 
BRANCH   5   6
ATOM      6  C   UNL     1      32.352  -1.718 -35.094  1.00  0.00     0.006 C 
BRANCH   6   7
ATOM      7  C   UNL     1      31.466  -0.512 -34.760  1.00  0.00     0.053 C 
BRANCH   7   8
ATOM      8  C   UNL     1      32.254   0.757 -34.853  1.00  0.00     0.041 C 
ATOM      9  O   UNL     1      33.495   0.750 -34.646  1.00  0.00    -0.550 OA
ATOM     10  O   UNL     1      31.624   1.940 -35.219  1.00  0.00    -0.550 OA
ENDBRANCH   7   8
ENDBRANCH   6   7
ENDBRANCH   5   6
ENDBRANCH   4   5
ENDBRANCH   3   4
ENDBRANCH   2   3
ENDBRANCH   1   2
BRANCH   1  11
ATOM     11  C   UNL     1      31.818   0.732 -38.646  1.00  0.00     0.000 C 
BRANCH  11  12
ATOM     12  C   UNL     1      30.571  -0.121 -38.340  1.00  0.00    -0.000 C 
BRANCH  12  13
ATOM     13  C   UNL     1      29.777  -0.583 -39.576  1.00  0.00    -0.000 C 
BRANCH  13  14
ATOM     14  C   UNL     1      29.975  -2.074 -39.888  1.00  0.00    -0.000 C 
BRANCH  14  15
ATOM     15  C   UNL     1      28.696  -2.871 -39.584  1.00  0.00    -0.000 C 
BRANCH  15  16
ATOM     16  C   UNL     1      28.556  -3.233 -38.094  1.00  0.00    -0.000 C 
BRANCH  16  17
ATOM     17  C   UNL     1      28.322  -4.728 -37.812  1.00  0.00    -0.003 C 
ATOM     18  C   UNL     1      29.277  -5.638 -38.582  1.00  0.00     0.004 C 
ENDBRANCH  16  17
ENDBRANCH  15  16
ENDBRANCH  14  15
ENDBRANCH  13  14
ENDBRANCH  12  13
ENDBRANCH  11  12
ENDBRANCH   1  11
TORSDOF 14
ENDMDL
MODEL 7
REMARK VINA RESULT:    -2.957      2.129      5.195
REMARK INTER + INTRA:          -7.877
REMARK INTER:                  -5.787
REMARK INTRA:                  -2.090
REMARK UNBOUND:                -2.499
REMARK SMILES CCCCCCCCCCCCCCCC(=O)[O-]
REMARK SMILES IDX 9 1 10 2 11 3 12 4 13 5 14 6 15 7 16 8 17 9 18 10 8 11 7 12
REMARK SMILES IDX 6 13 5 14 4 15 3 16 2 17 1 18
REMARK H PARENT
REMARK Flexibility Score: inf
ROOT
ATOM      1  C   UNL     1      24.869  -6.829 -25.989  1.00  0.00     0.000 C 
ENDROOT
BRANCH   1   2
ATOM      2  C   UNL     1      24.983  -8.120 -26.819  1.00  0.00     0.000 C 
BRANCH   2   3
ATOM      3  C   UNL     1      24.588  -7.908 -28.290  1.00  0.00     0.000 C 
BRANCH   3   4
ATOM      4  C   UNL     1      25.802  -7.942 -29.235  1.00  0.00     0.000 C 
BRANCH   4   5
ATOM      5  C   UNL     1      27.143  -8.043 -28.485  1.00  0.00     0.000 C 
BRANCH   5   6
ATOM      6  C   UNL     1      28.009  -6.770 -28.526  1.00  0.00     0.006 C 
BRANCH   6   7
ATOM      7  C   UNL     1      27.582  -5.790 -29.624  1.00  0.00     0.053 C 
BRANCH   7   8
ATOM      8  C   UNL     1      28.450  -4.571 -29.604  1.00  0.00     0.041 C 
ATOM      9  O   UNL     1      28.709  -3.996 -28.516  1.00  0.00    -0.550 OA
ATOM     10  O   UNL     1      29.014  -4.100 -30.784  1.00  0.00    -0.550 OA
ENDBRANCH   7   8
ENDBRANCH   6   7
ENDBRANCH   5   6
ENDBRANCH   4   5
ENDBRANCH   3   4
ENDBRANCH   2   3
ENDBRANCH   1   2
BRANCH   1  11
ATOM     11  C   UNL     1      24.192  -5.682 -26.760  1.00  0.00     0.000 C 
BRANCH  11  12
ATOM     12  C   UNL     1      25.079  -4.445 -27.012  1.00  0.00    -0.000 C 
BRANCH  12  13
ATOM     13  C   UNL     1      24.457  -3.371 -27.923  1.00  0.00    -0.000 C 
BRANCH  13  14
ATOM     14  C   UNL     1      24.831  -3.554 -29.401  1.00  0.00    -0.000 C 
BRANCH  14  15
ATOM     15  C   UNL     1      23.637  -4.092 -30.206  1.00  0.00    -0.000 C 
BRANCH  15  16
ATOM     16  C   UNL     1      23.949  -5.414 -30.929  1.00  0.00    -0.000 C 
BRANCH  16  17
ATOM     17  C   UNL     1      24.428  -5.257 -32.384  1.00  0.00    -0.003 C 
ATOM     18  C   UNL     1      23.665  -4.179 -33.151  1.00  0.00     0.004 C 
ENDBRANCH  16  17
ENDBRANCH  15  16
ENDBRANCH  14  15
ENDBRANCH  13  14
ENDBRANCH  12  13
ENDBRANCH  11  12
ENDBRANCH   1  11
TORSDOF 14
ENDMDL
MODEL 8
REMARK VINA RESULT:    -2.922     11.232     13.431
REMARK INTER + INTRA:          -7.813
REMARK INTER:                  -5.987
REMARK INTRA:                  -1.826
REMARK UNBOUND:                -2.499
REMARK SMILES CCCCCCCCCCCCCCCC(=O)[O-]
REMARK SMILES IDX 9 1 10 2 11 3 12 4 13 5 14 6 15 7 16 8 17 9 18 10 8 11 7 12
REMARK SMILES IDX 6 13 5 14 4 15 3 16 2 17 1 18
REMARK H PARENT
REMARK Flexibility Score: inf
ROOT
ATOM      1  C   UNL     1      34.585   5.400 -33.382  1.00  0.00     0.000 C 
ENDROOT
BRANCH   1   2
ATOM      2  C   UNL     1      34.257   3.896 -33.355  1.00  0.00     0.000 C 
BRANCH   2   3
ATOM      3  C   UNL     1      32.743   3.626 -33.337  1.00  0.00     0.000 C 
BRANCH   3   4
ATOM      4  C   UNL     1      32.366   2.343 -34.098  1.00  0.00     0.000 C 
BRANCH   4   5
ATOM      5  C   UNL     1      33.125   1.102 -33.592  1.00  0.00     0.000 C 
BRANCH   5   6
ATOM      6  C   UNL     1      33.137  -0.094 -34.561  1.00  0.00     0.006 C 
BRANCH   6   7
ATOM      7  C   UNL     1      33.981   0.161 -35.816  1.00  0.00     0.053 C 
BRANCH   7   8
ATOM      8  C   UNL     1      33.190  -0.148 -37.048  1.00  0.00     0.041 C 
ATOM      9  O   UNL     1      33.570  -1.054 -37.835  1.00  0.00    -0.550 OA
ATOM     10  O   UNL     1      32.005   0.531 -37.302  1.00  0.00    -0.550 OA
ENDBRANCH   7   8
ENDBRANCH   6   7
ENDBRANCH   5   6
ENDBRANCH   4   5
ENDBRANCH   3   4
ENDBRANCH   2   3
ENDBRANCH   1   2
BRANCH   1  11
ATOM     11  C   UNL     1      35.901   5.736 -32.658  1.00  0.00     0.000 C 
BRANCH  11  12
ATOM     12  C   UNL     1      35.769   6.723 -31.480  1.00  0.00    -0.000 C 
BRANCH  12  13
ATOM     13  C   UNL     1      34.497   7.590 -31.495  1.00  0.00    -0.000 C 
BRANCH  13  14
ATOM     14  C   UNL     1      33.473   7.166 -30.432  1.00  0.00    -0.000 C 
BRANCH  14  15
ATOM     15  C   UNL     1      34.032   6.035 -29.554  1.00  0.00    -0.000 C 
BRANCH  15  16
ATOM     16  C   UNL     1      33.305   4.696 -29.767  1.00  0.00    -0.000 C 
BRANCH  16  17
ATOM     17  C   UNL     1      34.209   3.451 -29.700  1.00  0.00    -0.003 C 
ATOM     18  C   UNL     1      33.454   2.150 -29.961  1.00  0.00     0.004 C 
ENDBRANCH  16  17
ENDBRANCH  15  16
ENDBRANCH  14  15
ENDBRANCH  13  14
ENDBRANCH  12  13
ENDBRANCH  11  12
ENDBRANCH   1  11
TORSDOF 14
ENDMDL
MODEL 9
REMARK VINA RESULT:    -2.897      1.493      2.989
REMARK INTER + INTRA:          -7.768
REMARK INTER:                  -5.491
REMARK INTRA:                  -2.276
REMARK UNBOUND:                -2.499
REMARK SMILES CCCCCCCCCCCCCCCC(=O)[O-]
REMARK SMILES IDX 9 1 10 2 11 3 12 4 13 5 14 6 15 7 16 8 17 9 18 10 8 11 7 12
REMARK SMILES IDX 6 13 5 14 4 15 3 16 2 17 1 18
REMARK H PARENT
REMARK Flexibility Score: inf
ROOT
ATOM      1  C   UNL     1      24.139  -5.481 -28.230  1.00  0.00     0.000 C 
ENDROOT
BRANCH   1   2
ATOM      2  C   UNL     1      23.864  -4.661 -29.503  1.00  0.00     0.000 C 
BRANCH   2   3
ATOM      3  C   UNL     1      25.148  -4.083 -30.119  1.00  0.00     0.000 C 
BRANCH   3   4
ATOM      4  C   UNL     1      25.622  -4.880 -31.347  1.00  0.00     0.000 C 
BRANCH   4   5
ATOM      5  C   UNL     1      24.465  -5.289 -32.277  1.00  0.00     0.000 C 
BRANCH   5   6
ATOM      6  C   UNL     1      23.810  -4.129 -33.051  1.00  0.00     0.006 C 
BRANCH   6   7
ATOM      7  C   UNL     1      24.826  -3.263 -33.804  1.00  0.00     0.053 C 
BRANCH   7   8
ATOM      8  C   UNL     1      24.963  -3.729 -35.219  1.00  0.00     0.041 C 
ATOM      9  O   UNL     1      25.936  -4.452 -35.558  1.00  0.00    -0.550 OA
ATOM     10  O   UNL     1      23.988  -3.405 -36.155  1.00  0.00    -0.550 OA
ENDBRANCH   7   8
ENDBRANCH   6   7
ENDBRANCH   5   6
ENDBRANCH   4   5
ENDBRANCH   3   4
ENDBRANCH   2   3
ENDBRANCH   1   2
BRANCH   1  11
ATOM     11  C   UNL     1      24.140  -6.998 -28.486  1.00  0.00     0.000 C 
BRANCH  11  12
ATOM     12  C   UNL     1      25.398  -7.746 -27.999  1.00  0.00    -0.000 C 
BRANCH  12  13
ATOM     13  C   UNL     1      26.458  -8.016 -29.084  1.00  0.00    -0.000 C 
BRANCH  13  14
ATOM     14  C   UNL     1      27.633  -7.030 -29.027  1.00  0.00    -0.000 C 
BRANCH  14  15
ATOM     15  C   UNL     1      27.745  -6.389 -27.635  1.00  0.00    -0.000 C 
BRANCH  15  16
ATOM     16  C   UNL     1      27.823  -4.853 -27.686  1.00  0.00    -0.000 C 
BRANCH  16  17
ATOM     17  C   UNL     1      27.109  -4.131 -26.529  1.00  0.00    -0.003 C 
ATOM     18  C   UNL     1      26.570  -5.089 -25.468  1.00  0.00     0.004 C 
ENDBRANCH  16  17
ENDBRANCH  15  16
ENDBRANCH  14  15
ENDBRANCH  13  14
ENDBRANCH  12  13
ENDBRANCH  11  12
ENDBRANCH   1  11
TORSDOF 14
ENDMDL
