MODEL 1
REMARK VINA RESULT:    -3.712      0.000      0.000
REMARK INTER + INTRA:          -4.695
REMARK INTER:                  -4.472
REMARK INTRA:                  -0.224
REMARK UNBOUND:                -0.224
REMARK SMILES OCC(O)CO
REMARK SMILES IDX 3 1 5 2 6 3 2 5 1 6 4 8
REMARK H PARENT 6 4 1 7 4 9
REMARK Flexibility Score: inf
ROOT
ATOM      1  C   UNL     1      33.581   8.337  20.432  1.00  0.00     0.165 C 
ENDROOT
BRANCH   1   2
ATOM      2  C   UNL     1      33.070   8.352  18.984  1.00  0.00     0.190 C 
BRANCH   2   3
ATOM      3  O   UNL     1      32.013   7.445  18.814  1.00  0.00    -0.394 OA
ATOM      4  H   UNL     1      31.462   7.788  18.063  1.00  0.00     0.210 HD
ENDBRANCH   2   3
ENDBRANCH   1   2
BRANCH   1   5
ATOM      5  C   UNL     1      34.588   7.195  20.651  1.00  0.00     0.190 C 
BRANCH   5   6
ATOM      6  O   UNL     1      33.986   5.952  20.404  1.00  0.00    -0.394 OA
ATOM      7  H   UNL     1      33.669   5.973  19.463  1.00  0.00     0.210 HD
ENDBRANCH   5   6
ENDBRANCH   1   5
BRANCH   1   8
ATOM      8  O   UNL     1      32.485   8.175  21.294  1.00  0.00    -0.388 OA
ATOM      9  H   UNL     1      32.317   9.056  21.720  1.00  0.00     0.211 HD
ENDBRANCH   1   8
TORSDOF 5
ENDMDL
MODEL 2
REMARK VINA RESULT:    -3.690     12.174     12.499
REMARK INTER + INTRA:          -4.669
REMARK INTER:                  -4.445
REMARK INTRA:                  -0.224
REMARK UNBOUND:                -0.224
REMARK SMILES OCC(O)CO
REMARK SMILES IDX 3 1 5 2 6 3 2 5 1 6 4 8
REMARK H PARENT 6 4 1 7 4 9
REMARK Flexibility Score: inf
ROOT
ATOM      1  C   UNL     1      22.366   1.058  20.856  1.00  0.00     0.165 C 
ENDROOT
BRANCH   1   2
ATOM      2  C   UNL     1      23.400   0.048  20.339  1.00  0.00     0.190 C 
BRANCH   2   3
ATOM      3  O   UNL     1      24.543   0.701  19.855  1.00  0.00    -0.394 OA
ATOM      4  H   UNL     1      24.596   1.571  20.331  1.00  0.00     0.210 HD
ENDBRANCH   2   3
ENDBRANCH   1   2
BRANCH   1   5
ATOM      5  C   UNL     1      22.616   1.396  22.336  1.00  0.00     0.190 C 
BRANCH   5   6
ATOM      6  O   UNL     1      23.959   1.745  22.542  1.00  0.00    -0.394 OA
ATOM      7  H   UNL     1      24.191   1.449  23.461  1.00  0.00     0.210 HD
ENDBRANCH   5   6
ENDBRANCH   1   5
BRANCH   1   8
ATOM      8  O   UNL     1      21.084   0.507  20.704  1.00  0.00    -0.388 OA
ATOM      9  H   UNL     1      21.120  -0.102  19.921  1.00  0.00     0.211 HD
ENDBRANCH   1   8
TORSDOF 5
ENDMDL
MODEL 3
REMARK VINA RESULT:    -3.690     18.032     19.302
REMARK INTER + INTRA:          -4.669
REMARK INTER:                  -4.467
REMARK INTRA:                  -0.201
REMARK UNBOUND:                -0.224
REMARK SMILES OCC(O)CO
REMARK SMILES IDX 3 1 5 2 6 3 2 5 1 6 4 8
REMARK H PARENT 6 4 1 7 4 9
REMARK Flexibility Score: inf
ROOT
ATOM      1  C   UNL     1      23.038   1.429   4.313  1.00  0.00     0.165 C 
ENDROOT
BRANCH   1   2
ATOM      2  C   UNL     1      23.662   2.615   5.063  1.00  0.00     0.190 C 
BRANCH   2   3
ATOM      3  O   UNL     1      24.459   2.173   6.129  1.00  0.00    -0.394 OA
ATOM      4  H   UNL     1      25.021   2.944   6.403  1.00  0.00     0.210 HD
ENDBRANCH   2   3
ENDBRANCH   1   2
BRANCH   1   5
ATOM      5  C   UNL     1      21.647   1.091   4.876  1.00  0.00     0.190 C 
BRANCH   5   6
ATOM      6  O   UNL     1      21.379   1.856   6.021  1.00  0.00    -0.394 OA
ATOM      7  H   UNL     1      21.367   2.806   5.731  1.00  0.00     0.210 HD
ENDBRANCH   5   6
ENDBRANCH   1   5
BRANCH   1   8
ATOM      8  O   UNL     1      23.886   0.318   4.443  1.00  0.00    -0.388 OA
ATOM      9  H   UNL     1      23.308  -0.468   4.628  1.00  0.00     0.211 HD
ENDBRANCH   1   8
TORSDOF 5
ENDMDL
MODEL 4
REMARK VINA RESULT:    -3.620      0.870      2.712
REMARK INTER + INTRA:          -4.584
REMARK INTER:                  -4.419
REMARK INTRA:                  -0.165
REMARK UNBOUND:                -0.224
REMARK SMILES OCC(O)CO
REMARK SMILES IDX 3 1 5 2 6 3 2 5 1 6 4 8
REMARK H PARENT 6 4 1 7 4 9
REMARK Flexibility Score: inf
ROOT
ATOM      1  C   UNL     1      33.735   7.492  19.342  1.00  0.00     0.165 C 
ENDROOT
BRANCH   1   2
ATOM      2  C   UNL     1      34.630   6.902  20.442  1.00  0.00     0.190 C 
BRANCH   2   3
ATOM      3  O   UNL     1      34.165   5.642  20.846  1.00  0.00    -0.394 OA
ATOM      4  H   UNL     1      33.173   5.689  20.839  1.00  0.00     0.210 HD
ENDBRANCH   2   3
ENDBRANCH   1   2
BRANCH   1   5
ATOM      5  C   UNL     1      32.831   8.604  19.903  1.00  0.00     0.190 C 
BRANCH   5   6
ATOM      6  O   UNL     1      32.355   8.256  21.177  1.00  0.00    -0.394 OA
ATOM      7  H   UNL     1      33.059   7.698  21.599  1.00  0.00     0.210 HD
ENDBRANCH   5   6
ENDBRANCH   1   5
BRANCH   1   8
ATOM      8  O   UNL     1      32.945   6.464  18.805  1.00  0.00    -0.388 OA
ATOM      9  H   UNL     1      33.248   6.324  17.869  1.00  0.00     0.211 HD
ENDBRANCH   1   8
TORSDOF 5
ENDMDL
MODEL 5
REMARK VINA RESULT:    -3.607     12.483     12.731
REMARK INTER + INTRA:          -4.569
REMARK INTER:                  -4.565
REMARK INTRA:                  -0.004
REMARK UNBOUND:                -0.224
REMARK SMILES OCC(O)CO
REMARK SMILES IDX 3 1 5 2 6 3 2 5 1 6 4 8
REMARK H PARENT 6 4 1 7 4 9
REMARK Flexibility Score: inf
ROOT
ATOM      1  C   UNL     1      22.798   1.255  21.621  1.00  0.00     0.165 C 
ENDROOT
BRANCH   1   2
ATOM      2  C   UNL     1      21.743   0.597  22.523  1.00  0.00     0.190 C 
BRANCH   2   3
ATOM      3  O   UNL     1      20.693   0.065  21.761  1.00  0.00    -0.394 OA
ATOM      4  H   UNL     1      21.054  -0.094  20.851  1.00  0.00     0.210 HD
ENDBRANCH   2   3
ENDBRANCH   1   2
BRANCH   1   5
ATOM      5  C   UNL     1      23.248   0.295  20.506  1.00  0.00     0.190 C 
BRANCH   5   6
ATOM      6  O   UNL     1      24.469   0.714  19.957  1.00  0.00    -0.394 OA
ATOM      7  H   UNL     1      24.970  -0.109  19.719  1.00  0.00     0.210 HD
ENDBRANCH   5   6
ENDBRANCH   1   5
BRANCH   1   8
ATOM      8  O   UNL     1      23.902   1.617  22.410  1.00  0.00    -0.388 OA
ATOM      9  H   UNL     1      23.657   1.432  23.354  1.00  0.00     0.211 HD
ENDBRANCH   1   8
TORSDOF 5
ENDMDL
MODEL 6
REMARK VINA RESULT:    -3.600     12.268     12.728
REMARK INTER + INTRA:          -4.560
REMARK INTER:                  -4.391
REMARK INTRA:                  -0.170
REMARK UNBOUND:                -0.224
REMARK SMILES OCC(O)CO
REMARK SMILES IDX 3 1 5 2 6 3 2 5 1 6 4 8
REMARK H PARENT 6 4 1 7 4 9
REMARK Flexibility Score: inf
ROOT
ATOM      1  C   UNL     1      22.868   0.772  20.894  1.00  0.00     0.165 C 
ENDROOT
BRANCH   1   2
ATOM      2  C   UNL     1      23.598  -0.350  20.141  1.00  0.00     0.190 C 
BRANCH   2   3
ATOM      3  O   UNL     1      24.483   0.177  19.189  1.00  0.00    -0.394 OA
ATOM      4  H   UNL     1      25.157   0.707  19.690  1.00  0.00     0.210 HD
ENDBRANCH   2   3
ENDBRANCH   1   2
BRANCH   1   5
ATOM      5  C   UNL     1      21.452   0.984  20.332  1.00  0.00     0.190 C 
BRANCH   5   6
ATOM      6  O   UNL     1      21.299   0.309  19.112  1.00  0.00    -0.394 OA
ATOM      7  H   UNL     1      21.062  -0.629  19.335  1.00  0.00     0.210 HD
ENDBRANCH   5   6
ENDBRANCH   1   5
BRANCH   1   8
ATOM      8  O   UNL     1      23.612   1.956  20.769  1.00  0.00    -0.388 OA
ATOM      9  H   UNL     1      23.152   2.646  21.315  1.00  0.00     0.211 HD
ENDBRANCH   1   8
TORSDOF 5
ENDMDL
MODEL 7
REMARK VINA RESULT:    -3.589     18.656     19.931
REMARK INTER + INTRA:          -4.547
REMARK INTER:                  -4.325
REMARK INTRA:                  -0.222
REMARK UNBOUND:                -0.224
REMARK SMILES OCC(O)CO
REMARK SMILES IDX 3 1 5 2 6 3 2 5 1 6 4 8
REMARK H PARENT 6 4 1 7 4 9
REMARK Flexibility Score: inf
ROOT
ATOM      1  C   UNL     1      22.378   1.202   4.585  1.00  0.00     0.165 C 
ENDROOT
BRANCH   1   2
ATOM      2  C   UNL     1      23.259   2.277   5.237  1.00  0.00     0.190 C 
BRANCH   2   3
ATOM      3  O   UNL     1      24.535   1.773   5.530  1.00  0.00    -0.394 OA
ATOM      4  H   UNL     1      24.795   1.196   4.765  1.00  0.00     0.210 HD
ENDBRANCH   2   3
ENDBRANCH   1   2
BRANCH   1   5
ATOM      5  C   UNL     1      22.681   1.076   3.082  1.00  0.00     0.190 C 
BRANCH   5   6
ATOM      6  O   UNL     1      24.032   0.757   2.876  1.00  0.00    -0.394 OA
ATOM      7  H   UNL     1      24.149   0.637   1.897  1.00  0.00     0.210 HD
ENDBRANCH   5   6
ENDBRANCH   1   5
BRANCH   1   8
ATOM      8  O   UNL     1      21.031   1.550   4.770  1.00  0.00    -0.388 OA
ATOM      9  H   UNL     1      20.989   2.128   5.576  1.00  0.00     0.211 HD
ENDBRANCH   1   8
TORSDOF 5
ENDMDL
MODEL 8
REMARK VINA RESULT:    -3.561     13.218     13.549
REMARK INTER + INTRA:          -4.513
REMARK INTER:                  -4.290
REMARK INTRA:                  -0.224
REMARK UNBOUND:                -0.224
REMARK SMILES OCC(O)CO
REMARK SMILES IDX 3 1 5 2 6 3 2 5 1 6 4 8
REMARK H PARENT 6 4 1 7 4 9
REMARK Flexibility Score: inf
ROOT
ATOM      1  C   UNL     1      22.413   0.751  21.019  1.00  0.00     0.165 C 
ENDROOT
BRANCH   1   2
ATOM      2  C   UNL     1      21.479   0.700  19.801  1.00  0.00     0.190 C 
BRANCH   2   3
ATOM      3  O   UNL     1      20.408   1.594  19.952  1.00  0.00    -0.394 OA
ATOM      4  H   UNL     1      20.715   2.468  19.596  1.00  0.00     0.210 HD
ENDBRANCH   2   3
ENDBRANCH   1   2
BRANCH   1   5
ATOM      5  C   UNL     1      21.613   0.910  22.323  1.00  0.00     0.190 C 
BRANCH   5   6
ATOM      6  O   UNL     1      20.573  -0.030  22.381  1.00  0.00    -0.394 OA
ATOM      7  H   UNL     1      21.001  -0.926  22.374  1.00  0.00     0.210 HD
ENDBRANCH   5   6
ENDBRANCH   1   5
BRANCH   1   8
ATOM      8  O   UNL     1      23.293   1.835  20.866  1.00  0.00    -0.388 OA
ATOM      9  H   UNL     1      24.206   1.456  20.770  1.00  0.00     0.211 HD
ENDBRANCH   1   8
TORSDOF 5
ENDMDL
MODEL 9
REMARK VINA RESULT:    -3.497     18.642     19.859
REMARK INTER + INTRA:          -4.436
REMARK INTER:                  -4.220
REMARK INTRA:                  -0.215
REMARK UNBOUND:                -0.224
REMARK SMILES OCC(O)CO
REMARK SMILES IDX 3 1 5 2 6 3 2 5 1 6 4 8
REMARK H PARENT 6 4 1 7 4 9
REMARK Flexibility Score: inf
ROOT
ATOM      1  C   UNL     1      22.477   1.696   4.196  1.00  0.00     0.165 C 
ENDROOT
BRANCH   1   2
ATOM      2  C   UNL     1      22.801   0.975   2.880  1.00  0.00     0.190 C 
BRANCH   2   3
ATOM      3  O   UNL     1      24.123   0.506   2.875  1.00  0.00    -0.394 OA
ATOM      4  H   UNL     1      24.709   1.307   2.857  1.00  0.00     0.210 HD
ENDBRANCH   2   3
ENDBRANCH   1   2
BRANCH   1   5
ATOM      5  C   UNL     1      23.721   2.408   4.756  1.00  0.00     0.190 C 
BRANCH   5   6
ATOM      6  O   UNL     1      24.510   1.513   5.495  1.00  0.00    -0.394 OA
ATOM      7  H   UNL     1      25.437   1.602   5.151  1.00  0.00     0.210 HD
ENDBRANCH   5   6
ENDBRANCH   1   5
BRANCH   1   8
ATOM      8  O   UNL     1      22.012   0.752   5.124  1.00  0.00    -0.388 OA
ATOM      9  H   UNL     1      21.758   1.251   5.944  1.00  0.00     0.211 HD
ENDBRANCH   1   8
TORSDOF 5
ENDMDL
