MODEL 1
REMARK VINA RESULT:    -1.922      0.000      0.000
REMARK INTER + INTRA:          -2.902
REMARK INTER:                  -2.933
REMARK INTRA:                   0.031
REMARK UNBOUND:                 0.031
REMARK SMILES CC1=CCC[C@H](C)C(=O)C[C@H](C(C)C)C(=O)C1
REMARK SMILES IDX 8 1 9 2 6 3 7 4 5 5 4 6 3 7 2 8 1 9 10 11 11 12 15 13 16 14
REMARK SMILES IDX 17 15 12 17 13 18 14 19
REMARK H PARENT
REMARK Flexibility Score: 70.00
ROOT
ATOM      1  C   UNL     1      86.410  31.801  67.258  1.00  0.00     0.136 C 
ATOM      2  O   UNL     1      85.489  32.270  67.911  1.00  0.00    -0.299 OA
ENDROOT
BRANCH   1   3
ATOM      3  C   UNL     1      87.838  31.900  67.763  1.00  0.00     0.053 C 
ATOM      4  C   UNL     1      88.817  31.041  66.948  1.00  0.00     0.016 C 
BRANCH   3   5
ATOM      5  C   UNL     1      88.291  33.370  67.868  1.00  0.00     0.015 C 
BRANCH   5   6
ATOM      6  C   UNL     1      89.124  33.857  66.666  1.00  0.00     0.028 C 
BRANCH   6   7
ATOM      7  C   UNL     1      88.370  34.881  65.859  1.00  0.00    -0.028 C 
ATOM      8  C   UNL     1      87.572  34.597  64.803  1.00  0.00    -0.070 CG0
ATOM      9  C   UNL     1      86.847  35.736  64.133  1.00  0.00     0.039 C 
ATOM     10  G   UNL     1      87.376  33.190  64.261  1.00  0.00     0.000 G0
ENDBRANCH   6   7
ENDBRANCH   5   6
ENDBRANCH   3   5
ENDBRANCH   1   3
BRANCH   1  11
ATOM     11  C   UNL     1      86.127  31.142  65.926  1.00  0.00     0.087 C 
BRANCH  11  12
ATOM     12  C   UNL     1      85.143  31.913  65.006  1.00  0.00     0.066 C 
BRANCH  12  13
ATOM     13  C   UNL     1      85.906  32.822  64.047  1.00  0.00     0.140 C 
ATOM     14  O   UNL     1      85.320  33.244  63.059  1.00  0.00    -0.299 OA
BRANCH  13  15
ATOM     15  C   UNL     1      87.365  33.179  64.246  1.00  0.00     0.106 CG0
ATOM     16  G   UNL     1      87.559  34.583  64.797  1.00  0.00     0.000 G0
ENDBRANCH  13  15
ENDBRANCH  12  13
BRANCH  12  17
ATOM     17  C   UNL     1      84.049  31.037  64.305  1.00  0.00    -0.006 C 
ATOM     18  C   UNL     1      84.302  29.529  64.474  1.00  0.00     0.008 C 
ATOM     19  C   UNL     1      82.651  31.362  64.865  1.00  0.00     0.008 C 
ENDBRANCH  12  17
ENDBRANCH  11  12
ENDBRANCH   1  11
TORSDOF 1
ENDMDL
MODEL 2
REMARK VINA RESULT:    -1.394      2.135      3.982
REMARK INTER + INTRA:          -2.096
REMARK INTER:                  -2.797
REMARK INTRA:                   0.701
REMARK UNBOUND:                 0.031
REMARK SMILES CC1=CCC[C@H](C)C(=O)C[C@H](C(C)C)C(=O)C1
REMARK SMILES IDX 8 1 9 2 6 3 7 4 5 5 4 6 3 7 2 8 1 9 10 11 11 12 15 13 16 14
REMARK SMILES IDX 17 15 12 17 13 18 14 19
REMARK H PARENT
REMARK Flexibility Score: 70.00
ROOT
ATOM      1  C   UNL     1      84.903  29.870  64.630  1.00  0.00     0.136 C 
ATOM      2  O   UNL     1      84.300  28.945  64.105  1.00  0.00    -0.299 OA
ENDROOT
BRANCH   1   3
ATOM      3  C   UNL     1      84.487  31.306  64.364  1.00  0.00     0.053 C 
ATOM      4  C   UNL     1      83.927  32.003  65.614  1.00  0.00     0.016 C 
BRANCH   3   5
ATOM      5  C   UNL     1      85.630  32.104  63.707  1.00  0.00     0.015 C 
BRANCH   5   6
ATOM      6  C   UNL     1      85.630  33.605  64.057  1.00  0.00     0.028 C 
BRANCH   6   7
ATOM      7  C   UNL     1      87.016  34.085  64.402  1.00  0.00    -0.028 C 
ATOM      8  C   UNL     1      87.713  33.703  65.498  1.00  0.00    -0.070 CG0
ATOM      9  C   UNL     1      89.112  34.238  65.672  1.00  0.00     0.039 C 
ATOM     10  G   UNL     1      87.155  32.767  66.559  1.00  0.00     0.000 G0
ENDBRANCH   6   7
ENDBRANCH   5   6
ENDBRANCH   3   5
ENDBRANCH   1   3
BRANCH   1  11
ATOM     11  C   UNL     1      86.086  29.583  65.527  1.00  0.00     0.087 C 
BRANCH  11  12
ATOM     12  C   UNL     1      87.345  30.446  65.251  1.00  0.00     0.066 C 
BRANCH  12  13
ATOM     13  C   UNL     1      87.658  31.338  66.450  1.00  0.00     0.140 C 
ATOM     14  O   UNL     1      88.313  30.865  67.369  1.00  0.00    -0.299 OA
BRANCH  13  15
ATOM     15  C   UNL     1      87.150  32.761  66.564  1.00  0.00     0.106 CG0
ATOM     16  G   UNL     1      87.716  33.677  65.491  1.00  0.00     0.000 G0
ENDBRANCH  13  15
ENDBRANCH  12  13
BRANCH  12  17
ATOM     17  C   UNL     1      88.592  29.668  64.707  1.00  0.00    -0.006 C 
ATOM     18  C   UNL     1      88.468  28.146  64.900  1.00  0.00     0.008 C 
ATOM     19  C   UNL     1      88.799  29.953  63.208  1.00  0.00     0.008 C 
ENDBRANCH  12  17
ENDBRANCH  11  12
ENDBRANCH   1  11
TORSDOF 1
ENDMDL
MODEL 3
REMARK VINA RESULT:    -1.288      2.335      4.501
REMARK INTER + INTRA:          -1.935
REMARK INTER:                  -2.896
REMARK INTRA:                   0.962
REMARK UNBOUND:                 0.031
REMARK SMILES CC1=CCC[C@H](C)C(=O)C[C@H](C(C)C)C(=O)C1
REMARK SMILES IDX 8 1 9 2 6 3 7 4 5 5 4 6 3 7 2 8 1 9 10 11 11 12 15 13 16 14
REMARK SMILES IDX 17 15 12 17 13 18 14 19
REMARK H PARENT
REMARK Flexibility Score: 70.00
ROOT
ATOM      1  C   UNL     1      88.491  29.651  65.014  1.00  0.00     0.136 C 
ATOM      2  O   UNL     1      89.073  29.495  66.077  1.00  0.00    -0.299 OA
ENDROOT
BRANCH   1   3
ATOM      3  C   UNL     1      87.636  28.537  64.436  1.00  0.00     0.053 C 
ATOM      4  C   UNL     1      88.343  27.172  64.462  1.00  0.00     0.016 C 
BRANCH   3   5
ATOM      5  C   UNL     1      86.249  28.495  65.106  1.00  0.00     0.015 C 
BRANCH   5   6
ATOM      6  C   UNL     1      85.124  29.122  64.261  1.00  0.00     0.028 C 
BRANCH   6   7
ATOM      7  C   UNL     1      84.473  30.271  64.986  1.00  0.00    -0.028 C 
ATOM      8  C   UNL     1      84.811  31.573  64.830  1.00  0.00    -0.070 CG0
ATOM      9  C   UNL     1      84.025  32.607  65.594  1.00  0.00     0.039 C 
ATOM     10  G   UNL     1      85.942  32.039  63.927  1.00  0.00     0.000 G0
ENDBRANCH   6   7
ENDBRANCH   5   6
ENDBRANCH   3   5
ENDBRANCH   1   3
BRANCH   1  11
ATOM     11  C   UNL     1      88.647  30.950  64.256  1.00  0.00     0.087 C 
BRANCH  11  12
ATOM     12  C   UNL     1      88.354  32.232  65.079  1.00  0.00     0.066 C 
BRANCH  12  13
ATOM     13  C   UNL     1      87.020  32.844  64.663  1.00  0.00     0.140 C 
ATOM     14  O   UNL     1      86.792  34.006  64.974  1.00  0.00    -0.299 OA
BRANCH  13  15
ATOM     15  C   UNL     1      85.955  32.057  63.926  1.00  0.00     0.106 CG0
ATOM     16  G   UNL     1      84.832  31.586  64.837  1.00  0.00     0.000 G0
ENDBRANCH  13  15
ENDBRANCH  12  13
BRANCH  12  17
ATOM     17  C   UNL     1      88.524  32.092  66.631  1.00  0.00    -0.006 C 
ATOM     18  C   UNL     1      89.115  33.357  67.277  1.00  0.00     0.008 C 
ATOM     19  C   UNL     1      87.170  31.790  67.300  1.00  0.00     0.008 C 
ENDBRANCH  12  17
ENDBRANCH  11  12
ENDBRANCH   1  11
TORSDOF 1
ENDMDL
MODEL 4
REMARK VINA RESULT:    -1.023      2.456      3.728
REMARK INTER + INTRA:          -1.530
REMARK INTER:                  -2.433
REMARK INTRA:                   0.903
REMARK UNBOUND:                 0.031
REMARK SMILES CC1=CCC[C@H](C)C(=O)C[C@H](C(C)C)C(=O)C1
REMARK SMILES IDX 8 1 9 2 6 3 7 4 5 5 4 6 3 7 2 8 1 9 10 11 11 12 15 13 16 14
REMARK SMILES IDX 17 15 12 17 13 18 14 19
REMARK H PARENT
REMARK Flexibility Score: 70.00
ROOT
ATOM      1  C   UNL     1      88.370  31.643  66.681  1.00  0.00     0.136 C 
ATOM      2  O   UNL     1      88.042  31.056  67.702  1.00  0.00    -0.299 OA
ENDROOT
BRANCH   1   3
ATOM      3  C   UNL     1      88.217  33.150  66.579  1.00  0.00     0.053 C 
ATOM      4  C   UNL     1      88.939  33.898  67.711  1.00  0.00     0.016 C 
BRANCH   3   5
ATOM      5  C   UNL     1      88.627  33.658  65.183  1.00  0.00     0.015 C 
BRANCH   5   6
ATOM      6  C   UNL     1      87.462  33.736  64.176  1.00  0.00     0.028 C 
BRANCH   6   7
ATOM      7  C   UNL     1      86.164  33.307  64.810  1.00  0.00    -0.028 C 
ATOM      8  C   UNL     1      85.644  32.060  64.734  1.00  0.00    -0.070 CG0
ATOM      9  C   UNL     1      84.357  31.781  65.469  1.00  0.00     0.039 C 
ATOM     10  G   UNL     1      86.288  30.933  63.943  1.00  0.00     0.000 G0
ENDBRANCH   6   7
ENDBRANCH   5   6
ENDBRANCH   3   5
ENDBRANCH   1   3
BRANCH   1  11
ATOM     11  C   UNL     1      88.905  30.859  65.504  1.00  0.00     0.087 C 
BRANCH  11  12
ATOM     12  C   UNL     1      88.180  29.517  65.222  1.00  0.00     0.066 C 
BRANCH  12  13
ATOM     13  C   UNL     1      86.736  29.765  64.798  1.00  0.00     0.140 C 
ATOM     14  O   UNL     1      85.885  28.951  65.130  1.00  0.00    -0.299 OA
BRANCH  13  15
ATOM     15  C   UNL     1      86.327  30.950  63.946  1.00  0.00     0.106 CG0
ATOM     16  G   UNL     1      85.652  32.050  64.749  1.00  0.00     0.000 G0
ENDBRANCH  13  15
ENDBRANCH  12  13
BRANCH  12  17
ATOM     17  C   UNL     1      88.946  28.519  64.286  1.00  0.00    -0.006 C 
ATOM     18  C   UNL     1      88.224  27.167  64.148  1.00  0.00     0.008 C 
ATOM     19  C   UNL     1      89.125  29.122  62.880  1.00  0.00     0.008 C 
ENDBRANCH  12  17
ENDBRANCH  11  12
ENDBRANCH   1  11
TORSDOF 1
ENDMDL
MODEL 5
REMARK VINA RESULT:     0.017      2.305      5.246
REMARK INTER + INTRA:           0.057
REMARK INTER:                  -2.914
REMARK INTRA:                   2.972
REMARK UNBOUND:                 0.031
REMARK SMILES CC1=CCC[C@H](C)C(=O)C[C@H](C(C)C)C(=O)C1
REMARK SMILES IDX 8 1 9 2 6 3 7 4 5 5 4 6 3 7 2 8 1 9 10 11 11 12 15 13 16 14
REMARK SMILES IDX 17 15 12 17 13 18 14 19
REMARK H PARENT
REMARK Flexibility Score: 70.00
ROOT
ATOM      1  C   UNL     1      85.786  32.453  66.069  1.00  0.00     0.136 C 
ATOM      2  O   UNL     1      86.420  33.320  65.485  1.00  0.00    -0.299 OA
ENDROOT
BRANCH   1   3
ATOM      3  C   UNL     1      84.314  32.241  65.762  1.00  0.00     0.053 C 
ATOM      4  C   UNL     1      83.922  32.743  64.364  1.00  0.00     0.016 C 
BRANCH   3   5
ATOM      5  C   UNL     1      83.902  30.775  65.998  1.00  0.00     0.015 C 
BRANCH   5   6
ATOM      6  C   UNL     1      83.735  29.953  64.705  1.00  0.00     0.028 C 
BRANCH   6   7
ATOM      7  C   UNL     1      84.631  28.742  64.708  1.00  0.00    -0.028 C 
ATOM      8  C   UNL     1      85.984  28.784  64.689  1.00  0.00    -0.070 CG0
ATOM      9  C   UNL     1      86.735  27.478  64.747  1.00  0.00     0.039 C 
ATOM     10  G   UNL     1      86.778  30.077  64.606  1.00  0.00     0.000 G0
ENDBRANCH   6   7
ENDBRANCH   5   6
ENDBRANCH   3   5
ENDBRANCH   1   3
BRANCH   1  11
ATOM     11  C   UNL     1      86.464  31.608  67.124  1.00  0.00     0.087 C 
BRANCH  11  12
ATOM     12  C   UNL     1      87.909  31.161  66.782  1.00  0.00     0.066 C 
BRANCH  12  13
ATOM     13  C   UNL     1      87.901  30.143  65.646  1.00  0.00     0.140 C 
ATOM     14  O   UNL     1      88.847  29.373  65.549  1.00  0.00    -0.299 OA
BRANCH  13  15
ATOM     15  C   UNL     1      86.794  30.081  64.612  1.00  0.00     0.106 CG0
ATOM     16  G   UNL     1      85.997  28.788  64.677  1.00  0.00     0.000 G0
ENDBRANCH  13  15
ENDBRANCH  12  13
BRANCH  12  17
ATOM     17  C   UNL     1      88.944  32.320  66.577  1.00  0.00    -0.006 C 
ATOM     18  C   UNL     1      89.047  32.767  65.108  1.00  0.00     0.008 C 
ATOM     19  C   UNL     1      88.566  33.543  67.433  1.00  0.00     0.008 C 
ENDBRANCH  12  17
ENDBRANCH  11  12
ENDBRANCH   1  11
TORSDOF 1
ENDMDL
