MODEL 1
REMARK VINA RESULT:    -5.112      0.000      0.000
REMARK INTER + INTRA:          -7.935
REMARK INTER:                  -7.503
REMARK INTRA:                  -0.432
REMARK UNBOUND:                -0.432
REMARK SMILES O=C([O-])CCCCCCCC(=O)[O-]
REMARK SMILES IDX 7 1 6 2 5 3 4 4 2 5 1 6 3 7 8 8 9 9 10 10 11 11 12 12 13 13
REMARK H PARENT
REMARK Flexibility Score: inf
ROOT
ATOM      1  C   UNL     1       4.435 -34.078  21.465  1.00  0.00     0.000 C 
ENDROOT
BRANCH   1   2
ATOM      2  C   UNL     1       5.176 -35.146  20.646  1.00  0.00     0.000 C 
BRANCH   2   3
ATOM      3  C   UNL     1       4.392 -35.580  19.395  1.00  0.00     0.006 C 
BRANCH   3   4
ATOM      4  C   UNL     1       4.032 -37.071  19.425  1.00  0.00     0.053 C 
BRANCH   4   5
ATOM      5  C   UNL     1       2.953 -37.406  18.442  1.00  0.00     0.041 C 
ATOM      6  O   UNL     1       3.172 -37.314  17.205  1.00  0.00    -0.550 OA
ATOM      7  O   UNL     1       1.715 -37.849  18.890  1.00  0.00    -0.550 OA
ENDBRANCH   4   5
ENDBRANCH   3   4
ENDBRANCH   2   3
ENDBRANCH   1   2
BRANCH   1   8
ATOM      8  C   UNL     1       5.030 -33.892  22.873  1.00  0.00     0.000 C 
BRANCH   8   9
ATOM      9  C   UNL     1       6.079 -34.963  23.216  1.00  0.00     0.006 C 
BRANCH   9  10
ATOM     10  C   UNL     1       5.888 -35.544  24.622  1.00  0.00     0.053 C 
BRANCH  10  11
ATOM     11  C   UNL     1       5.011 -36.756  24.572  1.00  0.00     0.041 C 
ATOM     12  O   UNL     1       4.848 -37.375  23.489  1.00  0.00    -0.550 OA
ATOM     13  O   UNL     1       4.333 -37.170  25.712  1.00  0.00    -0.550 OA
ENDBRANCH  10  11
ENDBRANCH   9  10
ENDBRANCH   8   9
ENDBRANCH   1   8
TORSDOF 8
ENDMDL
MODEL 2
REMARK VINA RESULT:    -5.102      0.196      5.626
REMARK INTER + INTRA:          -7.919
REMARK INTER:                  -7.501
REMARK INTRA:                  -0.418
REMARK UNBOUND:                -0.432
REMARK SMILES O=C([O-])CCCCCCCC(=O)[O-]
REMARK SMILES IDX 7 1 6 2 5 3 4 4 2 5 1 6 3 7 8 8 9 9 10 10 11 11 12 12 13 13
REMARK H PARENT
REMARK Flexibility Score: inf
ROOT
ATOM      1  C   UNL     1       4.419 -34.262  21.573  1.00  0.00     0.000 C 
ENDROOT
BRANCH   1   2
ATOM      2  C   UNL     1       5.154 -33.970  22.890  1.00  0.00     0.000 C 
BRANCH   2   3
ATOM      3  C   UNL     1       6.099 -35.111  23.306  1.00  0.00     0.006 C 
BRANCH   3   4
ATOM      4  C   UNL     1       5.777 -35.649  24.706  1.00  0.00     0.053 C 
BRANCH   4   5
ATOM      5  C   UNL     1       4.926 -36.881  24.649  1.00  0.00     0.041 C 
ATOM      6  O   UNL     1       4.795 -37.511  23.567  1.00  0.00    -0.550 OA
ATOM      7  O   UNL     1       4.303 -37.351  25.799  1.00  0.00    -0.550 OA
ENDBRANCH   4   5
ENDBRANCH   3   4
ENDBRANCH   2   3
ENDBRANCH   1   2
BRANCH   1   8
ATOM      8  C   UNL     1       5.067 -35.408  20.775  1.00  0.00     0.000 C 
BRANCH   8   9
ATOM      9  C   UNL     1       4.322 -35.709  19.465  1.00  0.00     0.006 C 
BRANCH   9  10
ATOM     10  C   UNL     1       4.021 -37.203  19.288  1.00  0.00     0.053 C 
BRANCH  10  11
ATOM     11  C   UNL     1       2.886 -37.396  18.332  1.00  0.00     0.041 C 
ATOM     12  O   UNL     1       1.752 -37.741  18.755  1.00  0.00    -0.550 OA
ATOM     13  O   UNL     1       3.095 -37.245  16.967  1.00  0.00    -0.550 OA
ENDBRANCH  10  11
ENDBRANCH   9  10
ENDBRANCH   8   9
ENDBRANCH   1   8
TORSDOF 8
ENDMDL
MODEL 3
REMARK VINA RESULT:    -5.059      0.264      5.631
REMARK INTER + INTRA:          -7.856
REMARK INTER:                  -7.453
REMARK INTRA:                  -0.403
REMARK UNBOUND:                -0.432
REMARK SMILES O=C([O-])CCCCCCCC(=O)[O-]
REMARK SMILES IDX 7 1 6 2 5 3 4 4 2 5 1 6 3 7 8 8 9 9 10 10 11 11 12 12 13 13
REMARK H PARENT
REMARK Flexibility Score: inf
ROOT
ATOM      1  C   UNL     1       4.510 -34.208  21.450  1.00  0.00     0.000 C 
ENDROOT
BRANCH   1   2
ATOM      2  C   UNL     1       5.023 -34.073  22.892  1.00  0.00     0.000 C 
BRANCH   2   3
ATOM      3  C   UNL     1       6.040 -35.167  23.263  1.00  0.00     0.006 C 
BRANCH   3   4
ATOM      4  C   UNL     1       5.833 -35.690  24.690  1.00  0.00     0.053 C 
BRANCH   4   5
ATOM      5  C   UNL     1       4.904 -36.865  24.725  1.00  0.00     0.041 C 
ATOM      6  O   UNL     1       4.301 -37.164  25.790  1.00  0.00    -0.550 OA
ATOM      7  O   UNL     1       4.681 -37.611  23.574  1.00  0.00    -0.550 OA
ENDBRANCH   4   5
ENDBRANCH   3   4
ENDBRANCH   2   3
ENDBRANCH   1   2
BRANCH   1   8
ATOM      8  C   UNL     1       5.003 -35.495  20.764  1.00  0.00     0.000 C 
BRANCH   8   9
ATOM      9  C   UNL     1       4.294 -35.760  19.427  1.00  0.00     0.006 C 
BRANCH   9  10
ATOM     10  C   UNL     1       3.900 -37.232  19.250  1.00  0.00     0.053 C 
BRANCH  10  11
ATOM     11  C   UNL     1       2.723 -37.351  18.333  1.00  0.00     0.041 C 
ATOM     12  O   UNL     1       2.819 -36.995  17.130  1.00  0.00    -0.550 OA
ATOM     13  O   UNL     1       1.505 -37.808  18.822  1.00  0.00    -0.550 OA
ENDBRANCH  10  11
ENDBRANCH   9  10
ENDBRANCH   8   9
ENDBRANCH   1   8
TORSDOF 8
ENDMDL
MODEL 4
REMARK VINA RESULT:    -4.881      2.756      6.921
REMARK INTER + INTRA:          -7.595
REMARK INTER:                  -7.296
REMARK INTRA:                  -0.299
REMARK UNBOUND:                -0.432
REMARK SMILES O=C([O-])CCCCCCCC(=O)[O-]
REMARK SMILES IDX 7 1 6 2 5 3 4 4 2 5 1 6 3 7 8 8 9 9 10 10 11 11 12 12 13 13
REMARK H PARENT
REMARK Flexibility Score: inf
ROOT
ATOM      1  C   UNL     1       4.183 -36.473  19.255  1.00  0.00     0.000 C 
ENDROOT
BRANCH   1   2
ATOM      2  C   UNL     1       4.698 -37.258  20.471  1.00  0.00     0.000 C 
BRANCH   2   3
ATOM      3  C   UNL     1       5.142 -36.339  21.623  1.00  0.00     0.006 C 
BRANCH   3   4
ATOM      4  C   UNL     1       5.422 -34.908  21.147  1.00  0.00     0.053 C 
BRANCH   4   5
ATOM      5  C   UNL     1       4.684 -33.893  21.964  1.00  0.00     0.041 C 
ATOM      6  O   UNL     1       5.218 -33.395  22.990  1.00  0.00    -0.550 OA
ATOM      7  O   UNL     1       3.418 -33.474  21.575  1.00  0.00    -0.550 OA
ENDBRANCH   4   5
ENDBRANCH   3   4
ENDBRANCH   2   3
ENDBRANCH   1   2
BRANCH   1   8
ATOM      8  C   UNL     1       2.824 -36.989  18.748  1.00  0.00     0.000 C 
BRANCH   8   9
ATOM      9  C   UNL     1       2.862 -37.392  17.265  1.00  0.00     0.006 C 
BRANCH   9  10
ATOM     10  C   UNL     1       3.148 -36.204  16.339  1.00  0.00     0.053 C 
BRANCH  10  11
ATOM     11  C   UNL     1       3.032 -36.620  14.906  1.00  0.00     0.041 C 
ATOM     12  O   UNL     1       2.004 -36.325  14.241  1.00  0.00    -0.550 OA
ATOM     13  O   UNL     1       4.037 -37.379  14.319  1.00  0.00    -0.550 OA
ENDBRANCH  10  11
ENDBRANCH   9  10
ENDBRANCH   8   9
ENDBRANCH   1   8
TORSDOF 8
ENDMDL
MODEL 5
REMARK VINA RESULT:    -4.860      0.908      1.800
REMARK INTER + INTRA:          -7.565
REMARK INTER:                  -7.086
REMARK INTRA:                  -0.478
REMARK UNBOUND:                -0.432
REMARK SMILES O=C([O-])CCCCCCCC(=O)[O-]
REMARK SMILES IDX 7 1 6 2 5 3 4 4 2 5 1 6 3 7 8 8 9 9 10 10 11 11 12 12 13 13
REMARK H PARENT
REMARK Flexibility Score: inf
ROOT
ATOM      1  C   UNL     1       5.120 -34.245  20.109  1.00  0.00     0.000 C 
ENDROOT
BRANCH   1   2
ATOM      2  C   UNL     1       4.578 -35.181  19.018  1.00  0.00     0.000 C 
BRANCH   2   3
ATOM      3  C   UNL     1       3.889 -36.428  19.598  1.00  0.00     0.006 C 
BRANCH   3   4
ATOM      4  C   UNL     1       3.513 -37.442  18.508  1.00  0.00     0.053 C 
BRANCH   4   5
ATOM      5  C   UNL     1       2.077 -37.319  18.102  1.00  0.00     0.041 C 
ATOM      6  O   UNL     1       1.165 -37.743  18.859  1.00  0.00    -0.550 OA
ATOM      7  O   UNL     1       1.744 -36.707  16.899  1.00  0.00    -0.550 OA
ENDBRANCH   4   5
ENDBRANCH   3   4
ENDBRANCH   2   3
ENDBRANCH   1   2
BRANCH   1   8
ATOM      8  C   UNL     1       4.204 -34.181  21.343  1.00  0.00     0.000 C 
BRANCH   8   9
ATOM      9  C   UNL     1       4.979 -33.896  22.640  1.00  0.00     0.006 C 
BRANCH   9  10
ATOM     10  C   UNL     1       5.948 -35.026  23.007  1.00  0.00     0.053 C 
BRANCH  10  11
ATOM     11  C   UNL     1       5.216 -36.145  23.678  1.00  0.00     0.041 C 
ATOM     12  O   UNL     1       5.081 -36.153  24.930  1.00  0.00    -0.550 OA
ATOM     13  O   UNL     1       4.725 -37.204  22.926  1.00  0.00    -0.550 OA
ENDBRANCH  10  11
ENDBRANCH   9  10
ENDBRANCH   8   9
ENDBRANCH   1   8
TORSDOF 8
ENDMDL
MODEL 6
REMARK VINA RESULT:    -4.828      1.261      6.193
REMARK INTER + INTRA:          -7.518
REMARK INTER:                  -7.155
REMARK INTRA:                  -0.363
REMARK UNBOUND:                -0.432
REMARK SMILES O=C([O-])CCCCCCCC(=O)[O-]
REMARK SMILES IDX 7 1 6 2 5 3 4 4 2 5 1 6 3 7 8 8 9 9 10 10 11 11 12 12 13 13
REMARK H PARENT
REMARK Flexibility Score: inf
ROOT
ATOM      1  C   UNL     1       4.884 -35.522  20.270  1.00  0.00     0.000 C 
ENDROOT
BRANCH   1   2
ATOM      2  C   UNL     1       4.235 -34.371  21.054  1.00  0.00     0.000 C 
BRANCH   2   3
ATOM      3  C   UNL     1       4.780 -34.251  22.488  1.00  0.00     0.006 C 
BRANCH   3   4
ATOM      4  C   UNL     1       5.777 -35.368  22.824  1.00  0.00     0.053 C 
BRANCH   4   5
ATOM      5  C   UNL     1       5.186 -36.384  23.752  1.00  0.00     0.041 C 
ATOM      6  O   UNL     1       5.149 -36.165  24.991  1.00  0.00    -0.550 OA
ATOM      7  O   UNL     1       4.649 -37.561  23.245  1.00  0.00    -0.550 OA
ENDBRANCH   4   5
ENDBRANCH   3   4
ENDBRANCH   2   3
ENDBRANCH   1   2
BRANCH   1   8
ATOM      8  C   UNL     1       4.167 -35.811  18.939  1.00  0.00     0.000 C 
BRANCH   8   9
ATOM      9  C   UNL     1       3.626 -37.247  18.860  1.00  0.00     0.006 C 
BRANCH   9  10
ATOM     10  C   UNL     1       2.289 -37.333  18.114  1.00  0.00     0.053 C 
BRANCH  10  11
ATOM     11  C   UNL     1       2.471 -36.969  16.673  1.00  0.00     0.041 C 
ATOM     12  O   UNL     1       3.230 -37.653  15.938  1.00  0.00    -0.550 OA
ATOM     13  O   UNL     1       1.841 -35.844  16.156  1.00  0.00    -0.550 OA
ENDBRANCH  10  11
ENDBRANCH   9  10
ENDBRANCH   8   9
ENDBRANCH   1   8
TORSDOF 8
ENDMDL
MODEL 7
REMARK VINA RESULT:    -4.726      2.345      3.004
REMARK INTER + INTRA:          -7.368
REMARK INTER:                  -6.876
REMARK INTRA:                  -0.492
REMARK UNBOUND:                -0.432
REMARK SMILES O=C([O-])CCCCCCCC(=O)[O-]
REMARK SMILES IDX 7 1 6 2 5 3 4 4 2 5 1 6 3 7 8 8 9 9 10 10 11 11 12 12 13 13
REMARK H PARENT
REMARK Flexibility Score: inf
ROOT
ATOM      1  C   UNL     1       4.789 -37.725  22.264  1.00  0.00     0.000 C 
ENDROOT
BRANCH   1   2
ATOM      2  C   UNL     1       5.025 -37.317  20.801  1.00  0.00     0.000 C 
BRANCH   2   3
ATOM      3  C   UNL     1       3.812 -37.615  19.902  1.00  0.00     0.006 C 
BRANCH   3   4
ATOM      4  C   UNL     1       3.772 -36.709  18.664  1.00  0.00     0.053 C 
BRANCH   4   5
ATOM      5  C   UNL     1       2.676 -37.099  17.721  1.00  0.00     0.041 C 
ATOM      6  O   UNL     1       2.926 -37.283  16.500  1.00  0.00    -0.550 OA
ATOM      7  O   UNL     1       1.384 -37.289  18.195  1.00  0.00    -0.550 OA
ENDBRANCH   4   5
ENDBRANCH   3   4
ENDBRANCH   2   3
ENDBRANCH   1   2
BRANCH   1   8
ATOM      8  C   UNL     1       4.999 -36.558  23.245  1.00  0.00     0.000 C 
BRANCH   8   9
ATOM      9  C   UNL     1       5.796 -35.400  22.623  1.00  0.00     0.006 C 
BRANCH   9  10
ATOM     10  C   UNL     1       5.053 -34.060  22.709  1.00  0.00     0.053 C 
BRANCH  10  11
ATOM     11  C   UNL     1       4.352 -33.769  21.420  1.00  0.00     0.041 C 
ATOM     12  O   UNL     1       4.941 -33.952  20.322  1.00  0.00    -0.550 OA
ATOM     13  O   UNL     1       3.064 -33.247  21.432  1.00  0.00    -0.550 OA
ENDBRANCH  10  11
ENDBRANCH   9  10
ENDBRANCH   8   9
ENDBRANCH   1   8
TORSDOF 8
ENDMDL
MODEL 8
REMARK VINA RESULT:    -4.653      2.756      3.843
REMARK INTER + INTRA:          -7.261
REMARK INTER:                  -6.941
REMARK INTRA:                  -0.320
REMARK UNBOUND:                -0.432
REMARK SMILES O=C([O-])CCCCCCCC(=O)[O-]
REMARK SMILES IDX 7 1 6 2 5 3 4 4 2 5 1 6 3 7 8 8 9 9 10 10 11 11 12 12 13 13
REMARK H PARENT
REMARK Flexibility Score: inf
ROOT
ATOM      1  C   UNL     1       4.236 -36.762  19.176  1.00  0.00     0.000 C 
ENDROOT
BRANCH   1   2
ATOM      2  C   UNL     1       2.785 -37.220  18.960  1.00  0.00     0.000 C 
BRANCH   2   3
ATOM      3  C   UNL     1       2.470 -37.512  17.482  1.00  0.00     0.006 C 
BRANCH   3   4
ATOM      4  C   UNL     1       2.972 -36.400  16.553  1.00  0.00     0.053 C 
BRANCH   4   5
ATOM      5  C   UNL     1       2.967 -36.827  15.117  1.00  0.00     0.041 C 
ATOM      6  O   UNL     1       2.240 -36.229  14.280  1.00  0.00    -0.550 OA
ATOM      7  O   UNL     1       3.788 -37.866  14.697  1.00  0.00    -0.550 OA
ENDBRANCH   4   5
ENDBRANCH   3   4
ENDBRANCH   2   3
ENDBRANCH   1   2
BRANCH   1   8
ATOM      8  C   UNL     1       4.761 -37.100  20.582  1.00  0.00     0.000 C 
BRANCH   8   9
ATOM      9  C   UNL     1       5.454 -35.906  21.256  1.00  0.00     0.006 C 
BRANCH   9  10
ATOM     10  C   UNL     1       5.016 -34.560  20.665  1.00  0.00     0.053 C 
BRANCH  10  11
ATOM     11  C   UNL     1       4.366 -33.715  21.715  1.00  0.00     0.041 C 
ATOM     12  O   UNL     1       3.266 -33.150  21.482  1.00  0.00    -0.550 OA
ATOM     13  O   UNL     1       5.002 -33.510  22.933  1.00  0.00    -0.550 OA
ENDBRANCH  10  11
ENDBRANCH   9  10
ENDBRANCH   8   9
ENDBRANCH   1   8
TORSDOF 8
ENDMDL
MODEL 9
REMARK VINA RESULT:    -4.290      2.033      2.943
REMARK INTER + INTRA:          -6.728
REMARK INTER:                  -6.345
REMARK INTRA:                  -0.383
REMARK UNBOUND:                -0.432
REMARK SMILES O=C([O-])CCCCCCCC(=O)[O-]
REMARK SMILES IDX 7 1 6 2 5 3 4 4 2 5 1 6 3 7 8 8 9 9 10 10 11 11 12 12 13 13
REMARK H PARENT
REMARK Flexibility Score: inf
ROOT
ATOM      1  C   UNL     1       4.386 -38.257  21.661  1.00  0.00     0.000 C 
ENDROOT
BRANCH   1   2
ATOM      2  C   UNL     1       4.820 -37.807  20.257  1.00  0.00     0.000 C 
BRANCH   2   3
ATOM      3  C   UNL     1       3.875 -36.751  19.657  1.00  0.00     0.006 C 
BRANCH   3   4
ATOM      4  C   UNL     1       3.642 -36.968  18.156  1.00  0.00     0.053 C 
BRANCH   4   5
ATOM      5  C   UNL     1       2.196 -37.199  17.842  1.00  0.00     0.041 C 
ATOM      6  O   UNL     1       1.428 -37.684  18.714  1.00  0.00    -0.550 OA
ATOM      7  O   UNL     1       1.690 -36.849  16.596  1.00  0.00    -0.550 OA
ENDBRANCH   4   5
ENDBRANCH   3   4
ENDBRANCH   2   3
ENDBRANCH   1   2
BRANCH   1   8
ATOM      8  C   UNL     1       5.384 -37.834  22.753  1.00  0.00     0.000 C 
BRANCH   8   9
ATOM      9  C   UNL     1       4.882 -36.639  23.580  1.00  0.00     0.006 C 
BRANCH   9  10
ATOM     10  C   UNL     1       6.020 -35.711  24.024  1.00  0.00     0.053 C 
BRANCH  10  11
ATOM     11  C   UNL     1       6.096 -34.514  23.129  1.00  0.00     0.041 C 
ATOM     12  O   UNL     1       6.125 -33.356  23.621  1.00  0.00    -0.550 OA
ATOM     13  O   UNL     1       6.084 -34.677  21.749  1.00  0.00    -0.550 OA
ENDBRANCH  10  11
ENDBRANCH   9  10
ENDBRANCH   8   9
ENDBRANCH   1   8
TORSDOF 8
ENDMDL
