MODEL 1
REMARK VINA RESULT:    -3.965      0.000      0.000
REMARK INTER + INTRA:          -8.908
REMARK INTER:                  -6.978
REMARK INTRA:                  -1.930
REMARK UNBOUND:                -1.930
REMARK SMILES CCCCCCCCCCCCCCC(=O)[O-]
REMARK SMILES IDX 9 1 10 2 11 3 12 4 13 5 14 6 15 7 16 8 17 9 8 10 7 11 6 12
REMARK SMILES IDX 5 13 4 14 3 15 2 16 1 17
REMARK H PARENT
REMARK Flexibility Score: inf
ROOT
ATOM      1  C   UNL     1      19.665  49.525  40.465  1.00  0.00     0.000 C 
ENDROOT
BRANCH   1   2
ATOM      2  C   UNL     1      18.479  49.834  39.540  1.00  0.00     0.000 C 
BRANCH   2   3
ATOM      3  C   UNL     1      17.675  51.066  39.991  1.00  0.00     0.000 C 
BRANCH   3   4
ATOM      4  C   UNL     1      16.509  51.455  39.062  1.00  0.00     0.000 C 
BRANCH   4   5
ATOM      5  C   UNL     1      16.416  50.593  37.786  1.00  0.00     0.006 C 
BRANCH   5   6
ATOM      6  C   UNL     1      16.313  51.446  36.514  1.00  0.00     0.053 C 
BRANCH   6   7
ATOM      7  C   UNL     1      17.533  51.268  35.665  1.00  0.00     0.041 C 
ATOM      8  O   UNL     1      18.527  50.636  36.111  1.00  0.00    -0.550 OA
ATOM      9  O   UNL     1      17.591  51.840  34.401  1.00  0.00    -0.550 OA
ENDBRANCH   6   7
ENDBRANCH   5   6
ENDBRANCH   4   5
ENDBRANCH   3   4
ENDBRANCH   2   3
ENDBRANCH   1   2
BRANCH   1  10
ATOM     10  C   UNL     1      19.968  50.717  41.385  1.00  0.00     0.000 C 
BRANCH  10  11
ATOM     11  C   UNL     1      21.418  51.210  41.252  1.00  0.00    -0.000 C 
BRANCH  11  12
ATOM     12  C   UNL     1      22.182  50.502  40.120  1.00  0.00    -0.000 C 
BRANCH  12  13
ATOM     13  C   UNL     1      23.276  51.385  39.494  1.00  0.00    -0.000 C 
BRANCH  13  14
ATOM     14  C   UNL     1      22.762  52.464  38.522  1.00  0.00    -0.000 C 
BRANCH  14  15
ATOM     15  C   UNL     1      21.628  51.962  37.615  1.00  0.00    -0.000 C 
BRANCH  15  16
ATOM     16  C   UNL     1      20.623  53.082  37.323  1.00  0.00    -0.003 C 
ATOM     17  C   UNL     1      19.903  53.521  38.594  1.00  0.00     0.004 C 
ENDBRANCH  15  16
ENDBRANCH  14  15
ENDBRANCH  13  14
ENDBRANCH  12  13
ENDBRANCH  11  12
ENDBRANCH  10  11
ENDBRANCH   1  10
TORSDOF 13
ENDMDL
MODEL 2
REMARK VINA RESULT:    -3.960     14.443     16.088
REMARK INTER + INTRA:          -8.899
REMARK INTER:                  -7.031
REMARK INTRA:                  -1.868
REMARK UNBOUND:                -1.930
REMARK SMILES CCCCCCCCCCCCCCC(=O)[O-]
REMARK SMILES IDX 9 1 10 2 11 3 12 4 13 5 14 6 15 7 16 8 17 9 8 10 7 11 6 12
REMARK SMILES IDX 5 13 4 14 3 15 2 16 1 17
REMARK H PARENT
REMARK Flexibility Score: inf
ROOT
ATOM      1  C   UNL     1      26.638  60.077  26.499  1.00  0.00     0.000 C 
ENDROOT
BRANCH   1   2
ATOM      2  C   UNL     1      26.532  59.008  25.401  1.00  0.00     0.000 C 
BRANCH   2   3
ATOM      3  C   UNL     1      27.332  57.736  25.728  1.00  0.00     0.000 C 
BRANCH   3   4
ATOM      4  C   UNL     1      26.663  56.419  25.289  1.00  0.00     0.000 C 
BRANCH   4   5
ATOM      5  C   UNL     1      25.243  56.603  24.715  1.00  0.00     0.006 C 
BRANCH   5   6
ATOM      6  C   UNL     1      24.182  55.857  25.536  1.00  0.00     0.053 C 
BRANCH   6   7
ATOM      7  C   UNL     1      22.897  55.773  24.774  1.00  0.00     0.041 C 
ATOM      8  O   UNL     1      21.801  55.680  25.389  1.00  0.00    -0.550 OA
ATOM      9  O   UNL     1      22.911  55.748  23.385  1.00  0.00    -0.550 OA
ENDBRANCH   6   7
ENDBRANCH   5   6
ENDBRANCH   4   5
ENDBRANCH   3   4
ENDBRANCH   2   3
ENDBRANCH   1   2
BRANCH   1  10
ATOM     10  C   UNL     1      26.925  61.459  25.891  1.00  0.00     0.000 C 
BRANCH  10  11
ATOM     11  C   UNL     1      26.132  62.581  26.580  1.00  0.00    -0.000 C 
BRANCH  11  12
ATOM     12  C   UNL     1      25.362  62.088  27.817  1.00  0.00    -0.000 C 
BRANCH  12  13
ATOM     13  C   UNL     1      23.878  62.498  27.800  1.00  0.00    -0.000 C 
BRANCH  13  14
ATOM     14  C   UNL     1      22.915  61.427  27.256  1.00  0.00    -0.000 C 
BRANCH  14  15
ATOM     15  C   UNL     1      23.173  60.033  27.847  1.00  0.00    -0.000 C 
BRANCH  15  16
ATOM     16  C   UNL     1      22.924  58.940  26.801  1.00  0.00    -0.003 C 
ATOM     17  C   UNL     1      22.886  59.524  25.393  1.00  0.00     0.004 C 
ENDBRANCH  15  16
ENDBRANCH  14  15
ENDBRANCH  13  14
ENDBRANCH  12  13
ENDBRANCH  11  12
ENDBRANCH  10  11
ENDBRANCH   1  10
TORSDOF 13
ENDMDL
MODEL 3
REMARK VINA RESULT:    -3.931      2.414      4.170
REMARK INTER + INTRA:          -8.849
REMARK INTER:                  -6.728
REMARK INTRA:                  -2.121
REMARK UNBOUND:                -1.930
REMARK SMILES CCCCCCCCCCCCCCC(=O)[O-]
REMARK SMILES IDX 9 1 10 2 11 3 12 4 13 5 14 6 15 7 16 8 17 9 8 10 7 11 6 12
REMARK SMILES IDX 5 13 4 14 3 15 2 16 1 17
REMARK H PARENT
REMARK Flexibility Score: inf
ROOT
ATOM      1  C   UNL     1      20.206  53.543  38.611  1.00  0.00     0.000 C 
ENDROOT
BRANCH   1   2
ATOM      2  C   UNL     1      20.361  53.059  37.161  1.00  0.00     0.000 C 
BRANCH   2   3
ATOM      3  C   UNL     1      19.252  52.082  36.736  1.00  0.00     0.000 C 
BRANCH   3   4
ATOM      4  C   UNL     1      19.722  50.918  35.842  1.00  0.00     0.000 C 
BRANCH   4   5
ATOM      5  C   UNL     1      20.985  50.202  36.365  1.00  0.00     0.006 C 
BRANCH   5   6
ATOM      6  C   UNL     1      20.973  48.699  36.055  1.00  0.00     0.053 C 
BRANCH   6   7
ATOM      7  C   UNL     1      21.751  48.416  34.809  1.00  0.00     0.041 C 
ATOM      8  O   UNL     1      22.967  48.094  34.882  1.00  0.00    -0.550 OA
ATOM      9  O   UNL     1      21.149  48.555  33.565  1.00  0.00    -0.550 OA
ENDBRANCH   6   7
ENDBRANCH   5   6
ENDBRANCH   4   5
ENDBRANCH   3   4
ENDBRANCH   2   3
ENDBRANCH   1   2
BRANCH   1  10
ATOM     10  C   UNL     1      21.520  53.375  39.388  1.00  0.00     0.000 C 
BRANCH  10  11
ATOM     11  C   UNL     1      22.503  52.423  38.685  1.00  0.00    -0.000 C 
BRANCH  11  12
ATOM     12  C   UNL     1      22.929  51.247  39.580  1.00  0.00    -0.000 C 
BRANCH  12  13
ATOM     13  C   UNL     1      21.814  50.790  40.537  1.00  0.00    -0.000 C 
BRANCH  13  14
ATOM     14  C   UNL     1      20.687  49.974  39.878  1.00  0.00    -0.000 C 
BRANCH  14  15
ATOM     15  C   UNL     1      19.352  50.078  40.631  1.00  0.00    -0.000 C 
BRANCH  15  16
ATOM     16  C   UNL     1      18.177  50.189  39.652  1.00  0.00    -0.003 C 
ATOM     17  C   UNL     1      17.369  51.458  39.904  1.00  0.00     0.004 C 
ENDBRANCH  15  16
ENDBRANCH  14  15
ENDBRANCH  13  14
ENDBRANCH  12  13
ENDBRANCH  11  12
ENDBRANCH  10  11
ENDBRANCH   1  10
TORSDOF 13
ENDMDL
MODEL 4
REMARK VINA RESULT:    -3.917     14.206     16.116
REMARK INTER + INTRA:          -8.824
REMARK INTER:                  -6.702
REMARK INTRA:                  -2.122
REMARK UNBOUND:                -1.930
REMARK SMILES CCCCCCCCCCCCCCC(=O)[O-]
REMARK SMILES IDX 9 1 10 2 11 3 12 4 13 5 14 6 15 7 16 8 17 9 8 10 7 11 6 12
REMARK SMILES IDX 5 13 4 14 3 15 2 16 1 17
REMARK H PARENT
REMARK Flexibility Score: inf
ROOT
ATOM      1  C   UNL     1      26.240  60.127  24.852  1.00  0.00     0.000 C 
ENDROOT
BRANCH   1   2
ATOM      2  C   UNL     1      26.149  58.976  25.864  1.00  0.00     0.000 C 
BRANCH   2   3
ATOM      3  C   UNL     1      27.082  57.803  25.520  1.00  0.00     0.000 C 
BRANCH   3   4
ATOM      4  C   UNL     1      26.364  56.489  25.156  1.00  0.00     0.000 C 
BRANCH   4   5
ATOM      5  C   UNL     1      24.872  56.671  24.804  1.00  0.00     0.006 C 
BRANCH   5   6
ATOM      6  C   UNL     1      23.949  55.921  25.775  1.00  0.00     0.053 C 
BRANCH   6   7
ATOM      7  C   UNL     1      22.711  55.464  25.070  1.00  0.00     0.041 C 
ATOM      8  O   UNL     1      22.583  55.650  23.832  1.00  0.00    -0.550 OA
ATOM      9  O   UNL     1      21.678  54.876  25.789  1.00  0.00    -0.550 OA
ENDBRANCH   6   7
ENDBRANCH   5   6
ENDBRANCH   4   5
ENDBRANCH   3   4
ENDBRANCH   2   3
ENDBRANCH   1   2
BRANCH   1  10
ATOM     10  C   UNL     1      25.084  60.062  23.842  1.00  0.00     0.000 C 
BRANCH  10  11
ATOM     11  C   UNL     1      23.798  60.712  24.377  1.00  0.00    -0.000 C 
BRANCH  11  12
ATOM     12  C   UNL     1      22.644  59.705  24.524  1.00  0.00    -0.000 C 
BRANCH  12  13
ATOM     13  C   UNL     1      22.403  59.283  25.984  1.00  0.00    -0.000 C 
BRANCH  13  14
ATOM     14  C   UNL     1      22.544  60.415  27.019  1.00  0.00    -0.000 C 
BRANCH  14  15
ATOM     15  C   UNL     1      23.506  60.065  28.164  1.00  0.00    -0.000 C 
BRANCH  15  16
ATOM     16  C   UNL     1      24.523  61.189  28.389  1.00  0.00    -0.003 C 
ATOM     17  C   UNL     1      24.097  62.468  27.676  1.00  0.00     0.004 C 
ENDBRANCH  15  16
ENDBRANCH  14  15
ENDBRANCH  13  14
ENDBRANCH  12  13
ENDBRANCH  11  12
ENDBRANCH  10  11
ENDBRANCH   1  10
TORSDOF 13
ENDMDL
MODEL 5
REMARK VINA RESULT:    -3.854      8.096     10.951
REMARK INTER + INTRA:          -8.713
REMARK INTER:                  -6.568
REMARK INTRA:                  -2.145
REMARK UNBOUND:                -1.930
REMARK SMILES CCCCCCCCCCCCCCC(=O)[O-]
REMARK SMILES IDX 9 1 10 2 11 3 12 4 13 5 14 6 15 7 16 8 17 9 8 10 7 11 6 12
REMARK SMILES IDX 5 13 4 14 3 15 2 16 1 17
REMARK H PARENT
REMARK Flexibility Score: inf
ROOT
ATOM      1  C   UNL     1      18.248  50.829  28.247  1.00  0.00     0.000 C 
ENDROOT
BRANCH   1   2
ATOM      2  C   UNL     1      18.182  52.087  27.369  1.00  0.00     0.000 C 
BRANCH   2   3
ATOM      3  C   UNL     1      17.117  51.989  26.264  1.00  0.00     0.000 C 
BRANCH   3   4
ATOM      4  C   UNL     1      15.903  51.105  26.610  1.00  0.00     0.000 C 
BRANCH   4   5
ATOM      5  C   UNL     1      14.586  51.572  25.955  1.00  0.00     0.006 C 
BRANCH   5   6
ATOM      6  C   UNL     1      13.424  51.623  26.957  1.00  0.00     0.053 C 
BRANCH   6   7
ATOM      7  C   UNL     1      12.866  53.009  27.038  1.00  0.00     0.041 C 
ATOM      8  O   UNL     1      12.422  53.450  28.131  1.00  0.00    -0.550 OA
ATOM      9  O   UNL     1      12.791  53.797  25.896  1.00  0.00    -0.550 OA
ENDBRANCH   6   7
ENDBRANCH   5   6
ENDBRANCH   4   5
ENDBRANCH   3   4
ENDBRANCH   2   3
ENDBRANCH   1   2
BRANCH   1  10
ATOM     10  C   UNL     1      19.459  50.883  29.191  1.00  0.00     0.000 C 
BRANCH  10  11
ATOM     11  C   UNL     1      19.186  51.717  30.453  1.00  0.00    -0.000 C 
BRANCH  11  12
ATOM     12  C   UNL     1      18.415  50.930  31.527  1.00  0.00    -0.000 C 
BRANCH  12  13
ATOM     13  C   UNL     1      17.055  51.563  31.870  1.00  0.00    -0.000 C 
BRANCH  13  14
ATOM     14  C   UNL     1      15.844  50.916  31.174  1.00  0.00    -0.000 C 
BRANCH  14  15
ATOM     15  C   UNL     1      15.137  51.865  30.195  1.00  0.00    -0.000 C 
BRANCH  15  16
ATOM     16  C   UNL     1      15.478  53.327  30.506  1.00  0.00    -0.003 C 
ATOM     17  C   UNL     1      15.729  54.118  29.227  1.00  0.00     0.004 C 
ENDBRANCH  15  16
ENDBRANCH  14  15
ENDBRANCH  13  14
ENDBRANCH  12  13
ENDBRANCH  11  12
ENDBRANCH  10  11
ENDBRANCH   1  10
TORSDOF 13
ENDMDL
MODEL 6
REMARK VINA RESULT:    -3.849      2.932      5.850
REMARK INTER + INTRA:          -8.704
REMARK INTER:                  -6.688
REMARK INTRA:                  -2.016
REMARK UNBOUND:                -1.930
REMARK SMILES CCCCCCCCCCCCCCC(=O)[O-]
REMARK SMILES IDX 9 1 10 2 11 3 12 4 13 5 14 6 15 7 16 8 17 9 8 10 7 11 6 12
REMARK SMILES IDX 5 13 4 14 3 15 2 16 1 17
REMARK H PARENT
REMARK Flexibility Score: inf
ROOT
ATOM      1  C   UNL     1      21.723  51.993  37.534  1.00  0.00     0.000 C 
ENDROOT
BRANCH   1   2
ATOM      2  C   UNL     1      22.649  51.840  38.750  1.00  0.00     0.000 C 
BRANCH   2   3
ATOM      3  C   UNL     1      22.476  50.491  39.466  1.00  0.00     0.000 C 
BRANCH   3   4
ATOM      4  C   UNL     1      21.079  50.252  40.071  1.00  0.00     0.000 C 
BRANCH   4   5
ATOM      5  C   UNL     1      20.959  50.678  41.549  1.00  0.00     0.006 C 
BRANCH   5   6
ATOM      6  C   UNL     1      20.320  52.064  41.706  1.00  0.00     0.053 C 
BRANCH   6   7
ATOM      7  C   UNL     1      21.374  53.102  41.931  1.00  0.00     0.041 C 
ATOM      8  O   UNL     1      21.160  54.301  41.611  1.00  0.00    -0.550 OA
ATOM      9  O   UNL     1      22.610  52.738  42.451  1.00  0.00    -0.550 OA
ENDBRANCH   6   7
ENDBRANCH   5   6
ENDBRANCH   4   5
ENDBRANCH   3   4
ENDBRANCH   2   3
ENDBRANCH   1   2
BRANCH   1  10
ATOM     10  C   UNL     1      21.001  53.348  37.563  1.00  0.00     0.000 C 
BRANCH  10  11
ATOM     11  C   UNL     1      19.686  53.299  38.358  1.00  0.00    -0.000 C 
BRANCH  11  12
ATOM     12  C   UNL     1      18.783  52.127  37.936  1.00  0.00    -0.000 C 
BRANCH  12  13
ATOM     13  C   UNL     1      17.765  51.736  39.022  1.00  0.00    -0.000 C 
BRANCH  13  14
ATOM     14  C   UNL     1      17.460  50.229  39.112  1.00  0.00    -0.000 C 
BRANCH  14  15
ATOM     15  C   UNL     1      16.489  49.748  38.023  1.00  0.00    -0.000 C 
BRANCH  15  16
ATOM     16  C   UNL     1      17.015  48.480  37.341  1.00  0.00    -0.003 C 
ATOM     17  C   UNL     1      18.528  48.361  37.491  1.00  0.00     0.004 C 
ENDBRANCH  15  16
ENDBRANCH  14  15
ENDBRANCH  13  14
ENDBRANCH  12  13
ENDBRANCH  11  12
ENDBRANCH  10  11
ENDBRANCH   1  10
TORSDOF 13
ENDMDL
MODEL 7
REMARK VINA RESULT:    -3.848      8.274     10.264
REMARK INTER + INTRA:          -8.703
REMARK INTER:                  -6.608
REMARK INTRA:                  -2.095
REMARK UNBOUND:                -1.930
REMARK SMILES CCCCCCCCCCCCCCC(=O)[O-]
REMARK SMILES IDX 9 1 10 2 11 3 12 4 13 5 14 6 15 7 16 8 17 9 8 10 7 11 6 12
REMARK SMILES IDX 5 13 4 14 3 15 2 16 1 17
REMARK H PARENT
REMARK Flexibility Score: inf
ROOT
ATOM      1  C   UNL     1      15.956  50.953  30.953  1.00  0.00     0.000 C 
ENDROOT
BRANCH   1   2
ATOM      2  C   UNL     1      16.494  52.325  31.384  1.00  0.00     0.000 C 
BRANCH   2   3
ATOM      3  C   UNL     1      15.732  53.495  30.739  1.00  0.00     0.000 C 
BRANCH   3   4
ATOM      4  C   UNL     1      14.435  53.099  30.007  1.00  0.00     0.000 C 
BRANCH   4   5
ATOM      5  C   UNL     1      14.131  53.966  28.768  1.00  0.00     0.006 C 
BRANCH   5   6
ATOM      6  C   UNL     1      12.794  53.594  28.111  1.00  0.00     0.053 C 
BRANCH   6   7
ATOM      7  C   UNL     1      13.020  52.681  26.947  1.00  0.00     0.041 C 
ATOM      8  O   UNL     1      13.338  53.154  25.824  1.00  0.00    -0.550 OA
ATOM      9  O   UNL     1      12.833  51.312  27.089  1.00  0.00    -0.550 OA
ENDBRANCH   6   7
ENDBRANCH   5   6
ENDBRANCH   4   5
ENDBRANCH   3   4
ENDBRANCH   2   3
ENDBRANCH   1   2
BRANCH   1  10
ATOM     10  C   UNL     1      17.106  49.965  30.711  1.00  0.00     0.000 C 
BRANCH  10  11
ATOM     11  C   UNL     1      18.334  50.264  31.586  1.00  0.00    -0.000 C 
BRANCH  11  12
ATOM     12  C   UNL     1      19.627  50.400  30.764  1.00  0.00    -0.000 C 
BRANCH  12  13
ATOM     13  C   UNL     1      19.363  50.534  29.254  1.00  0.00    -0.000 C 
BRANCH  13  14
ATOM     14  C   UNL     1      19.274  51.982  28.736  1.00  0.00    -0.000 C 
BRANCH  14  15
ATOM     15  C   UNL     1      18.629  52.083  27.346  1.00  0.00    -0.000 C 
BRANCH  15  16
ATOM     16  C   UNL     1      17.113  52.285  27.458  1.00  0.00    -0.003 C 
ATOM     17  C   UNL     1      16.361  50.996  27.141  1.00  0.00     0.004 C 
ENDBRANCH  15  16
ENDBRANCH  14  15
ENDBRANCH  13  14
ENDBRANCH  12  13
ENDBRANCH  11  12
ENDBRANCH  10  11
ENDBRANCH   1  10
TORSDOF 13
ENDMDL
MODEL 8
REMARK VINA RESULT:    -3.827      7.889     11.949
REMARK INTER + INTRA:          -8.666
REMARK INTER:                  -6.603
REMARK INTRA:                  -2.063
REMARK UNBOUND:                -1.930
REMARK SMILES CCCCCCCCCCCCCCC(=O)[O-]
REMARK SMILES IDX 9 1 10 2 11 3 12 4 13 5 14 6 15 7 16 8 17 9 8 10 7 11 6 12
REMARK SMILES IDX 5 13 4 14 3 15 2 16 1 17
REMARK H PARENT
REMARK Flexibility Score: inf
ROOT
ATOM      1  C   UNL     1      17.066  52.093  26.234  1.00  0.00     0.000 C 
ENDROOT
BRANCH   1   2
ATOM      2  C   UNL     1      16.556  50.790  26.868  1.00  0.00     0.000 C 
BRANCH   2   3
ATOM      3  C   UNL     1      16.965  50.644  28.343  1.00  0.00     0.000 C 
BRANCH   3   4
ATOM      4  C   UNL     1      18.248  49.823  28.581  1.00  0.00     0.000 C 
BRANCH   4   5
ATOM      5  C   UNL     1      19.513  50.687  28.769  1.00  0.00     0.006 C 
BRANCH   5   6
ATOM      6  C   UNL     1      19.293  51.832  29.767  1.00  0.00     0.053 C 
BRANCH   6   7
ATOM      7  C   UNL     1      19.364  51.321  31.172  1.00  0.00     0.041 C 
ATOM      8  O   UNL     1      20.454  50.893  31.635  1.00  0.00    -0.550 OA
ATOM      9  O   UNL     1      18.217  51.274  31.954  1.00  0.00    -0.550 OA
ENDBRANCH   6   7
ENDBRANCH   5   6
ENDBRANCH   4   5
ENDBRANCH   3   4
ENDBRANCH   2   3
ENDBRANCH   1   2
BRANCH   1  10
ATOM     10  C   UNL     1      15.955  52.782  25.427  1.00  0.00     0.000 C 
BRANCH  10  11
ATOM     11  C   UNL     1      14.598  52.073  25.569  1.00  0.00    -0.000 C 
BRANCH  11  12
ATOM     12  C   UNL     1      13.469  53.035  25.979  1.00  0.00    -0.000 C 
BRANCH  12  13
ATOM     13  C   UNL     1      12.829  52.663  27.329  1.00  0.00    -0.000 C 
BRANCH  13  14
ATOM     14  C   UNL     1      13.768  52.773  28.544  1.00  0.00    -0.000 C 
BRANCH  14  15
ATOM     15  C   UNL     1      14.385  54.171  28.702  1.00  0.00    -0.000 C 
BRANCH  15  16
ATOM     16  C   UNL     1      15.782  54.086  29.329  1.00  0.00    -0.003 C 
ATOM     17  C   UNL     1      15.735  53.393  30.686  1.00  0.00     0.004 C 
ENDBRANCH  15  16
ENDBRANCH  14  15
ENDBRANCH  13  14
ENDBRANCH  12  13
ENDBRANCH  11  12
ENDBRANCH  10  11
ENDBRANCH   1  10
TORSDOF 13
ENDMDL
MODEL 9
REMARK VINA RESULT:    -3.805      9.050     11.682
REMARK INTER + INTRA:          -8.626
REMARK INTER:                  -6.708
REMARK INTRA:                  -1.918
REMARK UNBOUND:                -1.930
REMARK SMILES CCCCCCCCCCCCCCC(=O)[O-]
REMARK SMILES IDX 9 1 10 2 11 3 12 4 13 5 14 6 15 7 16 8 17 9 8 10 7 11 6 12
REMARK SMILES IDX 5 13 4 14 3 15 2 16 1 17
REMARK H PARENT
REMARK Flexibility Score: inf
ROOT
ATOM      1  C   UNL     1      15.397  53.552  31.048  1.00  0.00     0.000 C 
ENDROOT
BRANCH   1   2
ATOM      2  C   UNL     1      15.680  54.387  29.791  1.00  0.00     0.000 C 
BRANCH   2   3
ATOM      3  C   UNL     1      14.503  54.394  28.802  1.00  0.00     0.000 C 
BRANCH   3   4
ATOM      4  C   UNL     1      13.608  53.140  28.849  1.00  0.00     0.000 C 
BRANCH   4   5
ATOM      5  C   UNL     1      12.447  53.166  27.834  1.00  0.00     0.006 C 
BRANCH   5   6
ATOM      6  C   UNL     1      12.879  52.683  26.442  1.00  0.00     0.053 C 
BRANCH   6   7
ATOM      7  C   UNL     1      12.887  53.823  25.473  1.00  0.00     0.041 C 
ATOM      8  O   UNL     1      11.845  54.114  24.830  1.00  0.00    -0.550 OA
ATOM      9  O   UNL     1      14.059  54.534  25.245  1.00  0.00    -0.550 OA
ENDBRANCH   6   7
ENDBRANCH   5   6
ENDBRANCH   4   5
ENDBRANCH   3   4
ENDBRANCH   2   3
ENDBRANCH   1   2
BRANCH   1  10
ATOM     10  C   UNL     1      16.613  52.689  31.418  1.00  0.00     0.000 C 
BRANCH  10  11
ATOM     11  C   UNL     1      16.413  51.207  31.063  1.00  0.00    -0.000 C 
BRANCH  11  12
ATOM     12  C   UNL     1      16.539  50.937  29.554  1.00  0.00    -0.000 C 
BRANCH  12  13
ATOM     13  C   UNL     1      17.916  51.330  28.990  1.00  0.00    -0.000 C 
BRANCH  13  14
ATOM     14  C   UNL     1      17.956  51.541  27.465  1.00  0.00    -0.000 C 
BRANCH  14  15
ATOM     15  C   UNL     1      16.674  52.183  26.914  1.00  0.00    -0.000 C 
BRANCH  15  16
ATOM     16  C   UNL     1      16.128  51.385  25.725  1.00  0.00    -0.003 C 
ATOM     17  C   UNL     1      16.339  49.887  25.923  1.00  0.00     0.004 C 
ENDBRANCH  15  16
ENDBRANCH  14  15
ENDBRANCH  13  14
ENDBRANCH  12  13
ENDBRANCH  11  12
ENDBRANCH  10  11
ENDBRANCH   1  10
TORSDOF 13
ENDMDL
