MODEL 1
REMARK VINA RESULT:    -3.197      0.000      0.000
REMARK INTER + INTRA:          -8.190
REMARK INTER:                  -6.187
REMARK INTRA:                  -2.003
REMARK UNBOUND:                -2.003
REMARK SMILES CCCCCCCCCCCCCCCCCC(=O)[O-]
REMARK SMILES IDX 10 1 11 2 12 3 13 4 14 5 15 6 16 7 17 8 18 9 19 10 20 11
REMARK SMILES IDX 9 12 8 13 7 14 6 15 5 16 4 17 3 18 2 19 1 20
REMARK H PARENT
REMARK Flexibility Score: inf
ROOT
ATOM      1  C   UNL     1       6.257 -20.119   4.919  1.00  0.00     0.000 C 
ENDROOT
BRANCH   1   2
ATOM      2  C   UNL     1       7.675 -19.916   4.346  1.00  0.00     0.000 C 
BRANCH   2   3
ATOM      3  C   UNL     1       7.746 -19.044   3.077  1.00  0.00     0.000 C 
BRANCH   3   4
ATOM      4  C   UNL     1       8.759 -17.883   3.138  1.00  0.00     0.000 C 
BRANCH   4   5
ATOM      5  C   UNL     1       9.666 -17.868   4.383  1.00  0.00     0.000 C 
BRANCH   5   6
ATOM      6  C   UNL     1       9.255 -16.800   5.409  1.00  0.00     0.000 C 
BRANCH   6   7
ATOM      7  C   UNL     1       9.037 -17.380   6.819  1.00  0.00     0.006 C 
BRANCH   7   8
ATOM      8  C   UNL     1       8.341 -16.424   7.801  1.00  0.00     0.053 C 
BRANCH   8   9
ATOM      9  C   UNL     1       8.659 -14.991   7.510  1.00  0.00     0.041 C 
ATOM     10  O   UNL     1       9.729 -14.480   7.936  1.00  0.00    -0.550 OA
ATOM     11  O   UNL     1       7.757 -14.207   6.802  1.00  0.00    -0.550 OA
ENDBRANCH   8   9
ENDBRANCH   7   8
ENDBRANCH   6   7
ENDBRANCH   5   6
ENDBRANCH   4   5
ENDBRANCH   3   4
ENDBRANCH   2   3
ENDBRANCH   1   2
BRANCH   1  12
ATOM     12  C   UNL     1       6.040 -19.541   6.329  1.00  0.00     0.000 C 
BRANCH  12  13
ATOM     13  C   UNL     1       4.585 -19.678   6.810  1.00  0.00    -0.000 C 
BRANCH  13  14
ATOM     14  C   UNL     1       3.925 -18.315   7.079  1.00  0.00    -0.000 C 
BRANCH  14  15
ATOM     15  C   UNL     1       2.805 -17.994   6.074  1.00  0.00    -0.000 C 
BRANCH  15  16
ATOM     16  C   UNL     1       2.411 -19.225   5.229  1.00  0.00    -0.000 C 
BRANCH  16  17
ATOM     17  C   UNL     1       1.952 -18.874   3.804  1.00  0.00    -0.000 C 
BRANCH  17  18
ATOM     18  C   UNL     1       2.829 -17.798   3.143  1.00  0.00    -0.000 C 
BRANCH  18  19
ATOM     19  C   UNL     1       4.002 -18.397   2.350  1.00  0.00    -0.003 C 
ATOM     20  C   UNL     1       3.648 -19.725   1.680  1.00  0.00     0.004 C 
ENDBRANCH  18  19
ENDBRANCH  17  18
ENDBRANCH  16  17
ENDBRANCH  15  16
ENDBRANCH  14  15
ENDBRANCH  13  14
ENDBRANCH  12  13
ENDBRANCH   1  12
TORSDOF 16
ENDMDL
MODEL 2
REMARK VINA RESULT:    -3.109      2.710      4.318
REMARK INTER + INTRA:          -8.019
REMARK INTER:                  -5.731
REMARK INTRA:                  -2.289
REMARK UNBOUND:                -2.003
REMARK SMILES CCCCCCCCCCCCCCCCCC(=O)[O-]
REMARK SMILES IDX 10 1 11 2 12 3 13 4 14 5 15 6 16 7 17 8 18 9 19 10 20 11
REMARK SMILES IDX 9 12 8 13 7 14 6 15 5 16 4 17 3 18 2 19 1 20
REMARK H PARENT
REMARK Flexibility Score: inf
ROOT
ATOM      1  C   UNL     1       5.606 -19.885   3.569  1.00  0.00     0.000 C 
ENDROOT
BRANCH   1   2
ATOM      2  C   UNL     1       5.958 -20.556   4.912  1.00  0.00     0.000 C 
BRANCH   2   3
ATOM      3  C   UNL     1       6.387 -19.587   6.031  1.00  0.00     0.000 C 
BRANCH   3   4
ATOM      4  C   UNL     1       7.899 -19.567   6.334  1.00  0.00     0.000 C 
BRANCH   4   5
ATOM      5  C   UNL     1       8.557 -18.175   6.294  1.00  0.00     0.000 C 
BRANCH   5   6
ATOM      6  C   UNL     1       9.736 -18.100   5.310  1.00  0.00     0.000 C 
BRANCH   6   7
ATOM      7  C   UNL     1       9.433 -17.220   4.083  1.00  0.00     0.006 C 
BRANCH   7   8
ATOM      8  C   UNL     1       8.607 -17.916   2.989  1.00  0.00     0.053 C 
BRANCH   8   9
ATOM      9  C   UNL     1       9.386 -18.991   2.296  1.00  0.00     0.041 C 
ATOM     10  O   UNL     1      10.383 -18.694   1.587  1.00  0.00    -0.550 OA
ATOM     11  O   UNL     1       8.987 -20.317   2.403  1.00  0.00    -0.550 OA
ENDBRANCH   8   9
ENDBRANCH   7   8
ENDBRANCH   6   7
ENDBRANCH   5   6
ENDBRANCH   4   5
ENDBRANCH   3   4
ENDBRANCH   2   3
ENDBRANCH   1   2
BRANCH   1  12
ATOM     12  C   UNL     1       4.672 -20.706   2.661  1.00  0.00     0.000 C 
BRANCH  12  13
ATOM     13  C   UNL     1       3.802 -19.823   1.749  1.00  0.00    -0.000 C 
BRANCH  13  14
ATOM     14  C   UNL     1       3.792 -18.351   2.194  1.00  0.00    -0.000 C 
BRANCH  14  15
ATOM     15  C   UNL     1       2.508 -17.973   2.953  1.00  0.00    -0.000 C 
BRANCH  15  16
ATOM     16  C   UNL     1       1.429 -19.072   2.854  1.00  0.00    -0.000 C 
BRANCH  16  17
ATOM     17  C   UNL     1       1.018 -19.659   4.215  1.00  0.00    -0.000 C 
BRANCH  17  18
ATOM     18  C   UNL     1       2.212 -19.855   5.164  1.00  0.00    -0.000 C 
BRANCH  18  19
ATOM     19  C   UNL     1       2.082 -19.031   6.455  1.00  0.00    -0.003 C 
ATOM     20  C   UNL     1       3.101 -17.894   6.538  1.00  0.00     0.004 C 
ENDBRANCH  18  19
ENDBRANCH  17  18
ENDBRANCH  16  17
ENDBRANCH  15  16
ENDBRANCH  14  15
ENDBRANCH  13  14
ENDBRANCH  12  13
ENDBRANCH   1  12
TORSDOF 16
ENDMDL
MODEL 3
REMARK VINA RESULT:    -3.107      2.268      3.654
REMARK INTER + INTRA:          -8.017
REMARK INTER:                  -6.424
REMARK INTRA:                  -1.593
REMARK UNBOUND:                -2.003
REMARK SMILES CCCCCCCCCCCCCCCCCC(=O)[O-]
REMARK SMILES IDX 10 1 11 2 12 3 13 4 14 5 15 6 16 7 17 8 18 9 19 10 20 11
REMARK SMILES IDX 9 12 8 13 7 14 6 15 5 16 4 17 3 18 2 19 1 20
REMARK H PARENT
REMARK Flexibility Score: inf
ROOT
ATOM      1  C   UNL     1       7.358 -18.380   7.323  1.00  0.00     0.000 C 
ENDROOT
BRANCH   1   2
ATOM      2  C   UNL     1       7.268 -16.932   7.847  1.00  0.00     0.000 C 
BRANCH   2   3
ATOM      3  C   UNL     1       8.400 -16.516   8.807  1.00  0.00     0.000 C 
BRANCH   3   4
ATOM      4  C   UNL     1       9.317 -15.390   8.287  1.00  0.00     0.000 C 
BRANCH   4   5
ATOM      5  C   UNL     1       9.277 -15.162   6.765  1.00  0.00     0.000 C 
BRANCH   5   6
ATOM      6  C   UNL     1      10.211 -16.110   5.994  1.00  0.00     0.000 C 
BRANCH   6   7
ATOM      7  C   UNL     1       9.671 -16.473   4.598  1.00  0.00     0.006 C 
BRANCH   7   8
ATOM      8  C   UNL     1       9.457 -17.978   4.370  1.00  0.00     0.053 C 
BRANCH   8   9
ATOM      9  C   UNL     1       8.919 -18.268   3.003  1.00  0.00     0.041 C 
ATOM     10  O   UNL     1       8.942 -17.379   2.111  1.00  0.00    -0.550 OA
ATOM     11  O   UNL     1       8.359 -19.508   2.724  1.00  0.00    -0.550 OA
ENDBRANCH   8   9
ENDBRANCH   7   8
ENDBRANCH   6   7
ENDBRANCH   5   6
ENDBRANCH   4   5
ENDBRANCH   3   4
ENDBRANCH   2   3
ENDBRANCH   1   2
BRANCH   1  12
ATOM     12  C   UNL     1       6.005 -19.029   6.981  1.00  0.00     0.000 C 
BRANCH  12  13
ATOM     13  C   UNL     1       4.810 -18.259   7.570  1.00  0.00    -0.000 C 
BRANCH  13  14
ATOM     14  C   UNL     1       3.460 -18.889   7.188  1.00  0.00    -0.000 C 
BRANCH  14  15
ATOM     15  C   UNL     1       2.849 -18.253   5.927  1.00  0.00    -0.000 C 
BRANCH  15  16
ATOM     16  C   UNL     1       1.861 -19.203   5.217  1.00  0.00    -0.000 C 
BRANCH  16  17
ATOM     17  C   UNL     1       1.898 -19.098   3.683  1.00  0.00    -0.000 C 
BRANCH  17  18
ATOM     18  C   UNL     1       2.752 -17.920   3.186  1.00  0.00    -0.000 C 
BRANCH  18  19
ATOM     19  C   UNL     1       3.915 -18.371   2.288  1.00  0.00    -0.003 C 
ATOM     20  C   UNL     1       4.802 -19.425   2.950  1.00  0.00     0.004 C 
ENDBRANCH  18  19
ENDBRANCH  17  18
ENDBRANCH  16  17
ENDBRANCH  15  16
ENDBRANCH  14  15
ENDBRANCH  13  14
ENDBRANCH  12  13
ENDBRANCH   1  12
TORSDOF 16
ENDMDL
MODEL 4
REMARK VINA RESULT:    -3.069      2.080      3.708
REMARK INTER + INTRA:          -7.942
REMARK INTER:                  -6.173
REMARK INTRA:                  -1.769
REMARK UNBOUND:                -2.003
REMARK SMILES CCCCCCCCCCCCCCCCCC(=O)[O-]
REMARK SMILES IDX 10 1 11 2 12 3 13 4 14 5 15 6 16 7 17 8 18 9 19 10 20 11
REMARK SMILES IDX 9 12 8 13 7 14 6 15 5 16 4 17 3 18 2 19 1 20
REMARK H PARENT
REMARK Flexibility Score: inf
ROOT
ATOM      1  C   UNL     1       4.712 -18.021   7.512  1.00  0.00     0.000 C 
ENDROOT
BRANCH   1   2
ATOM      2  C   UNL     1       5.692 -18.006   8.703  1.00  0.00     0.000 C 
BRANCH   2   3
ATOM      3  C   UNL     1       6.637 -16.789   8.752  1.00  0.00     0.000 C 
BRANCH   3   4
ATOM      4  C   UNL     1       7.638 -16.690   7.582  1.00  0.00     0.000 C 
BRANCH   4   5
ATOM      5  C   UNL     1       8.076 -15.261   7.214  1.00  0.00     0.000 C 
BRANCH   5   6
ATOM      6  C   UNL     1       9.512 -15.198   6.667  1.00  0.00     0.000 C 
BRANCH   6   7
ATOM      7  C   UNL     1       9.951 -16.511   5.993  1.00  0.00     0.006 C 
BRANCH   7   8
ATOM      8  C   UNL     1      10.111 -16.420   4.467  1.00  0.00     0.053 C 
BRANCH   8   9
ATOM      9  C   UNL     1       9.501 -17.595   3.767  1.00  0.00     0.041 C 
ATOM     10  O   UNL     1       9.491 -18.726   4.321  1.00  0.00    -0.550 OA
ATOM     11  O   UNL     1       8.979 -17.450   2.488  1.00  0.00    -0.550 OA
ENDBRANCH   8   9
ENDBRANCH   7   8
ENDBRANCH   6   7
ENDBRANCH   5   6
ENDBRANCH   4   5
ENDBRANCH   3   4
ENDBRANCH   2   3
ENDBRANCH   1   2
BRANCH   1  12
ATOM     12  C   UNL     1       4.581 -19.378   6.799  1.00  0.00     0.000 C 
BRANCH  12  13
ATOM     13  C   UNL     1       3.183 -19.600   6.195  1.00  0.00    -0.000 C 
BRANCH  13  14
ATOM     14  C   UNL     1       2.665 -18.363   5.445  1.00  0.00    -0.000 C 
BRANCH  14  15
ATOM     15  C   UNL     1       2.175 -18.696   4.024  1.00  0.00    -0.000 C 
BRANCH  15  16
ATOM     16  C   UNL     1       2.886 -17.846   2.950  1.00  0.00    -0.000 C 
BRANCH  16  17
ATOM     17  C   UNL     1       4.050 -18.574   2.256  1.00  0.00    -0.000 C 
BRANCH  17  18
ATOM     18  C   UNL     1       3.956 -20.104   2.384  1.00  0.00    -0.000 C 
BRANCH  18  19
ATOM     19  C   UNL     1       5.113 -20.700   3.202  1.00  0.00    -0.003 C 
ATOM     20  C   UNL     1       6.182 -19.667   3.558  1.00  0.00     0.004 C 
ENDBRANCH  18  19
ENDBRANCH  17  18
ENDBRANCH  16  17
ENDBRANCH  15  16
ENDBRANCH  14  15
ENDBRANCH  13  14
ENDBRANCH  12  13
ENDBRANCH   1  12
TORSDOF 16
ENDMDL
MODEL 5
REMARK VINA RESULT:    -3.063      2.113      4.089
REMARK INTER + INTRA:          -7.931
REMARK INTER:                  -5.899
REMARK INTRA:                  -2.032
REMARK UNBOUND:                -2.003
REMARK SMILES CCCCCCCCCCCCCCCCCC(=O)[O-]
REMARK SMILES IDX 10 1 11 2 12 3 13 4 14 5 15 6 16 7 17 8 18 9 19 10 20 11
REMARK SMILES IDX 9 12 8 13 7 14 6 15 5 16 4 17 3 18 2 19 1 20
REMARK H PARENT
REMARK Flexibility Score: inf
ROOT
ATOM      1  C   UNL     1       7.445 -18.103   9.850  1.00  0.00     0.000 C 
ENDROOT
BRANCH   1   2
ATOM      2  C   UNL     1       8.935 -17.703   9.821  1.00  0.00     0.000 C 
BRANCH   2   3
ATOM      3  C   UNL     1       9.244 -16.305  10.390  1.00  0.00     0.000 C 
BRANCH   3   4
ATOM      4  C   UNL     1      10.528 -15.646   9.845  1.00  0.00     0.000 C 
BRANCH   4   5
ATOM      5  C   UNL     1      10.499 -15.296   8.346  1.00  0.00     0.000 C 
BRANCH   5   6
ATOM      6  C   UNL     1       9.203 -14.585   7.923  1.00  0.00     0.000 C 
BRANCH   6   7
ATOM      7  C   UNL     1       8.747 -14.972   6.504  1.00  0.00     0.006 C 
BRANCH   7   8
ATOM      8  C   UNL     1       9.249 -16.343   6.025  1.00  0.00     0.053 C 
BRANCH   8   9
ATOM      9  C   UNL     1      10.071 -16.237   4.778  1.00  0.00     0.041 C 
ATOM     10  O   UNL     1       9.988 -17.124   3.888  1.00  0.00    -0.550 OA
ATOM     11  O   UNL     1      10.956 -15.179   4.616  1.00  0.00    -0.550 OA
ENDBRANCH   8   9
ENDBRANCH   7   8
ENDBRANCH   6   7
ENDBRANCH   5   6
ENDBRANCH   4   5
ENDBRANCH   3   4
ENDBRANCH   2   3
ENDBRANCH   1   2
BRANCH   1  12
ATOM     12  C   UNL     1       6.471 -17.006   9.385  1.00  0.00     0.000 C 
BRANCH  12  13
ATOM     13  C   UNL     1       6.063 -17.159   7.909  1.00  0.00    -0.000 C 
BRANCH  13  14
ATOM     14  C   UNL     1       6.191 -18.609   7.413  1.00  0.00    -0.000 C 
BRANCH  14  15
ATOM     15  C   UNL     1       4.913 -19.108   6.714  1.00  0.00    -0.000 C 
BRANCH  15  16
ATOM     16  C   UNL     1       3.678 -18.264   7.091  1.00  0.00    -0.000 C 
BRANCH  16  17
ATOM     17  C   UNL     1       2.687 -18.067   5.930  1.00  0.00    -0.000 C 
BRANCH  17  18
ATOM     18  C   UNL     1       3.066 -18.877   4.679  1.00  0.00    -0.000 C 
BRANCH  18  19
ATOM     19  C   UNL     1       2.831 -18.097   3.376  1.00  0.00    -0.003 C 
ATOM     20  C   UNL     1       3.909 -18.358   2.325  1.00  0.00     0.004 C 
ENDBRANCH  18  19
ENDBRANCH  17  18
ENDBRANCH  16  17
ENDBRANCH  15  16
ENDBRANCH  14  15
ENDBRANCH  13  14
ENDBRANCH  12  13
ENDBRANCH   1  12
TORSDOF 16
ENDMDL
MODEL 6
REMARK VINA RESULT:    -3.054      1.401      2.716
REMARK INTER + INTRA:          -7.913
REMARK INTER:                  -6.195
REMARK INTRA:                  -1.718
REMARK UNBOUND:                -2.003
REMARK SMILES CCCCCCCCCCCCCCCCCC(=O)[O-]
REMARK SMILES IDX 10 1 11 2 12 3 13 4 14 5 15 6 16 7 17 8 18 9 19 10 20 11
REMARK SMILES IDX 9 12 8 13 7 14 6 15 5 16 4 17 3 18 2 19 1 20
REMARK H PARENT
REMARK Flexibility Score: inf
ROOT
ATOM      1  C   UNL     1       8.088 -18.545   3.283  1.00  0.00     0.000 C 
ENDROOT
BRANCH   1   2
ATOM      2  C   UNL     1       9.441 -18.022   3.805  1.00  0.00     0.000 C 
BRANCH   2   3
ATOM      3  C   UNL     1       9.348 -17.064   5.009  1.00  0.00     0.000 C 
BRANCH   3   4
ATOM      4  C   UNL     1       9.106 -17.747   6.371  1.00  0.00     0.000 C 
BRANCH   4   5
ATOM      5  C   UNL     1       8.344 -16.897   7.404  1.00  0.00     0.000 C 
BRANCH   5   6
ATOM      6  C   UNL     1       8.218 -15.422   6.989  1.00  0.00     0.000 C 
BRANCH   6   7
ATOM      7  C   UNL     1       9.187 -14.503   7.755  1.00  0.00     0.006 C 
BRANCH   7   8
ATOM      8  C   UNL     1      10.006 -15.209   8.846  1.00  0.00     0.053 C 
BRANCH   8   9
ATOM      9  C   UNL     1      11.452 -15.326   8.477  1.00  0.00     0.041 C 
ATOM     10  O   UNL     1      12.046 -14.359   7.929  1.00  0.00    -0.550 OA
ATOM     11  O   UNL     1      12.135 -16.514   8.703  1.00  0.00    -0.550 OA
ENDBRANCH   8   9
ENDBRANCH   7   8
ENDBRANCH   6   7
ENDBRANCH   5   6
ENDBRANCH   4   5
ENDBRANCH   3   4
ENDBRANCH   2   3
ENDBRANCH   1   2
BRANCH   1  12
ATOM     12  C   UNL     1       7.705 -19.952   3.774  1.00  0.00     0.000 C 
BRANCH  12  13
ATOM     13  C   UNL     1       6.228 -20.054   4.196  1.00  0.00    -0.000 C 
BRANCH  13  14
ATOM     14  C   UNL     1       6.030 -19.813   5.701  1.00  0.00    -0.000 C 
BRANCH  14  15
ATOM     15  C   UNL     1       4.578 -19.442   6.052  1.00  0.00    -0.000 C 
BRANCH  15  16
ATOM     16  C   UNL     1       3.642 -19.538   4.829  1.00  0.00    -0.000 C 
BRANCH  16  17
ATOM     17  C   UNL     1       2.833 -18.255   4.569  1.00  0.00    -0.000 C 
BRANCH  17  18
ATOM     18  C   UNL     1       2.567 -18.011   3.075  1.00  0.00    -0.000 C 
BRANCH  18  19
ATOM     19  C   UNL     1       3.804 -18.277   2.203  1.00  0.00    -0.003 C 
ATOM     20  C   UNL     1       3.558 -19.338   1.131  1.00  0.00     0.004 C 
ENDBRANCH  18  19
ENDBRANCH  17  18
ENDBRANCH  16  17
ENDBRANCH  15  16
ENDBRANCH  14  15
ENDBRANCH  13  14
ENDBRANCH  12  13
ENDBRANCH   1  12
TORSDOF 16
ENDMDL
MODEL 7
REMARK VINA RESULT:    -3.045      4.154      7.855
REMARK INTER + INTRA:          -7.896
REMARK INTER:                  -5.331
REMARK INTRA:                  -2.565
REMARK UNBOUND:                -2.003
REMARK SMILES CCCCCCCCCCCCCCCCCC(=O)[O-]
REMARK SMILES IDX 10 1 11 2 12 3 13 4 14 5 15 6 16 7 17 8 18 9 19 10 20 11
REMARK SMILES IDX 9 12 8 13 7 14 6 15 5 16 4 17 3 18 2 19 1 20
REMARK H PARENT
REMARK Flexibility Score: inf
ROOT
ATOM      1  C   UNL     1       7.695 -17.672   7.730  1.00  0.00     0.000 C 
ENDROOT
BRANCH   1   2
ATOM      2  C   UNL     1       7.438 -16.191   8.072  1.00  0.00     0.000 C 
BRANCH   2   3
ATOM      3  C   UNL     1       8.024 -15.179   7.068  1.00  0.00     0.000 C 
BRANCH   3   4
ATOM      4  C   UNL     1       9.475 -14.740   7.354  1.00  0.00     0.000 C 
BRANCH   4   5
ATOM      5  C   UNL     1      10.551 -15.432   6.497  1.00  0.00     0.000 C 
BRANCH   5   6
ATOM      6  C   UNL     1      10.177 -15.499   5.007  1.00  0.00     0.000 C 
BRANCH   6   7
ATOM      7  C   UNL     1      10.394 -16.898   4.401  1.00  0.00     0.006 C 
BRANCH   7   8
ATOM      8  C   UNL     1       9.160 -17.813   4.451  1.00  0.00     0.053 C 
BRANCH   8   9
ATOM      9  C   UNL     1       8.711 -18.226   3.084  1.00  0.00     0.041 C 
ATOM     10  O   UNL     1       9.438 -17.997   2.082  1.00  0.00    -0.550 OA
ATOM     11  O   UNL     1       7.472 -18.831   2.912  1.00  0.00    -0.550 OA
ENDBRANCH   8   9
ENDBRANCH   7   8
ENDBRANCH   6   7
ENDBRANCH   5   6
ENDBRANCH   4   5
ENDBRANCH   3   4
ENDBRANCH   2   3
ENDBRANCH   1   2
BRANCH   1  12
ATOM     12  C   UNL     1       8.539 -18.439   8.764  1.00  0.00     0.000 C 
BRANCH  12  13
ATOM     13  C   UNL     1      10.037 -18.460   8.412  1.00  0.00    -0.000 C 
BRANCH  13  14
ATOM     14  C   UNL     1      10.884 -17.649   9.404  1.00  0.00    -0.000 C 
BRANCH  14  15
ATOM     15  C   UNL     1      10.070 -17.163  10.617  1.00  0.00    -0.000 C 
BRANCH  15  16
ATOM     16  C   UNL     1      10.149 -15.633  10.795  1.00  0.00    -0.000 C 
BRANCH  16  17
ATOM     17  C   UNL     1      11.579 -15.073  10.698  1.00  0.00    -0.000 C 
BRANCH  17  18
ATOM     18  C   UNL     1      11.651 -13.753   9.912  1.00  0.00    -0.000 C 
BRANCH  18  19
ATOM     19  C   UNL     1      12.025 -12.556  10.800  1.00  0.00    -0.003 C 
ATOM     20  C   UNL     1      12.960 -12.938  11.947  1.00  0.00     0.004 C 
ENDBRANCH  18  19
ENDBRANCH  17  18
ENDBRANCH  16  17
ENDBRANCH  15  16
ENDBRANCH  14  15
ENDBRANCH  13  14
ENDBRANCH  12  13
ENDBRANCH   1  12
TORSDOF 16
ENDMDL
MODEL 8
REMARK VINA RESULT:    -3.009      1.191      2.939
REMARK INTER + INTRA:          -7.827
REMARK INTER:                  -5.905
REMARK INTRA:                  -1.921
REMARK UNBOUND:                -2.003
REMARK SMILES CCCCCCCCCCCCCCCCCC(=O)[O-]
REMARK SMILES IDX 10 1 11 2 12 3 13 4 14 5 15 6 16 7 17 8 18 9 19 10 20 11
REMARK SMILES IDX 9 12 8 13 7 14 6 15 5 16 4 17 3 18 2 19 1 20
REMARK H PARENT
REMARK Flexibility Score: inf
ROOT
ATOM      1  C   UNL     1       8.388 -20.005   3.531  1.00  0.00     0.000 C 
ENDROOT
BRANCH   1   2
ATOM      2  C   UNL     1       8.458 -18.511   3.156  1.00  0.00     0.000 C 
BRANCH   2   3
ATOM      3  C   UNL     1       9.302 -17.640   4.108  1.00  0.00     0.000 C 
BRANCH   3   4
ATOM      4  C   UNL     1      10.059 -18.415   5.205  1.00  0.00     0.000 C 
BRANCH   4   5
ATOM      5  C   UNL     1       9.679 -18.045   6.650  1.00  0.00     0.000 C 
BRANCH   5   6
ATOM      6  C   UNL     1       8.225 -17.563   6.781  1.00  0.00     0.000 C 
BRANCH   6   7
ATOM      7  C   UNL     1       8.104 -16.239   7.559  1.00  0.00     0.006 C 
BRANCH   7   8
ATOM      8  C   UNL     1       8.908 -15.074   6.962  1.00  0.00     0.053 C 
BRANCH   8   9
ATOM      9  C   UNL     1      10.072 -14.694   7.825  1.00  0.00     0.041 C 
ATOM     10  O   UNL     1       9.888 -14.363   9.026  1.00  0.00    -0.550 OA
ATOM     11  O   UNL     1      11.354 -14.668   7.291  1.00  0.00    -0.550 OA
ENDBRANCH   8   9
ENDBRANCH   7   8
ENDBRANCH   6   7
ENDBRANCH   5   6
ENDBRANCH   4   5
ENDBRANCH   3   4
ENDBRANCH   2   3
ENDBRANCH   1   2
BRANCH   1  12
ATOM     12  C   UNL     1       6.964 -20.568   3.687  1.00  0.00     0.000 C 
BRANCH  12  13
ATOM     13  C   UNL     1       5.896 -19.464   3.784  1.00  0.00    -0.000 C 
BRANCH  13  14
ATOM     14  C   UNL     1       4.624 -19.808   2.992  1.00  0.00    -0.000 C 
BRANCH  14  15
ATOM     15  C   UNL     1       4.013 -18.580   2.295  1.00  0.00    -0.000 C 
BRANCH  15  16
ATOM     16  C   UNL     1       2.881 -17.942   3.127  1.00  0.00    -0.000 C 
BRANCH  16  17
ATOM     17  C   UNL     1       2.312 -18.874   4.212  1.00  0.00    -0.000 C 
BRANCH  17  18
ATOM     18  C   UNL     1       2.523 -18.330   5.635  1.00  0.00    -0.000 C 
BRANCH  18  19
ATOM     19  C   UNL     1       3.382 -19.263   6.502  1.00  0.00    -0.003 C 
ATOM     20  C   UNL     1       4.535 -18.535   7.194  1.00  0.00     0.004 C 
ENDBRANCH  18  19
ENDBRANCH  17  18
ENDBRANCH  16  17
ENDBRANCH  15  16
ENDBRANCH  14  15
ENDBRANCH  13  14
ENDBRANCH  12  13
ENDBRANCH   1  12
TORSDOF 16
ENDMDL
MODEL 9
REMARK VINA RESULT:    -3.007      2.938      6.478
REMARK INTER + INTRA:          -7.822
REMARK INTER:                  -5.976
REMARK INTRA:                  -1.846
REMARK UNBOUND:                -2.003
REMARK SMILES CCCCCCCCCCCCCCCCCC(=O)[O-]
REMARK SMILES IDX 10 1 11 2 12 3 13 4 14 5 15 6 16 7 17 8 18 9 19 10 20 11
REMARK SMILES IDX 9 12 8 13 7 14 6 15 5 16 4 17 3 18 2 19 1 20
REMARK H PARENT
REMARK Flexibility Score: inf
ROOT
ATOM      1  C   UNL     1       8.131 -19.003   5.162  1.00  0.00     0.000 C 
ENDROOT
BRANCH   1   2
ATOM      2  C   UNL     1       6.907 -19.903   4.896  1.00  0.00     0.000 C 
BRANCH   2   3
ATOM      3  C   UNL     1       6.300 -19.776   3.485  1.00  0.00     0.000 C 
BRANCH   3   4
ATOM      4  C   UNL     1       4.942 -20.481   3.291  1.00  0.00     0.000 C 
BRANCH   4   5
ATOM      5  C   UNL     1       4.054 -19.898   2.177  1.00  0.00     0.000 C 
BRANCH   5   6
ATOM      6  C   UNL     1       3.813 -18.387   2.332  1.00  0.00     0.000 C 
BRANCH   6   7
ATOM      7  C   UNL     1       2.542 -18.066   3.140  1.00  0.00     0.006 C 
BRANCH   7   8
ATOM      8  C   UNL     1       2.713 -18.171   4.664  1.00  0.00     0.053 C 
BRANCH   8   9
ATOM      9  C   UNL     1       1.886 -19.274   5.247  1.00  0.00     0.041 C 
ATOM     10  O   UNL     1       1.724 -19.353   6.494  1.00  0.00    -0.550 OA
ATOM     11  O   UNL     1       1.325 -20.237   4.418  1.00  0.00    -0.550 OA
ENDBRANCH   8   9
ENDBRANCH   7   8
ENDBRANCH   6   7
ENDBRANCH   5   6
ENDBRANCH   4   5
ENDBRANCH   3   4
ENDBRANCH   2   3
ENDBRANCH   1   2
BRANCH   1  12
ATOM     12  C   UNL     1       8.782 -18.408   3.901  1.00  0.00     0.000 C 
BRANCH  12  13
ATOM     13  C   UNL     1       9.622 -17.153   4.201  1.00  0.00    -0.000 C 
BRANCH  13  14
ATOM     14  C   UNL     1       9.715 -16.856   5.706  1.00  0.00    -0.000 C 
BRANCH  14  15
ATOM     15  C   UNL     1       9.598 -15.353   6.018  1.00  0.00    -0.000 C 
BRANCH  15  16
ATOM     16  C   UNL     1       8.381 -15.039   6.913  1.00  0.00    -0.000 C 
BRANCH  16  17
ATOM     17  C   UNL     1       8.133 -16.089   8.009  1.00  0.00    -0.000 C 
BRANCH  17  18
ATOM     18  C   UNL     1       6.642 -16.418   8.193  1.00  0.00    -0.000 C 
BRANCH  18  19
ATOM     19  C   UNL     1       6.347 -17.920   8.052  1.00  0.00    -0.003 C 
ATOM     20  C   UNL     1       4.887 -18.207   7.702  1.00  0.00     0.004 C 
ENDBRANCH  18  19
ENDBRANCH  17  18
ENDBRANCH  16  17
ENDBRANCH  15  16
ENDBRANCH  14  15
ENDBRANCH  13  14
ENDBRANCH  12  13
ENDBRANCH   1  12
TORSDOF 16
ENDMDL
