MODEL 1
REMARK VINA RESULT:    -4.188      0.000      0.000
REMARK INTER + INTRA:          -6.344
REMARK INTER:                  -5.657
REMARK INTRA:                  -0.687
REMARK UNBOUND:                -0.687
REMARK SMILES CC(=O)CCC=C(C)CCC=C(C)C
REMARK SMILES IDX 7 1 6 2 8 3 9 4 10 5 11 6 13 7 12 8 14 9 5 10 4 11 2 12 3 13
REMARK SMILES IDX 1 14
REMARK H PARENT
REMARK Flexibility Score: inf
ROOT
ATOM      1  C   UNL     1      27.885  36.853  20.188  1.00  0.00    -0.077 C 
ATOM      2  C   UNL     1      28.635  35.728  20.151  1.00  0.00    -0.028 C 
ATOM      3  C   UNL     1      26.585  36.921  20.955  1.00  0.00     0.039 C 
ENDROOT
BRANCH   1   4
ATOM      4  C   UNL     1      28.351  38.075  19.422  1.00  0.00     0.034 C 
BRANCH   4   5
ATOM      5  C   UNL     1      27.192  38.773  18.695  1.00  0.00     0.032 C 
BRANCH   5   6
ATOM      6  C   UNL     1      27.403  40.266  18.607  1.00  0.00    -0.028 C 
ATOM      7  C   UNL     1      26.187  40.735  20.747  1.00  0.00     0.039 C 
ATOM      8  C   UNL     1      26.923  41.160  19.500  1.00  0.00    -0.080 C 
ATOM      9  C   UNL     1      27.171  42.632  19.292  1.00  0.00     0.039 C 
ENDBRANCH   5   6
ENDBRANCH   4   5
ENDBRANCH   1   4
BRANCH   2  10
ATOM     10  C   UNL     1      28.304  34.456  20.890  1.00  0.00     0.035 C 
BRANCH  10  11
ATOM     11  C   UNL     1      29.039  34.401  22.234  1.00  0.00     0.079 C 
BRANCH  11  12
ATOM     12  C   UNL     1      28.099  34.004  23.339  1.00  0.00     0.130 C 
ATOM     13  O   UNL     1      27.262  34.799  23.739  1.00  0.00    -0.300 OA
ATOM     14  C   UNL     1      28.198  32.647  23.969  1.00  0.00     0.087 C 
ENDBRANCH  11  12
ENDBRANCH  10  11
ENDBRANCH   2  10
TORSDOF 6
ENDMDL
MODEL 2
REMARK VINA RESULT:    -4.088      3.515      6.689
REMARK INTER + INTRA:          -6.208
REMARK INTER:                  -5.614
REMARK INTRA:                  -0.595
REMARK UNBOUND:                -0.687
REMARK SMILES CC(=O)CCC=C(C)CCC=C(C)C
REMARK SMILES IDX 7 1 6 2 8 3 9 4 10 5 11 6 13 7 12 8 14 9 5 10 4 11 2 12 3 13
REMARK SMILES IDX 1 14
REMARK H PARENT
REMARK Flexibility Score: inf
ROOT
ATOM      1  C   UNL     1      28.646  31.562  24.391  1.00  0.00    -0.077 C 
ATOM      2  C   UNL     1      28.493  30.598  23.453  1.00  0.00    -0.028 C 
ATOM      3  C   UNL     1      29.124  31.248  25.789  1.00  0.00     0.039 C 
ENDROOT
BRANCH   1   4
ATOM      4  C   UNL     1      28.306  32.996  24.034  1.00  0.00     0.034 C 
BRANCH   4   5
ATOM      5  C   UNL     1      29.002  33.445  22.740  1.00  0.00     0.032 C 
BRANCH   5   6
ATOM      6  C   UNL     1      28.373  34.693  22.169  1.00  0.00    -0.028 C 
ATOM      7  C   UNL     1      28.680  33.965  19.791  1.00  0.00     0.039 C 
ATOM      8  C   UNL     1      28.258  34.956  20.848  1.00  0.00    -0.080 C 
ATOM      9  C   UNL     1      27.637  36.253  20.395  1.00  0.00     0.039 C 
ENDBRANCH   5   6
ENDBRANCH   4   5
ENDBRANCH   1   4
BRANCH   2  10
ATOM     10  C   UNL     1      28.822  29.142  23.665  1.00  0.00     0.035 C 
BRANCH  10  11
ATOM     11  C   UNL     1      27.542  28.312  23.813  1.00  0.00     0.079 C 
BRANCH  11  12
ATOM     12  C   UNL     1      27.355  27.873  25.240  1.00  0.00     0.130 C 
ATOM     13  O   UNL     1      26.831  28.630  26.044  1.00  0.00    -0.300 OA
ATOM     14  C   UNL     1      27.829  26.523  25.688  1.00  0.00     0.087 C 
ENDBRANCH  11  12
ENDBRANCH  10  11
ENDBRANCH   2  10
TORSDOF 6
ENDMDL
MODEL 3
REMARK VINA RESULT:    -4.080      2.406      8.095
REMARK INTER + INTRA:          -6.198
REMARK INTER:                  -5.641
REMARK INTRA:                  -0.557
REMARK UNBOUND:                -0.687
REMARK SMILES CC(=O)CCC=C(C)CCC=C(C)C
REMARK SMILES IDX 7 1 6 2 8 3 9 4 10 5 11 6 13 7 12 8 14 9 5 10 4 11 2 12 3 13
REMARK SMILES IDX 1 14
REMARK H PARENT
REMARK Flexibility Score: inf
ROOT
ATOM      1  C   UNL     1      28.432  33.939  22.280  1.00  0.00    -0.077 C 
ATOM      2  C   UNL     1      28.052  35.188  21.926  1.00  0.00    -0.028 C 
ATOM      3  C   UNL     1      29.118  33.007  21.308  1.00  0.00     0.039 C 
ENDROOT
BRANCH   1   4
ATOM      4  C   UNL     1      28.142  33.453  23.686  1.00  0.00     0.034 C 
BRANCH   4   5
ATOM      5  C   UNL     1      28.936  32.183  24.028  1.00  0.00     0.032 C 
BRANCH   5   6
ATOM      6  C   UNL     1      28.027  31.002  24.271  1.00  0.00    -0.028 C 
ATOM      7  C   UNL     1      29.125  29.580  22.524  1.00  0.00     0.039 C 
ATOM      8  C   UNL     1      28.076  29.844  23.576  1.00  0.00    -0.080 C 
ATOM      9  C   UNL     1      27.095  28.742  23.888  1.00  0.00     0.039 C 
ENDBRANCH   5   6
ENDBRANCH   4   5
ENDBRANCH   1   4
BRANCH   2  10
ATOM     10  C   UNL     1      28.305  35.807  20.573  1.00  0.00     0.035 C 
BRANCH  10  11
ATOM     11  C   UNL     1      27.261  36.886  20.266  1.00  0.00     0.079 C 
BRANCH  11  12
ATOM     12  C   UNL     1      27.843  37.951  19.376  1.00  0.00     0.130 C 
ATOM     13  O   UNL     1      29.051  38.003  19.203  1.00  0.00    -0.300 OA
ATOM     14  C   UNL     1      26.953  38.964  18.722  1.00  0.00     0.087 C 
ENDBRANCH  11  12
ENDBRANCH  10  11
ENDBRANCH   2  10
TORSDOF 6
ENDMDL
MODEL 4
REMARK VINA RESULT:    -3.976      2.488      4.057
REMARK INTER + INTRA:          -6.058
REMARK INTER:                  -5.629
REMARK INTRA:                  -0.430
REMARK UNBOUND:                -0.687
REMARK SMILES CC(=O)CCC=C(C)CCC=C(C)C
REMARK SMILES IDX 7 1 6 2 8 3 9 4 10 5 11 6 13 7 12 8 14 9 5 10 4 11 2 12 3 13
REMARK SMILES IDX 1 14
REMARK H PARENT
REMARK Flexibility Score: inf
ROOT
ATOM      1  C   UNL     1      28.398  33.933  22.445  1.00  0.00    -0.077 C 
ATOM      2  C   UNL     1      29.030  32.774  22.739  1.00  0.00    -0.028 C 
ATOM      3  C   UNL     1      27.594  34.688  23.478  1.00  0.00     0.039 C 
ENDROOT
BRANCH   1   4
ATOM      4  C   UNL     1      28.481  34.479  21.034  1.00  0.00     0.034 C 
BRANCH   4   5
ATOM      5  C   UNL     1      27.785  35.842  20.905  1.00  0.00     0.032 C 
BRANCH   5   6
ATOM      6  C   UNL     1      28.476  36.731  19.898  1.00  0.00    -0.028 C 
ATOM      7  C   UNL     1      26.482  38.216  19.585  1.00  0.00     0.039 C 
ATOM      8  C   UNL     1      27.890  37.775  19.270  1.00  0.00    -0.080 C 
ATOM      9  C   UNL     1      28.672  38.574  18.259  1.00  0.00     0.039 C 
ENDBRANCH   5   6
ENDBRANCH   4   5
ENDBRANCH   1   4
BRANCH   2  10
ATOM     10  C   UNL     1      29.055  32.137  24.107  1.00  0.00     0.035 C 
BRANCH  10  11
ATOM     11  C   UNL     1      27.973  31.058  24.223  1.00  0.00     0.079 C 
BRANCH  11  12
ATOM     12  C   UNL     1      28.563  29.688  24.026  1.00  0.00     0.130 C 
ATOM     13  O   UNL     1      29.122  29.129  24.957  1.00  0.00    -0.300 OA
ATOM     14  C   UNL     1      28.492  29.016  22.688  1.00  0.00     0.087 C 
ENDBRANCH  11  12
ENDBRANCH  10  11
ENDBRANCH   2  10
TORSDOF 6
ENDMDL
MODEL 5
REMARK VINA RESULT:    -3.931      1.717      2.945
REMARK INTER + INTRA:          -5.997
REMARK INTER:                  -5.594
REMARK INTRA:                  -0.403
REMARK UNBOUND:                -0.687
REMARK SMILES CC(=O)CCC=C(C)CCC=C(C)C
REMARK SMILES IDX 7 1 6 2 8 3 9 4 10 5 11 6 13 7 12 8 14 9 5 10 4 11 2 12 3 13
REMARK SMILES IDX 1 14
REMARK H PARENT
REMARK Flexibility Score: inf
ROOT
ATOM      1  C   UNL     1      28.300  34.790  20.970  1.00  0.00    -0.077 C 
ATOM      2  C   UNL     1      28.337  34.358  22.252  1.00  0.00    -0.028 C 
ATOM      3  C   UNL     1      28.911  33.993  19.841  1.00  0.00     0.039 C 
ENDROOT
BRANCH   1   4
ATOM      4  C   UNL     1      27.645  36.121  20.661  1.00  0.00     0.034 C 
BRANCH   4   5
ATOM      5  C   UNL     1      28.637  37.119  20.045  1.00  0.00     0.032 C 
BRANCH   5   6
ATOM      6  C   UNL     1      28.105  38.533  20.079  1.00  0.00    -0.028 C 
ATOM      7  C   UNL     1      28.280  38.840  17.598  1.00  0.00     0.039 C 
ATOM      8  C   UNL     1      27.977  39.328  18.994  1.00  0.00    -0.080 C 
ATOM      9  C   UNL     1      27.461  40.736  19.154  1.00  0.00     0.039 C 
ENDBRANCH   5   6
ENDBRANCH   4   5
ENDBRANCH   1   4
BRANCH   2  10
ATOM     10  C   UNL     1      28.929  33.043  22.693  1.00  0.00     0.035 C 
BRANCH  10  11
ATOM     11  C   UNL     1      28.235  32.533  23.961  1.00  0.00     0.079 C 
BRANCH  11  12
ATOM     12  C   UNL     1      28.248  31.029  24.007  1.00  0.00     0.130 C 
ATOM     13  O   UNL     1      27.831  30.450  24.999  1.00  0.00    -0.300 OA
ATOM     14  C   UNL     1      28.792  30.239  22.856  1.00  0.00     0.087 C 
ENDBRANCH  11  12
ENDBRANCH  10  11
ENDBRANCH   2  10
TORSDOF 6
ENDMDL
MODEL 6
REMARK VINA RESULT:    -3.890      2.856      3.745
REMARK INTER + INTRA:          -5.942
REMARK INTER:                  -4.792
REMARK INTRA:                  -1.150
REMARK UNBOUND:                -0.687
REMARK SMILES CC(=O)CCC=C(C)CCC=C(C)C
REMARK SMILES IDX 7 1 6 2 8 3 9 4 10 5 11 6 13 7 12 8 14 9 5 10 4 11 2 12 3 13
REMARK SMILES IDX 1 14
REMARK H PARENT
REMARK Flexibility Score: inf
ROOT
ATOM      1  C   UNL     1      27.873  38.834  19.376  1.00  0.00    -0.077 C 
ATOM      2  C   UNL     1      27.849  37.922  20.375  1.00  0.00    -0.028 C 
ATOM      3  C   UNL     1      26.840  38.840  18.274  1.00  0.00     0.039 C 
ENDROOT
BRANCH   1   4
ATOM      4  C   UNL     1      28.982  39.868  19.350  1.00  0.00     0.034 C 
BRANCH   4   5
ATOM      5  C   UNL     1      28.913  40.813  20.559  1.00  0.00     0.032 C 
BRANCH   5   6
ATOM      6  C   UNL     1      28.190  42.097  20.226  1.00  0.00    -0.028 C 
ATOM      7  C   UNL     1      26.028  41.345  21.245  1.00  0.00     0.039 C 
ATOM      8  C   UNL     1      26.887  42.333  20.493  1.00  0.00    -0.080 C 
ATOM      9  C   UNL     1      26.265  43.644  20.086  1.00  0.00     0.039 C 
ENDBRANCH   5   6
ENDBRANCH   4   5
ENDBRANCH   1   4
BRANCH   2  10
ATOM     10  C   UNL     1      26.788  36.862  20.537  1.00  0.00     0.035 C 
BRANCH  10  11
ATOM     11  C   UNL     1      25.706  37.322  21.520  1.00  0.00     0.079 C 
BRANCH  11  12
ATOM     12  C   UNL     1      24.354  37.326  20.860  1.00  0.00     0.130 C 
ATOM     13  O   UNL     1      24.177  36.683  19.836  1.00  0.00    -0.300 OA
ATOM     14  C   UNL     1      23.230  38.132  21.436  1.00  0.00     0.087 C 
ENDBRANCH  11  12
ENDBRANCH  10  11
ENDBRANCH   2  10
TORSDOF 6
ENDMDL
MODEL 7
REMARK VINA RESULT:    -3.890      6.612      9.872
REMARK INTER + INTRA:          -5.941
REMARK INTER:                  -5.067
REMARK INTRA:                  -0.875
REMARK UNBOUND:                -0.687
REMARK SMILES CC(=O)CCC=C(C)CCC=C(C)C
REMARK SMILES IDX 7 1 6 2 8 3 9 4 10 5 11 6 13 7 12 8 14 9 5 10 4 11 2 12 3 13
REMARK SMILES IDX 1 14
REMARK H PARENT
REMARK Flexibility Score: inf
ROOT
ATOM      1  C   UNL     1      27.648  28.378  24.349  1.00  0.00    -0.077 C 
ATOM      2  C   UNL     1      28.482  27.420  24.815  1.00  0.00    -0.028 C 
ATOM      3  C   UNL     1      26.500  28.910  25.176  1.00  0.00     0.039 C 
ENDROOT
BRANCH   1   4
ATOM      4  C   UNL     1      27.857  28.918  22.948  1.00  0.00     0.034 C 
BRANCH   4   5
ATOM      5  C   UNL     1      29.121  29.786  22.852  1.00  0.00     0.032 C 
BRANCH   5   6
ATOM      6  C   UNL     1      28.788  31.259  22.816  1.00  0.00    -0.028 C 
ATOM      7  C   UNL     1      29.105  31.565  25.283  1.00  0.00     0.039 C 
ATOM      8  C   UNL     1      28.739  32.059  23.905  1.00  0.00    -0.080 C 
ATOM      9  C   UNL     1      28.364  33.511  23.750  1.00  0.00     0.039 C 
ENDBRANCH   5   6
ENDBRANCH   4   5
ENDBRANCH   1   4
BRANCH   2  10
ATOM     10  C   UNL     1      28.405  26.820  26.197  1.00  0.00     0.035 C 
BRANCH  10  11
ATOM     11  C   UNL     1      28.598  25.300  26.140  1.00  0.00     0.079 C 
BRANCH  11  12
ATOM     12  C   UNL     1      27.275  24.591  26.238  1.00  0.00     0.130 C 
ATOM     13  O   UNL     1      26.669  24.581  27.299  1.00  0.00    -0.300 OA
ATOM     14  C   UNL     1      26.707  23.877  25.049  1.00  0.00     0.087 C 
ENDBRANCH  11  12
ENDBRANCH  10  11
ENDBRANCH   2  10
TORSDOF 6
ENDMDL
MODEL 8
REMARK VINA RESULT:    -3.782      2.647      4.772
REMARK INTER + INTRA:          -5.796
REMARK INTER:                  -4.806
REMARK INTRA:                  -0.990
REMARK UNBOUND:                -0.687
REMARK SMILES CC(=O)CCC=C(C)CCC=C(C)C
REMARK SMILES IDX 7 1 6 2 8 3 9 4 10 5 11 6 13 7 12 8 14 9 5 10 4 11 2 12 3 13
REMARK SMILES IDX 1 14
REMARK H PARENT
REMARK Flexibility Score: inf
ROOT
ATOM      1  C   UNL     1      27.073  41.385  19.888  1.00  0.00    -0.077 C 
ATOM      2  C   UNL     1      27.304  40.458  18.930  1.00  0.00    -0.028 C 
ATOM      3  C   UNL     1      26.101  41.140  21.019  1.00  0.00     0.039 C 
ENDROOT
BRANCH   1   4
ATOM      4  C   UNL     1      27.795  42.715  19.814  1.00  0.00     0.034 C 
BRANCH   4   5
ATOM      5  C   UNL     1      29.099  42.706  20.626  1.00  0.00     0.032 C 
BRANCH   5   6
ATOM      6  C   UNL     1      28.946  43.438  21.939  1.00  0.00    -0.028 C 
ATOM      7  C   UNL     1      29.072  41.348  23.315  1.00  0.00     0.039 C 
ATOM      8  C   UNL     1      28.893  42.837  23.148  1.00  0.00    -0.080 C 
ATOM      9  C   UNL     1      28.708  43.671  24.391  1.00  0.00     0.039 C 
ENDBRANCH   5   6
ENDBRANCH   4   5
ENDBRANCH   1   4
BRANCH   2  10
ATOM     10  C   UNL     1      26.678  39.086  18.900  1.00  0.00     0.035 C 
BRANCH  10  11
ATOM     11  C   UNL     1      27.602  38.053  19.554  1.00  0.00     0.079 C 
BRANCH  11  12
ATOM     12  C   UNL     1      26.836  37.187  20.517  1.00  0.00     0.130 C 
ATOM     13  O   UNL     1      27.389  36.237  21.050  1.00  0.00    -0.300 OA
ATOM     14  C   UNL     1      25.393  37.468  20.807  1.00  0.00     0.087 C 
ENDBRANCH  11  12
ENDBRANCH  10  11
ENDBRANCH   2  10
TORSDOF 6
ENDMDL
MODEL 9
REMARK VINA RESULT:    -3.667      1.573      2.554
REMARK INTER + INTRA:          -5.640
REMARK INTER:                  -5.215
REMARK INTRA:                  -0.424
REMARK UNBOUND:                -0.687
REMARK SMILES CC(=O)CCC=C(C)CCC=C(C)C
REMARK SMILES IDX 7 1 6 2 8 3 9 4 10 5 11 6 13 7 12 8 14 9 5 10 4 11 2 12 3 13
REMARK SMILES IDX 1 14
REMARK H PARENT
REMARK Flexibility Score: inf
ROOT
ATOM      1  C   UNL     1      25.923  38.316  20.647  1.00  0.00    -0.077 C 
ATOM      2  C   UNL     1      27.217  37.947  20.508  1.00  0.00    -0.028 C 
ATOM      3  C   UNL     1      24.791  37.321  20.532  1.00  0.00     0.039 C 
ENDROOT
BRANCH   1   4
ATOM      4  C   UNL     1      25.597  39.773  20.906  1.00  0.00     0.034 C 
BRANCH   4   5
ATOM      5  C   UNL     1      26.859  40.650  20.915  1.00  0.00     0.032 C 
BRANCH   5   6
ATOM      6  C   UNL     1      26.867  41.634  19.769  1.00  0.00    -0.028 C 
ATOM      7  C   UNL     1      26.859  43.641  21.270  1.00  0.00     0.039 C 
ATOM      8  C   UNL     1      26.827  42.977  19.915  1.00  0.00    -0.080 C 
ATOM      9  C   UNL     1      26.808  43.861  18.694  1.00  0.00     0.039 C 
ENDBRANCH   5   6
ENDBRANCH   4   5
ENDBRANCH   1   4
BRANCH   2  10
ATOM     10  C   UNL     1      27.681  36.530  20.279  1.00  0.00     0.035 C 
BRANCH  10  11
ATOM     11  C   UNL     1      27.667  35.735  21.590  1.00  0.00     0.079 C 
BRANCH  11  12
ATOM     12  C   UNL     1      28.351  34.407  21.414  1.00  0.00     0.130 C 
ATOM     13  O   UNL     1      28.671  33.755  22.397  1.00  0.00    -0.300 OA
ATOM     14  C   UNL     1      28.664  33.889  20.043  1.00  0.00     0.087 C 
ENDBRANCH  11  12
ENDBRANCH  10  11
ENDBRANCH   2  10
TORSDOF 6
ENDMDL
