MODEL 1
REMARK VINA RESULT:    -3.354      0.000      0.000
REMARK INTER + INTRA:         -13.934
REMARK INTER:                  -8.452
REMARK INTRA:                  -5.482
REMARK UNBOUND:                -5.482
REMARK SMILES CCCCCCCCCCCCCCCCCCCCCCCCCCCC(=O)[O-]
REMARK SMILES IDX 15 1 16 2 17 3 18 4 19 5 20 6 21 7 22 8 23 9 24 10 25 11
REMARK SMILES IDX 26 12 27 13 28 14 29 15 30 16 14 17 13 18 12 19 11 20 10 21
REMARK SMILES IDX 9 22 8 23 7 24 6 25 5 26 4 27 3 28 2 29 1 30
REMARK H PARENT
REMARK Flexibility Score: inf
ROOT
ATOM      1  C   UNL     1       9.384  66.939   9.922  1.00  0.00     0.000 C 
ENDROOT
BRANCH   1   2
ATOM      2  C   UNL     1      10.273  65.803   9.392  1.00  0.00     0.000 C 
BRANCH   2   3
ATOM      3  C   UNL     1       9.527  64.875   8.416  1.00  0.00     0.000 C 
BRANCH   3   4
ATOM      4  C   UNL     1       9.736  63.387   8.735  1.00  0.00     0.000 C 
BRANCH   4   5
ATOM      5  C   UNL     1      11.222  63.015   8.868  1.00  0.00     0.000 C 
BRANCH   5   6
ATOM      6  C   UNL     1      11.719  62.150   7.698  1.00  0.00     0.000 C 
BRANCH   6   7
ATOM      7  C   UNL     1      13.006  62.700   7.064  1.00  0.00     0.000 C 
BRANCH   7   8
ATOM      8  C   UNL     1      13.302  64.120   7.567  1.00  0.00     0.000 C 
BRANCH   8   9
ATOM      9  C   UNL     1      13.229  65.171   6.447  1.00  0.00     0.000 C 
BRANCH   9  10
ATOM     10  C   UNL     1      12.751  66.541   6.956  1.00  0.00     0.000 C 
BRANCH  10  11
ATOM     11  C   UNL     1      11.627  67.142   6.091  1.00  0.00     0.000 C 
BRANCH  11  12
ATOM     12  C   UNL     1      10.728  66.114   5.377  1.00  0.00     0.006 C 
BRANCH  12  13
ATOM     13  C   UNL     1      10.400  66.458   3.915  1.00  0.00     0.053 C 
BRANCH  13  14
ATOM     14  C   UNL     1      11.460  65.972   2.973  1.00  0.00     0.041 C 
ATOM     15  O   UNL     1      12.067  64.894   3.206  1.00  0.00    -0.550 OA
ATOM     16  O   UNL     1      11.795  66.724   1.854  1.00  0.00    -0.550 OA
ENDBRANCH  13  14
ENDBRANCH  12  13
ENDBRANCH  11  12
ENDBRANCH  10  11
ENDBRANCH   9  10
ENDBRANCH   8   9
ENDBRANCH   7   8
ENDBRANCH   6   7
ENDBRANCH   5   6
ENDBRANCH   4   5
ENDBRANCH   3   4
ENDBRANCH   2   3
ENDBRANCH   1   2
BRANCH   1  17
ATOM     17  C   UNL     1       9.223  68.083   8.905  1.00  0.00     0.000 C 
BRANCH  17  18
ATOM     18  C   UNL     1       7.872  68.806   9.039  1.00  0.00     0.000 C 
BRANCH  18  19
ATOM     19  C   UNL     1       7.117  68.908   7.702  1.00  0.00     0.000 C 
BRANCH  19  20
ATOM     20  C   UNL     1       7.624  67.899   6.658  1.00  0.00     0.000 C 
BRANCH  20  21
ATOM     21  C   UNL     1       7.266  68.310   5.220  1.00  0.00     0.000 C 
BRANCH  21  22
ATOM     22  C   UNL     1       6.520  67.202   4.460  1.00  0.00    -0.000 C 
BRANCH  22  23
ATOM     23  C   UNL     1       5.357  67.749   3.614  1.00  0.00    -0.000 C 
BRANCH  23  24
ATOM     24  C   UNL     1       4.158  68.199   4.469  1.00  0.00    -0.000 C 
BRANCH  24  25
ATOM     25  C   UNL     1       3.685  67.175   5.521  1.00  0.00    -0.000 C 
BRANCH  25  26
ATOM     26  C   UNL     1       3.550  67.728   6.954  1.00  0.00    -0.000 C 
BRANCH  26  27
ATOM     27  C   UNL     1       4.089  66.804   8.064  1.00  0.00    -0.000 C 
BRANCH  27  28
ATOM     28  C   UNL     1       4.929  65.614   7.566  1.00  0.00    -0.000 C 
BRANCH  28  29
ATOM     29  C   UNL     1       5.919  65.099   8.620  1.00  0.00    -0.003 C 
ATOM     30  C   UNL     1       5.791  65.883   9.922  1.00  0.00     0.004 C 
ENDBRANCH  28  29
ENDBRANCH  27  28
ENDBRANCH  26  27
ENDBRANCH  25  26
ENDBRANCH  24  25
ENDBRANCH  23  24
ENDBRANCH  22  23
ENDBRANCH  21  22
ENDBRANCH  20  21
ENDBRANCH  19  20
ENDBRANCH  18  19
ENDBRANCH  17  18
ENDBRANCH   1  17
TORSDOF 26
ENDMDL
MODEL 2
REMARK VINA RESULT:    -3.351      3.764      8.608
REMARK INTER + INTRA:         -13.926
REMARK INTER:                 -10.526
REMARK INTRA:                  -3.401
REMARK UNBOUND:                -5.482
REMARK SMILES CCCCCCCCCCCCCCCCCCCCCCCCCCCC(=O)[O-]
REMARK SMILES IDX 15 1 16 2 17 3 18 4 19 5 20 6 21 7 22 8 23 9 24 10 25 11
REMARK SMILES IDX 26 12 27 13 28 14 29 15 30 16 14 17 13 18 12 19 11 20 10 21
REMARK SMILES IDX 9 22 8 23 7 24 6 25 5 26 4 27 3 28 2 29 1 30
REMARK H PARENT
REMARK Flexibility Score: inf
ROOT
ATOM      1  C   UNL     1       4.874  65.740   7.444  1.00  0.00     0.000 C 
ENDROOT
BRANCH   1   2
ATOM      2  C   UNL     1       3.928  66.897   7.800  1.00  0.00     0.000 C 
BRANCH   2   3
ATOM      3  C   UNL     1       4.570  68.277   7.569  1.00  0.00     0.000 C 
BRANCH   3   4
ATOM      4  C   UNL     1       6.101  68.208   7.454  1.00  0.00     0.000 C 
BRANCH   4   5
ATOM      5  C   UNL     1       6.614  68.721   6.098  1.00  0.00     0.000 C 
BRANCH   5   6
ATOM      6  C   UNL     1       7.169  67.593   5.214  1.00  0.00     0.000 C 
BRANCH   6   7
ATOM      7  C   UNL     1       6.616  67.641   3.781  1.00  0.00     0.000 C 
BRANCH   7   8
ATOM      8  C   UNL     1       5.490  66.613   3.592  1.00  0.00     0.000 C 
BRANCH   8   9
ATOM      9  C   UNL     1       4.093  67.234   3.755  1.00  0.00     0.000 C 
BRANCH   9  10
ATOM     10  C   UNL     1       3.073  66.242   4.341  1.00  0.00     0.000 C 
BRANCH  10  11
ATOM     11  C   UNL     1       1.616  66.712   4.174  1.00  0.00     0.000 C 
BRANCH  11  12
ATOM     12  C   UNL     1       1.031  66.544   2.758  1.00  0.00     0.006 C 
BRANCH  12  13
ATOM     13  C   UNL     1      -0.406  65.999   2.721  1.00  0.00     0.053 C 
BRANCH  13  14
ATOM     14  C   UNL     1      -0.519  64.671   3.405  1.00  0.00     0.041 C 
ATOM     15  O   UNL     1      -0.033  63.639   2.870  1.00  0.00    -0.550 OA
ATOM     16  O   UNL     1      -1.187  64.567   4.620  1.00  0.00    -0.550 OA
ENDBRANCH  13  14
ENDBRANCH  12  13
ENDBRANCH  11  12
ENDBRANCH  10  11
ENDBRANCH   9  10
ENDBRANCH   8   9
ENDBRANCH   7   8
ENDBRANCH   6   7
ENDBRANCH   5   6
ENDBRANCH   4   5
ENDBRANCH   3   4
ENDBRANCH   2   3
ENDBRANCH   1   2
BRANCH   1  17
ATOM     17  C   UNL     1       5.057  64.749   8.607  1.00  0.00     0.000 C 
BRANCH  17  18
ATOM     18  C   UNL     1       6.501  64.231   8.719  1.00  0.00     0.000 C 
BRANCH  18  19
ATOM     19  C   UNL     1       7.511  65.348   9.035  1.00  0.00     0.000 C 
BRANCH  19  20
ATOM     20  C   UNL     1       8.946  64.980   8.625  1.00  0.00     0.000 C 
BRANCH  20  21
ATOM     21  C   UNL     1       9.207  63.466   8.685  1.00  0.00     0.000 C 
BRANCH  21  22
ATOM     22  C   UNL     1      10.667  63.133   9.030  1.00  0.00    -0.000 C 
BRANCH  22  23
ATOM     23  C   UNL     1      11.344  62.269   7.951  1.00  0.00    -0.000 C 
BRANCH  23  24
ATOM     24  C   UNL     1      12.773  62.738   7.621  1.00  0.00    -0.000 C 
BRANCH  24  25
ATOM     25  C   UNL     1      12.960  63.318   6.204  1.00  0.00    -0.000 C 
BRANCH  25  26
ATOM     26  C   UNL     1      12.997  64.856   6.129  1.00  0.00    -0.000 C 
BRANCH  26  27
ATOM     27  C   UNL     1      11.617  65.545   6.146  1.00  0.00    -0.000 C 
BRANCH  27  28
ATOM     28  C   UNL     1      11.365  66.520   4.982  1.00  0.00    -0.000 C 
BRANCH  28  29
ATOM     29  C   UNL     1      11.423  65.836   3.608  1.00  0.00    -0.003 C 
ATOM     30  C   UNL     1      10.040  65.772   2.968  1.00  0.00     0.004 C 
ENDBRANCH  28  29
ENDBRANCH  27  28
ENDBRANCH  26  27
ENDBRANCH  25  26
ENDBRANCH  24  25
ENDBRANCH  23  24
ENDBRANCH  22  23
ENDBRANCH  21  22
ENDBRANCH  20  21
ENDBRANCH  19  20
ENDBRANCH  18  19
ENDBRANCH  17  18
ENDBRANCH   1  17
TORSDOF 26
ENDMDL
MODEL 3
REMARK VINA RESULT:    -3.338      2.858      7.152
REMARK INTER + INTRA:         -13.894
REMARK INTER:                  -9.331
REMARK INTRA:                  -4.564
REMARK UNBOUND:                -5.482
REMARK SMILES CCCCCCCCCCCCCCCCCCCCCCCCCCCC(=O)[O-]
REMARK SMILES IDX 15 1 16 2 17 3 18 4 19 5 20 6 21 7 22 8 23 9 24 10 25 11
REMARK SMILES IDX 26 12 27 13 28 14 29 15 30 16 14 17 13 18 12 19 11 20 10 21
REMARK SMILES IDX 9 22 8 23 7 24 6 25 5 26 4 27 3 28 2 29 1 30
REMARK H PARENT
REMARK Flexibility Score: inf
ROOT
ATOM      1  C   UNL     1      10.650  65.518   9.208  1.00  0.00     0.000 C 
ENDROOT
BRANCH   1   2
ATOM      2  C   UNL     1       9.718  65.606   7.989  1.00  0.00     0.000 C 
BRANCH   2   3
ATOM      3  C   UNL     1       8.500  66.512   8.241  1.00  0.00     0.000 C 
BRANCH   3   4
ATOM      4  C   UNL     1       7.477  65.880   9.198  1.00  0.00     0.000 C 
BRANCH   4   5
ATOM      5  C   UNL     1       7.021  64.486   8.736  1.00  0.00     0.000 C 
BRANCH   5   6
ATOM      6  C   UNL     1       5.523  64.440   8.395  1.00  0.00     0.000 C 
BRANCH   6   7
ATOM      7  C   UNL     1       4.757  65.657   8.939  1.00  0.00     0.000 C 
BRANCH   7   8
ATOM      8  C   UNL     1       4.192  66.508   7.793  1.00  0.00     0.000 C 
BRANCH   8   9
ATOM      9  C   UNL     1       4.879  66.217   6.448  1.00  0.00     0.000 C 
BRANCH   9  10
ATOM     10  C   UNL     1       5.471  67.483   5.804  1.00  0.00     0.000 C 
BRANCH  10  11
ATOM     11  C   UNL     1       5.616  67.365   4.275  1.00  0.00     0.000 C 
BRANCH  11  12
ATOM     12  C   UNL     1       4.694  66.326   3.608  1.00  0.00     0.006 C 
BRANCH  12  13
ATOM     13  C   UNL     1       3.503  66.927   2.844  1.00  0.00     0.053 C 
BRANCH  13  14
ATOM     14  C   UNL     1       2.843  68.031   3.613  1.00  0.00     0.041 C 
ATOM     15  O   UNL     1       2.094  67.763   4.589  1.00  0.00    -0.550 OA
ATOM     16  O   UNL     1       3.033  69.354   3.233  1.00  0.00    -0.550 OA
ENDBRANCH  13  14
ENDBRANCH  12  13
ENDBRANCH  11  12
ENDBRANCH  10  11
ENDBRANCH   9  10
ENDBRANCH   8   9
ENDBRANCH   7   8
ENDBRANCH   6   7
ENDBRANCH   5   6
ENDBRANCH   4   5
ENDBRANCH   3   4
ENDBRANCH   2   3
ENDBRANCH   1   2
BRANCH   1  17
ATOM     17  C   UNL     1      11.173  64.090   9.447  1.00  0.00     0.000 C 
BRANCH  17  18
ATOM     18  C   UNL     1      10.660  63.090   8.397  1.00  0.00     0.000 C 
BRANCH  18  19
ATOM     19  C   UNL     1      11.799  62.399   7.628  1.00  0.00     0.000 C 
BRANCH  19  20
ATOM     20  C   UNL     1      13.163  63.069   7.863  1.00  0.00     0.000 C 
BRANCH  20  21
ATOM     21  C   UNL     1      13.656  63.850   6.634  1.00  0.00     0.000 C 
BRANCH  21  22
ATOM     22  C   UNL     1      13.755  65.361   6.897  1.00  0.00    -0.000 C 
BRANCH  22  23
ATOM     23  C   UNL     1      12.801  66.177   6.007  1.00  0.00    -0.000 C 
BRANCH  23  24
ATOM     24  C   UNL     1      12.068  65.310   4.967  1.00  0.00    -0.000 C 
BRANCH  24  25
ATOM     25  C   UNL     1      11.749  66.018   3.634  1.00  0.00    -0.000 C 
BRANCH  25  26
ATOM     26  C   UNL     1      10.371  65.682   3.032  1.00  0.00    -0.000 C 
BRANCH  26  27
ATOM     27  C   UNL     1       9.303  66.782   3.193  1.00  0.00    -0.000 C 
BRANCH  27  28
ATOM     28  C   UNL     1       9.156  67.339   4.620  1.00  0.00    -0.000 C 
BRANCH  28  29
ATOM     29  C   UNL     1       9.422  68.849   4.702  1.00  0.00    -0.003 C 
ATOM     30  C   UNL     1      10.658  69.144   5.546  1.00  0.00     0.004 C 
ENDBRANCH  28  29
ENDBRANCH  27  28
ENDBRANCH  26  27
ENDBRANCH  25  26
ENDBRANCH  24  25
ENDBRANCH  23  24
ENDBRANCH  22  23
ENDBRANCH  21  22
ENDBRANCH  20  21
ENDBRANCH  19  20
ENDBRANCH  18  19
ENDBRANCH  17  18
ENDBRANCH   1  17
TORSDOF 26
ENDMDL
MODEL 4
REMARK VINA RESULT:    -3.325      2.730      5.693
REMARK INTER + INTRA:         -13.860
REMARK INTER:                  -8.485
REMARK INTRA:                  -5.375
REMARK UNBOUND:                -5.482
REMARK SMILES CCCCCCCCCCCCCCCCCCCCCCCCCCCC(=O)[O-]
REMARK SMILES IDX 15 1 16 2 17 3 18 4 19 5 20 6 21 7 22 8 23 9 24 10 25 11
REMARK SMILES IDX 26 12 27 13 28 14 29 15 30 16 14 17 13 18 12 19 11 20 10 21
REMARK SMILES IDX 9 22 8 23 7 24 6 25 5 26 4 27 3 28 2 29 1 30
REMARK H PARENT
REMARK Flexibility Score: inf
ROOT
ATOM      1  C   UNL     1      12.985  62.767   7.573  1.00  0.00     0.000 C 
ENDROOT
BRANCH   1   2
ATOM      2  C   UNL     1      11.614  62.116   7.818  1.00  0.00     0.000 C 
BRANCH   2   3
ATOM      3  C   UNL     1      10.840  62.785   8.968  1.00  0.00     0.000 C 
BRANCH   3   4
ATOM      4  C   UNL     1       9.682  63.664   8.472  1.00  0.00     0.000 C 
BRANCH   4   5
ATOM      5  C   UNL     1      10.031  65.162   8.485  1.00  0.00     0.000 C 
BRANCH   5   6
ATOM      6  C   UNL     1      11.126  65.501   9.509  1.00  0.00     0.000 C 
BRANCH   6   7
ATOM      7  C   UNL     1      11.486  66.995   9.513  1.00  0.00     0.000 C 
BRANCH   7   8
ATOM      8  C   UNL     1      10.372  67.830   8.864  1.00  0.00     0.000 C 
BRANCH   8   9
ATOM      9  C   UNL     1       9.789  68.883   9.821  1.00  0.00     0.000 C 
BRANCH   9  10
ATOM     10  C   UNL     1       8.272  68.722  10.019  1.00  0.00     0.000 C 
BRANCH  10  11
ATOM     11  C   UNL     1       7.865  67.283  10.389  1.00  0.00     0.000 C 
BRANCH  11  12
ATOM     12  C   UNL     1       6.479  66.843   9.879  1.00  0.00     0.006 C 
BRANCH  12  13
ATOM     13  C   UNL     1       6.446  65.440   9.252  1.00  0.00     0.053 C 
BRANCH  13  14
ATOM     14  C   UNL     1       5.090  65.097   8.715  1.00  0.00     0.041 C 
ATOM     15  O   UNL     1       4.654  63.919   8.801  1.00  0.00    -0.550 OA
ATOM     16  O   UNL     1       4.319  66.073   8.094  1.00  0.00    -0.550 OA
ENDBRANCH  13  14
ENDBRANCH  12  13
ENDBRANCH  11  12
ENDBRANCH  10  11
ENDBRANCH   9  10
ENDBRANCH   8   9
ENDBRANCH   7   8
ENDBRANCH   6   7
ENDBRANCH   5   6
ENDBRANCH   4   5
ENDBRANCH   3   4
ENDBRANCH   2   3
ENDBRANCH   1   2
BRANCH   1  17
ATOM     17  C   UNL     1      12.980  63.709   6.356  1.00  0.00     0.000 C 
BRANCH  17  18
ATOM     18  C   UNL     1      13.583  65.087   6.675  1.00  0.00     0.000 C 
BRANCH  18  19
ATOM     19  C   UNL     1      12.755  66.247   6.095  1.00  0.00     0.000 C 
BRANCH  19  20
ATOM     20  C   UNL     1      11.582  65.760   5.227  1.00  0.00     0.000 C 
BRANCH  20  21
ATOM     21  C   UNL     1      11.708  66.205   3.760  1.00  0.00     0.000 C 
BRANCH  21  22
ATOM     22  C   UNL     1      10.510  65.764   2.905  1.00  0.00    -0.000 C 
BRANCH  22  23
ATOM     23  C   UNL     1       9.216  66.509   3.277  1.00  0.00    -0.000 C 
BRANCH  23  24
ATOM     24  C   UNL     1       9.405  68.036   3.341  1.00  0.00    -0.000 C 
BRANCH  24  25
ATOM     25  C   UNL     1       9.001  68.689   4.679  1.00  0.00    -0.000 C 
BRANCH  25  26
ATOM     26  C   UNL     1       8.562  67.703   5.779  1.00  0.00    -0.000 C 
BRANCH  26  27
ATOM     27  C   UNL     1       7.265  68.087   6.520  1.00  0.00    -0.000 C 
BRANCH  27  28
ATOM     28  C   UNL     1       6.058  68.374   5.609  1.00  0.00    -0.000 C 
BRANCH  28  29
ATOM     29  C   UNL     1       5.553  67.123   4.876  1.00  0.00    -0.003 C 
ATOM     30  C   UNL     1       5.221  67.436   3.421  1.00  0.00     0.004 C 
ENDBRANCH  28  29
ENDBRANCH  27  28
ENDBRANCH  26  27
ENDBRANCH  25  26
ENDBRANCH  24  25
ENDBRANCH  23  24
ENDBRANCH  22  23
ENDBRANCH  21  22
ENDBRANCH  20  21
ENDBRANCH  19  20
ENDBRANCH  18  19
ENDBRANCH  17  18
ENDBRANCH   1  17
TORSDOF 26
ENDMDL
MODEL 5
REMARK VINA RESULT:    -3.310      2.772      6.556
REMARK INTER + INTRA:         -13.824
REMARK INTER:                  -8.762
REMARK INTRA:                  -5.061
REMARK UNBOUND:                -5.482
REMARK SMILES CCCCCCCCCCCCCCCCCCCCCCCCCCCC(=O)[O-]
REMARK SMILES IDX 15 1 16 2 17 3 18 4 19 5 20 6 21 7 22 8 23 9 24 10 25 11
REMARK SMILES IDX 26 12 27 13 28 14 29 15 30 16 14 17 13 18 12 19 11 20 10 21
REMARK SMILES IDX 9 22 8 23 7 24 6 25 5 26 4 27 3 28 2 29 1 30
REMARK H PARENT
REMARK Flexibility Score: inf
ROOT
ATOM      1  C   UNL     1      10.929  62.985   9.003  1.00  0.00     0.000 C 
ENDROOT
BRANCH   1   2
ATOM      2  C   UNL     1       9.444  63.273   8.734  1.00  0.00     0.000 C 
BRANCH   2   3
ATOM      3  C   UNL     1       9.129  64.780   8.717  1.00  0.00     0.000 C 
BRANCH   3   4
ATOM      4  C   UNL     1      10.036  65.565   7.757  1.00  0.00     0.000 C 
BRANCH   4   5
ATOM      5  C   UNL     1      10.754  66.735   8.450  1.00  0.00     0.000 C 
BRANCH   5   6
ATOM      6  C   UNL     1      10.525  66.748   9.971  1.00  0.00     0.000 C 
BRANCH   6   7
ATOM      7  C   UNL     1       9.758  67.994  10.440  1.00  0.00     0.000 C 
BRANCH   7   8
ATOM      8  C   UNL     1       8.522  67.600  11.262  1.00  0.00     0.000 C 
BRANCH   8   9
ATOM      9  C   UNL     1       7.304  67.281  10.379  1.00  0.00     0.000 C 
BRANCH   9  10
ATOM     10  C   UNL     1       7.289  68.102   9.078  1.00  0.00     0.000 C 
BRANCH  10  11
ATOM     11  C   UNL     1       6.717  67.318   7.882  1.00  0.00     0.000 C 
BRANCH  11  12
ATOM     12  C   UNL     1       5.184  67.155   7.879  1.00  0.00     0.006 C 
BRANCH  12  13
ATOM     13  C   UNL     1       4.695  65.732   7.562  1.00  0.00     0.053 C 
BRANCH  13  14
ATOM     14  C   UNL     1       5.078  64.756   8.632  1.00  0.00     0.041 C 
ATOM     15  O   UNL     1       5.787  63.754   8.351  1.00  0.00    -0.550 OA
ATOM     16  O   UNL     1       4.628  64.938   9.935  1.00  0.00    -0.550 OA
ENDBRANCH  13  14
ENDBRANCH  12  13
ENDBRANCH  11  12
ENDBRANCH  10  11
ENDBRANCH   9  10
ENDBRANCH   8   9
ENDBRANCH   7   8
ENDBRANCH   6   7
ENDBRANCH   5   6
ENDBRANCH   4   5
ENDBRANCH   3   4
ENDBRANCH   2   3
ENDBRANCH   1   2
BRANCH   1  17
ATOM     17  C   UNL     1      11.524  61.981   8.000  1.00  0.00     0.000 C 
BRANCH  17  18
ATOM     18  C   UNL     1      12.630  62.601   7.129  1.00  0.00     0.000 C 
BRANCH  18  19
ATOM     19  C   UNL     1      13.353  63.767   7.828  1.00  0.00     0.000 C 
BRANCH  19  20
ATOM     20  C   UNL     1      13.753  64.884   6.850  1.00  0.00     0.000 C 
BRANCH  20  21
ATOM     21  C   UNL     1      12.766  65.024   5.678  1.00  0.00     0.000 C 
BRANCH  21  22
ATOM     22  C   UNL     1      12.608  66.481   5.213  1.00  0.00    -0.000 C 
BRANCH  22  23
ATOM     23  C   UNL     1      12.220  66.585   3.728  1.00  0.00    -0.000 C 
BRANCH  23  24
ATOM     24  C   UNL     1      11.236  65.485   3.290  1.00  0.00    -0.000 C 
BRANCH  24  25
ATOM     25  C   UNL     1       9.786  65.958   3.058  1.00  0.00    -0.000 C 
BRANCH  25  26
ATOM     26  C   UNL     1       9.513  67.427   3.435  1.00  0.00    -0.000 C 
BRANCH  26  27
ATOM     27  C   UNL     1       8.824  67.635   4.799  1.00  0.00    -0.000 C 
BRANCH  27  28
ATOM     28  C   UNL     1       9.428  68.755   5.665  1.00  0.00    -0.000 C 
BRANCH  28  29
ATOM     29  C   UNL     1       8.880  70.145   5.310  1.00  0.00    -0.003 C 
ATOM     30  C   UNL     1       7.716  70.525   6.219  1.00  0.00     0.004 C 
ENDBRANCH  28  29
ENDBRANCH  27  28
ENDBRANCH  26  27
ENDBRANCH  25  26
ENDBRANCH  24  25
ENDBRANCH  23  24
ENDBRANCH  22  23
ENDBRANCH  21  22
ENDBRANCH  20  21
ENDBRANCH  19  20
ENDBRANCH  18  19
ENDBRANCH  17  18
ENDBRANCH   1  17
TORSDOF 26
ENDMDL
MODEL 6
REMARK VINA RESULT:    -3.294      1.246      3.585
REMARK INTER + INTRA:         -13.782
REMARK INTER:                  -8.825
REMARK INTRA:                  -4.958
REMARK UNBOUND:                -5.482
REMARK SMILES CCCCCCCCCCCCCCCCCCCCCCCCCCCC(=O)[O-]
REMARK SMILES IDX 15 1 16 2 17 3 18 4 19 5 20 6 21 7 22 8 23 9 24 10 25 11
REMARK SMILES IDX 26 12 27 13 28 14 29 15 30 16 14 17 13 18 12 19 11 20 10 21
REMARK SMILES IDX 9 22 8 23 7 24 6 25 5 26 4 27 3 28 2 29 1 30
REMARK H PARENT
REMARK Flexibility Score: inf
ROOT
ATOM      1  C   UNL     1      10.433  64.445   8.939  1.00  0.00     0.000 C 
ENDROOT
BRANCH   1   2
ATOM      2  C   UNL     1      11.107  63.072   9.085  1.00  0.00     0.000 C 
BRANCH   2   3
ATOM      3  C   UNL     1      11.499  62.459   7.728  1.00  0.00     0.000 C 
BRANCH   3   4
ATOM      4  C   UNL     1      12.961  62.741   7.349  1.00  0.00     0.000 C 
BRANCH   4   5
ATOM      5  C   UNL     1      13.101  63.935   6.388  1.00  0.00     0.000 C 
BRANCH   5   6
ATOM      6  C   UNL     1      13.726  65.165   7.066  1.00  0.00     0.000 C 
BRANCH   6   7
ATOM      7  C   UNL     1      13.476  66.461   6.281  1.00  0.00     0.000 C 
BRANCH   7   8
ATOM      8  C   UNL     1      12.488  67.372   7.026  1.00  0.00     0.000 C 
BRANCH   8   9
ATOM      9  C   UNL     1      11.272  67.752   6.165  1.00  0.00     0.000 C 
BRANCH   9  10
ATOM     10  C   UNL     1      10.535  66.521   5.611  1.00  0.00     0.000 C 
BRANCH  10  11
ATOM     11  C   UNL     1       9.838  66.796   4.265  1.00  0.00     0.000 C 
BRANCH  11  12
ATOM     12  C   UNL     1      10.307  65.913   3.092  1.00  0.00     0.006 C 
BRANCH  12  13
ATOM     13  C   UNL     1      11.801  65.554   3.121  1.00  0.00     0.053 C 
BRANCH  13  14
ATOM     14  C   UNL     1      12.638  66.580   2.421  1.00  0.00     0.041 C 
ATOM     15  O   UNL     1      12.955  67.648   3.008  1.00  0.00    -0.550 OA
ATOM     16  O   UNL     1      13.046  66.369   1.109  1.00  0.00    -0.550 OA
ENDBRANCH  13  14
ENDBRANCH  12  13
ENDBRANCH  11  12
ENDBRANCH  10  11
ENDBRANCH   9  10
ENDBRANCH   8   9
ENDBRANCH   7   8
ENDBRANCH   6   7
ENDBRANCH   5   6
ENDBRANCH   4   5
ENDBRANCH   3   4
ENDBRANCH   2   3
ENDBRANCH   1   2
BRANCH   1  17
ATOM     17  C   UNL     1      11.086  65.519   9.827  1.00  0.00     0.000 C 
BRANCH  17  18
ATOM     18  C   UNL     1      10.249  66.806   9.910  1.00  0.00     0.000 C 
BRANCH  18  19
ATOM     19  C   UNL     1       9.028  66.782   8.973  1.00  0.00     0.000 C 
BRANCH  19  20
ATOM     20  C   UNL     1       7.744  67.273   9.664  1.00  0.00     0.000 C 
BRANCH  20  21
ATOM     21  C   UNL     1       6.770  66.126   9.983  1.00  0.00     0.000 C 
BRANCH  21  22
ATOM     22  C   UNL     1       6.756  65.045   8.891  1.00  0.00    -0.000 C 
BRANCH  22  23
ATOM     23  C   UNL     1       5.348  64.807   8.317  1.00  0.00    -0.000 C 
BRANCH  23  24
ATOM     24  C   UNL     1       4.415  66.017   8.507  1.00  0.00    -0.000 C 
BRANCH  24  25
ATOM     25  C   UNL     1       4.224  66.898   7.256  1.00  0.00    -0.000 C 
BRANCH  25  26
ATOM     26  C   UNL     1       5.334  67.940   7.017  1.00  0.00    -0.000 C 
BRANCH  26  27
ATOM     27  C   UNL     1       6.401  67.531   5.981  1.00  0.00    -0.000 C 
BRANCH  27  28
ATOM     28  C   UNL     1       6.340  68.300   4.649  1.00  0.00    -0.000 C 
BRANCH  28  29
ATOM     29  C   UNL     1       6.228  67.373   3.430  1.00  0.00    -0.003 C 
ATOM     30  C   UNL     1       5.308  66.192   3.721  1.00  0.00     0.004 C 
ENDBRANCH  28  29
ENDBRANCH  27  28
ENDBRANCH  26  27
ENDBRANCH  25  26
ENDBRANCH  24  25
ENDBRANCH  23  24
ENDBRANCH  22  23
ENDBRANCH  21  22
ENDBRANCH  20  21
ENDBRANCH  19  20
ENDBRANCH  18  19
ENDBRANCH  17  18
ENDBRANCH   1  17
TORSDOF 26
ENDMDL
MODEL 7
REMARK VINA RESULT:    -3.283      3.234      7.651
REMARK INTER + INTRA:         -13.756
REMARK INTER:                  -9.422
REMARK INTRA:                  -4.334
REMARK UNBOUND:                -5.482
REMARK SMILES CCCCCCCCCCCCCCCCCCCCCCCCCCCC(=O)[O-]
REMARK SMILES IDX 15 1 16 2 17 3 18 4 19 5 20 6 21 7 22 8 23 9 24 10 25 11
REMARK SMILES IDX 26 12 27 13 28 14 29 15 30 16 14 17 13 18 12 19 11 20 10 21
REMARK SMILES IDX 9 22 8 23 7 24 6 25 5 26 4 27 3 28 2 29 1 30
REMARK H PARENT
REMARK Flexibility Score: inf
ROOT
ATOM      1  C   UNL     1       7.547  64.339   8.730  1.00  0.00     0.000 C 
ENDROOT
BRANCH   1   2
ATOM      2  C   UNL     1       6.279  63.506   8.486  1.00  0.00     0.000 C 
BRANCH   2   3
ATOM      3  C   UNL     1       4.990  64.333   8.639  1.00  0.00     0.000 C 
BRANCH   3   4
ATOM      4  C   UNL     1       5.202  65.616   9.459  1.00  0.00     0.000 C 
BRANCH   4   5
ATOM      5  C   UNL     1       4.842  66.886   8.670  1.00  0.00     0.000 C 
BRANCH   5   6
ATOM      6  C   UNL     1       5.790  68.057   8.976  1.00  0.00     0.000 C 
BRANCH   6   7
ATOM      7  C   UNL     1       7.104  67.974   8.185  1.00  0.00     0.000 C 
BRANCH   7   8
ATOM      8  C   UNL     1       6.869  67.366   6.793  1.00  0.00     0.000 C 
BRANCH   8   9
ATOM      9  C   UNL     1       6.673  68.437   5.708  1.00  0.00     0.000 C 
BRANCH   9  10
ATOM     10  C   UNL     1       5.752  67.960   4.571  1.00  0.00     0.000 C 
BRANCH  10  11
ATOM     11  C   UNL     1       5.043  66.631   4.892  1.00  0.00     0.000 C 
BRANCH  11  12
ATOM     12  C   UNL     1       3.553  66.757   5.266  1.00  0.00     0.006 C 
BRANCH  12  13
ATOM     13  C   UNL     1       2.578  66.363   4.144  1.00  0.00     0.053 C 
BRANCH  13  14
ATOM     14  C   UNL     1       1.209  66.929   4.366  1.00  0.00     0.041 C 
ATOM     15  O   UNL     1       0.359  66.914   3.437  1.00  0.00    -0.550 OA
ATOM     16  O   UNL     1       0.881  67.500   5.590  1.00  0.00    -0.550 OA
ENDBRANCH  13  14
ENDBRANCH  12  13
ENDBRANCH  11  12
ENDBRANCH  10  11
ENDBRANCH   9  10
ENDBRANCH   8   9
ENDBRANCH   7   8
ENDBRANCH   6   7
ENDBRANCH   5   6
ENDBRANCH   4   5
ENDBRANCH   3   4
ENDBRANCH   2   3
ENDBRANCH   1   2
BRANCH   1  17
ATOM     17  C   UNL     1       8.835  63.509   8.579  1.00  0.00     0.000 C 
BRANCH  17  18
ATOM     18  C   UNL     1      10.099  64.313   8.927  1.00  0.00     0.000 C 
BRANCH  18  19
ATOM     19  C   UNL     1      11.337  63.419   9.117  1.00  0.00     0.000 C 
BRANCH  19  20
ATOM     20  C   UNL     1      11.518  62.408   7.973  1.00  0.00     0.000 C 
BRANCH  20  21
ATOM     21  C   UNL     1      12.849  62.595   7.225  1.00  0.00     0.000 C 
BRANCH  21  22
ATOM     22  C   UNL     1      12.824  63.799   6.270  1.00  0.00    -0.000 C 
BRANCH  22  23
ATOM     23  C   UNL     1      13.767  64.928   6.720  1.00  0.00    -0.000 C 
BRANCH  23  24
ATOM     24  C   UNL     1      13.229  66.328   6.374  1.00  0.00    -0.000 C 
BRANCH  24  25
ATOM     25  C   UNL     1      12.348  66.977   7.461  1.00  0.00    -0.000 C 
BRANCH  25  26
ATOM     26  C   UNL     1      10.906  67.301   7.022  1.00  0.00    -0.000 C 
BRANCH  26  27
ATOM     27  C   UNL     1      10.350  66.408   5.895  1.00  0.00    -0.000 C 
BRANCH  27  28
ATOM     28  C   UNL     1      10.031  67.145   4.582  1.00  0.00    -0.000 C 
BRANCH  28  29
ATOM     29  C   UNL     1      10.024  66.214   3.361  1.00  0.00    -0.003 C 
ATOM     30  C   UNL     1      11.350  65.473   3.228  1.00  0.00     0.004 C 
ENDBRANCH  28  29
ENDBRANCH  27  28
ENDBRANCH  26  27
ENDBRANCH  25  26
ENDBRANCH  24  25
ENDBRANCH  23  24
ENDBRANCH  22  23
ENDBRANCH  21  22
ENDBRANCH  20  21
ENDBRANCH  19  20
ENDBRANCH  18  19
ENDBRANCH  17  18
ENDBRANCH   1  17
TORSDOF 26
ENDMDL
MODEL 8
REMARK VINA RESULT:    -3.278      2.848      7.722
REMARK INTER + INTRA:         -13.742
REMARK INTER:                  -9.338
REMARK INTRA:                  -4.404
REMARK UNBOUND:                -5.482
REMARK SMILES CCCCCCCCCCCCCCCCCCCCCCCCCCCC(=O)[O-]
REMARK SMILES IDX 15 1 16 2 17 3 18 4 19 5 20 6 21 7 22 8 23 9 24 10 25 11
REMARK SMILES IDX 26 12 27 13 28 14 29 15 30 16 14 17 13 18 12 19 11 20 10 21
REMARK SMILES IDX 9 22 8 23 7 24 6 25 5 26 4 27 3 28 2 29 1 30
REMARK H PARENT
REMARK Flexibility Score: inf
ROOT
ATOM      1  C   UNL     1       9.494  65.176   8.363  1.00  0.00     0.000 C 
ENDROOT
BRANCH   1   2
ATOM      2  C   UNL     1      10.557  65.905   9.200  1.00  0.00     0.000 C 
BRANCH   2   3
ATOM      3  C   UNL     1      10.710  67.383   8.801  1.00  0.00     0.000 C 
BRANCH   3   4
ATOM      4  C   UNL     1       9.861  67.760   7.577  1.00  0.00     0.000 C 
BRANCH   4   5
ATOM      5  C   UNL     1      10.582  68.740   6.637  1.00  0.00     0.000 C 
BRANCH   5   6
ATOM      6  C   UNL     1      10.035  68.689   5.202  1.00  0.00     0.000 C 
BRANCH   6   7
ATOM      7  C   UNL     1       9.029  67.546   4.995  1.00  0.00     0.000 C 
BRANCH   7   8
ATOM      8  C   UNL     1       7.811  68.026   4.192  1.00  0.00     0.000 C 
BRANCH   8   9
ATOM      9  C   UNL     1       6.478  67.629   4.849  1.00  0.00     0.000 C 
BRANCH   9  10
ATOM     10  C   UNL     1       6.316  68.226   6.257  1.00  0.00     0.000 C 
BRANCH  10  11
ATOM     11  C   UNL     1       6.340  67.159   7.367  1.00  0.00     0.000 C 
BRANCH  11  12
ATOM     12  C   UNL     1       5.033  66.361   7.538  1.00  0.00     0.006 C 
BRANCH  12  13
ATOM     13  C   UNL     1       4.823  65.771   8.942  1.00  0.00     0.053 C 
BRANCH  13  14
ATOM     14  C   UNL     1       4.969  64.280   8.951  1.00  0.00     0.041 C 
ATOM     15  O   UNL     1       4.150  63.567   9.589  1.00  0.00    -0.550 OA
ATOM     16  O   UNL     1       6.027  63.679   8.279  1.00  0.00    -0.550 OA
ENDBRANCH  13  14
ENDBRANCH  12  13
ENDBRANCH  11  12
ENDBRANCH  10  11
ENDBRANCH   9  10
ENDBRANCH   8   9
ENDBRANCH   7   8
ENDBRANCH   6   7
ENDBRANCH   5   6
ENDBRANCH   4   5
ENDBRANCH   3   4
ENDBRANCH   2   3
ENDBRANCH   1   2
BRANCH   1  17
ATOM     17  C   UNL     1       9.550  63.648   8.541  1.00  0.00     0.000 C 
BRANCH  17  18
ATOM     18  C   UNL     1      10.953  63.150   8.926  1.00  0.00     0.000 C 
BRANCH  18  19
ATOM     19  C   UNL     1      11.494  62.087   7.953  1.00  0.00     0.000 C 
BRANCH  19  20
ATOM     20  C   UNL     1      12.751  62.559   7.203  1.00  0.00     0.000 C 
BRANCH  20  21
ATOM     21  C   UNL     1      13.388  63.803   7.844  1.00  0.00     0.000 C 
BRANCH  21  22
ATOM     22  C   UNL     1      14.046  64.729   6.807  1.00  0.00    -0.000 C 
BRANCH  22  23
ATOM     23  C   UNL     1      13.125  65.887   6.385  1.00  0.00    -0.000 C 
BRANCH  23  24
ATOM     24  C   UNL     1      11.906  65.413   5.572  1.00  0.00    -0.000 C 
BRANCH  24  25
ATOM     25  C   UNL     1      12.206  65.021   4.111  1.00  0.00    -0.000 C 
BRANCH  25  26
ATOM     26  C   UNL     1      11.320  65.711   3.056  1.00  0.00    -0.000 C 
BRANCH  26  27
ATOM     27  C   UNL     1      11.948  66.949   2.384  1.00  0.00    -0.000 C 
BRANCH  27  28
ATOM     28  C   UNL     1      11.145  67.522   1.202  1.00  0.00    -0.000 C 
BRANCH  28  29
ATOM     29  C   UNL     1      12.038  67.962   0.032  1.00  0.00    -0.003 C 
ATOM     30  C   UNL     1      11.891  67.017  -1.156  1.00  0.00     0.004 C 
ENDBRANCH  28  29
ENDBRANCH  27  28
ENDBRANCH  26  27
ENDBRANCH  25  26
ENDBRANCH  24  25
ENDBRANCH  23  24
ENDBRANCH  22  23
ENDBRANCH  21  22
ENDBRANCH  20  21
ENDBRANCH  19  20
ENDBRANCH  18  19
ENDBRANCH  17  18
ENDBRANCH   1  17
TORSDOF 26
ENDMDL
MODEL 9
REMARK VINA RESULT:    -3.206      2.227      7.105
REMARK INTER + INTRA:         -13.560
REMARK INTER:                  -7.837
REMARK INTRA:                  -5.724
REMARK UNBOUND:                -5.482
REMARK SMILES CCCCCCCCCCCCCCCCCCCCCCCCCCCC(=O)[O-]
REMARK SMILES IDX 15 1 16 2 17 3 18 4 19 5 20 6 21 7 22 8 23 9 24 10 25 11
REMARK SMILES IDX 26 12 27 13 28 14 29 15 30 16 14 17 13 18 12 19 11 20 10 21
REMARK SMILES IDX 9 22 8 23 7 24 6 25 5 26 4 27 3 28 2 29 1 30
REMARK H PARENT
REMARK Flexibility Score: inf
ROOT
ATOM      1  C   UNL     1       8.815  67.783   4.835  1.00  0.00     0.000 C 
ENDROOT
BRANCH   1   2
ATOM      2  C   UNL     1       8.338  67.721   6.295  1.00  0.00     0.000 C 
BRANCH   2   3
ATOM      3  C   UNL     1       7.358  68.855   6.644  1.00  0.00     0.000 C 
BRANCH   3   4
ATOM      4  C   UNL     1       7.261  69.112   8.156  1.00  0.00     0.000 C 
BRANCH   4   5
ATOM      5  C   UNL     1       7.870  67.971   8.988  1.00  0.00     0.000 C 
BRANCH   5   6
ATOM      6  C   UNL     1       6.870  67.381   9.997  1.00  0.00     0.000 C 
BRANCH   6   7
ATOM      7  C   UNL     1       6.628  65.879   9.777  1.00  0.00     0.000 C 
BRANCH   7   8
ATOM      8  C   UNL     1       6.273  65.590   8.311  1.00  0.00     0.000 C 
BRANCH   8   9
ATOM      9  C   UNL     1       4.756  65.585   8.061  1.00  0.00     0.000 C 
BRANCH   9  10
ATOM     10  C   UNL     1       4.186  67.001   7.875  1.00  0.00     0.000 C 
BRANCH  10  11
ATOM     11  C   UNL     1       3.927  67.353   6.398  1.00  0.00     0.000 C 
BRANCH  11  12
ATOM     12  C   UNL     1       4.265  66.238   5.390  1.00  0.00     0.006 C 
BRANCH  12  13
ATOM     13  C   UNL     1       5.305  66.630   4.329  1.00  0.00     0.053 C 
BRANCH  13  14
ATOM     14  C   UNL     1       4.829  67.759   3.467  1.00  0.00     0.041 C 
ATOM     15  O   UNL     1       5.551  68.779   3.302  1.00  0.00    -0.550 OA
ATOM     16  O   UNL     1       3.576  67.699   2.868  1.00  0.00    -0.550 OA
ENDBRANCH  13  14
ENDBRANCH  12  13
ENDBRANCH  11  12
ENDBRANCH  10  11
ENDBRANCH   9  10
ENDBRANCH   8   9
ENDBRANCH   7   8
ENDBRANCH   6   7
ENDBRANCH   5   6
ENDBRANCH   4   5
ENDBRANCH   3   4
ENDBRANCH   2   3
ENDBRANCH   1   2
BRANCH   1  17
ATOM     17  C   UNL     1      10.331  67.550   4.701  1.00  0.00     0.000 C 
BRANCH  17  18
ATOM     18  C   UNL     1      10.725  66.082   4.934  1.00  0.00     0.000 C 
BRANCH  18  19
ATOM     19  C   UNL     1      12.246  65.889   5.066  1.00  0.00     0.000 C 
BRANCH  19  20
ATOM     20  C   UNL     1      12.619  64.511   5.639  1.00  0.00     0.000 C 
BRANCH  20  21
ATOM     21  C   UNL     1      13.638  64.607   6.787  1.00  0.00     0.000 C 
BRANCH  21  22
ATOM     22  C   UNL     1      13.413  63.534   7.865  1.00  0.00    -0.000 C 
BRANCH  22  23
ATOM     23  C   UNL     1      12.181  62.659   7.576  1.00  0.00    -0.000 C 
BRANCH  23  24
ATOM     24  C   UNL     1      11.117  62.744   8.686  1.00  0.00    -0.000 C 
BRANCH  24  25
ATOM     25  C   UNL     1       9.891  63.619   8.351  1.00  0.00    -0.000 C 
BRANCH  25  26
ATOM     26  C   UNL     1      10.108  65.135   8.518  1.00  0.00    -0.000 C 
BRANCH  26  27
ATOM     27  C   UNL     1      10.925  65.546   9.760  1.00  0.00    -0.000 C 
BRANCH  27  28
ATOM     28  C   UNL     1      11.551  66.950   9.688  1.00  0.00    -0.000 C 
BRANCH  28  29
ATOM     29  C   UNL     1      11.527  67.542   8.272  1.00  0.00    -0.003 C 
ATOM     30  C   UNL     1      12.875  68.160   7.912  1.00  0.00     0.004 C 
ENDBRANCH  28  29
ENDBRANCH  27  28
ENDBRANCH  26  27
ENDBRANCH  25  26
ENDBRANCH  24  25
ENDBRANCH  23  24
ENDBRANCH  22  23
ENDBRANCH  21  22
ENDBRANCH  20  21
ENDBRANCH  19  20
ENDBRANCH  18  19
ENDBRANCH  17  18
ENDBRANCH   1  17
TORSDOF 26
ENDMDL
