MODEL 1
REMARK VINA RESULT:    -7.481      0.000      0.000
REMARK INTER + INTRA:         -12.163
REMARK INTER:                 -11.417
REMARK INTRA:                  -0.746
REMARK UNBOUND:                -0.746
REMARK SMILES CC(=O)CCC=C(C)CCC=C(C)CCC=C(C)C
REMARK SMILES IDX 10 1 11 2 12 3 13 4 14 5 15 6 16 7 18 8 17 9 19 10 9 11 7 12
REMARK SMILES IDX 6 13 8 14 5 15 4 16 2 17 3 18 1 19
REMARK H PARENT
REMARK Flexibility Score: inf
ROOT
ATOM      1  C   UNL     1      32.049  10.239  26.853  1.00  0.00     0.032 C 
ENDROOT
BRANCH   1   2
ATOM      2  C   UNL     1      33.502   9.878  27.041  1.00  0.00    -0.028 C 
ATOM      3  C   UNL     1      34.305  10.386  28.006  1.00  0.00    -0.077 C 
ATOM      4  C   UNL     1      35.720   9.874  28.097  1.00  0.00     0.039 C 
BRANCH   3   5
ATOM      5  C   UNL     1      33.854  11.466  28.973  1.00  0.00     0.034 C 
BRANCH   5   6
ATOM      6  C   UNL     1      35.039  12.274  29.521  1.00  0.00     0.032 C 
BRANCH   6   7
ATOM      7  C   UNL     1      35.231  13.571  28.771  1.00  0.00    -0.028 C 
ATOM      8  C   UNL     1      33.969  14.929  30.455  1.00  0.00     0.039 C 
ATOM      9  C   UNL     1      34.784  14.774  29.192  1.00  0.00    -0.080 C 
ATOM     10  C   UNL     1      35.100  15.988  28.357  1.00  0.00     0.039 C 
ENDBRANCH   6   7
ENDBRANCH   5   6
ENDBRANCH   3   5
ENDBRANCH   1   2
BRANCH   1  11
ATOM     11  C   UNL     1      31.421   9.395  25.738  1.00  0.00     0.034 C 
BRANCH  11  12
ATOM     12  C   UNL     1      29.952   9.157  26.008  1.00  0.00    -0.077 C 
ATOM     13  C   UNL     1      29.144  10.221  26.217  1.00  0.00    -0.028 C 
ATOM     14  C   UNL     1      29.432   7.739  26.036  1.00  0.00     0.039 C 
BRANCH  13  15
ATOM     15  C   UNL     1      27.650  10.143  26.439  1.00  0.00     0.035 C 
BRANCH  15  16
ATOM     16  C   UNL     1      27.081  11.513  26.822  1.00  0.00     0.079 C 
BRANCH  16  17
ATOM     17  C   UNL     1      25.741  11.384  27.499  1.00  0.00     0.130 C 
ATOM     18  O   UNL     1      25.410  10.312  27.981  1.00  0.00    -0.300 OA
ATOM     19  C   UNL     1      24.799  12.549  27.590  1.00  0.00     0.087 C 
ENDBRANCH  16  17
ENDBRANCH  15  16
ENDBRANCH  13  15
ENDBRANCH  11  12
ENDBRANCH   1  11
TORSDOF 9
ENDMDL
MODEL 2
REMARK VINA RESULT:    -6.938      1.626      3.068
REMARK INTER + INTRA:         -11.335
REMARK INTER:                 -10.134
REMARK INTRA:                  -1.201
REMARK UNBOUND:                -0.746
REMARK SMILES CC(=O)CCC=C(C)CCC=C(C)CCC=C(C)C
REMARK SMILES IDX 10 1 11 2 12 3 13 4 14 5 15 6 16 7 18 8 17 9 19 10 9 11 7 12
REMARK SMILES IDX 6 13 8 14 5 15 4 16 2 17 3 18 1 19
REMARK H PARENT
REMARK Flexibility Score: inf
ROOT
ATOM      1  C   UNL     1      35.252   9.177  27.796  1.00  0.00     0.032 C 
ENDROOT
BRANCH   1   2
ATOM      2  C   UNL     1      36.605   9.828  27.654  1.00  0.00    -0.028 C 
ATOM      3  C   UNL     1      36.996  10.947  28.308  1.00  0.00    -0.077 C 
ATOM      4  C   UNL     1      38.407  11.436  28.103  1.00  0.00     0.039 C 
BRANCH   3   5
ATOM      5  C   UNL     1      36.068  11.746  29.206  1.00  0.00     0.034 C 
BRANCH   5   6
ATOM      6  C   UNL     1      35.581  13.034  28.525  1.00  0.00     0.032 C 
BRANCH   6   7
ATOM      7  C   UNL     1      34.606  13.793  29.392  1.00  0.00    -0.028 C 
ATOM      8  C   UNL     1      35.308  16.033  28.517  1.00  0.00     0.039 C 
ATOM      9  C   UNL     1      34.450  15.135  29.377  1.00  0.00    -0.080 C 
ATOM     10  C   UNL     1      33.395  15.744  30.265  1.00  0.00     0.039 C 
ENDBRANCH   6   7
ENDBRANCH   5   6
ENDBRANCH   3   5
ENDBRANCH   1   2
BRANCH   1  11
ATOM     11  C   UNL     1      34.456   9.291  26.491  1.00  0.00     0.034 C 
BRANCH  11  12
ATOM     12  C   UNL     1      33.053   9.790  26.759  1.00  0.00    -0.077 C 
ATOM     13  C   UNL     1      32.088   9.554  25.842  1.00  0.00    -0.028 C 
ATOM     14  C   UNL     1      32.774  10.536  28.042  1.00  0.00     0.039 C 
BRANCH  13  15
ATOM     15  C   UNL     1      30.633   9.938  25.998  1.00  0.00     0.035 C 
BRANCH  15  16
ATOM     16  C   UNL     1      29.796   8.738  26.451  1.00  0.00     0.079 C 
BRANCH  16  17
ATOM     17  C   UNL     1      28.320   9.034  26.374  1.00  0.00     0.130 C 
ATOM     18  O   UNL     1      27.552   8.169  25.981  1.00  0.00    -0.300 OA
ATOM     19  C   UNL     1      27.773  10.374  26.769  1.00  0.00     0.087 C 
ENDBRANCH  16  17
ENDBRANCH  15  16
ENDBRANCH  13  15
ENDBRANCH  11  12
ENDBRANCH   1  11
TORSDOF 9
ENDMDL
MODEL 3
REMARK VINA RESULT:    -6.905      3.145      7.692
REMARK INTER + INTRA:         -11.284
REMARK INTER:                 -10.208
REMARK INTRA:                  -1.076
REMARK UNBOUND:                -0.746
REMARK SMILES CC(=O)CCC=C(C)CCC=C(C)CCC=C(C)C
REMARK SMILES IDX 10 1 11 2 12 3 13 4 14 5 15 6 16 7 18 8 17 9 19 10 9 11 7 12
REMARK SMILES IDX 6 13 8 14 5 15 4 16 2 17 3 18 1 19
REMARK H PARENT
REMARK Flexibility Score: inf
ROOT
ATOM      1  C   UNL     1      30.679  10.059  26.075  1.00  0.00     0.032 C 
ENDROOT
BRANCH   1   2
ATOM      2  C   UNL     1      29.506   9.115  25.978  1.00  0.00    -0.028 C 
ATOM      3  C   UNL     1      28.253   9.396  26.405  1.00  0.00    -0.077 C 
ATOM      4  C   UNL     1      27.176   8.366  26.178  1.00  0.00     0.039 C 
BRANCH   3   5
ATOM      5  C   UNL     1      27.895  10.682  27.129  1.00  0.00     0.034 C 
BRANCH   5   6
ATOM      6  C   UNL     1      26.490  11.177  26.754  1.00  0.00     0.032 C 
BRANCH   6   7
ATOM      7  C   UNL     1      26.483  12.652  26.427  1.00  0.00    -0.028 C 
ATOM      8  C   UNL     1      27.709  12.351  24.263  1.00  0.00     0.039 C 
ATOM      9  C   UNL     1      26.998  13.189  25.299  1.00  0.00    -0.080 C 
ATOM     10  C   UNL     1      26.868  14.676  25.090  1.00  0.00     0.039 C 
ENDBRANCH   6   7
ENDBRANCH   5   6
ENDBRANCH   3   5
ENDBRANCH   1   2
BRANCH   1  11
ATOM     11  C   UNL     1      31.964   9.379  25.587  1.00  0.00     0.034 C 
BRANCH  11  12
ATOM     12  C   UNL     1      33.094   9.597  26.570  1.00  0.00    -0.077 C 
ATOM     13  C   UNL     1      32.849  10.293  27.704  1.00  0.00    -0.028 C 
ATOM     14  C   UNL     1      34.458   9.032  26.255  1.00  0.00     0.039 C 
BRANCH  13  15
ATOM     15  C   UNL     1      33.859  10.538  28.802  1.00  0.00     0.035 C 
BRANCH  15  16
ATOM     16  C   UNL     1      34.404  11.969  28.736  1.00  0.00     0.079 C 
BRANCH  16  17
ATOM     17  C   UNL     1      35.910  11.988  28.752  1.00  0.00     0.130 C 
ATOM     18  O   UNL     1      36.497  13.038  28.963  1.00  0.00    -0.300 OA
ATOM     19  C   UNL     1      36.707  10.740  28.511  1.00  0.00     0.087 C 
ENDBRANCH  16  17
ENDBRANCH  15  16
ENDBRANCH  13  15
ENDBRANCH  11  12
ENDBRANCH   1  11
TORSDOF 9
ENDMDL
MODEL 4
REMARK VINA RESULT:    -6.858      2.889      7.486
REMARK INTER + INTRA:         -11.213
REMARK INTER:                 -10.493
REMARK INTRA:                  -0.720
REMARK UNBOUND:                -0.746
REMARK SMILES CC(=O)CCC=C(C)CCC=C(C)CCC=C(C)C
REMARK SMILES IDX 10 1 11 2 12 3 13 4 14 5 15 6 16 7 18 8 17 9 19 10 9 11 7 12
REMARK SMILES IDX 6 13 8 14 5 15 4 16 2 17 3 18 1 19
REMARK H PARENT
REMARK Flexibility Score: inf
ROOT
ATOM      1  C   UNL     1      34.791  11.781  28.508  1.00  0.00     0.032 C 
ENDROOT
BRANCH   1   2
ATOM      2  C   UNL     1      35.069  10.621  27.585  1.00  0.00    -0.028 C 
ATOM      3  C   UNL     1      34.120   9.884  26.963  1.00  0.00    -0.077 C 
ATOM      4  C   UNL     1      34.566   8.795  26.021  1.00  0.00     0.039 C 
BRANCH   3   5
ATOM      5  C   UNL     1      32.632  10.085  27.197  1.00  0.00     0.034 C 
BRANCH   5   6
ATOM      6  C   UNL     1      31.788   9.471  26.070  1.00  0.00     0.032 C 
BRANCH   6   7
ATOM      7  C   UNL     1      30.584  10.322  25.742  1.00  0.00    -0.028 C 
ATOM      8  C   UNL     1      28.940   8.570  26.451  1.00  0.00     0.039 C 
ATOM      9  C   UNL     1      29.302   9.944  25.936  1.00  0.00    -0.080 C 
ATOM     10  C   UNL     1      28.208  10.927  25.608  1.00  0.00     0.039 C 
ENDBRANCH   6   7
ENDBRANCH   5   6
ENDBRANCH   3   5
ENDBRANCH   1   2
BRANCH   1  11
ATOM     11  C   UNL     1      36.087  12.525  28.849  1.00  0.00     0.034 C 
BRANCH  11  12
ATOM     12  C   UNL     1      35.824  14.004  29.034  1.00  0.00    -0.077 C 
ATOM     13  C   UNL     1      34.605  14.404  29.461  1.00  0.00    -0.028 C 
ATOM     14  C   UNL     1      36.931  14.987  28.734  1.00  0.00     0.039 C 
BRANCH  13  15
ATOM     15  C   UNL     1      34.216  15.837  29.748  1.00  0.00     0.035 C 
BRANCH  15  16
ATOM     16  C   UNL     1      32.785  15.918  30.290  1.00  0.00     0.079 C 
BRANCH  16  17
ATOM     17  C   UNL     1      32.769  15.997  31.795  1.00  0.00     0.130 C 
ATOM     18  O   UNL     1      32.394  17.024  32.340  1.00  0.00    -0.300 OA
ATOM     19  C   UNL     1      33.209  14.839  32.641  1.00  0.00     0.087 C 
ENDBRANCH  16  17
ENDBRANCH  15  16
ENDBRANCH  13  15
ENDBRANCH  11  12
ENDBRANCH   1  11
TORSDOF 9
ENDMDL
MODEL 5
REMARK VINA RESULT:    -6.855      2.099      3.631
REMARK INTER + INTRA:         -11.208
REMARK INTER:                 -10.507
REMARK INTRA:                  -0.701
REMARK UNBOUND:                -0.746
REMARK SMILES CC(=O)CCC=C(C)CCC=C(C)CCC=C(C)C
REMARK SMILES IDX 10 1 11 2 12 3 13 4 14 5 15 6 16 7 18 8 17 9 19 10 9 11 7 12
REMARK SMILES IDX 6 13 8 14 5 15 4 16 2 17 3 18 1 19
REMARK H PARENT
REMARK Flexibility Score: inf
ROOT
ATOM      1  C   UNL     1      31.865  10.196  27.142  1.00  0.00     0.032 C 
ENDROOT
BRANCH   1   2
ATOM      2  C   UNL     1      33.331   9.864  27.265  1.00  0.00    -0.028 C 
ATOM      3  C   UNL     1      34.211  10.531  28.047  1.00  0.00    -0.077 C 
ATOM      4  C   UNL     1      35.633  10.033  28.106  1.00  0.00     0.039 C 
BRANCH   3   5
ATOM      5  C   UNL     1      33.838  11.773  28.837  1.00  0.00     0.034 C 
BRANCH   5   6
ATOM      6  C   UNL     1      35.075  12.476  29.417  1.00  0.00     0.032 C 
BRANCH   6   7
ATOM      7  C   UNL     1      35.342  13.797  28.737  1.00  0.00    -0.028 C 
ATOM      8  C   UNL     1      33.849  15.086  30.281  1.00  0.00     0.039 C 
ATOM      9  C   UNL     1      34.824  14.981  29.131  1.00  0.00    -0.080 C 
ATOM     10  C   UNL     1      35.226  16.225  28.381  1.00  0.00     0.039 C 
ENDBRANCH   6   7
ENDBRANCH   5   6
ENDBRANCH   3   5
ENDBRANCH   1   2
BRANCH   1  11
ATOM     11  C   UNL     1      31.338   9.817  25.753  1.00  0.00     0.034 C 
BRANCH  11  12
ATOM     12  C   UNL     1      29.983   9.151  25.857  1.00  0.00    -0.077 C 
ATOM     13  C   UNL     1      29.922   7.803  25.958  1.00  0.00    -0.028 C 
ATOM     14  C   UNL     1      28.742  10.010  25.844  1.00  0.00     0.039 C 
BRANCH  13  15
ATOM     15  C   UNL     1      28.649   7.005  26.128  1.00  0.00     0.035 C 
BRANCH  15  16
ATOM     16  C   UNL     1      28.812   5.588  25.567  1.00  0.00     0.079 C 
BRANCH  16  17
ATOM     17  C   UNL     1      28.082   4.575  26.409  1.00  0.00     0.130 C 
ATOM     18  O   UNL     1      27.823   4.834  27.575  1.00  0.00    -0.300 OA
ATOM     19  C   UNL     1      27.667   3.248  25.846  1.00  0.00     0.087 C 
ENDBRANCH  16  17
ENDBRANCH  15  16
ENDBRANCH  13  15
ENDBRANCH  11  12
ENDBRANCH   1  11
TORSDOF 9
ENDMDL
MODEL 6
REMARK VINA RESULT:    -6.828      5.095      7.252
REMARK INTER + INTRA:         -11.167
REMARK INTER:                  -9.094
REMARK INTRA:                  -2.073
REMARK UNBOUND:                -0.746
REMARK SMILES CC(=O)CCC=C(C)CCC=C(C)CCC=C(C)C
REMARK SMILES IDX 10 1 11 2 12 3 13 4 14 5 15 6 16 7 18 8 17 9 19 10 9 11 7 12
REMARK SMILES IDX 6 13 8 14 5 15 4 16 2 17 3 18 1 19
REMARK H PARENT
REMARK Flexibility Score: inf
ROOT
ATOM      1  C   UNL     1      36.254   9.379  26.223  1.00  0.00     0.032 C 
ENDROOT
BRANCH   1   2
ATOM      2  C   UNL     1      36.711   7.953  26.402  1.00  0.00    -0.028 C 
ATOM      3  C   UNL     1      37.299   7.466  27.520  1.00  0.00    -0.077 C 
ATOM      4  C   UNL     1      37.641   5.998  27.563  1.00  0.00     0.039 C 
BRANCH   3   5
ATOM      5  C   UNL     1      37.658   8.336  28.711  1.00  0.00     0.034 C 
BRANCH   5   6
ATOM      6  C   UNL     1      39.148   8.711  28.718  1.00  0.00     0.032 C 
BRANCH   6   7
ATOM      7  C   UNL     1      39.388  10.065  28.093  1.00  0.00    -0.028 C 
ATOM      8  C   UNL     1      40.281   9.108  25.957  1.00  0.00     0.039 C 
ATOM      9  C   UNL     1      39.867  10.259  26.844  1.00  0.00    -0.080 C 
ATOM     10  C   UNL     1      40.003  11.672  26.341  1.00  0.00     0.039 C 
ENDBRANCH   6   7
ENDBRANCH   5   6
ENDBRANCH   3   5
ENDBRANCH   1   2
BRANCH   1  11
ATOM     11  C   UNL     1      34.798   9.543  26.674  1.00  0.00     0.034 C 
BRANCH  11  12
ATOM     12  C   UNL     1      34.705  10.479  27.859  1.00  0.00    -0.077 C 
ATOM     13  C   UNL     1      35.699  11.373  28.066  1.00  0.00    -0.028 C 
ATOM     14  C   UNL     1      33.506  10.387  28.773  1.00  0.00     0.039 C 
BRANCH  13  15
ATOM     15  C   UNL     1      35.715  12.408  29.169  1.00  0.00     0.035 C 
BRANCH  15  16
ATOM     16  C   UNL     1      34.876  13.631  28.784  1.00  0.00     0.079 C 
BRANCH  16  17
ATOM     17  C   UNL     1      35.696  14.895  28.813  1.00  0.00     0.130 C 
ATOM     18  O   UNL     1      36.915  14.821  28.850  1.00  0.00    -0.300 OA
ATOM     19  C   UNL     1      35.044  16.246  28.801  1.00  0.00     0.087 C 
ENDBRANCH  16  17
ENDBRANCH  15  16
ENDBRANCH  13  15
ENDBRANCH  11  12
ENDBRANCH   1  11
TORSDOF 9
ENDMDL
MODEL 7
REMARK VINA RESULT:    -6.813      2.913      7.829
REMARK INTER + INTRA:         -11.144
REMARK INTER:                 -10.270
REMARK INTRA:                  -0.874
REMARK UNBOUND:                -0.746
REMARK SMILES CC(=O)CCC=C(C)CCC=C(C)CCC=C(C)C
REMARK SMILES IDX 10 1 11 2 12 3 13 4 14 5 15 6 16 7 18 8 17 9 19 10 9 11 7 12
REMARK SMILES IDX 6 13 8 14 5 15 4 16 2 17 3 18 1 19
REMARK H PARENT
REMARK Flexibility Score: inf
ROOT
ATOM      1  C   UNL     1      32.101  10.256  26.720  1.00  0.00     0.032 C 
ENDROOT
BRANCH   1   2
ATOM      2  C   UNL     1      31.512   8.987  26.156  1.00  0.00    -0.028 C 
ATOM      3  C   UNL     1      30.232   8.584  26.334  1.00  0.00    -0.077 C 
ATOM      4  C   UNL     1      29.781   7.319  25.650  1.00  0.00     0.039 C 
BRANCH   3   5
ATOM      5  C   UNL     1      29.246   9.329  27.218  1.00  0.00     0.034 C 
BRANCH   5   6
ATOM      6  C   UNL     1      27.913   9.584  26.499  1.00  0.00     0.032 C 
BRANCH   6   7
ATOM      7  C   UNL     1      27.799  11.011  26.018  1.00  0.00    -0.028 C 
ATOM      8  C   UNL     1      25.945  11.577  27.604  1.00  0.00     0.039 C 
ATOM      9  C   UNL     1      26.943  11.925  26.524  1.00  0.00    -0.080 C 
ATOM     10  C   UNL     1      26.982  13.327  25.973  1.00  0.00     0.039 C 
ENDBRANCH   6   7
ENDBRANCH   5   6
ENDBRANCH   3   5
ENDBRANCH   1   2
BRANCH   1  11
ATOM     11  C   UNL     1      32.927   9.957  27.977  1.00  0.00     0.034 C 
BRANCH  11  12
ATOM     12  C   UNL     1      34.147  10.850  28.042  1.00  0.00    -0.077 C 
ATOM     13  C   UNL     1      34.160  11.877  28.922  1.00  0.00    -0.028 C 
ATOM     14  C   UNL     1      35.311  10.568  27.122  1.00  0.00     0.039 C 
BRANCH  13  15
ATOM     15  C   UNL     1      35.327  12.814  29.141  1.00  0.00     0.035 C 
BRANCH  15  16
ATOM     16  C   UNL     1      34.854  14.270  29.218  1.00  0.00     0.079 C 
BRANCH  16  17
ATOM     17  C   UNL     1      35.930  15.224  28.771  1.00  0.00     0.130 C 
ATOM     18  O   UNL     1      35.619  16.328  28.350  1.00  0.00    -0.300 OA
ATOM     19  C   UNL     1      37.381  14.845  28.829  1.00  0.00     0.087 C 
ENDBRANCH  16  17
ENDBRANCH  15  16
ENDBRANCH  13  15
ENDBRANCH  11  12
ENDBRANCH   1  11
TORSDOF 9
ENDMDL
MODEL 8
REMARK VINA RESULT:    -6.811      3.858      8.227
REMARK INTER + INTRA:         -11.141
REMARK INTER:                 -10.170
REMARK INTRA:                  -0.972
REMARK UNBOUND:                -0.746
REMARK SMILES CC(=O)CCC=C(C)CCC=C(C)CCC=C(C)C
REMARK SMILES IDX 10 1 11 2 12 3 13 4 14 5 15 6 16 7 18 8 17 9 19 10 9 11 7 12
REMARK SMILES IDX 6 13 8 14 5 15 4 16 2 17 3 18 1 19
REMARK H PARENT
REMARK Flexibility Score: inf
ROOT
ATOM      1  C   UNL     1      31.478   9.551  25.659  1.00  0.00     0.032 C 
ENDROOT
BRANCH   1   2
ATOM      2  C   UNL     1      30.570   8.374  25.915  1.00  0.00    -0.028 C 
ATOM      3  C   UNL     1      29.218   8.418  25.873  1.00  0.00    -0.077 C 
ATOM      4  C   UNL     1      28.456   7.136  26.092  1.00  0.00     0.039 C 
BRANCH   3   5
ATOM      5  C   UNL     1      28.439   9.703  25.649  1.00  0.00     0.034 C 
BRANCH   5   6
ATOM      6  C   UNL     1      28.375  10.561  26.921  1.00  0.00     0.032 C 
BRANCH   6   7
ATOM      7  C   UNL     1      26.951  10.861  27.325  1.00  0.00    -0.028 C 
ATOM      8  C   UNL     1      26.922  13.098  26.199  1.00  0.00     0.039 C 
ATOM      9  C   UNL     1      26.276  11.980  26.983  1.00  0.00    -0.080 C 
ATOM     10  C   UNL     1      24.839  12.112  27.418  1.00  0.00     0.039 C 
ENDBRANCH   6   7
ENDBRANCH   5   6
ENDBRANCH   3   5
ENDBRANCH   1   2
BRANCH   1  11
ATOM     11  C   UNL     1      31.850  10.245  26.974  1.00  0.00     0.034 C 
BRANCH  11  12
ATOM     12  C   UNL     1      33.283   9.940  27.354  1.00  0.00    -0.077 C 
ATOM     13  C   UNL     1      34.039   9.197  26.514  1.00  0.00    -0.028 C 
ATOM     14  C   UNL     1      33.824  10.475  28.659  1.00  0.00     0.039 C 
BRANCH  13  15
ATOM     15  C   UNL     1      35.498   8.863  26.730  1.00  0.00     0.035 C 
BRANCH  15  16
ATOM     16  C   UNL     1      36.403   9.892  26.044  1.00  0.00     0.079 C 
BRANCH  16  17
ATOM     17  C   UNL     1      37.648  10.156  26.850  1.00  0.00     0.130 C 
ATOM     18  O   UNL     1      38.743  10.044  26.320  1.00  0.00    -0.300 OA
ATOM     19  C   UNL     1      37.571  10.553  28.295  1.00  0.00     0.087 C 
ENDBRANCH  16  17
ENDBRANCH  15  16
ENDBRANCH  13  15
ENDBRANCH  11  12
ENDBRANCH   1  11
TORSDOF 9
ENDMDL
MODEL 9
REMARK VINA RESULT:    -6.766      2.547      3.755
REMARK INTER + INTRA:         -11.072
REMARK INTER:                 -10.111
REMARK INTRA:                  -0.961
REMARK UNBOUND:                -0.746
REMARK SMILES CC(=O)CCC=C(C)CCC=C(C)CCC=C(C)C
REMARK SMILES IDX 10 1 11 2 12 3 13 4 14 5 15 6 16 7 18 8 17 9 19 10 9 11 7 12
REMARK SMILES IDX 6 13 8 14 5 15 4 16 2 17 3 18 1 19
REMARK H PARENT
REMARK Flexibility Score: inf
ROOT
ATOM      1  C   UNL     1      31.140   9.659  26.166  1.00  0.00     0.032 C 
ENDROOT
BRANCH   1   2
ATOM      2  C   UNL     1      31.951  10.293  27.268  1.00  0.00    -0.028 C 
ATOM      3  C   UNL     1      33.294  10.185  27.397  1.00  0.00    -0.077 C 
ATOM      4  C   UNL     1      33.964  10.933  28.522  1.00  0.00     0.039 C 
BRANCH   3   5
ATOM      5  C   UNL     1      34.146   9.322  26.484  1.00  0.00     0.034 C 
BRANCH   5   6
ATOM      6  C   UNL     1      35.437   8.858  27.175  1.00  0.00     0.032 C 
BRANCH   6   7
ATOM      7  C   UNL     1      36.665   9.224  26.375  1.00  0.00    -0.028 C 
ATOM      8  C   UNL     1      37.631  10.654  28.190  1.00  0.00     0.039 C 
ATOM      9  C   UNL     1      37.672  10.002  26.828  1.00  0.00    -0.080 C 
ATOM     10  C   UNL     1      38.858  10.235  25.929  1.00  0.00     0.039 C 
ENDBRANCH   6   7
ENDBRANCH   5   6
ENDBRANCH   3   5
ENDBRANCH   1   2
BRANCH   1  11
ATOM     11  C   UNL     1      30.081   8.714  26.746  1.00  0.00     0.034 C 
BRANCH  11  12
ATOM     12  C   UNL     1      28.687   9.205  26.419  1.00  0.00    -0.077 C 
ATOM     13  C   UNL     1      28.437  10.534  26.447  1.00  0.00    -0.028 C 
ATOM     14  C   UNL     1      27.618   8.196  26.072  1.00  0.00     0.039 C 
BRANCH  13  15
ATOM     15  C   UNL     1      27.115  11.173  26.087  1.00  0.00     0.035 C 
BRANCH  15  16
ATOM     16  C   UNL     1      27.155  12.686  26.327  1.00  0.00     0.079 C 
BRANCH  16  17
ATOM     17  C   UNL     1      27.135  13.451  25.029  1.00  0.00     0.130 C 
ATOM     18  O   UNL     1      26.622  14.560  24.992  1.00  0.00    -0.300 OA
ATOM     19  C   UNL     1      27.730  12.878  23.777  1.00  0.00     0.087 C 
ENDBRANCH  16  17
ENDBRANCH  15  16
ENDBRANCH  13  15
ENDBRANCH  11  12
ENDBRANCH   1  11
TORSDOF 9
ENDMDL
