MODEL 1
REMARK VINA RESULT:    -3.045      0.000      0.000
REMARK INTER + INTRA:          -3.317
REMARK INTER:                  -3.223
REMARK INTRA:                  -0.094
REMARK UNBOUND:                -0.094
REMARK SMILES C=C(C)[C@H]1CC=C(C)C(=O)C1
REMARK SMILES IDX 8 1 7 2 6 3 5 4 4 5 11 6 9 7 10 8 2 9 1 10 3 11
REMARK H PARENT
REMARK Flexibility Score: inf
ROOT
ATOM      1  C   UNL     1       7.880  -4.875 -24.704  1.00  0.00     0.048 C 
ATOM      2  C   UNL     1       7.892  -6.077 -23.801  1.00  0.00    -0.012 C 
ATOM      3  C   UNL     1       9.055  -6.682 -23.507  1.00  0.00    -0.019 C 
ATOM      4  C   UNL     1       9.123  -7.899 -22.623  1.00  0.00     0.036 C 
ATOM      5  C   UNL     1       8.022  -7.864 -21.546  1.00  0.00     0.025 C 
ATOM      6  C   UNL     1       6.638  -7.694 -22.201  1.00  0.00     0.089 C 
ATOM      7  C   UNL     1       6.638  -6.518 -23.138  1.00  0.00     0.158 C 
ATOM      8  O   UNL     1       5.551  -5.929 -23.384  1.00  0.00    -0.295 OA
ENDROOT
BRANCH   5   9
ATOM      9  C   UNL     1       8.072  -9.094 -20.650  1.00  0.00    -0.077 C 
ATOM     10  C   UNL     1       7.421  -9.129 -19.475  1.00  0.00     0.008 C 
ATOM     11  C   UNL     1       8.860 -10.307 -21.073  1.00  0.00     0.039 C 
ENDBRANCH   5   9
TORSDOF 1
ENDMDL
MODEL 2
REMARK VINA RESULT:    -1.836      1.692      4.376
REMARK INTER + INTRA:          -2.037
REMARK INTER:                  -1.942
REMARK INTRA:                  -0.095
REMARK UNBOUND:                -0.094
REMARK SMILES C=C(C)[C@H]1CC=C(C)C(=O)C1
REMARK SMILES IDX 8 1 7 2 6 3 5 4 4 5 11 6 9 7 10 8 2 9 1 10 3 11
REMARK H PARENT
REMARK Flexibility Score: inf
ROOT
ATOM      1  C   UNL     1       9.066 -10.328 -20.923  1.00  0.00     0.048 C 
ATOM      2  C   UNL     1       8.578  -9.069 -21.585  1.00  0.00    -0.012 C 
ATOM      3  C   UNL     1       9.125  -8.668 -22.746  1.00  0.00    -0.019 C 
ATOM      4  C   UNL     1       8.687  -7.407 -23.442  1.00  0.00     0.036 C 
ATOM      5  C   UNL     1       7.190  -7.134 -23.204  1.00  0.00     0.025 C 
ATOM      6  C   UNL     1       6.885  -7.102 -21.694  1.00  0.00     0.089 C 
ATOM      7  C   UNL     1       7.412  -8.341 -21.023  1.00  0.00     0.158 C 
ATOM      8  O   UNL     1       6.874  -8.736 -19.955  1.00  0.00    -0.295 OA
ENDROOT
BRANCH   5   9
ATOM      9  C   UNL     1       6.734  -5.855 -23.895  1.00  0.00    -0.077 C 
ATOM     10  C   UNL     1       7.213  -5.504 -25.102  1.00  0.00     0.008 C 
ATOM     11  C   UNL     1       5.727  -4.954 -23.230  1.00  0.00     0.039 C 
ENDBRANCH   5   9
TORSDOF 1
ENDMDL
MODEL 3
REMARK VINA RESULT:    -1.650      1.516      2.261
REMARK INTER + INTRA:          -1.840
REMARK INTER:                  -1.752
REMARK INTRA:                  -0.089
REMARK UNBOUND:                -0.094
REMARK SMILES C=C(C)[C@H]1CC=C(C)C(=O)C1
REMARK SMILES IDX 8 1 7 2 6 3 5 4 4 5 11 6 9 7 10 8 2 9 1 10 3 11
REMARK H PARENT
REMARK Flexibility Score: inf
ROOT
ATOM      1  C   UNL     1       6.451  -5.023 -24.098  1.00  0.00     0.048 C 
ATOM      2  C   UNL     1       7.012  -6.040 -23.143  1.00  0.00    -0.012 C 
ATOM      3  C   UNL     1       6.275  -7.109 -22.794  1.00  0.00    -0.019 C 
ATOM      4  C   UNL     1       6.780  -8.147 -21.830  1.00  0.00     0.036 C 
ATOM      5  C   UNL     1       8.307  -8.317 -21.946  1.00  0.00     0.025 C 
ATOM      6  C   UNL     1       9.011  -6.958 -21.763  1.00  0.00     0.089 C 
ATOM      7  C   UNL     1       8.420  -5.928 -22.686  1.00  0.00     0.158 C 
ATOM      8  O   UNL     1       9.125  -4.946 -23.042  1.00  0.00    -0.295 OA
ENDROOT
BRANCH   5   9
ATOM      9  C   UNL     1       8.834  -9.358 -20.968  1.00  0.00    -0.077 C 
ATOM     10  C   UNL     1       9.125 -10.608 -21.368  1.00  0.00     0.008 C 
ATOM     11  C   UNL     1       9.043  -8.998 -19.520  1.00  0.00     0.039 C 
ENDBRANCH   5   9
TORSDOF 1
ENDMDL
MODEL 4
REMARK VINA RESULT:    -1.162      2.217      4.775
REMARK INTER + INTRA:          -1.324
REMARK INTER:                  -1.228
REMARK INTRA:                  -0.096
REMARK UNBOUND:                -0.094
REMARK SMILES C=C(C)[C@H]1CC=C(C)C(=O)C1
REMARK SMILES IDX 8 1 7 2 6 3 5 4 4 5 11 6 9 7 10 8 2 9 1 10 3 11
REMARK H PARENT
REMARK Flexibility Score: inf
ROOT
ATOM      1  C   UNL     1       7.217 -10.031 -19.129  1.00  0.00     0.048 C 
ATOM      2  C   UNL     1       7.540  -9.306 -20.406  1.00  0.00    -0.012 C 
ATOM      3  C   UNL     1       6.984  -8.108 -20.655  1.00  0.00    -0.019 C 
ATOM      4  C   UNL     1       7.259  -7.348 -21.924  1.00  0.00     0.036 C 
ATOM      5  C   UNL     1       8.691  -7.608 -22.428  1.00  0.00     0.025 C 
ATOM      6  C   UNL     1       8.933  -9.122 -22.590  1.00  0.00     0.089 C 
ATOM      7  C   UNL     1       8.567  -9.853 -21.328  1.00  0.00     0.158 C 
ATOM      8  O   UNL     1       9.118 -10.959 -21.078  1.00  0.00    -0.295 OA
ENDROOT
BRANCH   5   9
ATOM      9  C   UNL     1       8.981  -6.852 -23.718  1.00  0.00    -0.077 C 
ATOM     10  C   UNL     1       9.125  -7.497 -24.888  1.00  0.00     0.008 C 
ATOM     11  C   UNL     1       9.111  -5.351 -23.701  1.00  0.00     0.039 C 
ENDBRANCH   5   9
TORSDOF 1
ENDMDL
MODEL 5
REMARK VINA RESULT:    -0.808     19.671     20.646
REMARK INTER + INTRA:          -0.949
REMARK INTER:                  -0.854
REMARK INTRA:                  -0.095
REMARK UNBOUND:                -0.094
REMARK SMILES C=C(C)[C@H]1CC=C(C)C(=O)C1
REMARK SMILES IDX 8 1 7 2 6 3 5 4 4 5 11 6 9 7 10 8 2 9 1 10 3 11
REMARK H PARENT
REMARK Flexibility Score: inf
ROOT
ATOM      1  C   UNL     1      -5.778 -12.359  -7.264  1.00  0.00     0.048 C 
ATOM      2  C   UNL     1      -4.832 -11.288  -6.796  1.00  0.00    -0.012 C 
ATOM      3  C   UNL     1      -4.751 -10.126  -7.467  1.00  0.00    -0.019 C 
ATOM      4  C   UNL     1      -3.809  -9.028  -7.053  1.00  0.00     0.036 C 
ATOM      5  C   UNL     1      -3.621  -9.005  -5.525  1.00  0.00     0.025 C 
ATOM      6  C   UNL     1      -3.162 -10.388  -5.022  1.00  0.00     0.089 C 
ATOM      7  C   UNL     1      -4.082 -11.465  -5.526  1.00  0.00     0.158 C 
ATOM      8  O   UNL     1      -4.185 -12.539  -4.875  1.00  0.00    -0.295 OA
ENDROOT
BRANCH   5   9
ATOM      9  C   UNL     1      -2.662  -7.904  -5.092  1.00  0.00    -0.077 C 
ATOM     10  C   UNL     1      -1.359  -8.157  -4.877  1.00  0.00     0.008 C 
ATOM     11  C   UNL     1      -3.165  -6.497  -4.896  1.00  0.00     0.039 C 
ENDBRANCH   5   9
TORSDOF 1
ENDMDL
MODEL 6
REMARK VINA RESULT:    -0.218     18.929     20.046
REMARK INTER + INTRA:          -0.324
REMARK INTER:                  -0.231
REMARK INTRA:                  -0.093
REMARK UNBOUND:                -0.094
REMARK SMILES C=C(C)[C@H]1CC=C(C)C(=O)C1
REMARK SMILES IDX 8 1 7 2 6 3 5 4 4 5 11 6 9 7 10 8 2 9 1 10 3 11
REMARK H PARENT
REMARK Flexibility Score: inf
ROOT
ATOM      1  C   UNL     1      -5.364 -12.167  -7.177  1.00  0.00     0.048 C 
ATOM      2  C   UNL     1      -4.710 -10.902  -6.696  1.00  0.00    -0.012 C 
ATOM      3  C   UNL     1      -4.319 -10.796  -5.414  1.00  0.00    -0.019 C 
ATOM      4  C   UNL     1      -3.675  -9.547  -4.875  1.00  0.00     0.036 C 
ATOM      5  C   UNL     1      -2.833  -8.845  -5.957  1.00  0.00     0.025 C 
ATOM      6  C   UNL     1      -3.692  -8.567  -7.206  1.00  0.00     0.089 C 
ATOM      7  C   UNL     1      -4.383  -9.823  -7.662  1.00  0.00     0.158 C 
ATOM      8  O   UNL     1      -4.715  -9.936  -8.872  1.00  0.00    -0.295 OA
ENDROOT
BRANCH   5   9
ATOM      9  C   UNL     1      -2.183  -7.573  -5.429  1.00  0.00    -0.077 C 
ATOM     10  C   UNL     1      -2.916  -6.592  -4.875  1.00  0.00     0.008 C 
ATOM     11  C   UNL     1      -0.690  -7.394  -5.518  1.00  0.00     0.039 C 
ENDBRANCH   5   9
TORSDOF 1
ENDMDL
