MODEL 1
REMARK VINA RESULT:    -4.005      0.000      0.000
REMARK INTER + INTRA:          -8.584
REMARK INTER:                  -7.048
REMARK INTRA:                  -1.536
REMARK UNBOUND:                -1.536
REMARK SMILES CCCCCCCCCCCCCCC(=O)[O-]
REMARK SMILES IDX 9 1 10 2 11 3 12 4 13 5 14 6 15 7 16 8 17 9 8 10 7 11 6 12
REMARK SMILES IDX 5 13 4 14 3 15 2 16 1 17
REMARK H PARENT
REMARK Flexibility Score: inf
ROOT
ATOM      1  C   UNL     1      36.530  20.262   3.959  1.00  0.00     0.000 C 
ENDROOT
BRANCH   1   2
ATOM      2  C   UNL     1      35.638  20.746   2.803  1.00  0.00     0.000 C 
BRANCH   2   3
ATOM      3  C   UNL     1      36.452  21.173   1.570  1.00  0.00     0.000 C 
BRANCH   3   4
ATOM      4  C   UNL     1      36.307  22.671   1.255  1.00  0.00     0.000 C 
BRANCH   4   5
ATOM      5  C   UNL     1      37.664  23.390   1.149  1.00  0.00     0.006 C 
BRANCH   5   6
ATOM      6  C   UNL     1      37.977  24.219   2.401  1.00  0.00     0.053 C 
BRANCH   6   7
ATOM      7  C   UNL     1      37.965  25.690   2.115  1.00  0.00     0.041 C 
ATOM      8  O   UNL     1      37.198  26.158   1.234  1.00  0.00    -0.550 OA
ATOM      9  O   UNL     1      38.824  26.540   2.801  1.00  0.00    -0.550 OA
ENDBRANCH   6   7
ENDBRANCH   5   6
ENDBRANCH   4   5
ENDBRANCH   3   4
ENDBRANCH   2   3
ENDBRANCH   1   2
BRANCH   1  10
ATOM     10  C   UNL     1      37.782  21.137   4.146  1.00  0.00     0.000 C 
BRANCH  10  11
ATOM     11  C   UNL     1      39.085  20.354   3.918  1.00  0.00    -0.000 C 
BRANCH  11  12
ATOM     12  C   UNL     1      40.271  20.934   4.707  1.00  0.00    -0.000 C 
BRANCH  12  13
ATOM     13  C   UNL     1      39.829  21.901   5.820  1.00  0.00    -0.000 C 
BRANCH  13  14
ATOM     14  C   UNL     1      39.743  21.277   7.227  1.00  0.00    -0.000 C 
BRANCH  14  15
ATOM     15  C   UNL     1      40.020  19.762   7.290  1.00  0.00    -0.000 C 
BRANCH  15  16
ATOM     16  C   UNL     1      38.773  18.884   7.495  1.00  0.00    -0.003 C 
ATOM     17  C   UNL     1      37.490  19.701   7.645  1.00  0.00     0.004 C 
ENDBRANCH  15  16
ENDBRANCH  14  15
ENDBRANCH  13  14
ENDBRANCH  12  13
ENDBRANCH  11  12
ENDBRANCH  10  11
ENDBRANCH   1  10
TORSDOF 13
ENDMDL
MODEL 2
REMARK VINA RESULT:    -3.982      3.133      6.263
REMARK INTER + INTRA:          -8.544
REMARK INTER:                  -6.998
REMARK INTRA:                  -1.547
REMARK UNBOUND:                -1.536
REMARK SMILES CCCCCCCCCCCCCCC(=O)[O-]
REMARK SMILES IDX 9 1 10 2 11 3 12 4 13 5 14 6 15 7 16 8 17 9 8 10 7 11 6 12
REMARK SMILES IDX 5 13 4 14 3 15 2 16 1 17
REMARK H PARENT
REMARK Flexibility Score: inf
ROOT
ATOM      1  C   UNL     1      36.339  20.202   4.087  1.00  0.00     0.000 C 
ENDROOT
BRANCH   1   2
ATOM      2  C   UNL     1      37.670  20.970   4.035  1.00  0.00     0.000 C 
BRANCH   2   3
ATOM      3  C   UNL     1      38.881  20.073   4.345  1.00  0.00     0.000 C 
BRANCH   3   4
ATOM      4  C   UNL     1      39.864  20.725   5.332  1.00  0.00     0.000 C 
BRANCH   4   5
ATOM      5  C   UNL     1      39.841  20.060   6.720  1.00  0.00     0.006 C 
BRANCH   5   6
ATOM      6  C   UNL     1      38.630  19.136   6.898  1.00  0.00     0.053 C 
BRANCH   6   7
ATOM      7  C   UNL     1      37.545  19.786   7.702  1.00  0.00     0.041 C 
ATOM      8  O   UNL     1      36.715  19.081   8.334  1.00  0.00    -0.550 OA
ATOM      9  O   UNL     1      37.432  21.170   7.728  1.00  0.00    -0.550 OA
ENDBRANCH   6   7
ENDBRANCH   5   6
ENDBRANCH   4   5
ENDBRANCH   3   4
ENDBRANCH   2   3
ENDBRANCH   1   2
BRANCH   1  10
ATOM     10  C   UNL     1      35.636  20.146   2.719  1.00  0.00     0.000 C 
BRANCH  10  11
ATOM     11  C   UNL     1      34.950  21.472   2.356  1.00  0.00    -0.000 C 
BRANCH  11  12
ATOM     12  C   UNL     1      35.346  21.983   0.961  1.00  0.00    -0.000 C 
BRANCH  12  13
ATOM     13  C   UNL     1      36.829  22.390   0.875  1.00  0.00    -0.000 C 
BRANCH  13  14
ATOM     14  C   UNL     1      37.188  23.693   1.617  1.00  0.00    -0.000 C 
BRANCH  14  15
ATOM     15  C   UNL     1      38.692  24.028   1.662  1.00  0.00    -0.000 C 
BRANCH  15  16
ATOM     16  C   UNL     1      39.628  22.811   1.559  1.00  0.00    -0.003 C 
ATOM     17  C   UNL     1      40.885  22.954   2.416  1.00  0.00     0.004 C 
ENDBRANCH  15  16
ENDBRANCH  14  15
ENDBRANCH  13  14
ENDBRANCH  12  13
ENDBRANCH  11  12
ENDBRANCH  10  11
ENDBRANCH   1  10
TORSDOF 13
ENDMDL
MODEL 3
REMARK VINA RESULT:    -3.941      2.575      3.828
REMARK INTER + INTRA:          -8.473
REMARK INTER:                  -6.917
REMARK INTRA:                  -1.556
REMARK UNBOUND:                -1.536
REMARK SMILES CCCCCCCCCCCCCCC(=O)[O-]
REMARK SMILES IDX 9 1 10 2 11 3 12 4 13 5 14 6 15 7 16 8 17 9 8 10 7 11 6 12
REMARK SMILES IDX 5 13 4 14 3 15 2 16 1 17
REMARK H PARENT
REMARK Flexibility Score: inf
ROOT
ATOM      1  C   UNL     1      40.322  21.379   3.266  1.00  0.00     0.000 C 
ENDROOT
BRANCH   1   2
ATOM      2  C   UNL     1      39.847  22.486   2.310  1.00  0.00     0.000 C 
BRANCH   2   3
ATOM      3  C   UNL     1      38.706  23.330   2.906  1.00  0.00     0.000 C 
BRANCH   3   4
ATOM      4  C   UNL     1      37.438  23.307   2.038  1.00  0.00     0.000 C 
BRANCH   4   5
ATOM      5  C   UNL     1      37.096  21.898   1.523  1.00  0.00     0.006 C 
BRANCH   5   6
ATOM      6  C   UNL     1      36.460  21.023   2.611  1.00  0.00     0.053 C 
BRANCH   6   7
ATOM      7  C   UNL     1      35.080  20.577   2.235  1.00  0.00     0.041 C 
ATOM      8  O   UNL     1      34.158  21.422   2.092  1.00  0.00    -0.550 OA
ATOM      9  O   UNL     1      34.805  19.226   2.072  1.00  0.00    -0.550 OA
ENDBRANCH   6   7
ENDBRANCH   5   6
ENDBRANCH   4   5
ENDBRANCH   3   4
ENDBRANCH   2   3
ENDBRANCH   1   2
BRANCH   1  10
ATOM     10  C   UNL     1      41.051  21.937   4.501  1.00  0.00     0.000 C 
BRANCH  10  11
ATOM     11  C   UNL     1      40.642  21.221   5.798  1.00  0.00    -0.000 C 
BRANCH  11  12
ATOM     12  C   UNL     1      40.209  22.199   6.904  1.00  0.00    -0.000 C 
BRANCH  12  13
ATOM     13  C   UNL     1      38.698  22.140   7.190  1.00  0.00    -0.000 C 
BRANCH  13  14
ATOM     14  C   UNL     1      37.836  21.606   6.028  1.00  0.00    -0.000 C 
BRANCH  14  15
ATOM     15  C   UNL     1      37.435  20.122   6.138  1.00  0.00    -0.000 C 
BRANCH  15  16
ATOM     16  C   UNL     1      37.573  19.517   7.545  1.00  0.00    -0.003 C 
ATOM     17  C   UNL     1      38.715  18.507   7.649  1.00  0.00     0.004 C 
ENDBRANCH  15  16
ENDBRANCH  14  15
ENDBRANCH  13  14
ENDBRANCH  12  13
ENDBRANCH  11  12
ENDBRANCH  10  11
ENDBRANCH   1  10
TORSDOF 13
ENDMDL
MODEL 4
REMARK VINA RESULT:    -3.917     17.757     19.980
REMARK INTER + INTRA:          -8.429
REMARK INTER:                  -5.963
REMARK INTRA:                  -2.466
REMARK UNBOUND:                -1.536
REMARK SMILES CCCCCCCCCCCCCCC(=O)[O-]
REMARK SMILES IDX 9 1 10 2 11 3 12 4 13 5 14 6 15 7 16 8 17 9 8 10 7 11 6 12
REMARK SMILES IDX 5 13 4 14 3 15 2 16 1 17
REMARK H PARENT
REMARK Flexibility Score: inf
ROOT
ATOM      1  C   UNL     1      21.997  22.916  16.711  1.00  0.00     0.000 C 
ENDROOT
BRANCH   1   2
ATOM      2  C   UNL     1      22.295  24.294  17.325  1.00  0.00     0.000 C 
BRANCH   2   3
ATOM      3  C   UNL     1      21.964  24.356  18.827  1.00  0.00     0.000 C 
BRANCH   3   4
ATOM      4  C   UNL     1      23.083  25.009  19.654  1.00  0.00     0.000 C 
BRANCH   4   5
ATOM      5  C   UNL     1      24.102  25.765  18.782  1.00  0.00     0.006 C 
BRANCH   5   6
ATOM      6  C   UNL     1      25.356  26.160  19.571  1.00  0.00     0.053 C 
BRANCH   6   7
ATOM      7  C   UNL     1      25.921  27.467  19.105  1.00  0.00     0.041 C 
ATOM      8  O   UNL     1      25.258  28.529  19.241  1.00  0.00    -0.550 OA
ATOM      9  O   UNL     1      27.167  27.509  18.492  1.00  0.00    -0.550 OA
ENDBRANCH   6   7
ENDBRANCH   5   6
ENDBRANCH   4   5
ENDBRANCH   3   4
ENDBRANCH   2   3
ENDBRANCH   1   2
BRANCH   1  10
ATOM     10  C   UNL     1      22.211  21.765  17.711  1.00  0.00     0.000 C 
BRANCH  10  11
ATOM     11  C   UNL     1      23.641  21.208  17.668  1.00  0.00    -0.000 C 
BRANCH  11  12
ATOM     12  C   UNL     1      24.468  21.598  18.906  1.00  0.00    -0.000 C 
BRANCH  12  13
ATOM     13  C   UNL     1      25.712  22.432  18.551  1.00  0.00    -0.000 C 
BRANCH  13  14
ATOM     14  C   UNL     1      26.053  22.482  17.048  1.00  0.00    -0.000 C 
BRANCH  14  15
ATOM     15  C   UNL     1      26.015  23.886  16.414  1.00  0.00    -0.000 C 
BRANCH  15  16
ATOM     16  C   UNL     1      25.605  23.915  14.932  1.00  0.00    -0.003 C 
ATOM     17  C   UNL     1      24.944  22.616  14.472  1.00  0.00     0.004 C 
ENDBRANCH  15  16
ENDBRANCH  14  15
ENDBRANCH  13  14
ENDBRANCH  12  13
ENDBRANCH  11  12
ENDBRANCH  10  11
ENDBRANCH   1  10
TORSDOF 13
ENDMDL
MODEL 5
REMARK VINA RESULT:    -3.870     17.939     20.157
REMARK INTER + INTRA:          -8.347
REMARK INTER:                  -6.030
REMARK INTRA:                  -2.317
REMARK UNBOUND:                -1.536
REMARK SMILES CCCCCCCCCCCCCCC(=O)[O-]
REMARK SMILES IDX 9 1 10 2 11 3 12 4 13 5 14 6 15 7 16 8 17 9 8 10 7 11 6 12
REMARK SMILES IDX 5 13 4 14 3 15 2 16 1 17
REMARK H PARENT
REMARK Flexibility Score: inf
ROOT
ATOM      1  C   UNL     1      22.392  21.778  17.212  1.00  0.00     0.000 C 
ENDROOT
BRANCH   1   2
ATOM      2  C   UNL     1      22.073  23.051  18.014  1.00  0.00     0.000 C 
BRANCH   2   3
ATOM      3  C   UNL     1      22.403  24.337  17.235  1.00  0.00     0.000 C 
BRANCH   3   4
ATOM      4  C   UNL     1      22.637  25.544  18.158  1.00  0.00     0.000 C 
BRANCH   4   5
ATOM      5  C   UNL     1      23.068  25.133  19.577  1.00  0.00     0.006 C 
BRANCH   5   6
ATOM      6  C   UNL     1      23.561  26.329  20.401  1.00  0.00     0.053 C 
BRANCH   6   7
ATOM      7  C   UNL     1      24.970  26.704  20.053  1.00  0.00     0.041 C 
ATOM      8  O   UNL     1      25.810  25.813  19.762  1.00  0.00    -0.550 OA
ATOM      9  O   UNL     1      25.362  28.037  20.080  1.00  0.00    -0.550 OA
ENDBRANCH   6   7
ENDBRANCH   5   6
ENDBRANCH   4   5
ENDBRANCH   3   4
ENDBRANCH   2   3
ENDBRANCH   1   2
BRANCH   1  10
ATOM     10  C   UNL     1      23.623  21.031  17.755  1.00  0.00     0.000 C 
BRANCH  10  11
ATOM     11  C   UNL     1      24.240  21.726  18.978  1.00  0.00    -0.000 C 
BRANCH  11  12
ATOM     12  C   UNL     1      25.737  22.031  18.795  1.00  0.00    -0.000 C 
BRANCH  12  13
ATOM     13  C   UNL     1      26.116  22.288  17.326  1.00  0.00    -0.000 C 
BRANCH  13  14
ATOM     14  C   UNL     1      25.993  23.755  16.870  1.00  0.00    -0.000 C 
BRANCH  14  15
ATOM     15  C   UNL     1      25.509  23.953  15.420  1.00  0.00    -0.000 C 
BRANCH  15  16
ATOM     16  C   UNL     1      25.120  22.658  14.686  1.00  0.00    -0.003 C 
ATOM     17  C   UNL     1      23.825  22.794  13.886  1.00  0.00     0.004 C 
ENDBRANCH  15  16
ENDBRANCH  14  15
ENDBRANCH  13  14
ENDBRANCH  12  13
ENDBRANCH  11  12
ENDBRANCH  10  11
ENDBRANCH   1  10
TORSDOF 13
ENDMDL
MODEL 6
REMARK VINA RESULT:    -3.870      3.533      6.232
REMARK INTER + INTRA:          -8.347
REMARK INTER:                  -6.876
REMARK INTRA:                  -1.470
REMARK UNBOUND:                -1.536
REMARK SMILES CCCCCCCCCCCCCCC(=O)[O-]
REMARK SMILES IDX 9 1 10 2 11 3 12 4 13 5 14 6 15 7 16 8 17 9 8 10 7 11 6 12
REMARK SMILES IDX 5 13 4 14 3 15 2 16 1 17
REMARK H PARENT
REMARK Flexibility Score: inf
ROOT
ATOM      1  C   UNL     1      41.111  22.268   4.701  1.00  0.00     0.000 C 
ENDROOT
BRANCH   1   2
ATOM      2  C   UNL     1      40.681  21.334   5.845  1.00  0.00     0.000 C 
BRANCH   2   3
ATOM      3  C   UNL     1      39.783  22.039   6.875  1.00  0.00     0.000 C 
BRANCH   3   4
ATOM      4  C   UNL     1      38.286  21.897   6.551  1.00  0.00     0.000 C 
BRANCH   4   5
ATOM      5  C   UNL     1      38.007  20.813   5.495  1.00  0.00     0.006 C 
BRANCH   5   6
ATOM      6  C   UNL     1      37.123  19.686   6.043  1.00  0.00     0.053 C 
BRANCH   6   7
ATOM      7  C   UNL     1      37.526  19.283   7.429  1.00  0.00     0.041 C 
ATOM      8  O   UNL     1      36.763  19.515   8.403  1.00  0.00    -0.550 OA
ATOM      9  O   UNL     1      38.757  18.679   7.648  1.00  0.00    -0.550 OA
ENDBRANCH   6   7
ENDBRANCH   5   6
ENDBRANCH   4   5
ENDBRANCH   3   4
ENDBRANCH   2   3
ENDBRANCH   1   2
BRANCH   1  10
ATOM     10  C   UNL     1      41.004  21.598   3.319  1.00  0.00     0.000 C 
BRANCH  10  11
ATOM     11  C   UNL     1      40.761  22.613   2.192  1.00  0.00    -0.000 C 
BRANCH  11  12
ATOM     12  C   UNL     1      39.825  23.758   2.615  1.00  0.00    -0.000 C 
BRANCH  12  13
ATOM     13  C   UNL     1      38.455  23.695   1.916  1.00  0.00    -0.000 C 
BRANCH  13  14
ATOM     14  C   UNL     1      37.394  22.845   2.643  1.00  0.00    -0.000 C 
BRANCH  14  15
ATOM     15  C   UNL     1      37.054  21.502   1.968  1.00  0.00    -0.000 C 
BRANCH  15  16
ATOM     16  C   UNL     1      35.644  21.424   1.357  1.00  0.00    -0.003 C 
ATOM     17  C   UNL     1      34.558  21.163   2.399  1.00  0.00     0.004 C 
ENDBRANCH  15  16
ENDBRANCH  14  15
ENDBRANCH  13  14
ENDBRANCH  12  13
ENDBRANCH  11  12
ENDBRANCH  10  11
ENDBRANCH   1  10
TORSDOF 13
ENDMDL
MODEL 7
REMARK VINA RESULT:    -3.838      3.390      6.854
REMARK INTER + INTRA:          -8.290
REMARK INTER:                  -7.245
REMARK INTRA:                  -1.046
REMARK UNBOUND:                -1.536
REMARK SMILES CCCCCCCCCCCCCCC(=O)[O-]
REMARK SMILES IDX 9 1 10 2 11 3 12 4 13 5 14 6 15 7 16 8 17 9 8 10 7 11 6 12
REMARK SMILES IDX 5 13 4 14 3 15 2 16 1 17
REMARK H PARENT
REMARK Flexibility Score: inf
ROOT
ATOM      1  C   UNL     1      36.780  21.364   1.981  1.00  0.00     0.000 C 
ENDROOT
BRANCH   1   2
ATOM      2  C   UNL     1      35.823  20.616   2.925  1.00  0.00     0.000 C 
BRANCH   2   3
ATOM      3  C   UNL     1      36.503  20.187   4.237  1.00  0.00     0.000 C 
BRANCH   3   4
ATOM      4  C   UNL     1      38.030  20.369   4.199  1.00  0.00     0.000 C 
BRANCH   4   5
ATOM      5  C   UNL     1      38.572  21.100   5.440  1.00  0.00     0.006 C 
BRANCH   5   6
ATOM      6  C   UNL     1      39.351  20.160   6.369  1.00  0.00     0.053 C 
BRANCH   6   7
ATOM      7  C   UNL     1      38.446  19.441   7.323  1.00  0.00     0.041 C 
ATOM      8  O   UNL     1      38.647  18.228   7.595  1.00  0.00    -0.550 OA
ATOM      9  O   UNL     1      37.363  20.102   7.888  1.00  0.00    -0.550 OA
ENDBRANCH   6   7
ENDBRANCH   5   6
ENDBRANCH   4   5
ENDBRANCH   3   4
ENDBRANCH   2   3
ENDBRANCH   1   2
BRANCH   1  10
ATOM     10  C   UNL     1      36.082  22.498   1.210  1.00  0.00     0.000 C 
BRANCH  10  11
ATOM     11  C   UNL     1      36.931  23.777   1.151  1.00  0.00    -0.000 C 
BRANCH  11  12
ATOM     12  C   UNL     1      38.045  23.800   2.212  1.00  0.00    -0.000 C 
BRANCH  12  13
ATOM     13  C   UNL     1      38.559  25.221   2.504  1.00  0.00    -0.000 C 
BRANCH  13  14
ATOM     14  C   UNL     1      37.830  26.345   1.741  1.00  0.00    -0.000 C 
BRANCH  14  15
ATOM     15  C   UNL     1      37.687  27.673   2.510  1.00  0.00    -0.000 C 
BRANCH  15  16
ATOM     16  C   UNL     1      36.545  28.582   2.024  1.00  0.00    -0.003 C 
ATOM     17  C   UNL     1      35.385  27.801   1.409  1.00  0.00     0.004 C 
ENDBRANCH  15  16
ENDBRANCH  14  15
ENDBRANCH  13  14
ENDBRANCH  12  13
ENDBRANCH  11  12
ENDBRANCH  10  11
ENDBRANCH   1  10
TORSDOF 13
ENDMDL
MODEL 8
REMARK VINA RESULT:    -3.814      3.250      6.296
REMARK INTER + INTRA:          -8.248
REMARK INTER:                  -6.794
REMARK INTRA:                  -1.454
REMARK UNBOUND:                -1.536
REMARK SMILES CCCCCCCCCCCCCCC(=O)[O-]
REMARK SMILES IDX 9 1 10 2 11 3 12 4 13 5 14 6 15 7 16 8 17 9 8 10 7 11 6 12
REMARK SMILES IDX 5 13 4 14 3 15 2 16 1 17
REMARK H PARENT
REMARK Flexibility Score: inf
ROOT
ATOM      1  C   UNL     1      39.796  22.350   2.699  1.00  0.00     0.000 C 
ENDROOT
BRANCH   1   2
ATOM      2  C   UNL     1      39.817  20.819   2.844  1.00  0.00     0.000 C 
BRANCH   2   3
ATOM      3  C   UNL     1      39.737  20.364   4.312  1.00  0.00     0.000 C 
BRANCH   3   4
ATOM      4  C   UNL     1      40.498  21.301   5.264  1.00  0.00     0.000 C 
BRANCH   4   5
ATOM      5  C   UNL     1      39.956  21.254   6.703  1.00  0.00     0.006 C 
BRANCH   5   6
ATOM      6  C   UNL     1      40.026  19.843   7.302  1.00  0.00     0.053 C 
BRANCH   6   7
ATOM      7  C   UNL     1      38.665  19.301   7.615  1.00  0.00     0.041 C 
ATOM      8  O   UNL     1      38.513  18.076   7.865  1.00  0.00    -0.550 OA
ATOM      9  O   UNL     1      37.560  20.142   7.603  1.00  0.00    -0.550 OA
ENDBRANCH   6   7
ENDBRANCH   5   6
ENDBRANCH   4   5
ENDBRANCH   3   4
ENDBRANCH   2   3
ENDBRANCH   1   2
BRANCH   1  10
ATOM     10  C   UNL     1      38.438  22.961   3.086  1.00  0.00     0.000 C 
BRANCH  10  11
ATOM     11  C   UNL     1      38.091  24.202   2.249  1.00  0.00    -0.000 C 
BRANCH  11  12
ATOM     12  C   UNL     1      36.828  24.006   1.392  1.00  0.00    -0.000 C 
BRANCH  12  13
ATOM     13  C   UNL     1      36.646  22.550   0.926  1.00  0.00    -0.000 C 
BRANCH  13  14
ATOM     14  C   UNL     1      35.203  22.014   1.020  1.00  0.00    -0.000 C 
BRANCH  14  15
ATOM     15  C   UNL     1      34.842  21.339   2.358  1.00  0.00    -0.000 C 
BRANCH  15  16
ATOM     16  C   UNL     1      35.840  20.269   2.833  1.00  0.00    -0.003 C 
ATOM     17  C   UNL     1      36.206  20.412   4.310  1.00  0.00     0.004 C 
ENDBRANCH  15  16
ENDBRANCH  14  15
ENDBRANCH  13  14
ENDBRANCH  12  13
ENDBRANCH  11  12
ENDBRANCH  10  11
ENDBRANCH   1  10
TORSDOF 13
ENDMDL
MODEL 9
REMARK VINA RESULT:    -3.724      2.935      6.009
REMARK INTER + INTRA:          -8.090
REMARK INTER:                  -6.301
REMARK INTRA:                  -1.789
REMARK UNBOUND:                -1.536
REMARK SMILES CCCCCCCCCCCCCCC(=O)[O-]
REMARK SMILES IDX 9 1 10 2 11 3 12 4 13 5 14 6 15 7 16 8 17 9 8 10 7 11 6 12
REMARK SMILES IDX 5 13 4 14 3 15 2 16 1 17
REMARK H PARENT
REMARK Flexibility Score: inf
ROOT
ATOM      1  C   UNL     1      40.975  23.618   3.291  1.00  0.00     0.000 C 
ENDROOT
BRANCH   1   2
ATOM      2  C   UNL     1      40.681  22.372   4.145  1.00  0.00     0.000 C 
BRANCH   2   3
ATOM      3  C   UNL     1      40.148  21.196   3.309  1.00  0.00     0.000 C 
BRANCH   3   4
ATOM      4  C   UNL     1      39.312  20.209   4.140  1.00  0.00     0.000 C 
BRANCH   4   5
ATOM      5  C   UNL     1      37.827  20.607   4.216  1.00  0.00     0.006 C 
BRANCH   5   6
ATOM      6  C   UNL     1      37.133  20.017   5.451  1.00  0.00     0.053 C 
BRANCH   6   7
ATOM      7  C   UNL     1      37.808  20.431   6.723  1.00  0.00     0.041 C 
ATOM      8  O   UNL     1      38.025  21.649   6.958  1.00  0.00    -0.550 OA
ATOM      9  O   UNL     1      38.226  19.470   7.634  1.00  0.00    -0.550 OA
ENDBRANCH   6   7
ENDBRANCH   5   6
ENDBRANCH   4   5
ENDBRANCH   3   4
ENDBRANCH   2   3
ENDBRANCH   1   2
BRANCH   1  10
ATOM     10  C   UNL     1      39.948  23.815   2.162  1.00  0.00     0.000 C 
BRANCH  10  11
ATOM     11  C   UNL     1      38.639  24.447   2.662  1.00  0.00    -0.000 C 
BRANCH  11  12
ATOM     12  C   UNL     1      37.405  23.937   1.899  1.00  0.00    -0.000 C 
BRANCH  12  13
ATOM     13  C   UNL     1      37.749  22.838   0.877  1.00  0.00    -0.000 C 
BRANCH  13  14
ATOM     14  C   UNL     1      36.867  21.576   0.959  1.00  0.00    -0.000 C 
BRANCH  14  15
ATOM     15  C   UNL     1      35.348  21.838   0.970  1.00  0.00    -0.000 C 
BRANCH  15  16
ATOM     16  C   UNL     1      34.581  21.148   2.111  1.00  0.00    -0.003 C 
ATOM     17  C   UNL     1      34.850  19.645   2.185  1.00  0.00     0.004 C 
ENDBRANCH  15  16
ENDBRANCH  14  15
ENDBRANCH  13  14
ENDBRANCH  12  13
ENDBRANCH  11  12
ENDBRANCH  10  11
ENDBRANCH   1  10
TORSDOF 13
ENDMDL
