MODEL 1
REMARK VINA RESULT:    -3.519      0.000      0.000
REMARK INTER + INTRA:          -5.808
REMARK INTER:                  -5.062
REMARK INTRA:                  -0.745
REMARK UNBOUND:                -0.745
REMARK SMILES CCCCCCCCCO
REMARK SMILES IDX 6 1 5 2 4 3 3 4 2 5 1 6 7 7 8 8 9 9 10 10
REMARK H PARENT 10 11
REMARK Flexibility Score: inf
ROOT
ATOM      1  C   UNL     1     177.123 180.007 179.496  1.00  0.00     0.000 C 
ENDROOT
BRANCH   1   2
ATOM      2  C   UNL     1     176.719 179.956 180.981  1.00  0.00     0.000 C 
BRANCH   2   3
ATOM      3  C   UNL     1     177.104 178.631 181.659  1.00  0.00    -0.000 C 
BRANCH   3   4
ATOM      4  C   UNL     1     176.002 177.565 181.538  1.00  0.00    -0.000 C 
BRANCH   4   5
ATOM      5  C   UNL     1     176.431 176.362 180.686  1.00  0.00    -0.003 C 
ATOM      6  C   UNL     1     177.938 176.368 180.448  1.00  0.00     0.004 C 
ENDBRANCH   4   5
ENDBRANCH   3   4
ENDBRANCH   2   3
ENDBRANCH   1   2
BRANCH   1   7
ATOM      7  C   UNL     1     175.953 179.949 178.493  1.00  0.00     0.002 C 
BRANCH   7   8
ATOM      8  C   UNL     1     175.766 178.595 177.784  1.00  0.00     0.028 C 
BRANCH   8   9
ATOM      9  C   UNL     1     176.773 178.338 176.656  1.00  0.00     0.156 C 
BRANCH   9  10
ATOM     10  O   UNL     1     177.755 177.424 177.062  1.00  0.00    -0.396 OA
ATOM     11  H   UNL     1     177.342 176.522 177.027  1.00  0.00     0.210 HD
ENDBRANCH   9  10
ENDBRANCH   8   9
ENDBRANCH   7   8
ENDBRANCH   1   7
TORSDOF 8
ENDMDL
MODEL 2
REMARK VINA RESULT:    -3.473      1.550      2.267
REMARK INTER + INTRA:          -5.741
REMARK INTER:                  -5.008
REMARK INTRA:                  -0.733
REMARK UNBOUND:                -0.745
REMARK SMILES CCCCCCCCCO
REMARK SMILES IDX 6 1 5 2 4 3 3 4 2 5 1 6 7 7 8 8 9 9 10 10
REMARK H PARENT 10 11
REMARK Flexibility Score: inf
ROOT
ATOM      1  C   UNL     1     177.543 179.380 179.758  1.00  0.00     0.000 C 
ENDROOT
BRANCH   1   2
ATOM      2  C   UNL     1     176.918 179.771 181.109  1.00  0.00     0.000 C 
BRANCH   2   3
ATOM      3  C   UNL     1     176.293 178.575 181.846  1.00  0.00    -0.000 C 
BRANCH   3   4
ATOM      4  C   UNL     1     174.979 178.105 181.198  1.00  0.00    -0.000 C 
BRANCH   4   5
ATOM      5  C   UNL     1     173.950 179.237 181.057  1.00  0.00    -0.003 C 
ATOM      6  C   UNL     1     173.039 179.003 179.855  1.00  0.00     0.004 C 
ENDBRANCH   4   5
ENDBRANCH   3   4
ENDBRANCH   2   3
ENDBRANCH   1   2
BRANCH   1   7
ATOM      7  C   UNL     1     176.868 179.999 178.517  1.00  0.00     0.002 C 
BRANCH   7   8
ATOM      8  C   UNL     1     176.071 179.011 177.645  1.00  0.00     0.028 C 
BRANCH   8   9
ATOM      9  C   UNL     1     176.668 177.598 177.599  1.00  0.00     0.156 C 
BRANCH   9  10
ATOM     10  O   UNL     1     177.813 177.567 176.791  1.00  0.00    -0.396 OA
ATOM     11  H   UNL     1     177.686 176.827 176.140  1.00  0.00     0.210 HD
ENDBRANCH   9  10
ENDBRANCH   8   9
ENDBRANCH   7   8
ENDBRANCH   1   7
TORSDOF 8
ENDMDL
MODEL 3
REMARK VINA RESULT:    -3.437     12.603     13.252
REMARK INTER + INTRA:          -5.690
REMARK INTER:                  -5.062
REMARK INTRA:                  -0.628
REMARK UNBOUND:                -0.745
REMARK SMILES CCCCCCCCCO
REMARK SMILES IDX 6 1 5 2 4 3 3 4 2 5 1 6 7 7 8 8 9 9 10 10
REMARK H PARENT 10 11
REMARK Flexibility Score: inf
ROOT
ATOM      1  C   UNL     1     161.719 180.109 180.085  1.00  0.00     0.000 C 
ENDROOT
BRANCH   1   2
ATOM      2  C   UNL     1     162.084 178.826 180.853  1.00  0.00     0.000 C 
BRANCH   2   3
ATOM      3  C   UNL     1     163.316 179.002 181.756  1.00  0.00    -0.000 C 
BRANCH   3   4
ATOM      4  C   UNL     1     164.602 178.459 181.111  1.00  0.00    -0.000 C 
BRANCH   4   5
ATOM      5  C   UNL     1     165.483 179.569 180.520  1.00  0.00    -0.003 C 
ATOM      6  C   UNL     1     166.912 179.078 180.303  1.00  0.00     0.004 C 
ENDBRANCH   4   5
ENDBRANCH   3   4
ENDBRANCH   2   3
ENDBRANCH   1   2
BRANCH   1   7
ATOM      7  C   UNL     1     162.127 180.125 178.598  1.00  0.00     0.002 C 
BRANCH   7   8
ATOM      8  C   UNL     1     162.409 178.741 177.982  1.00  0.00     0.028 C 
BRANCH   8   9
ATOM      9  C   UNL     1     163.838 178.575 177.452  1.00  0.00     0.156 C 
BRANCH   9  10
ATOM     10  O   UNL     1     164.361 179.806 177.033  1.00  0.00    -0.396 OA
ATOM     11  H   UNL     1     164.404 179.778 176.041  1.00  0.00     0.210 HD
ENDBRANCH   9  10
ENDBRANCH   8   9
ENDBRANCH   7   8
ENDBRANCH   1   7
TORSDOF 8
ENDMDL
MODEL 4
REMARK VINA RESULT:    -3.437     13.719     14.359
REMARK INTER + INTRA:          -5.690
REMARK INTER:                  -5.212
REMARK INTRA:                  -0.478
REMARK UNBOUND:                -0.745
REMARK SMILES CCCCCCCCCO
REMARK SMILES IDX 6 1 5 2 4 3 3 4 2 5 1 6 7 7 8 8 9 9 10 10
REMARK H PARENT 10 11
REMARK Flexibility Score: inf
ROOT
ATOM      1  C   UNL     1     162.194 180.078 180.439  1.00  0.00     0.000 C 
ENDROOT
BRANCH   1   2
ATOM      2  C   UNL     1     162.100 178.967 181.501  1.00  0.00     0.000 C 
BRANCH   2   3
ATOM      3  C   UNL     1     163.289 177.992 181.451  1.00  0.00    -0.000 C 
BRANCH   3   4
ATOM      4  C   UNL     1     162.855 176.552 181.131  1.00  0.00    -0.000 C 
BRANCH   4   5
ATOM      5  C   UNL     1     161.374 176.452 180.738  1.00  0.00    -0.003 C 
ATOM      6  C   UNL     1     160.788 175.103 181.147  1.00  0.00     0.004 C 
ENDBRANCH   4   5
ENDBRANCH   3   4
ENDBRANCH   2   3
ENDBRANCH   1   2
BRANCH   1   7
ATOM      7  C   UNL     1     161.490 179.770 179.102  1.00  0.00     0.002 C 
BRANCH   7   8
ATOM      8  C   UNL     1     162.412 179.748 177.867  1.00  0.00     0.028 C 
BRANCH   8   9
ATOM      9  C   UNL     1     163.830 179.241 178.158  1.00  0.00     0.156 C 
BRANCH   9  10
ATOM     10  O   UNL     1     164.715 179.627 177.141  1.00  0.00    -0.396 OA
ATOM     11  H   UNL     1     164.175 179.736 176.315  1.00  0.00     0.210 HD
ENDBRANCH   9  10
ENDBRANCH   8   9
ENDBRANCH   7   8
ENDBRANCH   1   7
TORSDOF 8
ENDMDL
MODEL 5
REMARK VINA RESULT:    -3.350     12.328     13.229
REMARK INTER + INTRA:          -5.564
REMARK INTER:                  -4.890
REMARK INTRA:                  -0.674
REMARK UNBOUND:                -0.745
REMARK SMILES CCCCCCCCCO
REMARK SMILES IDX 6 1 5 2 4 3 3 4 2 5 1 6 7 7 8 8 9 9 10 10
REMARK H PARENT 10 11
REMARK Flexibility Score: inf
ROOT
ATOM      1  C   UNL     1     163.904 178.672 181.855  1.00  0.00     0.000 C 
ENDROOT
BRANCH   1   2
ATOM      2  C   UNL     1     162.407 178.644 181.497  1.00  0.00     0.000 C 
BRANCH   2   3
ATOM      3  C   UNL     1     161.991 177.355 180.769  1.00  0.00    -0.000 C 
BRANCH   3   4
ATOM      4  C   UNL     1     161.884 177.548 179.247  1.00  0.00    -0.000 C 
BRANCH   4   5
ATOM      5  C   UNL     1     161.641 179.011 178.850  1.00  0.00    -0.003 C 
ATOM      6  C   UNL     1     162.606 179.450 177.752  1.00  0.00     0.004 C 
ENDBRANCH   4   5
ENDBRANCH   3   4
ENDBRANCH   2   3
ENDBRANCH   1   2
BRANCH   1   7
ATOM      7  C   UNL     1     164.805 179.420 180.852  1.00  0.00     0.002 C 
BRANCH   7   8
ATOM      8  C   UNL     1     165.788 178.532 180.067  1.00  0.00     0.028 C 
BRANCH   8   9
ATOM      9  C   UNL     1     167.265 178.838 180.346  1.00  0.00     0.156 C 
BRANCH   9  10
ATOM     10  O   UNL     1     167.893 179.353 179.203  1.00  0.00    -0.396 OA
ATOM     11  H   UNL     1     168.867 179.373 179.394  1.00  0.00     0.210 HD
ENDBRANCH   9  10
ENDBRANCH   8   9
ENDBRANCH   7   8
ENDBRANCH   1   7
TORSDOF 8
ENDMDL
MODEL 6
REMARK VINA RESULT:    -3.349      3.453      4.511
REMARK INTER + INTRA:          -5.563
REMARK INTER:                  -5.068
REMARK INTRA:                  -0.495
REMARK UNBOUND:                -0.745
REMARK SMILES CCCCCCCCCO
REMARK SMILES IDX 6 1 5 2 4 3 3 4 2 5 1 6 7 7 8 8 9 9 10 10
REMARK H PARENT 10 11
REMARK Flexibility Score: inf
ROOT
ATOM      1  C   UNL     1     173.808 177.721 181.119  1.00  0.00     0.000 C 
ENDROOT
BRANCH   1   2
ATOM      2  C   UNL     1     175.263 177.246 181.285  1.00  0.00     0.000 C 
BRANCH   2   3
ATOM      3  C   UNL     1     176.201 178.360 181.781  1.00  0.00    -0.000 C 
BRANCH   3   4
ATOM      4  C   UNL     1     177.324 178.674 180.779  1.00  0.00    -0.000 C 
BRANCH   4   5
ATOM      5  C   UNL     1     177.205 180.082 180.177  1.00  0.00    -0.003 C 
ATOM      6  C   UNL     1     176.536 180.037 178.806  1.00  0.00     0.004 C 
ENDBRANCH   4   5
ENDBRANCH   3   4
ENDBRANCH   2   3
ENDBRANCH   1   2
BRANCH   1   7
ATOM      7  C   UNL     1     173.630 179.240 180.921  1.00  0.00     0.002 C 
BRANCH   7   8
ATOM      8  C   UNL     1     172.195 179.762 181.119  1.00  0.00     0.028 C 
BRANCH   8   9
ATOM      9  C   UNL     1     171.186 179.214 180.102  1.00  0.00     0.156 C 
BRANCH   9  10
ATOM     10  O   UNL     1     170.997 180.118 179.049  1.00  0.00    -0.396 OA
ATOM     11  H   UNL     1     171.022 181.029 179.443  1.00  0.00     0.210 HD
ENDBRANCH   9  10
ENDBRANCH   8   9
ENDBRANCH   7   8
ENDBRANCH   1   7
TORSDOF 8
ENDMDL
MODEL 7
REMARK VINA RESULT:    -3.260      3.406      4.188
REMARK INTER + INTRA:          -5.435
REMARK INTER:                  -4.917
REMARK INTRA:                  -0.518
REMARK UNBOUND:                -0.745
REMARK SMILES CCCCCCCCCO
REMARK SMILES IDX 6 1 5 2 4 3 3 4 2 5 1 6 7 7 8 8 9 9 10 10
REMARK H PARENT 10 11
REMARK Flexibility Score: inf
ROOT
ATOM      1  C   UNL     1     174.180 178.958 178.954  1.00  0.00     0.000 C 
ENDROOT
BRANCH   1   2
ATOM      2  C   UNL     1     175.408 179.771 178.504  1.00  0.00     0.000 C 
BRANCH   2   3
ATOM      3  C   UNL     1     176.737 179.143 178.956  1.00  0.00    -0.000 C 
BRANCH   3   4
ATOM      4  C   UNL     1     177.412 179.942 180.084  1.00  0.00    -0.000 C 
BRANCH   4   5
ATOM      5  C   UNL     1     177.019 179.442 181.482  1.00  0.00    -0.003 C 
ATOM      6  C   UNL     1     177.037 177.917 181.544  1.00  0.00     0.004 C 
ENDBRANCH   4   5
ENDBRANCH   3   4
ENDBRANCH   2   3
ENDBRANCH   1   2
BRANCH   1   7
ATOM      7  C   UNL     1     173.581 179.370 180.314  1.00  0.00     0.002 C 
BRANCH   7   8
ATOM      8  C   UNL     1     172.043 179.317 180.394  1.00  0.00     0.028 C 
BRANCH   8   9
ATOM      9  C   UNL     1     171.361 178.994 179.059  1.00  0.00     0.156 C 
BRANCH   9  10
ATOM     10  O   UNL     1     170.710 180.125 178.546  1.00  0.00    -0.396 OA
ATOM     11  H   UNL     1     170.162 179.818 177.777  1.00  0.00     0.210 HD
ENDBRANCH   9  10
ENDBRANCH   8   9
ENDBRANCH   7   8
ENDBRANCH   1   7
TORSDOF 8
ENDMDL
MODEL 8
REMARK VINA RESULT:    -3.246     13.402     14.220
REMARK INTER + INTRA:          -5.415
REMARK INTER:                  -4.856
REMARK INTRA:                  -0.559
REMARK UNBOUND:                -0.745
REMARK SMILES CCCCCCCCCO
REMARK SMILES IDX 6 1 5 2 4 3 3 4 2 5 1 6 7 7 8 8 9 9 10 10
REMARK H PARENT 10 11
REMARK Flexibility Score: inf
ROOT
ATOM      1  C   UNL     1     162.115 176.815 178.672  1.00  0.00     0.000 C 
ENDROOT
BRANCH   1   2
ATOM      2  C   UNL     1     161.622 176.618 180.117  1.00  0.00     0.000 C 
BRANCH   2   3
ATOM      3  C   UNL     1     162.768 176.613 181.143  1.00  0.00    -0.000 C 
BRANCH   3   4
ATOM      4  C   UNL     1     163.736 177.792 180.949  1.00  0.00    -0.000 C 
BRANCH   4   5
ATOM      5  C   UNL     1     163.493 178.930 181.952  1.00  0.00    -0.003 C 
ATOM      6  C   UNL     1     162.291 179.776 181.541  1.00  0.00     0.004 C 
ENDBRANCH   4   5
ENDBRANCH   3   4
ENDBRANCH   2   3
ENDBRANCH   1   2
BRANCH   1   7
ATOM      7  C   UNL     1     161.477 177.996 177.914  1.00  0.00     0.002 C 
BRANCH   7   8
ATOM      8  C   UNL     1     162.352 179.259 177.815  1.00  0.00     0.028 C 
BRANCH   8   9
ATOM      9  C   UNL     1     163.372 179.221 176.669  1.00  0.00     0.156 C 
BRANCH   9  10
ATOM     10  O   UNL     1     164.618 179.703 177.094  1.00  0.00    -0.396 OA
ATOM     11  H   UNL     1     164.439 180.480 177.687  1.00  0.00     0.210 HD
ENDBRANCH   9  10
ENDBRANCH   8   9
ENDBRANCH   7   8
ENDBRANCH   1   7
TORSDOF 8
ENDMDL
MODEL 9
REMARK VINA RESULT:    -3.209      1.700      3.725
REMARK INTER + INTRA:          -5.362
REMARK INTER:                  -4.772
REMARK INTRA:                  -0.590
REMARK UNBOUND:                -0.745
REMARK SMILES CCCCCCCCCO
REMARK SMILES IDX 6 1 5 2 4 3 3 4 2 5 1 6 7 7 8 8 9 9 10 10
REMARK H PARENT 10 11
REMARK Flexibility Score: inf
ROOT
ATOM      1  C   UNL     1     177.455 177.608 181.163  1.00  0.00     0.000 C 
ENDROOT
BRANCH   1   2
ATOM      2  C   UNL     1     176.685 178.869 181.596  1.00  0.00     0.000 C 
BRANCH   2   3
ATOM      3  C   UNL     1     177.111 180.125 180.817  1.00  0.00    -0.000 C 
BRANCH   3   4
ATOM      4  C   UNL     1     177.153 179.890 179.298  1.00  0.00    -0.000 C 
BRANCH   4   5
ATOM      5  C   UNL     1     175.754 179.762 178.678  1.00  0.00    -0.003 C 
ATOM      6  C   UNL     1     175.774 178.840 177.463  1.00  0.00     0.004 C 
ENDBRANCH   4   5
ENDBRANCH   3   4
ENDBRANCH   2   3
ENDBRANCH   1   2
BRANCH   1   7
ATOM      7  C   UNL     1     176.577 176.426 180.705  1.00  0.00     0.002 C 
BRANCH   7   8
ATOM      8  C   UNL     1     177.124 175.632 179.504  1.00  0.00     0.028 C 
BRANCH   8   9
ATOM      9  C   UNL     1     177.399 174.153 179.808  1.00  0.00     0.156 C 
BRANCH   9  10
ATOM     10  O   UNL     1     178.611 173.744 179.235  1.00  0.00    -0.396 OA
ATOM     11  H   UNL     1     179.314 174.357 179.577  1.00  0.00     0.210 HD
ENDBRANCH   9  10
ENDBRANCH   8   9
ENDBRANCH   7   8
ENDBRANCH   1   7
TORSDOF 8
ENDMDL
