MODEL 1
REMARK VINA RESULT:    -3.121      0.000      0.000
REMARK INTER + INTRA:          -3.795
REMARK INTER:                  -3.668
REMARK INTRA:                  -0.127
REMARK UNBOUND:                -0.127
REMARK SMILES CCCCC(=O)[O-]
REMARK SMILES IDX 4 1 5 2 6 3 7 4 3 5 2 6 1 7
REMARK H PARENT
REMARK Flexibility Score: inf
ROOT
ATOM      1  C   UNL     1     132.146 123.115 133.518  1.00  0.00     0.053 C 
ENDROOT
BRANCH   1   2
ATOM      2  C   UNL     1     131.744 122.060 134.500  1.00  0.00     0.041 C 
ATOM      3  O   UNL     1     130.793 122.267 135.299  1.00  0.00    -0.550 OA
ATOM      4  O   UNL     1     132.452 120.866 134.565  1.00  0.00    -0.550 OA
ENDBRANCH   1   2
BRANCH   1   5
ATOM      5  C   UNL     1     133.545 123.651 133.852  1.00  0.00     0.006 C 
BRANCH   5   6
ATOM      6  C   UNL     1     133.557 124.516 135.122  1.00  0.00    -0.003 C 
ATOM      7  C   UNL     1     132.612 125.713 135.031  1.00  0.00     0.004 C 
ENDBRANCH   5   6
ENDBRANCH   1   5
TORSDOF 3
ENDMDL
MODEL 2
REMARK VINA RESULT:    -3.115      2.144      3.520
REMARK INTER + INTRA:          -3.788
REMARK INTER:                  -3.682
REMARK INTRA:                  -0.106
REMARK UNBOUND:                -0.127
REMARK SMILES CCCCC(=O)[O-]
REMARK SMILES IDX 4 1 5 2 6 3 7 4 3 5 2 6 1 7
REMARK H PARENT
REMARK Flexibility Score: inf
ROOT
ATOM      1  C   UNL     1     133.288 123.516 133.801  1.00  0.00     0.053 C 
ENDROOT
BRANCH   1   2
ATOM      2  C   UNL     1     133.357 124.390 135.013  1.00  0.00     0.041 C 
ATOM      3  O   UNL     1     133.699 123.907 136.125  1.00  0.00    -0.550 OA
ATOM      4  O   UNL     1     132.997 125.729 134.925  1.00  0.00    -0.550 OA
ENDBRANCH   1   2
BRANCH   1   5
ATOM      5  C   UNL     1     131.936 122.791 133.741  1.00  0.00     0.006 C 
BRANCH   5   6
ATOM      6  C   UNL     1     132.049 121.303 134.107  1.00  0.00    -0.003 C 
ATOM      7  C   UNL     1     131.420 120.978 135.461  1.00  0.00     0.004 C 
ENDBRANCH   5   6
ENDBRANCH   1   5
TORSDOF 3
ENDMDL
MODEL 3
REMARK VINA RESULT:    -2.993      1.097      1.609
REMARK INTER + INTRA:          -3.645
REMARK INTER:                  -3.593
REMARK INTRA:                  -0.052
REMARK UNBOUND:                -0.127
REMARK SMILES CCCCC(=O)[O-]
REMARK SMILES IDX 4 1 5 2 6 3 7 4 3 5 2 6 1 7
REMARK H PARENT
REMARK Flexibility Score: inf
ROOT
ATOM      1  C   UNL     1     131.453 122.473 134.503  1.00  0.00     0.053 C 
ENDROOT
BRANCH   1   2
ATOM      2  C   UNL     1     131.545 120.981 134.459  1.00  0.00     0.041 C 
ATOM      3  O   UNL     1     132.409 120.378 135.149  1.00  0.00    -0.550 OA
ATOM      4  O   UNL     1     130.708 120.257 133.618  1.00  0.00    -0.550 OA
ENDBRANCH   1   2
BRANCH   1   5
ATOM      5  C   UNL     1     132.356 123.096 133.430  1.00  0.00     0.006 C 
BRANCH   5   6
ATOM      6  C   UNL     1     133.588 123.792 134.029  1.00  0.00    -0.003 C 
ATOM      7  C   UNL     1     133.222 124.969 134.931  1.00  0.00     0.004 C 
ENDBRANCH   5   6
ENDBRANCH   1   5
TORSDOF 3
ENDMDL
MODEL 4
REMARK VINA RESULT:    -2.978      2.122      2.920
REMARK INTER + INTRA:          -3.627
REMARK INTER:                  -3.584
REMARK INTRA:                  -0.043
REMARK UNBOUND:                -0.127
REMARK SMILES CCCCC(=O)[O-]
REMARK SMILES IDX 4 1 5 2 6 3 7 4 3 5 2 6 1 7
REMARK H PARENT
REMARK Flexibility Score: inf
ROOT
ATOM      1  C   UNL     1     132.194 125.091 134.634  1.00  0.00     0.053 C 
ENDROOT
BRANCH   1   2
ATOM      2  C   UNL     1     133.145 123.970 134.911  1.00  0.00     0.041 C 
ATOM      3  O   UNL     1     133.800 123.945 135.987  1.00  0.00    -0.550 OA
ATOM      4  O   UNL     1     133.345 122.978 133.960  1.00  0.00    -0.550 OA
ENDBRANCH   1   2
BRANCH   1   5
ATOM      5  C   UNL     1     132.580 126.333 135.448  1.00  0.00     0.006 C 
BRANCH   5   6
ATOM      6  C   UNL     1     131.403 127.303 135.636  1.00  0.00    -0.003 C 
ATOM      7  C   UNL     1     130.116 126.805 134.980  1.00  0.00     0.004 C 
ENDBRANCH   5   6
ENDBRANCH   1   5
TORSDOF 3
ENDMDL
MODEL 5
REMARK VINA RESULT:    -2.932      2.867      3.831
REMARK INTER + INTRA:          -3.573
REMARK INTER:                  -3.509
REMARK INTRA:                  -0.064
REMARK UNBOUND:                -0.127
REMARK SMILES CCCCC(=O)[O-]
REMARK SMILES IDX 4 1 5 2 6 3 7 4 3 5 2 6 1 7
REMARK H PARENT
REMARK Flexibility Score: inf
ROOT
ATOM      1  C   UNL     1     131.902 124.962 135.342  1.00  0.00     0.053 C 
ENDROOT
BRANCH   1   2
ATOM      2  C   UNL     1     131.407 126.288 134.862  1.00  0.00     0.041 C 
ATOM      3  O   UNL     1     132.089 127.329 135.058  1.00  0.00    -0.550 OA
ATOM      4  O   UNL     1     130.168 126.384 134.240  1.00  0.00    -0.550 OA
ENDBRANCH   1   2
BRANCH   1   5
ATOM      5  C   UNL     1     133.380 124.776 134.971  1.00  0.00     0.006 C 
BRANCH   5   6
ATOM      6  C   UNL     1     133.584 123.713 133.880  1.00  0.00    -0.003 C 
ATOM      7  C   UNL     1     132.309 122.929 133.572  1.00  0.00     0.004 C 
ENDBRANCH   5   6
ENDBRANCH   1   5
TORSDOF 3
ENDMDL
MODEL 6
REMARK VINA RESULT:    -2.930      1.810      2.306
REMARK INTER + INTRA:          -3.571
REMARK INTER:                  -3.479
REMARK INTRA:                  -0.092
REMARK UNBOUND:                -0.127
REMARK SMILES CCCCC(=O)[O-]
REMARK SMILES IDX 4 1 5 2 6 3 7 4 3 5 2 6 1 7
REMARK H PARENT
REMARK Flexibility Score: inf
ROOT
ATOM      1  C   UNL     1     131.546 124.190 134.294  1.00  0.00     0.053 C 
ENDROOT
BRANCH   1   2
ATOM      2  C   UNL     1     132.738 123.314 134.074  1.00  0.00     0.041 C 
ATOM      3  O   UNL     1     132.638 122.064 134.195  1.00  0.00    -0.550 OA
ATOM      4  O   UNL     1     133.973 123.882 133.784  1.00  0.00    -0.550 OA
ENDBRANCH   1   2
BRANCH   1   5
ATOM      5  C   UNL     1     131.459 124.616 135.766  1.00  0.00     0.006 C 
BRANCH   5   6
ATOM      6  C   UNL     1     132.238 125.909 136.052  1.00  0.00    -0.003 C 
ATOM      7  C   UNL     1     131.917 127.024 135.058  1.00  0.00     0.004 C 
ENDBRANCH   5   6
ENDBRANCH   1   5
TORSDOF 3
ENDMDL
MODEL 7
REMARK VINA RESULT:    -2.890     14.459     15.420
REMARK INTER + INTRA:          -3.523
REMARK INTER:                  -3.497
REMARK INTRA:                  -0.026
REMARK UNBOUND:                -0.127
REMARK SMILES CCCCC(=O)[O-]
REMARK SMILES IDX 4 1 5 2 6 3 7 4 3 5 2 6 1 7
REMARK H PARENT
REMARK Flexibility Score: inf
ROOT
ATOM      1  C   UNL     1     130.984 121.607 119.850  1.00  0.00     0.053 C 
ENDROOT
BRANCH   1   2
ATOM      2  C   UNL     1     131.222 122.860 120.632  1.00  0.00     0.041 C 
ATOM      3  O   UNL     1     130.267 123.426 121.227  1.00  0.00    -0.550 OA
ATOM      4  O   UNL     1     132.489 123.429 120.664  1.00  0.00    -0.550 OA
ENDBRANCH   1   2
BRANCH   1   5
ATOM      5  C   UNL     1     129.480 121.383 119.642  1.00  0.00     0.006 C 
BRANCH   5   6
ATOM      6  C   UNL     1     129.156 120.817 118.251  1.00  0.00    -0.003 C 
ATOM      7  C   UNL     1     127.654 120.703 117.994  1.00  0.00     0.004 C 
ENDBRANCH   5   6
ENDBRANCH   1   5
TORSDOF 3
ENDMDL
MODEL 8
REMARK VINA RESULT:    -2.666     14.857     15.461
REMARK INTER + INTRA:          -3.261
REMARK INTER:                  -3.174
REMARK INTRA:                  -0.088
REMARK UNBOUND:                -0.127
REMARK SMILES CCCCC(=O)[O-]
REMARK SMILES IDX 4 1 5 2 6 3 7 4 3 5 2 6 1 7
REMARK H PARENT
REMARK Flexibility Score: inf
ROOT
ATOM      1  C   UNL     1     130.011 120.925 119.985  1.00  0.00     0.053 C 
ENDROOT
BRANCH   1   2
ATOM      2  C   UNL     1     129.699 120.849 118.524  1.00  0.00     0.041 C 
ATOM      3  O   UNL     1     128.513 120.985 118.121  1.00  0.00    -0.550 OA
ATOM      4  O   UNL     1     130.711 120.579 117.611  1.00  0.00    -0.550 OA
ENDBRANCH   1   2
BRANCH   1   5
ATOM      5  C   UNL     1     130.124 122.389 120.432  1.00  0.00     0.006 C 
BRANCH   5   6
ATOM      6  C   UNL     1     131.573 122.802 120.733  1.00  0.00    -0.003 C 
ATOM      7  C   UNL     1     132.531 121.612 120.775  1.00  0.00     0.004 C 
ENDBRANCH   5   6
ENDBRANCH   1   5
TORSDOF 3
ENDMDL
MODEL 9
REMARK VINA RESULT:    -2.665     13.717     14.303
REMARK INTER + INTRA:          -3.260
REMARK INTER:                  -3.202
REMARK INTRA:                  -0.057
REMARK UNBOUND:                -0.127
REMARK SMILES CCCCC(=O)[O-]
REMARK SMILES IDX 4 1 5 2 6 3 7 4 3 5 2 6 1 7
REMARK H PARENT
REMARK Flexibility Score: inf
ROOT
ATOM      1  C   UNL     1     131.663 120.744 119.696  1.00  0.00     0.053 C 
ENDROOT
BRANCH   1   2
ATOM      2  C   UNL     1     131.002 119.574 120.352  1.00  0.00     0.041 C 
ATOM      3  O   UNL     1     131.607 118.921 121.244  1.00  0.00    -0.550 OA
ATOM      4  O   UNL     1     129.735 119.173 119.946  1.00  0.00    -0.550 OA
ENDBRANCH   1   2
BRANCH   1   5
ATOM      5  C   UNL     1     132.422 121.582 120.734  1.00  0.00     0.006 C 
BRANCH   5   6
ATOM      6  C   UNL     1     132.013 123.063 120.708  1.00  0.00    -0.003 C 
ATOM      7  C   UNL     1     130.546 123.278 121.075  1.00  0.00     0.004 C 
ENDBRANCH   5   6
ENDBRANCH   1   5
TORSDOF 3
ENDMDL
