MODEL 1
REMARK VINA RESULT:   130.660      0.000      0.000
REMARK INTER + INTRA:         155.660
REMARK INTER:                 153.575
REMARK INTRA:                   2.085
REMARK UNBOUND:                 2.085
REMARK SMILES C=C(C)[C@H]1CC[C@]2(CO)CC[C@]3(C)[C@@H](CC[C@@H]4[C@]5(C)CC[C@H](O)C(C)(C)[C@@H]5CC[C@]43C)[C@@H]12
REMARK SMILES IDX 4 1 5 2 6 3 7 4 32 5 14 6 15 7 16 8 17 9 18 10 20 11 21 12
REMARK SMILES IDX 22 13 24 14 27 15 28 16 29 17 30 18 12 19 11 20 10 21 13 22
REMARK SMILES IDX 31 23 25 24 26 25 19 26 2 27 3 28 1 29 8 30 9 31 23 33
REMARK H PARENT 9 32 23 34
REMARK Flexibility Score: inf
ROOT
ATOM      1  C   UNL     1     -30.960  33.502 -16.390  1.00  0.00     0.018 C 
ATOM      2  C   UNL     1     -31.617  34.375 -17.488  1.00  0.00     0.009 C 
ATOM      3  C   UNL     1     -32.651  33.479 -18.204  1.00  0.00     0.010 C 
ATOM      4  C   UNL     1     -32.126  32.035 -18.060  1.00  0.00    -0.003 C 
ATOM      5  C   UNL     1     -31.520  32.081 -16.642  1.00  0.00     0.008 C 
ATOM      6  C   UNL     1     -30.858  30.763 -16.135  1.00  0.00    -0.000 C 
ATOM      7  C   UNL     1     -29.448  30.548 -16.770  1.00  0.00     0.005 C 
ATOM      8  C   UNL     1     -29.126  29.094 -17.067  1.00  0.00     0.005 C 
ATOM      9  C   UNL     1     -29.580  28.245 -15.861  1.00  0.00     0.002 C 
ATOM     10  C   UNL     1     -28.620  27.032 -15.486  1.00  0.00    -0.026 C 
ATOM     11  C   UNL     1     -28.328  26.143 -16.738  1.00  0.00     0.010 C 
ATOM     12  C   UNL     1     -27.599  24.831 -16.429  1.00  0.00     0.033 C 
ATOM     13  C   UNL     1     -28.322  24.000 -15.363  1.00  0.00     0.120 C 
ATOM     14  C   UNL     1     -28.510  24.780 -14.024  1.00  0.00    -0.006 C 
ATOM     15  C   UNL     1     -29.216  26.192 -14.267  1.00  0.00     0.003 C 
ATOM     16  C   UNL     1     -30.766  26.081 -14.268  1.00  0.00     0.005 C 
ATOM     17  C   UNL     1     -31.508  27.392 -14.567  1.00  0.00     0.008 C 
ATOM     18  C   UNL     1     -31.140  28.048 -15.938  1.00  0.00    -0.024 C 
ATOM     19  C   UNL     1     -31.885  29.516 -16.201  1.00  0.00    -0.024 C 
ATOM     20  C   UNL     1     -32.668  29.576 -17.587  1.00  0.00     0.008 C 
ATOM     21  C   UNL     1     -33.233  30.958 -18.028  1.00  0.00     0.010 C 
ATOM     22  C   UNL     1     -32.993  29.735 -15.112  1.00  0.00     0.012 C 
ATOM     23  C   UNL     1     -31.572  27.016 -17.039  1.00  0.00     0.012 C 
ATOM     24  C   UNL     1     -27.131  24.963 -13.328  1.00  0.00     0.014 C 
ATOM     25  C   UNL     1     -29.321  23.886 -13.041  1.00  0.00     0.014 C 
ATOM     26  C   UNL     1     -27.252  27.672 -15.021  1.00  0.00     0.012 C 
ENDROOT
BRANCH   1  27
ATOM     27  C   UNL     1     -29.452  33.631 -16.159  1.00  0.00    -0.077 C 
ATOM     28  C   UNL     1     -28.759  32.559 -15.350  1.00  0.00     0.039 C 
ATOM     29  C   UNL     1     -28.705  34.665 -16.581  1.00  0.00     0.008 C 
ENDBRANCH   1  27
BRANCH   4  30
ATOM     30  C   UNL     1     -31.188  31.720 -19.275  1.00  0.00     0.163 C 
BRANCH  30  31
ATOM     31  O   UNL     1     -31.209  30.371 -19.635  1.00  0.00    -0.396 OA
ATOM     32  H   UNL     1     -30.839  30.319 -20.554  1.00  0.00     0.210 HD
ENDBRANCH  30  31
ENDBRANCH   4  30
BRANCH  13  33
ATOM     33  O   UNL     1     -29.560  23.585 -15.889  1.00  0.00    -0.393 OA
ATOM     34  H   UNL     1     -30.155  24.380 -15.919  1.00  0.00     0.210 HD
ENDBRANCH  13  33
TORSDOF 4
ENDMDL
MODEL 2
REMARK VINA RESULT:   131.621      2.492      4.816
REMARK INTER + INTRA:         156.789
REMARK INTER:                 156.683
REMARK INTRA:                   0.106
REMARK UNBOUND:                 2.085
REMARK SMILES C=C(C)[C@H]1CC[C@]2(CO)CC[C@]3(C)[C@@H](CC[C@@H]4[C@]5(C)CC[C@H](O)C(C)(C)[C@@H]5CC[C@]43C)[C@@H]12
REMARK SMILES IDX 4 1 5 2 6 3 7 4 32 5 14 6 15 7 16 8 17 9 18 10 20 11 21 12
REMARK SMILES IDX 22 13 24 14 27 15 28 16 29 17 30 18 12 19 11 20 10 21 13 22
REMARK SMILES IDX 31 23 25 24 26 25 19 26 2 27 3 28 1 29 8 30 9 31 23 33
REMARK H PARENT 9 32 23 34
REMARK Flexibility Score: inf
ROOT
ATOM      1  C   UNL     1     -35.951  30.409 -19.398  1.00  0.00     0.018 C 
ATOM      2  C   UNL     1     -36.769  31.722 -19.316  1.00  0.00     0.009 C 
ATOM      3  C   UNL     1     -35.788  32.824 -18.858  1.00  0.00     0.010 C 
ATOM      4  C   UNL     1     -34.704  32.104 -18.030  1.00  0.00    -0.003 C 
ATOM      5  C   UNL     1     -34.568  30.779 -18.808  1.00  0.00     0.008 C 
ATOM      6  C   UNL     1     -33.541  29.752 -18.240  1.00  0.00    -0.000 C 
ATOM      7  C   UNL     1     -34.108  29.004 -16.993  1.00  0.00     0.005 C 
ATOM      8  C   UNL     1     -33.063  28.708 -15.930  1.00  0.00     0.005 C 
ATOM      9  C   UNL     1     -31.789  28.200 -16.637  1.00  0.00     0.002 C 
ATOM     10  C   UNL     1     -31.012  27.036 -15.879  1.00  0.00    -0.026 C 
ATOM     11  C   UNL     1     -30.727  27.430 -14.393  1.00  0.00     0.010 C 
ATOM     12  C   UNL     1     -29.790  26.471 -13.650  1.00  0.00     0.033 C 
ATOM     13  C   UNL     1     -28.465  26.262 -14.391  1.00  0.00     0.120 C 
ATOM     14  C   UNL     1     -28.671  25.717 -15.840  1.00  0.00    -0.006 C 
ATOM     15  C   UNL     1     -29.684  26.633 -16.667  1.00  0.00     0.003 C 
ATOM     16  C   UNL     1     -28.966  27.826 -17.358  1.00  0.00     0.005 C 
ATOM     17  C   UNL     1     -29.894  28.788 -18.114  1.00  0.00     0.008 C 
ATOM     18  C   UNL     1     -31.015  29.434 -17.235  1.00  0.00    -0.024 C 
ATOM     19  C   UNL     1     -32.068  30.401 -18.094  1.00  0.00    -0.024 C 
ATOM     20  C   UNL     1     -32.214  31.861 -17.475  1.00  0.00     0.008 C 
ATOM     21  C   UNL     1     -33.316  32.783 -18.075  1.00  0.00     0.010 C 
ATOM     22  C   UNL     1     -31.491  30.639 -19.534  1.00  0.00     0.012 C 
ATOM     23  C   UNL     1     -30.272  30.279 -16.141  1.00  0.00     0.012 C 
ATOM     24  C   UNL     1     -29.177  24.247 -15.778  1.00  0.00     0.014 C 
ATOM     25  C   UNL     1     -27.280  25.616 -16.531  1.00  0.00     0.014 C 
ATOM     26  C   UNL     1     -31.978  25.786 -15.869  1.00  0.00     0.012 C 
ENDROOT
BRANCH   1  27
ATOM     27  C   UNL     1     -36.599  29.113 -18.905  1.00  0.00    -0.077 C 
ATOM     28  C   UNL     1     -36.918  28.042 -19.922  1.00  0.00     0.039 C 
ATOM     29  C   UNL     1     -36.957  28.880 -17.631  1.00  0.00     0.008 C 
ENDBRANCH   1  27
BRANCH   4  30
ATOM     30  C   UNL     1     -35.165  32.061 -16.533  1.00  0.00     0.163 C 
BRANCH  30  31
ATOM     31  O   UNL     1     -36.256  32.897 -16.282  1.00  0.00    -0.396 OA
ATOM     32  H   UNL     1     -37.039  32.303 -16.141  1.00  0.00     0.210 HD
ENDBRANCH  30  31
ENDBRANCH   4  30
BRANCH  13  33
ATOM     33  O   UNL     1     -27.764  27.482 -14.401  1.00  0.00    -0.393 OA
ATOM     34  H   UNL     1     -27.336  27.589 -13.511  1.00  0.00     0.210 HD
ENDBRANCH  13  33
TORSDOF 4
ENDMDL
MODEL 3
REMARK VINA RESULT:   131.682      1.955      3.767
REMARK INTER + INTRA:         156.861
REMARK INTER:                 157.392
REMARK INTRA:                  -0.532
REMARK UNBOUND:                 2.085
REMARK SMILES C=C(C)[C@H]1CC[C@]2(CO)CC[C@]3(C)[C@@H](CC[C@@H]4[C@]5(C)CC[C@H](O)C(C)(C)[C@@H]5CC[C@]43C)[C@@H]12
REMARK SMILES IDX 4 1 5 2 6 3 7 4 32 5 14 6 15 7 16 8 17 9 18 10 20 11 21 12
REMARK SMILES IDX 22 13 24 14 27 15 28 16 29 17 30 18 12 19 11 20 10 21 13 22
REMARK SMILES IDX 31 23 25 24 26 25 19 26 2 27 3 28 1 29 8 30 9 31 23 33
REMARK H PARENT 9 32 23 34
REMARK Flexibility Score: inf
ROOT
ATOM      1  C   UNL     1     -35.452  31.064 -17.634  1.00  0.00     0.018 C 
ATOM      2  C   UNL     1     -35.707  32.515 -18.112  1.00  0.00     0.009 C 
ATOM      3  C   UNL     1     -34.485  32.920 -18.966  1.00  0.00     0.010 C 
ATOM      4  C   UNL     1     -33.302  32.091 -18.424  1.00  0.00    -0.003 C 
ATOM      5  C   UNL     1     -34.003  30.759 -18.088  1.00  0.00     0.008 C 
ATOM      6  C   UNL     1     -33.100  29.641 -17.482  1.00  0.00    -0.000 C 
ATOM      7  C   UNL     1     -32.796  29.904 -15.974  1.00  0.00     0.005 C 
ATOM      8  C   UNL     1     -31.396  29.493 -15.550  1.00  0.00     0.005 C 
ATOM      9  C   UNL     1     -31.086  28.122 -16.185  1.00  0.00     0.002 C 
ATOM     10  C   UNL     1     -30.255  27.122 -15.266  1.00  0.00    -0.026 C 
ATOM     11  C   UNL     1     -28.962  27.810 -14.720  1.00  0.00     0.010 C 
ATOM     12  C   UNL     1     -27.988  26.860 -14.012  1.00  0.00     0.033 C 
ATOM     13  C   UNL     1     -27.606  25.661 -14.887  1.00  0.00     0.120 C 
ATOM     14  C   UNL     1     -28.849  24.834 -15.343  1.00  0.00    -0.006 C 
ATOM     15  C   UNL     1     -29.942  25.764 -16.043  1.00  0.00     0.003 C 
ATOM     16  C   UNL     1     -29.670  25.947 -17.562  1.00  0.00     0.005 C 
ATOM     17  C   UNL     1     -30.645  26.889 -18.284  1.00  0.00     0.008 C 
ATOM     18  C   UNL     1     -30.703  28.337 -17.697  1.00  0.00    -0.024 C 
ATOM     19  C   UNL     1     -31.835  29.315 -18.434  1.00  0.00    -0.024 C 
ATOM     20  C   UNL     1     -31.222  30.690 -18.955  1.00  0.00     0.008 C 
ATOM     21  C   UNL     1     -32.222  31.763 -19.480  1.00  0.00     0.010 C 
ATOM     22  C   UNL     1     -32.366  28.605 -19.729  1.00  0.00     0.012 C 
ATOM     23  C   UNL     1     -29.265  28.936 -17.884  1.00  0.00     0.012 C 
ATOM     24  C   UNL     1     -29.457  24.088 -14.121  1.00  0.00     0.014 C 
ATOM     25  C   UNL     1     -28.364  23.694 -16.286  1.00  0.00     0.014 C 
ATOM     26  C   UNL     1     -31.178  26.781 -14.030  1.00  0.00     0.012 C 
ENDROOT
BRANCH   1  27
ATOM     27  C   UNL     1     -35.831  30.690 -16.199  1.00  0.00    -0.077 C 
ATOM     28  C   UNL     1     -36.332  29.289 -15.935  1.00  0.00     0.039 C 
ATOM     29  C   UNL     1     -35.801  31.541 -15.160  1.00  0.00     0.008 C 
ENDBRANCH   1  27
BRANCH   4  30
ATOM     30  C   UNL     1     -32.613  32.897 -17.271  1.00  0.00     0.163 C 
BRANCH  30  31
ATOM     31  O   UNL     1     -31.848  33.965 -17.744  1.00  0.00    -0.396 OA
ATOM     32  H   UNL     1     -32.303  34.794 -17.440  1.00  0.00     0.210 HD
ENDBRANCH  30  31
ENDBRANCH   4  30
BRANCH  13  33
ATOM     33  O   UNL     1     -26.875  26.134 -15.993  1.00  0.00    -0.393 OA
ATOM     34  H   UNL     1     -26.014  25.641 -16.016  1.00  0.00     0.210 HD
ENDBRANCH  13  33
TORSDOF 4
ENDMDL
MODEL 4
REMARK VINA RESULT:   133.565     10.223     14.743
REMARK INTER + INTRA:         159.074
REMARK INTER:                 158.936
REMARK INTRA:                   0.138
REMARK UNBOUND:                 2.085
REMARK SMILES C=C(C)[C@H]1CC[C@]2(CO)CC[C@]3(C)[C@@H](CC[C@@H]4[C@]5(C)CC[C@H](O)C(C)(C)[C@@H]5CC[C@]43C)[C@@H]12
REMARK SMILES IDX 4 1 5 2 6 3 7 4 32 5 14 6 15 7 16 8 17 9 18 10 20 11 21 12
REMARK SMILES IDX 22 13 24 14 27 15 28 16 29 17 30 18 12 19 11 20 10 21 13 22
REMARK SMILES IDX 31 23 25 24 26 25 19 26 2 27 3 28 1 29 8 30 9 31 23 33
REMARK H PARENT 9 32 23 34
REMARK Flexibility Score: inf
ROOT
ATOM      1  C   UNL     1     -38.741  26.447 -21.854  1.00  0.00     0.018 C 
ATOM      2  C   UNL     1     -37.196  26.399 -21.746  1.00  0.00     0.009 C 
ATOM      3  C   UNL     1     -36.771  27.650 -20.946  1.00  0.00     0.010 C 
ATOM      4  C   UNL     1     -37.861  28.709 -21.212  1.00  0.00    -0.003 C 
ATOM      5  C   UNL     1     -39.125  27.826 -21.262  1.00  0.00     0.008 C 
ATOM      6  C   UNL     1     -40.469  28.567 -21.538  1.00  0.00    -0.000 C 
ATOM      7  C   UNL     1     -40.622  28.936 -23.047  1.00  0.00     0.005 C 
ATOM      8  C   UNL     1     -41.312  30.268 -23.285  1.00  0.00     0.005 C 
ATOM      9  C   UNL     1     -42.520  30.361 -22.329  1.00  0.00     0.002 C 
ATOM     10  C   UNL     1     -43.816  31.053 -22.940  1.00  0.00    -0.026 C 
ATOM     11  C   UNL     1     -43.466  32.444 -23.562  1.00  0.00     0.010 C 
ATOM     12  C   UNL     1     -44.683  33.281 -23.971  1.00  0.00     0.033 C 
ATOM     13  C   UNL     1     -45.677  33.466 -22.819  1.00  0.00     0.120 C 
ATOM     14  C   UNL     1     -46.190  32.106 -22.250  1.00  0.00    -0.006 C 
ATOM     15  C   UNL     1     -44.977  31.148 -21.849  1.00  0.00     0.003 C 
ATOM     16  C   UNL     1     -44.472  31.414 -20.403  1.00  0.00     0.005 C 
ATOM     17  C   UNL     1     -43.259  30.574 -19.978  1.00  0.00     0.008 C 
ATOM     18  C   UNL     1     -42.001  30.741 -20.892  1.00  0.00    -0.024 C 
ATOM     19  C   UNL     1     -40.728  29.751 -20.469  1.00  0.00    -0.024 C 
ATOM     20  C   UNL     1     -39.366  30.549 -20.254  1.00  0.00     0.008 C 
ATOM     21  C   UNL     1     -38.071  29.708 -20.052  1.00  0.00     0.010 C 
ATOM     22  C   UNL     1     -41.025  29.096 -19.074  1.00  0.00     0.012 C 
ATOM     23  C   UNL     1     -41.579  32.248 -20.773  1.00  0.00     0.012 C 
ATOM     24  C   UNL     1     -47.117  31.419 -23.293  1.00  0.00     0.014 C 
ATOM     25  C   UNL     1     -47.125  32.399 -21.040  1.00  0.00     0.014 C 
ATOM     26  C   UNL     1     -44.315  30.115 -24.110  1.00  0.00     0.012 C 
ENDROOT
BRANCH   1  27
ATOM     27  C   UNL     1     -39.394  26.046 -23.179  1.00  0.00    -0.077 C 
ATOM     28  C   UNL     1     -40.852  25.650 -23.166  1.00  0.00     0.039 C 
ATOM     29  C   UNL     1     -38.744  25.967 -24.352  1.00  0.00     0.008 C 
ENDBRANCH   1  27
BRANCH   4  30
ATOM     30  C   UNL     1     -37.460  29.532 -22.484  1.00  0.00     0.163 C 
BRANCH  30  31
ATOM     31  O   UNL     1     -37.026  28.721 -23.534  1.00  0.00    -0.396 OA
ATOM     32  H   UNL     1     -37.060  27.786 -23.201  1.00  0.00     0.210 HD
ENDBRANCH  30  31
ENDBRANCH   4  30
BRANCH  13  33
ATOM     33  O   UNL     1     -45.057  34.236 -21.818  1.00  0.00    -0.393 OA
ATOM     34  H   UNL     1     -45.728  34.885 -21.480  1.00  0.00     0.210 HD
ENDBRANCH  13  33
TORSDOF 4
ENDMDL
