MODEL 1
REMARK VINA RESULT:    -3.772      0.000      0.000
REMARK INTER + INTRA:          -4.825
REMARK INTER:                  -4.655
REMARK INTRA:                  -0.170
REMARK UNBOUND:                -0.170
REMARK SMILES C=CC[C@H](C)C(=O)CC
REMARK SMILES IDX 4 1 5 2 6 3 7 4 8 5 9 6 3 7 2 8 1 9
REMARK H PARENT
REMARK Flexibility Score: inf
ROOT
ATOM      1  C   UNL     1      -3.308  12.318   7.954  1.00  0.00     0.057 C 
ATOM      2  C   UNL     1      -4.452  11.811   8.844  1.00  0.00     0.016 C 
ENDROOT
BRANCH   1   3
ATOM      3  C   UNL     1      -3.857  13.253   6.896  1.00  0.00     0.135 C 
ATOM      4  O   UNL     1      -3.119  13.670   6.015  1.00  0.00    -0.299 OA
BRANCH   3   5
ATOM      5  C   UNL     1      -5.299  13.689   6.911  1.00  0.00     0.072 C 
ATOM      6  C   UNL     1      -5.486  14.967   6.102  1.00  0.00     0.012 C 
ENDBRANCH   3   5
ENDBRANCH   1   3
BRANCH   1   7
ATOM      7  C   UNL     1      -2.545  11.157   7.287  1.00  0.00     0.038 C 
BRANCH   7   8
ATOM      8  C   UNL     1      -2.088  10.141   8.300  1.00  0.00    -0.034 C 
ATOM      9  C   UNL     1      -1.024  10.350   9.081  1.00  0.00     0.004 C 
ENDBRANCH   7   8
ENDBRANCH   1   7
TORSDOF 4
ENDMDL
MODEL 2
REMARK VINA RESULT:    -3.749      1.476      2.140
REMARK INTER + INTRA:          -4.796
REMARK INTER:                  -4.519
REMARK INTRA:                  -0.277
REMARK UNBOUND:                -0.170
REMARK SMILES C=CC[C@H](C)C(=O)CC
REMARK SMILES IDX 4 1 5 2 6 3 7 4 8 5 9 6 3 7 2 8 1 9
REMARK H PARENT
REMARK Flexibility Score: inf
ROOT
ATOM      1  C   UNL     1      -3.686  12.633   7.069  1.00  0.00     0.057 C 
ATOM      2  C   UNL     1      -2.817  13.486   6.133  1.00  0.00     0.016 C 
ENDROOT
BRANCH   1   3
ATOM      3  C   UNL     1      -5.066  13.245   7.187  1.00  0.00     0.135 C 
ATOM      4  O   UNL     1      -5.447  14.047   6.346  1.00  0.00    -0.299 OA
BRANCH   3   5
ATOM      5  C   UNL     1      -5.982  12.890   8.329  1.00  0.00     0.072 C 
ATOM      6  C   UNL     1      -6.362  14.134   9.125  1.00  0.00     0.012 C 
ENDBRANCH   3   5
ENDBRANCH   1   3
BRANCH   1   7
ATOM      7  C   UNL     1      -3.051  12.490   8.467  1.00  0.00     0.038 C 
BRANCH   7   8
ATOM      8  C   UNL     1      -2.846  11.044   8.835  1.00  0.00    -0.034 C 
ATOM      9  C   UNL     1      -1.868  10.309   8.298  1.00  0.00     0.004 C 
ENDBRANCH   7   8
ENDBRANCH   1   7
TORSDOF 4
ENDMDL
MODEL 3
REMARK VINA RESULT:    -3.663      1.579      4.290
REMARK INTER + INTRA:          -4.690
REMARK INTER:                  -4.464
REMARK INTRA:                  -0.225
REMARK UNBOUND:                -0.170
REMARK SMILES C=CC[C@H](C)C(=O)CC
REMARK SMILES IDX 4 1 5 2 6 3 7 4 8 5 9 6 3 7 2 8 1 9
REMARK H PARENT
REMARK Flexibility Score: inf
ROOT
ATOM      1  C   UNL     1      -3.844  12.706   7.635  1.00  0.00     0.057 C 
ATOM      2  C   UNL     1      -3.357  13.587   6.477  1.00  0.00     0.016 C 
ENDROOT
BRANCH   1   3
ATOM      3  C   UNL     1      -3.010  11.445   7.707  1.00  0.00     0.135 C 
ATOM      4  O   UNL     1      -2.497  10.998   6.690  1.00  0.00    -0.299 OA
BRANCH   3   5
ATOM      5  C   UNL     1      -2.802  10.719   9.010  1.00  0.00     0.072 C 
ATOM      6  C   UNL     1      -1.369  10.210   9.125  1.00  0.00     0.012 C 
ENDBRANCH   3   5
ENDBRANCH   1   3
BRANCH   1   7
ATOM      7  C   UNL     1      -5.336  12.343   7.490  1.00  0.00     0.038 C 
BRANCH   7   8
ATOM      8  C   UNL     1      -6.133  12.793   8.686  1.00  0.00    -0.034 C 
ATOM      9  C   UNL     1      -6.275  14.085   8.995  1.00  0.00     0.004 C 
ENDBRANCH   7   8
ENDBRANCH   1   7
TORSDOF 4
ENDMDL
MODEL 4
REMARK VINA RESULT:    -3.239      1.621      2.303
REMARK INTER + INTRA:          -4.167
REMARK INTER:                  -3.917
REMARK INTRA:                  -0.249
REMARK UNBOUND:                -0.170
REMARK SMILES C=CC[C@H](C)C(=O)CC
REMARK SMILES IDX 4 1 5 2 6 3 7 4 8 5 9 6 3 7 2 8 1 9
REMARK H PARENT
REMARK Flexibility Score: inf
ROOT
ATOM      1  C   UNL     1      -5.082  12.997   8.378  1.00  0.00     0.057 C 
ATOM      2  C   UNL     1      -6.290  13.586   9.120  1.00  0.00     0.016 C 
ENDROOT
BRANCH   1   3
ATOM      3  C   UNL     1      -5.192  13.296   6.898  1.00  0.00     0.135 C 
ATOM      4  O   UNL     1      -6.095  12.793   6.244  1.00  0.00    -0.299 OA
BRANCH   3   5
ATOM      5  C   UNL     1      -4.203  14.198   6.208  1.00  0.00     0.072 C 
ATOM      6  C   UNL     1      -2.838  13.526   6.104  1.00  0.00     0.012 C 
ENDBRANCH   3   5
ENDBRANCH   1   3
BRANCH   1   7
ATOM      7  C   UNL     1      -4.959  11.476   8.601  1.00  0.00     0.038 C 
BRANCH   7   8
ATOM      8  C   UNL     1      -3.597  11.102   9.123  1.00  0.00    -0.034 C 
ATOM      9  C   UNL     1      -2.533  11.008   8.320  1.00  0.00     0.004 C 
ENDBRANCH   7   8
ENDBRANCH   1   7
TORSDOF 4
ENDMDL
MODEL 5
REMARK VINA RESULT:    -2.994      1.523      4.172
REMARK INTER + INTRA:          -3.865
REMARK INTER:                  -3.584
REMARK INTRA:                  -0.281
REMARK UNBOUND:                -0.170
REMARK SMILES C=CC[C@H](C)C(=O)CC
REMARK SMILES IDX 4 1 5 2 6 3 7 4 8 5 9 6 3 7 2 8 1 9
REMARK H PARENT
REMARK Flexibility Score: inf
ROOT
ATOM      1  C   UNL     1      -4.983  13.737   7.183  1.00  0.00     0.057 C 
ATOM      2  C   UNL     1      -5.954  13.202   6.120  1.00  0.00     0.016 C 
ENDROOT
BRANCH   1   3
ATOM      3  C   UNL     1      -3.569  13.315   6.845  1.00  0.00     0.135 C 
ATOM      4  O   UNL     1      -3.063  13.679   5.793  1.00  0.00    -0.299 OA
BRANCH   3   5
ATOM      5  C   UNL     1      -2.770  12.445   7.779  1.00  0.00     0.072 C 
ATOM      6  C   UNL     1      -2.557  11.059   7.180  1.00  0.00     0.012 C 
ENDBRANCH   3   5
ENDBRANCH   1   3
BRANCH   1   7
ATOM      7  C   UNL     1      -5.356  13.249   8.596  1.00  0.00     0.038 C 
BRANCH   7   8
ATOM      8  C   UNL     1      -6.581  13.952   9.120  1.00  0.00    -0.034 C 
ATOM      9  C   UNL     1      -6.682  15.285   9.125  1.00  0.00     0.004 C 
ENDBRANCH   7   8
ENDBRANCH   1   7
TORSDOF 4
ENDMDL
MODEL 6
REMARK VINA RESULT:    -2.723      1.539      3.185
REMARK INTER + INTRA:          -3.530
REMARK INTER:                  -3.178
REMARK INTRA:                  -0.352
REMARK UNBOUND:                -0.170
REMARK SMILES C=CC[C@H](C)C(=O)CC
REMARK SMILES IDX 4 1 5 2 6 3 7 4 8 5 9 6 3 7 2 8 1 9
REMARK H PARENT
REMARK Flexibility Score: inf
ROOT
ATOM      1  C   UNL     1      -3.355  11.152   8.196  1.00  0.00     0.057 C 
ATOM      2  C   UNL     1      -2.328  10.221   8.857  1.00  0.00     0.016 C 
ENDROOT
BRANCH   1   3
ATOM      3  C   UNL     1      -2.704  12.476   7.858  1.00  0.00     0.135 C 
ATOM      4  O   UNL     1      -2.252  13.175   8.754  1.00  0.00    -0.299 OA
BRANCH   3   5
ATOM      5  C   UNL     1      -2.608  12.958   6.434  1.00  0.00     0.072 C 
ATOM      6  C   UNL     1      -3.705  13.973   6.131  1.00  0.00     0.012 C 
ENDBRANCH   3   5
ENDBRANCH   1   3
BRANCH   1   7
ATOM      7  C   UNL     1      -4.582  11.383   9.099  1.00  0.00     0.038 C 
BRANCH   7   8
ATOM      8  C   UNL     1      -5.699  12.063   8.351  1.00  0.00    -0.034 C 
ATOM      9  C   UNL     1      -6.171  13.257   8.719  1.00  0.00     0.004 C 
ENDBRANCH   7   8
ENDBRANCH   1   7
TORSDOF 4
ENDMDL
MODEL 7
REMARK VINA RESULT:    -2.615      1.805      4.523
REMARK INTER + INTRA:          -3.397
REMARK INTER:                  -3.216
REMARK INTRA:                  -0.180
REMARK UNBOUND:                -0.170
REMARK SMILES C=CC[C@H](C)C(=O)CC
REMARK SMILES IDX 4 1 5 2 6 3 7 4 8 5 9 6 3 7 2 8 1 9
REMARK H PARENT
REMARK Flexibility Score: inf
ROOT
ATOM      1  C   UNL     1      -4.844  12.350   7.299  1.00  0.00     0.057 C 
ATOM      2  C   UNL     1      -5.995  11.432   6.863  1.00  0.00     0.016 C 
ENDROOT
BRANCH   1   3
ATOM      3  C   UNL     1      -3.804  11.547   8.052  1.00  0.00     0.135 C 
ATOM      4  O   UNL     1      -4.095  11.032   9.122  1.00  0.00    -0.299 OA
BRANCH   3   5
ATOM      5  C   UNL     1      -2.408  11.375   7.512  1.00  0.00     0.072 C 
ATOM      6  C   UNL     1      -1.741  10.145   8.117  1.00  0.00     0.012 C 
ENDBRANCH   3   5
ENDBRANCH   1   3
BRANCH   1   7
ATOM      7  C   UNL     1      -5.343  13.518   8.173  1.00  0.00     0.038 C 
BRANCH   7   8
ATOM      8  C   UNL     1      -5.837  14.666   7.332  1.00  0.00    -0.034 C 
ATOM      9  C   UNL     1      -5.273  14.978   6.161  1.00  0.00     0.004 C 
ENDBRANCH   7   8
ENDBRANCH   1   7
TORSDOF 4
ENDMDL
MODEL 8
REMARK VINA RESULT:    -2.599      2.100      3.786
REMARK INTER + INTRA:          -3.377
REMARK INTER:                  -2.984
REMARK INTRA:                  -0.393
REMARK UNBOUND:                -0.170
REMARK SMILES C=CC[C@H](C)C(=O)CC
REMARK SMILES IDX 4 1 5 2 6 3 7 4 8 5 9 6 3 7 2 8 1 9
REMARK H PARENT
REMARK Flexibility Score: inf
ROOT
ATOM      1  C   UNL     1      -4.901  11.999   8.475  1.00  0.00     0.057 C 
ATOM      2  C   UNL     1      -5.519  13.301   9.003  1.00  0.00     0.016 C 
ENDROOT
BRANCH   1   3
ATOM      3  C   UNL     1      -3.425  12.202   8.209  1.00  0.00     0.135 C 
ATOM      4  O   UNL     1      -2.683  12.526   9.125  1.00  0.00    -0.299 OA
BRANCH   3   5
ATOM      5  C   UNL     1      -2.848  12.021   6.829  1.00  0.00     0.072 C 
ATOM      6  C   UNL     1      -2.724  13.362   6.114  1.00  0.00     0.012 C 
ENDBRANCH   3   5
ENDBRANCH   1   3
BRANCH   1   7
ATOM      7  C   UNL     1      -5.606  11.509   7.194  1.00  0.00     0.038 C 
BRANCH   7   8
ATOM      8  C   UNL     1      -6.404  12.611   6.547  1.00  0.00    -0.034 C 
ATOM      9  C   UNL     1      -6.739  12.574   5.254  1.00  0.00     0.004 C 
ENDBRANCH   7   8
ENDBRANCH   1   7
TORSDOF 4
ENDMDL
