MODEL 1
REMARK VINA RESULT:    -5.558      0.000      0.000
REMARK INTER + INTRA:          -6.712
REMARK INTER:                  -6.695
REMARK INTRA:                  -0.017
REMARK UNBOUND:                -0.017
REMARK SMILES O=c1c(O)c(-c2ccc(O)c(O)c2)oc2cc(O)cc(O)c12
REMARK SMILES IDX 5 1 3 2 2 3 1 4 22 5 20 6 19 7 17 8 16 9 15 10 14 11 6 12
REMARK SMILES IDX 7 13 8 14 9 15 13 16 11 17 10 18 12 20 4 22 21 24 18 26
REMARK H PARENT 10 19 12 21 4 23 21 25 18 27
REMARK Flexibility Score: inf
ROOT
ATOM      1  C   UNL     1      46.250  16.071  -3.879  1.00  0.00     0.180 A 
ATOM      2  C   UNL     1      46.012  14.724  -3.555  1.00  0.00     0.208 A 
ATOM      3  C   UNL     1      47.090  13.824  -3.554  1.00  0.00     0.238 A 
ATOM      4  O   UNL     1      46.863  12.609  -3.315  1.00  0.00    -0.285 OA
ATOM      5  C   UNL     1      48.392  14.284  -3.863  1.00  0.00     0.111 A 
ATOM      6  C   UNL     1      49.564  13.468  -3.854  1.00  0.00     0.134 A 
ATOM      7  C   UNL     1      50.779  13.999  -4.303  1.00  0.00     0.093 A 
ATOM      8  C   UNL     1      50.880  15.332  -4.698  1.00  0.00     0.123 A 
ATOM      9  C   UNL     1      49.754  16.155  -4.654  1.00  0.00     0.094 A 
ATOM     10  C   UNL     1      48.520  15.645  -4.245  1.00  0.00     0.146 A 
ATOM     11  O   UNL     1      47.471  16.459  -4.228  1.00  0.00    -0.452 OA
ENDROOT
BRANCH   1  12
ATOM     12  C   UNL     1      45.170  17.084  -3.876  1.00  0.00     0.025 A 
ATOM     13  C   UNL     1      44.903  17.871  -5.008  1.00  0.00     0.016 A 
ATOM     14  C   UNL     1      43.863  18.802  -4.991  1.00  0.00     0.051 A 
ATOM     15  C   UNL     1      43.064  18.961  -3.853  1.00  0.00     0.157 A 
ATOM     16  C   UNL     1      44.356  17.225  -2.741  1.00  0.00     0.062 A 
ATOM     17  C   UNL     1      43.311  18.157  -2.714  1.00  0.00     0.158 A 
BRANCH  15  18
ATOM     18  O   UNL     1      42.044  19.913  -3.899  1.00  0.00    -0.504 OA
ATOM     19  H   UNL     1      41.084  19.723  -3.654  1.00  0.00     0.293 HD
ENDBRANCH  15  18
BRANCH  17  20
ATOM     20  O   UNL     1      42.551  18.251  -1.547  1.00  0.00    -0.504 OA
ATOM     21  H   UNL     1      42.933  18.487  -0.642  1.00  0.00     0.293 HD
ENDBRANCH  17  20
ENDBRANCH   1  12
BRANCH   2  22
ATOM     22  O   UNL     1      44.715  14.286  -3.273  1.00  0.00    -0.502 OA
ATOM     23  H   UNL     1      44.498  13.712  -2.467  1.00  0.00     0.293 HD
ENDBRANCH   2  22
BRANCH   6  24
ATOM     24  O   UNL     1      49.592  12.148  -3.391  1.00  0.00    -0.507 OA
ATOM     25  H   UNL     1      49.567  11.879  -2.420  1.00  0.00     0.293 HD
ENDBRANCH   6  24
BRANCH   8  26
ATOM     26  O   UNL     1      52.109  15.831  -5.124  1.00  0.00    -0.508 OA
ATOM     27  H   UNL     1      52.279  16.828  -5.197  1.00  0.00     0.293 HD
ENDBRANCH   8  26
TORSDOF 6
ENDMDL
MODEL 2
REMARK VINA RESULT:    -5.435      1.494      7.179
REMARK INTER + INTRA:          -6.564
REMARK INTER:                  -6.927
REMARK INTRA:                   0.363
REMARK UNBOUND:                -0.017
REMARK SMILES O=c1c(O)c(-c2ccc(O)c(O)c2)oc2cc(O)cc(O)c12
REMARK SMILES IDX 5 1 3 2 2 3 1 4 22 5 20 6 19 7 17 8 16 9 15 10 14 11 6 12
REMARK SMILES IDX 7 13 8 14 9 15 13 16 11 17 10 18 12 20 4 22 21 24 18 26
REMARK H PARENT 10 19 12 21 4 23 21 25 18 27
REMARK Flexibility Score: inf
ROOT
ATOM      1  C   UNL     1      46.442  16.550  -4.248  1.00  0.00     0.180 A 
ATOM      2  C   UNL     1      46.102  17.598  -5.121  1.00  0.00     0.208 A 
ATOM      3  C   UNL     1      44.846  18.212  -4.990  1.00  0.00     0.238 A 
ATOM      4  O   UNL     1      44.526  19.113  -5.808  1.00  0.00    -0.285 OA
ATOM      5  C   UNL     1      43.953  17.782  -3.980  1.00  0.00     0.111 A 
ATOM      6  C   UNL     1      42.671  18.360  -3.731  1.00  0.00     0.134 A 
ATOM      7  C   UNL     1      41.818  17.769  -2.791  1.00  0.00     0.093 A 
ATOM      8  C   UNL     1      42.224  16.663  -2.045  1.00  0.00     0.123 A 
ATOM      9  C   UNL     1      43.498  16.127  -2.237  1.00  0.00     0.094 A 
ATOM     10  C   UNL     1      44.358  16.673  -3.194  1.00  0.00     0.146 A 
ATOM     11  O   UNL     1      45.557  16.125  -3.353  1.00  0.00    -0.452 OA
ENDROOT
BRANCH   1  12
ATOM     12  C   UNL     1      47.756  15.870  -4.307  1.00  0.00     0.025 A 
ATOM     13  C   UNL     1      48.859  16.467  -4.939  1.00  0.00     0.016 A 
ATOM     14  C   UNL     1      50.095  15.817  -4.961  1.00  0.00     0.051 A 
ATOM     15  C   UNL     1      50.259  14.571  -4.346  1.00  0.00     0.157 A 
ATOM     16  C   UNL     1      47.924  14.630  -3.671  1.00  0.00     0.062 A 
ATOM     17  C   UNL     1      49.159  13.972  -3.687  1.00  0.00     0.158 A 
BRANCH  15  18
ATOM     18  O   UNL     1      51.520  13.973  -4.408  1.00  0.00    -0.504 OA
ATOM     19  H   UNL     1      52.371  14.473  -4.616  1.00  0.00     0.293 HD
ENDBRANCH  15  18
BRANCH  17  20
ATOM     20  O   UNL     1      49.248  12.736  -3.044  1.00  0.00    -0.504 OA
ATOM     21  H   UNL     1      49.883  12.000  -3.320  1.00  0.00     0.293 HD
ENDBRANCH  17  20
ENDBRANCH   1  12
BRANCH   2  22
ATOM     22  O   UNL     1      46.990  17.993  -6.125  1.00  0.00    -0.502 OA
ATOM     23  H   UNL     1      47.940  17.647  -6.178  1.00  0.00     0.293 HD
ENDBRANCH   2  22
BRANCH   6  24
ATOM     24  O   UNL     1      42.204  19.520  -4.357  1.00  0.00    -0.507 OA
ATOM     25  H   UNL     1      41.809  20.313  -3.875  1.00  0.00     0.293 HD
ENDBRANCH   6  24
BRANCH   8  26
ATOM     26  O   UNL     1      41.355  16.111  -1.106  1.00  0.00    -0.508 OA
ATOM     27  H   UNL     1      41.087  16.618  -0.271  1.00  0.00     0.293 HD
ENDBRANCH   8  26
TORSDOF 6
ENDMDL
MODEL 3
REMARK VINA RESULT:    -5.399      1.734      3.103
REMARK INTER + INTRA:          -6.521
REMARK INTER:                  -6.197
REMARK INTRA:                  -0.324
REMARK UNBOUND:                -0.017
REMARK SMILES O=c1c(O)c(-c2ccc(O)c(O)c2)oc2cc(O)cc(O)c12
REMARK SMILES IDX 5 1 3 2 2 3 1 4 22 5 20 6 19 7 17 8 16 9 15 10 14 11 6 12
REMARK SMILES IDX 7 13 8 14 9 15 13 16 11 17 10 18 12 20 4 22 21 24 18 26
REMARK H PARENT 10 19 12 21 4 23 21 25 18 27
REMARK Flexibility Score: inf
ROOT
ATOM      1  C   UNL     1      45.281  15.994  -3.618  1.00  0.00     0.180 A 
ATOM      2  C   UNL     1      45.973  16.876  -4.466  1.00  0.00     0.208 A 
ATOM      3  C   UNL     1      47.297  16.577  -4.825  1.00  0.00     0.238 A 
ATOM      4  O   UNL     1      47.930  17.396  -5.540  1.00  0.00    -0.285 OA
ATOM      5  C   UNL     1      47.907  15.394  -4.344  1.00  0.00     0.111 A 
ATOM      6  C   UNL     1      49.230  14.971  -4.676  1.00  0.00     0.134 A 
ATOM      7  C   UNL     1      49.777  13.850  -4.039  1.00  0.00     0.093 A 
ATOM      8  C   UNL     1      49.028  13.100  -3.132  1.00  0.00     0.123 A 
ATOM      9  C   UNL     1      47.714  13.470  -2.846  1.00  0.00     0.094 A 
ATOM     10  C   UNL     1      47.152  14.604  -3.439  1.00  0.00     0.146 A 
ATOM     11  O   UNL     1      45.902  14.927  -3.131  1.00  0.00    -0.452 OA
ENDROOT
BRANCH   1  12
ATOM     12  C   UNL     1      43.875  16.229  -3.216  1.00  0.00     0.025 A 
ATOM     13  C   UNL     1      42.807  15.658  -3.927  1.00  0.00     0.016 A 
ATOM     14  C   UNL     1      41.491  15.873  -3.514  1.00  0.00     0.051 A 
ATOM     15  C   UNL     1      41.214  16.649  -2.383  1.00  0.00     0.157 A 
ATOM     16  C   UNL     1      43.601  16.989  -2.068  1.00  0.00     0.062 A 
ATOM     17  C   UNL     1      42.284  17.211  -1.647  1.00  0.00     0.158 A 
BRANCH  15  18
ATOM     18  O   UNL     1      39.876  16.829  -2.026  1.00  0.00    -0.504 OA
ATOM     19  H   UNL     1      39.351  16.181  -1.459  1.00  0.00     0.293 HD
ENDBRANCH  15  18
BRANCH  17  20
ATOM     20  O   UNL     1      42.087  17.987  -0.503  1.00  0.00    -0.504 OA
ATOM     21  H   UNL     1      41.396  17.785   0.205  1.00  0.00     0.293 HD
ENDBRANCH  17  20
ENDBRANCH   1  12
BRANCH   2  22
ATOM     22  O   UNL     1      45.360  18.050  -4.913  1.00  0.00    -0.502 OA
ATOM     23  H   UNL     1      45.232  18.858  -4.316  1.00  0.00     0.293 HD
ENDBRANCH   2  22
BRANCH   6  24
ATOM     24  O   UNL     1      50.031  15.597  -5.636  1.00  0.00    -0.507 OA
ATOM     25  H   UNL     1      49.700  15.943  -6.523  1.00  0.00     0.293 HD
ENDBRANCH   6  24
BRANCH   8  26
ATOM     26  O   UNL     1      49.600  11.982  -2.530  1.00  0.00    -0.508 OA
ATOM     27  H   UNL     1      49.990  12.025  -1.595  1.00  0.00     0.293 HD
ENDBRANCH   8  26
TORSDOF 6
ENDMDL
MODEL 4
REMARK VINA RESULT:    -5.379      2.233      2.939
REMARK INTER + INTRA:          -6.496
REMARK INTER:                  -6.473
REMARK INTRA:                  -0.023
REMARK UNBOUND:                -0.017
REMARK SMILES O=c1c(O)c(-c2ccc(O)c(O)c2)oc2cc(O)cc(O)c12
REMARK SMILES IDX 5 1 3 2 2 3 1 4 22 5 20 6 19 7 17 8 16 9 15 10 14 11 6 12
REMARK SMILES IDX 7 13 8 14 9 15 13 16 11 17 10 18 12 20 4 22 21 24 18 26
REMARK H PARENT 10 19 12 21 4 23 21 25 18 27
REMARK Flexibility Score: inf
ROOT
ATOM      1  C   UNL     1      45.601  15.201  -3.340  1.00  0.00     0.180 A 
ATOM      2  C   UNL     1      46.015  15.005  -4.669  1.00  0.00     0.208 A 
ATOM      3  C   UNL     1      46.999  14.041  -4.940  1.00  0.00     0.238 A 
ATOM      4  O   UNL     1      47.404  13.907  -6.124  1.00  0.00    -0.285 OA
ATOM      5  C   UNL     1      47.546  13.276  -3.882  1.00  0.00     0.111 A 
ATOM      6  C   UNL     1      48.519  12.244  -4.047  1.00  0.00     0.134 A 
ATOM      7  C   UNL     1      49.084  11.641  -2.916  1.00  0.00     0.093 A 
ATOM      8  C   UNL     1      48.666  11.986  -1.631  1.00  0.00     0.123 A 
ATOM      9  C   UNL     1      47.672  12.950  -1.462  1.00  0.00     0.094 A 
ATOM     10  C   UNL     1      47.115  13.595  -2.569  1.00  0.00     0.146 A 
ATOM     11  O   UNL     1      46.179  14.514  -2.362  1.00  0.00    -0.452 OA
ENDROOT
BRANCH   1  12
ATOM     12  C   UNL     1      44.551  16.181  -2.979  1.00  0.00     0.025 A 
ATOM     13  C   UNL     1      44.634  17.523  -3.383  1.00  0.00     0.016 A 
ATOM     14  C   UNL     1      43.619  18.423  -3.052  1.00  0.00     0.051 A 
ATOM     15  C   UNL     1      42.501  18.004  -2.323  1.00  0.00     0.157 A 
ATOM     16  C   UNL     1      43.420  15.753  -2.267  1.00  0.00     0.062 A 
ATOM     17  C   UNL     1      42.398  16.648  -1.929  1.00  0.00     0.158 A 
BRANCH  15  18
ATOM     18  O   UNL     1      41.524  18.955  -2.020  1.00  0.00    -0.504 OA
ATOM     19  H   UNL     1      41.614  19.940  -2.221  1.00  0.00     0.293 HD
ENDBRANCH  15  18
BRANCH  17  20
ATOM     20  O   UNL     1      41.309  16.153  -1.209  1.00  0.00    -0.504 OA
ATOM     21  H   UNL     1      41.158  15.174  -1.017  1.00  0.00     0.293 HD
ENDBRANCH  17  20
ENDBRANCH   1  12
BRANCH   2  22
ATOM     22  O   UNL     1      45.478  15.786  -5.696  1.00  0.00    -0.502 OA
ATOM     23  H   UNL     1      44.995  15.384  -6.490  1.00  0.00     0.293 HD
ENDBRANCH   2  22
BRANCH   6  24
ATOM     24  O   UNL     1      48.940  11.760  -5.289  1.00  0.00    -0.507 OA
ATOM     25  H   UNL     1      49.904  11.629  -5.558  1.00  0.00     0.293 HD
ENDBRANCH   6  24
BRANCH   8  26
ATOM     26  O   UNL     1      49.240  11.354  -0.530  1.00  0.00    -0.508 OA
ATOM     27  H   UNL     1      49.231  10.345  -0.434  1.00  0.00     0.293 HD
ENDBRANCH   8  26
TORSDOF 6
ENDMDL
MODEL 5
REMARK VINA RESULT:    -5.377      1.252      1.511
REMARK INTER + INTRA:          -6.493
REMARK INTER:                  -6.301
REMARK INTRA:                  -0.193
REMARK UNBOUND:                -0.017
REMARK SMILES O=c1c(O)c(-c2ccc(O)c(O)c2)oc2cc(O)cc(O)c12
REMARK SMILES IDX 5 1 3 2 2 3 1 4 22 5 20 6 19 7 17 8 16 9 15 10 14 11 6 12
REMARK SMILES IDX 7 13 8 14 9 15 13 16 11 17 10 18 12 20 4 22 21 24 18 26
REMARK H PARENT 10 19 12 21 4 23 21 25 18 27
REMARK Flexibility Score: inf
ROOT
ATOM      1  C   UNL     1      45.411  15.749  -3.497  1.00  0.00     0.180 A 
ATOM      2  C   UNL     1      44.812  14.552  -3.069  1.00  0.00     0.208 A 
ATOM      3  C   UNL     1      45.615  13.412  -2.899  1.00  0.00     0.238 A 
ATOM      4  O   UNL     1      45.065  12.330  -2.568  1.00  0.00    -0.285 OA
ATOM      5  C   UNL     1      47.006  13.488  -3.145  1.00  0.00     0.111 A 
ATOM      6  C   UNL     1      47.920  12.405  -2.967  1.00  0.00     0.134 A 
ATOM      7  C   UNL     1      49.255  12.556  -3.365  1.00  0.00     0.093 A 
ATOM      8  C   UNL     1      49.722  13.768  -3.873  1.00  0.00     0.123 A 
ATOM      9  C   UNL     1      48.851  14.850  -3.995  1.00  0.00     0.094 A 
ATOM     10  C   UNL     1      47.506  14.720  -3.640  1.00  0.00     0.146 A 
ATOM     11  O   UNL     1      46.708  15.772  -3.783  1.00  0.00    -0.452 OA
ENDROOT
BRANCH   1  12
ATOM     12  C   UNL     1      44.636  16.999  -3.674  1.00  0.00     0.025 A 
ATOM     13  C   UNL     1      44.399  17.537  -4.949  1.00  0.00     0.016 A 
ATOM     14  C   UNL     1      43.644  18.703  -5.093  1.00  0.00     0.051 A 
ATOM     15  C   UNL     1      43.102  19.347  -3.975  1.00  0.00     0.157 A 
ATOM     16  C   UNL     1      44.075  17.630  -2.553  1.00  0.00     0.062 A 
ATOM     17  C   UNL     1      43.316  18.800  -2.688  1.00  0.00     0.158 A 
BRANCH  15  18
ATOM     18  O   UNL     1      42.361  20.511  -4.188  1.00  0.00    -0.504 OA
ATOM     19  H   UNL     1      41.910  20.741  -5.060  1.00  0.00     0.293 HD
ENDBRANCH  15  18
BRANCH  17  20
ATOM     20  O   UNL     1      42.801  19.380  -1.527  1.00  0.00    -0.504 OA
ATOM     21  H   UNL     1      41.815  19.443  -1.318  1.00  0.00     0.293 HD
ENDBRANCH  17  20
ENDBRANCH   1  12
BRANCH   2  22
ATOM     22  O   UNL     1      43.433  14.494  -2.852  1.00  0.00    -0.502 OA
ATOM     23  H   UNL     1      42.958  15.108  -2.201  1.00  0.00     0.293 HD
ENDBRANCH   2  22
BRANCH   6  24
ATOM     24  O   UNL     1      47.577  11.182  -2.384  1.00  0.00    -0.507 OA
ATOM     25  H   UNL     1      48.223  10.572  -1.907  1.00  0.00     0.293 HD
ENDBRANCH   6  24
BRANCH   8  26
ATOM     26  O   UNL     1      51.060  13.886  -4.245  1.00  0.00    -0.508 OA
ATOM     27  H   UNL     1      51.799  13.928  -3.553  1.00  0.00     0.293 HD
ENDBRANCH   8  26
TORSDOF 6
ENDMDL
MODEL 6
REMARK VINA RESULT:    -5.116      1.475      6.476
REMARK INTER + INTRA:          -6.179
REMARK INTER:                  -6.310
REMARK INTRA:                   0.131
REMARK UNBOUND:                -0.017
REMARK SMILES O=c1c(O)c(-c2ccc(O)c(O)c2)oc2cc(O)cc(O)c12
REMARK SMILES IDX 5 1 3 2 2 3 1 4 22 5 20 6 19 7 17 8 16 9 15 10 14 11 6 12
REMARK SMILES IDX 7 13 8 14 9 15 13 16 11 17 10 18 12 20 4 22 21 24 18 26
REMARK H PARENT 10 19 12 21 4 23 21 25 18 27
REMARK Flexibility Score: inf
ROOT
ATOM      1  C   UNL     1      46.700  15.778  -4.159  1.00  0.00     0.180 A 
ATOM      2  C   UNL     1      46.175  14.480  -4.036  1.00  0.00     0.208 A 
ATOM      3  C   UNL     1      44.865  14.319  -3.558  1.00  0.00     0.238 A 
ATOM      4  O   UNL     1      44.419  13.152  -3.399  1.00  0.00    -0.285 OA
ATOM      5  C   UNL     1      44.092  15.456  -3.223  1.00  0.00     0.111 A 
ATOM      6  C   UNL     1      42.740  15.411  -2.766  1.00  0.00     0.134 A 
ATOM      7  C   UNL     1      42.116  16.591  -2.340  1.00  0.00     0.093 A 
ATOM      8  C   UNL     1      42.771  17.819  -2.414  1.00  0.00     0.123 A 
ATOM      9  C   UNL     1      44.072  17.882  -2.915  1.00  0.00     0.094 A 
ATOM     10  C   UNL     1      44.733  16.718  -3.315  1.00  0.00     0.146 A 
ATOM     11  O   UNL     1      45.975  16.821  -3.775  1.00  0.00    -0.452 OA
ENDROOT
BRANCH   1  12
ATOM     12  C   UNL     1      48.064  16.029  -4.680  1.00  0.00     0.025 A 
ATOM     13  C   UNL     1      48.320  17.075  -5.582  1.00  0.00     0.016 A 
ATOM     14  C   UNL     1      49.618  17.308  -6.039  1.00  0.00     0.051 A 
ATOM     15  C   UNL     1      50.685  16.516  -5.601  1.00  0.00     0.157 A 
ATOM     16  C   UNL     1      49.135  15.247  -4.222  1.00  0.00     0.062 A 
ATOM     17  C   UNL     1      50.441  15.474  -4.675  1.00  0.00     0.158 A 
BRANCH  15  18
ATOM     18  O   UNL     1      51.958  16.799  -6.101  1.00  0.00    -0.504 OA
ATOM     19  H   UNL     1      52.219  16.697  -7.070  1.00  0.00     0.293 HD
ENDBRANCH  15  18
BRANCH  17  20
ATOM     20  O   UNL     1      51.454  14.647  -4.185  1.00  0.00    -0.504 OA
ATOM     21  H   UNL     1      52.231  14.975  -3.630  1.00  0.00     0.293 HD
ENDBRANCH  17  20
ENDBRANCH   1  12
BRANCH   2  22
ATOM     22  O   UNL     1      46.962  13.369  -4.353  1.00  0.00    -0.502 OA
ATOM     23  H   UNL     1      46.695  12.697  -5.062  1.00  0.00     0.293 HD
ENDBRANCH   2  22
BRANCH   6  24
ATOM     24  O   UNL     1      41.964  14.249  -2.738  1.00  0.00    -0.507 OA
ATOM     25  H   UNL     1      42.263  13.350  -3.083  1.00  0.00     0.293 HD
ENDBRANCH   6  24
BRANCH   8  26
ATOM     26  O   UNL     1      42.114  18.974  -1.996  1.00  0.00    -0.508 OA
ATOM     27  H   UNL     1      42.192  19.313  -1.044  1.00  0.00     0.293 HD
ENDBRANCH   8  26
TORSDOF 6
ENDMDL
MODEL 7
REMARK VINA RESULT:    -4.961      2.014      7.058
REMARK INTER + INTRA:          -5.993
REMARK INTER:                  -5.856
REMARK INTRA:                  -0.137
REMARK UNBOUND:                -0.017
REMARK SMILES O=c1c(O)c(-c2ccc(O)c(O)c2)oc2cc(O)cc(O)c12
REMARK SMILES IDX 5 1 3 2 2 3 1 4 22 5 20 6 19 7 17 8 16 9 15 10 14 11 6 12
REMARK SMILES IDX 7 13 8 14 9 15 13 16 11 17 10 18 12 20 4 22 21 24 18 26
REMARK H PARENT 10 19 12 21 4 23 21 25 18 27
REMARK Flexibility Score: inf
ROOT
ATOM      1  C   UNL     1      44.790  15.490  -3.050  1.00  0.00     0.180 A 
ATOM      2  C   UNL     1      43.600  14.744  -3.004  1.00  0.00     0.208 A 
ATOM      3  C   UNL     1      42.374  15.423  -2.913  1.00  0.00     0.238 A 
ATOM      4  O   UNL     1      41.316  14.749  -2.818  1.00  0.00    -0.285 OA
ATOM      5  C   UNL     1      42.353  16.838  -2.884  1.00  0.00     0.111 A 
ATOM      6  C   UNL     1      41.166  17.630  -2.833  1.00  0.00     0.134 A 
ATOM      7  C   UNL     1      41.269  19.018  -2.677  1.00  0.00     0.093 A 
ATOM      8  C   UNL     1      42.512  19.648  -2.634  1.00  0.00     0.123 A 
ATOM      9  C   UNL     1      43.678  18.889  -2.743  1.00  0.00     0.094 A 
ATOM     10  C   UNL     1      43.609  17.499  -2.865  1.00  0.00     0.146 A 
ATOM     11  O   UNL     1      44.742  16.813  -2.955  1.00  0.00    -0.452 OA
ENDROOT
BRANCH   1  12
ATOM     12  C   UNL     1      46.119  14.847  -3.172  1.00  0.00     0.025 A 
ATOM     13  C   UNL     1      46.949  15.088  -4.278  1.00  0.00     0.016 A 
ATOM     14  C   UNL     1      48.208  14.490  -4.358  1.00  0.00     0.051 A 
ATOM     15  C   UNL     1      48.668  13.651  -3.337  1.00  0.00     0.157 A 
ATOM     16  C   UNL     1      46.586  14.023  -2.135  1.00  0.00     0.062 A 
ATOM     17  C   UNL     1      47.848  13.419  -2.208  1.00  0.00     0.158 A 
BRANCH  15  18
ATOM     18  O   UNL     1      49.934  13.080  -3.481  1.00  0.00    -0.504 OA
ATOM     19  H   UNL     1      50.146  12.333  -4.125  1.00  0.00     0.293 HD
ENDBRANCH  15  18
BRANCH  17  20
ATOM     20  O   UNL     1      48.241  12.602  -1.145  1.00  0.00    -0.504 OA
ATOM     21  H   UNL     1      48.672  12.946  -0.299  1.00  0.00     0.293 HD
ENDBRANCH  17  20
ENDBRANCH   1  12
BRANCH   2  22
ATOM     22  O   UNL     1      43.644  13.347  -3.013  1.00  0.00    -0.502 OA
ATOM     23  H   UNL     1      42.816  12.776  -2.893  1.00  0.00     0.293 HD
ENDBRANCH   2  22
BRANCH   6  24
ATOM     24  O   UNL     1      39.875  17.109  -2.958  1.00  0.00    -0.507 OA
ATOM     25  H   UNL     1      39.306  17.177  -3.788  1.00  0.00     0.293 HD
ENDBRANCH   6  24
BRANCH   8  26
ATOM     26  O   UNL     1      42.576  21.033  -2.493  1.00  0.00    -0.508 OA
ATOM     27  H   UNL     1      41.775  21.622  -2.688  1.00  0.00     0.293 HD
ENDBRANCH   8  26
TORSDOF 6
ENDMDL
MODEL 8
REMARK VINA RESULT:    -4.926      2.739      7.692
REMARK INTER + INTRA:          -5.951
REMARK INTER:                  -5.691
REMARK INTRA:                  -0.260
REMARK UNBOUND:                -0.017
REMARK SMILES O=c1c(O)c(-c2ccc(O)c(O)c2)oc2cc(O)cc(O)c12
REMARK SMILES IDX 5 1 3 2 2 3 1 4 22 5 20 6 19 7 17 8 16 9 15 10 14 11 6 12
REMARK SMILES IDX 7 13 8 14 9 15 13 16 11 17 10 18 12 20 4 22 21 24 18 26
REMARK H PARENT 10 19 12 21 4 23 21 25 18 27
REMARK Flexibility Score: inf
ROOT
ATOM      1  C   UNL     1      44.008  16.464  -3.047  1.00  0.00     0.180 A 
ATOM      2  C   UNL     1      44.249  17.306  -4.147  1.00  0.00     0.208 A 
ATOM      3  C   UNL     1      43.687  18.593  -4.155  1.00  0.00     0.238 A 
ATOM      4  O   UNL     1      43.862  19.322  -5.165  1.00  0.00    -0.285 OA
ATOM      5  C   UNL     1      42.904  19.026  -3.059  1.00  0.00     0.111 A 
ATOM      6  C   UNL     1      42.319  20.323  -2.944  1.00  0.00     0.134 A 
ATOM      7  C   UNL     1      41.455  20.599  -1.876  1.00  0.00     0.093 A 
ATOM      8  C   UNL     1      41.207  19.649  -0.887  1.00  0.00     0.123 A 
ATOM      9  C   UNL     1      41.821  18.398  -0.958  1.00  0.00     0.094 A 
ATOM     10  C   UNL     1      42.659  18.081  -2.029  1.00  0.00     0.146 A 
ATOM     11  O   UNL     1      43.215  16.875  -2.065  1.00  0.00    -0.452 OA
ENDROOT
BRANCH   1  12
ATOM     12  C   UNL     1      44.587  15.104  -2.954  1.00  0.00     0.025 A 
ATOM     13  C   UNL     1      43.809  13.961  -3.201  1.00  0.00     0.016 A 
ATOM     14  C   UNL     1      44.383  12.690  -3.131  1.00  0.00     0.051 A 
ATOM     15  C   UNL     1      45.740  12.533  -2.828  1.00  0.00     0.157 A 
ATOM     16  C   UNL     1      45.953  14.951  -2.671  1.00  0.00     0.062 A 
ATOM     17  C   UNL     1      46.537  13.680  -2.599  1.00  0.00     0.158 A 
BRANCH  15  18
ATOM     18  O   UNL     1      46.251  11.235  -2.769  1.00  0.00    -0.504 OA
ATOM     19  H   UNL     1      46.369  10.639  -3.575  1.00  0.00     0.293 HD
ENDBRANCH  15  18
BRANCH  17  20
ATOM     20  O   UNL     1      47.899  13.605  -2.301  1.00  0.00    -0.504 OA
ATOM     21  H   UNL     1      48.599  13.255  -2.940  1.00  0.00     0.293 HD
ENDBRANCH  17  20
ENDBRANCH   1  12
BRANCH   2  22
ATOM     22  O   UNL     1      45.009  16.851  -5.228  1.00  0.00    -0.502 OA
ATOM     23  H   UNL     1      45.971  17.132  -5.374  1.00  0.00     0.293 HD
ENDBRANCH   2  22
BRANCH   6  24
ATOM     24  O   UNL     1      42.573  21.375  -3.829  1.00  0.00    -0.507 OA
ATOM     25  H   UNL     1      41.878  21.818  -4.411  1.00  0.00     0.293 HD
ENDBRANCH   6  24
BRANCH   8  26
ATOM     26  O   UNL     1      40.354  19.963   0.169  1.00  0.00    -0.508 OA
ATOM     27  H   UNL     1      40.242  20.917   0.493  1.00  0.00     0.293 HD
ENDBRANCH   8  26
TORSDOF 6
ENDMDL
MODEL 9
REMARK VINA RESULT:    -4.871      1.586      7.313
REMARK INTER + INTRA:          -5.885
REMARK INTER:                  -6.289
REMARK INTRA:                   0.404
REMARK UNBOUND:                -0.017
REMARK SMILES O=c1c(O)c(-c2ccc(O)c(O)c2)oc2cc(O)cc(O)c12
REMARK SMILES IDX 5 1 3 2 2 3 1 4 22 5 20 6 19 7 17 8 16 9 15 10 14 11 6 12
REMARK SMILES IDX 7 13 8 14 9 15 13 16 11 17 10 18 12 20 4 22 21 24 18 26
REMARK H PARENT 10 19 12 21 4 23 21 25 18 27
REMARK Flexibility Score: inf
ROOT
ATOM      1  C   UNL     1      46.029  15.730  -3.510  1.00  0.00     0.180 A 
ATOM      2  C   UNL     1      46.267  16.634  -4.559  1.00  0.00     0.208 A 
ATOM      3  C   UNL     1      45.369  17.695  -4.760  1.00  0.00     0.238 A 
ATOM      4  O   UNL     1      45.557  18.470  -5.734  1.00  0.00    -0.285 OA
ATOM      5  C   UNL     1      44.254  17.846  -3.901  1.00  0.00     0.111 A 
ATOM      6  C   UNL     1      43.303  18.907  -3.988  1.00  0.00     0.134 A 
ATOM      7  C   UNL     1      42.167  18.885  -3.168  1.00  0.00     0.093 A 
ATOM      8  C   UNL     1      41.982  17.878  -2.222  1.00  0.00     0.123 A 
ATOM      9  C   UNL     1      42.936  16.869  -2.088  1.00  0.00     0.094 A 
ATOM     10  C   UNL     1      44.061  16.844  -2.915  1.00  0.00     0.146 A 
ATOM     11  O   UNL     1      44.940  15.860  -2.762  1.00  0.00    -0.452 OA
ENDROOT
BRANCH   1  12
ATOM     12  C   UNL     1      46.944  14.602  -3.219  1.00  0.00     0.025 A 
ATOM     13  C   UNL     1      46.492  13.445  -2.565  1.00  0.00     0.016 A 
ATOM     14  C   UNL     1      47.367  12.384  -2.325  1.00  0.00     0.051 A 
ATOM     15  C   UNL     1      48.702  12.449  -2.739  1.00  0.00     0.157 A 
ATOM     16  C   UNL     1      48.277  14.661  -3.656  1.00  0.00     0.062 A 
ATOM     17  C   UNL     1      49.162  13.602  -3.419  1.00  0.00     0.158 A 
BRANCH  15  18
ATOM     18  O   UNL     1      49.526  11.356  -2.464  1.00  0.00    -0.504 OA
ATOM     19  H   UNL     1      50.527  11.419  -2.352  1.00  0.00     0.293 HD
ENDBRANCH  15  18
BRANCH  17  20
ATOM     20  O   UNL     1      50.476  13.737  -3.871  1.00  0.00    -0.504 OA
ATOM     21  H   UNL     1      51.149  14.374  -3.469  1.00  0.00     0.293 HD
ENDBRANCH  17  20
ENDBRANCH   1  12
BRANCH   2  22
ATOM     22  O   UNL     1      47.362  16.454  -5.409  1.00  0.00    -0.502 OA
ATOM     23  H   UNL     1      48.172  15.907  -5.144  1.00  0.00     0.293 HD
ENDBRANCH   2  22
BRANCH   6  24
ATOM     24  O   UNL     1      43.439  20.010  -4.836  1.00  0.00    -0.507 OA
ATOM     25  H   UNL     1      43.635  19.955  -5.824  1.00  0.00     0.293 HD
ENDBRANCH   6  24
BRANCH   8  26
ATOM     26  O   UNL     1      40.848  17.896  -1.412  1.00  0.00    -0.508 OA
ATOM     27  H   UNL     1      39.916  17.943  -1.808  1.00  0.00     0.293 HD
ENDBRANCH   8  26
TORSDOF 6
ENDMDL
