MODEL 1
REMARK VINA RESULT:    -3.512      0.000      0.000
REMARK INTER + INTRA:         -14.537
REMARK INTER:                  -9.260
REMARK INTRA:                  -5.277
REMARK UNBOUND:                -5.277
REMARK SMILES CCCCCCCCCCCCCCCCCCCCCCCCCCCCCC(=O)[O-]
REMARK SMILES IDX 16 1 17 2 18 3 19 4 20 5 21 6 22 7 23 8 24 9 25 10 26 11
REMARK SMILES IDX 27 12 28 13 29 14 30 15 31 16 32 17 15 18 14 19 13 20 12 21
REMARK SMILES IDX 11 22 10 23 9 24 8 25 7 26 6 27 5 28 4 29 3 30 2 31 1 32
REMARK H PARENT
REMARK Flexibility Score: inf
ROOT
ATOM      1  C   UNL     1      29.309   9.617  23.229  1.00  0.00     0.000 C 
ENDROOT
BRANCH   1   2
ATOM      2  C   UNL     1      28.440   8.916  24.287  1.00  0.00     0.000 C 
BRANCH   2   3
ATOM      3  C   UNL     1      28.520   9.589  25.668  1.00  0.00     0.000 C 
BRANCH   3   4
ATOM      4  C   UNL     1      27.164   9.607  26.405  1.00  0.00     0.000 C 
BRANCH   4   5
ATOM      5  C   UNL     1      25.964   9.212  25.521  1.00  0.00     0.000 C 
BRANCH   5   6
ATOM      6  C   UNL     1      24.693  10.058  25.718  1.00  0.00     0.000 C 
BRANCH   6   7
ATOM      7  C   UNL     1      23.927  10.400  24.426  1.00  0.00     0.000 C 
BRANCH   7   8
ATOM      8  C   UNL     1      23.207  11.759  24.495  1.00  0.00     0.000 C 
BRANCH   8   9
ATOM      9  C   UNL     1      23.675  12.619  25.679  1.00  0.00     0.000 C 
BRANCH   9  10
ATOM     10  C   UNL     1      24.086  14.041  25.256  1.00  0.00     0.000 C 
BRANCH  10  11
ATOM     11  C   UNL     1      25.619  14.210  25.192  1.00  0.00     0.000 C 
BRANCH  11  12
ATOM     12  C   UNL     1      26.392  13.059  25.865  1.00  0.00     0.000 C 
BRANCH  12  13
ATOM     13  C   UNL     1      27.016  13.408  27.230  1.00  0.00     0.006 C 
BRANCH  13  14
ATOM     14  C   UNL     1      26.357  12.695  28.421  1.00  0.00     0.053 C 
BRANCH  14  15
ATOM     15  C   UNL     1      27.371  12.191  29.401  1.00  0.00     0.041 C 
ATOM     16  O   UNL     1      27.953  12.994  30.176  1.00  0.00    -0.550 OA
ATOM     17  O   UNL     1      27.647  10.833  29.484  1.00  0.00    -0.550 OA
ENDBRANCH  14  15
ENDBRANCH  13  14
ENDBRANCH  12  13
ENDBRANCH  11  12
ENDBRANCH  10  11
ENDBRANCH   9  10
ENDBRANCH   8   9
ENDBRANCH   7   8
ENDBRANCH   6   7
ENDBRANCH   5   6
ENDBRANCH   4   5
ENDBRANCH   3   4
ENDBRANCH   2   3
ENDBRANCH   1   2
BRANCH   1  18
ATOM     18  C   UNL     1      28.553   9.954  21.927  1.00  0.00     0.000 C 
BRANCH  18  19
ATOM     19  C   UNL     1      27.095  10.375  22.187  1.00  0.00     0.000 C 
BRANCH  19  20
ATOM     20  C   UNL     1      26.969  11.856  22.582  1.00  0.00     0.000 C 
BRANCH  20  21
ATOM     21  C   UNL     1      25.770  12.549  21.909  1.00  0.00     0.000 C 
BRANCH  21  22
ATOM     22  C   UNL     1      25.319  11.822  20.631  1.00  0.00     0.000 C 
BRANCH  22  23
ATOM     23  C   UNL     1      23.952  11.133  20.791  1.00  0.00     0.000 C 
BRANCH  23  24
ATOM     24  C   UNL     1      22.787  12.032  20.339  1.00  0.00    -0.000 C 
BRANCH  24  25
ATOM     25  C   UNL     1      23.262  13.222  19.485  1.00  0.00    -0.000 C 
BRANCH  25  26
ATOM     26  C   UNL     1      22.592  14.550  19.902  1.00  0.00    -0.000 C 
BRANCH  26  27
ATOM     27  C   UNL     1      22.784  14.910  21.389  1.00  0.00    -0.000 C 
BRANCH  27  28
ATOM     28  C   UNL     1      24.061  15.709  21.716  1.00  0.00    -0.000 C 
BRANCH  28  29
ATOM     29  C   UNL     1      23.832  16.937  22.622  1.00  0.00    -0.000 C 
BRANCH  29  30
ATOM     30  C   UNL     1      23.974  18.286  21.883  1.00  0.00    -0.000 C 
BRANCH  30  31
ATOM     31  C   UNL     1      24.236  18.134  20.376  1.00  0.00    -0.003 C 
ATOM     32  C   UNL     1      25.645  18.569  19.972  1.00  0.00     0.004 C 
ENDBRANCH  30  31
ENDBRANCH  29  30
ENDBRANCH  28  29
ENDBRANCH  27  28
ENDBRANCH  26  27
ENDBRANCH  25  26
ENDBRANCH  24  25
ENDBRANCH  23  24
ENDBRANCH  22  23
ENDBRANCH  21  22
ENDBRANCH  20  21
ENDBRANCH  19  20
ENDBRANCH  18  19
ENDBRANCH   1  18
TORSDOF 28
ENDMDL
MODEL 2
REMARK VINA RESULT:    -3.501      8.103     13.609
REMARK INTER + INTRA:         -14.508
REMARK INTER:                  -8.982
REMARK INTRA:                  -5.526
REMARK UNBOUND:                -5.277
REMARK SMILES CCCCCCCCCCCCCCCCCCCCCCCCCCCCCC(=O)[O-]
REMARK SMILES IDX 16 1 17 2 18 3 19 4 20 5 21 6 22 7 23 8 24 9 25 10 26 11
REMARK SMILES IDX 27 12 28 13 29 14 30 15 31 16 32 17 15 18 14 19 13 20 12 21
REMARK SMILES IDX 11 22 10 23 9 24 8 25 7 26 6 27 5 28 4 29 3 30 2 31 1 32
REMARK H PARENT
REMARK Flexibility Score: inf
ROOT
ATOM      1  C   UNL     1      25.628  24.446  23.021  1.00  0.00     0.000 C 
ENDROOT
BRANCH   1   2
ATOM      2  C   UNL     1      26.597  24.825  21.889  1.00  0.00     0.000 C 
BRANCH   2   3
ATOM      3  C   UNL     1      26.208  24.207  20.536  1.00  0.00     0.000 C 
BRANCH   3   4
ATOM      4  C   UNL     1      27.165  24.611  19.394  1.00  0.00     0.000 C 
BRANCH   4   5
ATOM      5  C   UNL     1      26.638  24.276  17.985  1.00  0.00     0.000 C 
BRANCH   5   6
ATOM      6  C   UNL     1      25.749  25.356  17.341  1.00  0.00     0.000 C 
BRANCH   6   7
ATOM      7  C   UNL     1      24.283  24.943  17.105  1.00  0.00     0.000 C 
BRANCH   7   8
ATOM      8  C   UNL     1      23.610  24.370  18.365  1.00  0.00     0.000 C 
BRANCH   8   9
ATOM      9  C   UNL     1      22.975  22.992  18.124  1.00  0.00     0.000 C 
BRANCH   9  10
ATOM     10  C   UNL     1      23.955  21.989  17.487  1.00  0.00     0.000 C 
BRANCH  10  11
ATOM     11  C   UNL     1      24.766  21.215  18.548  1.00  0.00     0.000 C 
BRANCH  11  12
ATOM     12  C   UNL     1      24.052  21.104  19.908  1.00  0.00     0.000 C 
BRANCH  12  13
ATOM     13  C   UNL     1      24.196  19.739  20.607  1.00  0.00     0.006 C 
BRANCH  13  14
ATOM     14  C   UNL     1      25.013  18.710  19.810  1.00  0.00     0.053 C 
BRANCH  14  15
ATOM     15  C   UNL     1      24.151  17.613  19.266  1.00  0.00     0.041 C 
ATOM     16  O   UNL     1      24.032  16.531  19.897  1.00  0.00    -0.550 OA
ATOM     17  O   UNL     1      23.450  17.799  18.080  1.00  0.00    -0.550 OA
ENDBRANCH  14  15
ENDBRANCH  13  14
ENDBRANCH  12  13
ENDBRANCH  11  12
ENDBRANCH  10  11
ENDBRANCH   9  10
ENDBRANCH   8   9
ENDBRANCH   7   8
ENDBRANCH   6   7
ENDBRANCH   5   6
ENDBRANCH   4   5
ENDBRANCH   3   4
ENDBRANCH   2   3
ENDBRANCH   1   2
BRANCH   1  18
ATOM     18  C   UNL     1      24.514  23.470  22.586  1.00  0.00     0.000 C 
BRANCH  18  19
ATOM     19  C   UNL     1      23.283  23.535  23.510  1.00  0.00     0.000 C 
BRANCH  19  20
ATOM     20  C   UNL     1      23.583  24.237  24.846  1.00  0.00     0.000 C 
BRANCH  20  21
ATOM     21  C   UNL     1      22.648  25.430  25.110  1.00  0.00     0.000 C 
BRANCH  21  22
ATOM     22  C   UNL     1      23.376  26.779  24.990  1.00  0.00     0.000 C 
BRANCH  22  23
ATOM     23  C   UNL     1      22.756  27.696  23.921  1.00  0.00     0.000 C 
BRANCH  23  24
ATOM     24  C   UNL     1      21.886  26.919  22.917  1.00  0.00    -0.000 C 
BRANCH  24  25
ATOM     25  C   UNL     1      22.617  26.658  21.588  1.00  0.00    -0.000 C 
BRANCH  25  26
ATOM     26  C   UNL     1      23.961  27.412  21.496  1.00  0.00    -0.000 C 
BRANCH  26  27
ATOM     27  C   UNL     1      24.507  27.551  20.061  1.00  0.00    -0.000 C 
BRANCH  27  28
ATOM     28  C   UNL     1      25.581  28.640  19.865  1.00  0.00    -0.000 C 
BRANCH  28  29
ATOM     29  C   UNL     1      26.997  28.097  19.582  1.00  0.00    -0.000 C 
BRANCH  29  30
ATOM     30  C   UNL     1      28.036  28.490  20.655  1.00  0.00    -0.000 C 
BRANCH  30  31
ATOM     31  C   UNL     1      27.623  28.094  22.082  1.00  0.00    -0.003 C 
ATOM     32  C   UNL     1      28.675  28.461  23.129  1.00  0.00     0.004 C 
ENDBRANCH  30  31
ENDBRANCH  29  30
ENDBRANCH  28  29
ENDBRANCH  27  28
ENDBRANCH  26  27
ENDBRANCH  25  26
ENDBRANCH  24  25
ENDBRANCH  23  24
ENDBRANCH  22  23
ENDBRANCH  21  22
ENDBRANCH  20  21
ENDBRANCH  19  20
ENDBRANCH  18  19
ENDBRANCH   1  18
TORSDOF 28
ENDMDL
MODEL 3
REMARK VINA RESULT:    -3.500      4.786      8.592
REMARK INTER + INTRA:         -14.507
REMARK INTER:                 -10.971
REMARK INTRA:                  -3.536
REMARK UNBOUND:                -5.277
REMARK SMILES CCCCCCCCCCCCCCCCCCCCCCCCCCCCCC(=O)[O-]
REMARK SMILES IDX 16 1 17 2 18 3 19 4 20 5 21 6 22 7 23 8 24 9 25 10 26 11
REMARK SMILES IDX 27 12 28 13 29 14 30 15 31 16 32 17 15 18 14 19 13 20 12 21
REMARK SMILES IDX 11 22 10 23 9 24 8 25 7 26 6 27 5 28 4 29 3 30 2 31 1 32
REMARK H PARENT
REMARK Flexibility Score: inf
ROOT
ATOM      1  C   UNL     1      24.115  19.812  23.472  1.00  0.00     0.000 C 
ENDROOT
BRANCH   1   2
ATOM      2  C   UNL     1      23.879  19.551  24.969  1.00  0.00     0.000 C 
BRANCH   2   3
ATOM      3  C   UNL     1      24.907  18.582  25.576  1.00  0.00     0.000 C 
BRANCH   3   4
ATOM      4  C   UNL     1      24.280  17.242  26.018  1.00  0.00     0.000 C 
BRANCH   4   5
ATOM      5  C   UNL     1      23.406  16.572  24.939  1.00  0.00     0.000 C 
BRANCH   5   6
ATOM      6  C   UNL     1      24.158  15.652  23.960  1.00  0.00     0.000 C 
BRANCH   6   7
ATOM      7  C   UNL     1      24.329  14.195  24.432  1.00  0.00     0.000 C 
BRANCH   7   8
ATOM      8  C   UNL     1      25.771  13.678  24.276  1.00  0.00     0.000 C 
BRANCH   8   9
ATOM      9  C   UNL     1      26.150  13.409  22.812  1.00  0.00     0.000 C 
BRANCH   9  10
ATOM     10  C   UNL     1      27.060  12.177  22.650  1.00  0.00     0.000 C 
BRANCH  10  11
ATOM     11  C   UNL     1      26.390  11.064  21.817  1.00  0.00     0.000 C 
BRANCH  11  12
ATOM     12  C   UNL     1      25.323  11.588  20.837  1.00  0.00     0.000 C 
BRANCH  12  13
ATOM     13  C   UNL     1      23.882  11.139  21.147  1.00  0.00     0.006 C 
BRANCH  13  14
ATOM     14  C   UNL     1      22.888  12.298  21.319  1.00  0.00     0.053 C 
BRANCH  14  15
ATOM     15  C   UNL     1      23.035  13.324  20.239  1.00  0.00     0.041 C 
ATOM     16  O   UNL     1      23.447  14.481  20.518  1.00  0.00    -0.550 OA
ATOM     17  O   UNL     1      22.752  12.995  18.919  1.00  0.00    -0.550 OA
ENDBRANCH  14  15
ENDBRANCH  13  14
ENDBRANCH  12  13
ENDBRANCH  11  12
ENDBRANCH  10  11
ENDBRANCH   9  10
ENDBRANCH   8   9
ENDBRANCH   7   8
ENDBRANCH   6   7
ENDBRANCH   5   6
ENDBRANCH   4   5
ENDBRANCH   3   4
ENDBRANCH   2   3
ENDBRANCH   1   2
BRANCH   1  18
ATOM     18  C   UNL     1      22.918  19.424  22.577  1.00  0.00     0.000 C 
BRANCH  18  19
ATOM     19  C   UNL     1      23.305  18.405  21.490  1.00  0.00     0.000 C 
BRANCH  19  20
ATOM     20  C   UNL     1      24.828  18.228  21.360  1.00  0.00     0.000 C 
BRANCH  20  21
ATOM     21  C   UNL     1      25.360  18.661  19.982  1.00  0.00     0.000 C 
BRANCH  21  22
ATOM     22  C   UNL     1      24.354  19.538  19.218  1.00  0.00     0.000 C 
BRANCH  22  23
ATOM     23  C   UNL     1      24.727  21.031  19.245  1.00  0.00     0.000 C 
BRANCH  23  24
ATOM     24  C   UNL     1      23.722  21.870  20.055  1.00  0.00    -0.000 C 
BRANCH  24  25
ATOM     25  C   UNL     1      24.396  23.043  20.789  1.00  0.00    -0.000 C 
BRANCH  25  26
ATOM     26  C   UNL     1      25.578  23.636  19.992  1.00  0.00    -0.000 C 
BRANCH  26  27
ATOM     27  C   UNL     1      26.395  24.688  20.770  1.00  0.00    -0.000 C 
BRANCH  27  28
ATOM     28  C   UNL     1      26.262  24.625  22.305  1.00  0.00    -0.000 C 
BRANCH  28  29
ATOM     29  C   UNL     1      26.377  25.991  23.013  1.00  0.00    -0.000 C 
BRANCH  29  30
ATOM     30  C   UNL     1      25.054  26.469  23.652  1.00  0.00    -0.000 C 
BRANCH  30  31
ATOM     31  C   UNL     1      24.938  26.128  25.146  1.00  0.00    -0.003 C 
ATOM     32  C   UNL     1      23.904  25.038  25.429  1.00  0.00     0.004 C 
ENDBRANCH  30  31
ENDBRANCH  29  30
ENDBRANCH  28  29
ENDBRANCH  27  28
ENDBRANCH  26  27
ENDBRANCH  25  26
ENDBRANCH  24  25
ENDBRANCH  23  24
ENDBRANCH  22  23
ENDBRANCH  21  22
ENDBRANCH  20  21
ENDBRANCH  19  20
ENDBRANCH  18  19
ENDBRANCH   1  18
TORSDOF 28
ENDMDL
MODEL 4
REMARK VINA RESULT:    -3.479      2.697      4.115
REMARK INTER + INTRA:         -14.451
REMARK INTER:                  -9.414
REMARK INTRA:                  -5.036
REMARK UNBOUND:                -5.277
REMARK SMILES CCCCCCCCCCCCCCCCCCCCCCCCCCCCCC(=O)[O-]
REMARK SMILES IDX 16 1 17 2 18 3 19 4 20 5 21 6 22 7 23 8 24 9 25 10 26 11
REMARK SMILES IDX 27 12 28 13 29 14 30 15 31 16 32 17 15 18 14 19 13 20 12 21
REMARK SMILES IDX 11 22 10 23 9 24 8 25 7 26 6 27 5 28 4 29 3 30 2 31 1 32
REMARK H PARENT
REMARK Flexibility Score: inf
ROOT
ATOM      1  C   UNL     1      26.374  10.862  22.405  1.00  0.00     0.000 C 
ENDROOT
BRANCH   1   2
ATOM      2  C   UNL     1      27.799  10.299  22.266  1.00  0.00     0.000 C 
BRANCH   2   3
ATOM      3  C   UNL     1      28.073   9.121  23.216  1.00  0.00     0.000 C 
BRANCH   3   4
ATOM      4  C   UNL     1      28.826   9.545  24.495  1.00  0.00     0.000 C 
BRANCH   4   5
ATOM      5  C   UNL     1      28.007   9.378  25.790  1.00  0.00     0.000 C 
BRANCH   5   6
ATOM      6  C   UNL     1      26.479   9.346  25.603  1.00  0.00     0.000 C 
BRANCH   6   7
ATOM      7  C   UNL     1      25.744  10.642  25.993  1.00  0.00     0.000 C 
BRANCH   7   8
ATOM      8  C   UNL     1      26.679  11.707  26.594  1.00  0.00     0.000 C 
BRANCH   8   9
ATOM      9  C   UNL     1      26.092  13.125  26.517  1.00  0.00     0.000 C 
BRANCH   9  10
ATOM     10  C   UNL     1      25.489  13.592  27.854  1.00  0.00     0.000 C 
BRANCH  10  11
ATOM     11  C   UNL     1      24.645  14.874  27.696  1.00  0.00     0.000 C 
BRANCH  11  12
ATOM     12  C   UNL     1      24.879  15.604  26.359  1.00  0.00     0.000 C 
BRANCH  12  13
ATOM     13  C   UNL     1      23.774  16.601  25.962  1.00  0.00     0.006 C 
BRANCH  13  14
ATOM     14  C   UNL     1      23.653  17.810  26.903  1.00  0.00     0.053 C 
BRANCH  14  15
ATOM     15  C   UNL     1      24.234  19.049  26.296  1.00  0.00     0.041 C 
ATOM     16  O   UNL     1      23.612  20.140  26.370  1.00  0.00    -0.550 OA
ATOM     17  O   UNL     1      25.480  19.008  25.682  1.00  0.00    -0.550 OA
ENDBRANCH  14  15
ENDBRANCH  13  14
ENDBRANCH  12  13
ENDBRANCH  11  12
ENDBRANCH  10  11
ENDBRANCH   9  10
ENDBRANCH   8   9
ENDBRANCH   7   8
ENDBRANCH   6   7
ENDBRANCH   5   6
ENDBRANCH   4   5
ENDBRANCH   3   4
ENDBRANCH   2   3
ENDBRANCH   1   2
BRANCH   1  18
ATOM     18  C   UNL     1      26.092  12.075  21.494  1.00  0.00     0.000 C 
BRANCH  18  19
ATOM     19  C   UNL     1      25.307  11.686  20.227  1.00  0.00     0.000 C 
BRANCH  19  20
ATOM     20  C   UNL     1      24.067  12.569  20.006  1.00  0.00     0.000 C 
BRANCH  20  21
ATOM     21  C   UNL     1      22.765  11.884  20.458  1.00  0.00     0.000 C 
BRANCH  21  22
ATOM     22  C   UNL     1      23.004  10.453  20.968  1.00  0.00     0.000 C 
BRANCH  22  23
ATOM     23  C   UNL     1      22.231  10.147  22.263  1.00  0.00     0.000 C 
BRANCH  23  24
ATOM     24  C   UNL     1      22.979  10.631  23.518  1.00  0.00    -0.000 C 
BRANCH  24  25
ATOM     25  C   UNL     1      22.060  11.389  24.493  1.00  0.00    -0.000 C 
BRANCH  25  26
ATOM     26  C   UNL     1      22.647  12.753  24.916  1.00  0.00    -0.000 C 
BRANCH  26  27
ATOM     27  C   UNL     1      23.714  13.305  23.949  1.00  0.00    -0.000 C 
BRANCH  27  28
ATOM     28  C   UNL     1      23.226  14.403  22.984  1.00  0.00    -0.000 C 
BRANCH  28  29
ATOM     29  C   UNL     1      24.343  15.319  22.442  1.00  0.00    -0.000 C 
BRANCH  29  30
ATOM     30  C   UNL     1      23.883  16.239  21.289  1.00  0.00    -0.000 C 
BRANCH  30  31
ATOM     31  C   UNL     1      24.575  17.612  21.288  1.00  0.00    -0.003 C 
ATOM     32  C   UNL     1      24.745  18.190  19.882  1.00  0.00     0.004 C 
ENDBRANCH  30  31
ENDBRANCH  29  30
ENDBRANCH  28  29
ENDBRANCH  27  28
ENDBRANCH  26  27
ENDBRANCH  25  26
ENDBRANCH  24  25
ENDBRANCH  23  24
ENDBRANCH  22  23
ENDBRANCH  21  22
ENDBRANCH  20  21
ENDBRANCH  19  20
ENDBRANCH  18  19
ENDBRANCH   1  18
TORSDOF 28
ENDMDL
MODEL 5
REMARK VINA RESULT:    -3.466     11.710     15.392
REMARK INTER + INTRA:         -14.417
REMARK INTER:                  -8.404
REMARK INTRA:                  -6.012
REMARK UNBOUND:                -5.277
REMARK SMILES CCCCCCCCCCCCCCCCCCCCCCCCCCCCCC(=O)[O-]
REMARK SMILES IDX 16 1 17 2 18 3 19 4 20 5 21 6 22 7 23 8 24 9 25 10 26 11
REMARK SMILES IDX 27 12 28 13 29 14 30 15 31 16 32 17 15 18 14 19 13 20 12 21
REMARK SMILES IDX 11 22 10 23 9 24 8 25 7 26 6 27 5 28 4 29 3 30 2 31 1 32
REMARK H PARENT
REMARK Flexibility Score: inf
ROOT
ATOM      1  C   UNL     1      25.260  26.170  24.552  1.00  0.00     0.000 C 
ENDROOT
BRANCH   1   2
ATOM      2  C   UNL     1      25.704  26.868  23.256  1.00  0.00     0.000 C 
BRANCH   2   3
ATOM      3  C   UNL     1      27.209  26.718  22.981  1.00  0.00     0.000 C 
BRANCH   3   4
ATOM      4  C   UNL     1      28.028  27.943  23.441  1.00  0.00     0.000 C 
BRANCH   4   5
ATOM      5  C   UNL     1      28.315  28.963  22.321  1.00  0.00     0.000 C 
BRANCH   5   6
ATOM      6  C   UNL     1      28.782  28.358  20.984  1.00  0.00     0.000 C 
BRANCH   6   7
ATOM      7  C   UNL     1      28.034  28.870  19.738  1.00  0.00     0.000 C 
BRANCH   7   8
ATOM      8  C   UNL     1      26.511  28.950  19.940  1.00  0.00     0.000 C 
BRANCH   8   9
ATOM      9  C   UNL     1      25.808  27.607  19.690  1.00  0.00     0.000 C 
BRANCH   9  10
ATOM     10  C   UNL     1      26.622  26.670  18.779  1.00  0.00     0.000 C 
BRANCH  10  11
ATOM     11  C   UNL     1      26.963  25.334  19.473  1.00  0.00     0.000 C 
BRANCH  11  12
ATOM     12  C   UNL     1      27.193  24.171  18.489  1.00  0.00     0.000 C 
BRANCH  12  13
ATOM     13  C   UNL     1      27.038  24.541  17.001  1.00  0.00     0.006 C 
BRANCH  13  14
ATOM     14  C   UNL     1      27.944  23.735  16.057  1.00  0.00     0.053 C 
BRANCH  14  15
ATOM     15  C   UNL     1      28.280  24.502  14.816  1.00  0.00     0.041 C 
ATOM     16  O   UNL     1      29.162  24.071  14.027  1.00  0.00    -0.550 OA
ATOM     17  O   UNL     1      27.597  25.672  14.512  1.00  0.00    -0.550 OA
ENDBRANCH  14  15
ENDBRANCH  13  14
ENDBRANCH  12  13
ENDBRANCH  11  12
ENDBRANCH  10  11
ENDBRANCH   9  10
ENDBRANCH   8   9
ENDBRANCH   7   8
ENDBRANCH   6   7
ENDBRANCH   5   6
ENDBRANCH   4   5
ENDBRANCH   3   4
ENDBRANCH   2   3
ENDBRANCH   1   2
BRANCH   1  18
ATOM     18  C   UNL     1      23.737  26.229  24.801  1.00  0.00     0.000 C 
BRANCH  18  19
ATOM     19  C   UNL     1      23.138  27.603  24.450  1.00  0.00     0.000 C 
BRANCH  19  20
ATOM     20  C   UNL     1      22.020  27.510  23.398  1.00  0.00     0.000 C 
BRANCH  20  21
ATOM     21  C   UNL     1      22.485  27.951  21.999  1.00  0.00     0.000 C 
BRANCH  21  22
ATOM     22  C   UNL     1      22.156  26.908  20.918  1.00  0.00     0.000 C 
BRANCH  22  23
ATOM     23  C   UNL     1      22.348  25.462  21.410  1.00  0.00     0.000 C 
BRANCH  23  24
ATOM     24  C   UNL     1      23.748  24.914  21.082  1.00  0.00    -0.000 C 
BRANCH  24  25
ATOM     25  C   UNL     1      24.075  23.633  21.871  1.00  0.00    -0.000 C 
BRANCH  25  26
ATOM     26  C   UNL     1      24.464  22.457  20.948  1.00  0.00    -0.000 C 
BRANCH  26  27
ATOM     27  C   UNL     1      23.566  22.312  19.703  1.00  0.00    -0.000 C 
BRANCH  27  28
ATOM     28  C   UNL     1      24.314  22.195  18.360  1.00  0.00    -0.000 C 
BRANCH  28  29
ATOM     29  C   UNL     1      23.711  23.039  17.217  1.00  0.00    -0.000 C 
BRANCH  29  30
ATOM     30  C   UNL     1      23.176  24.413  17.678  1.00  0.00    -0.000 C 
BRANCH  30  31
ATOM     31  C   UNL     1      23.544  25.564  16.728  1.00  0.00    -0.003 C 
ATOM     32  C   UNL     1      23.200  26.939  17.300  1.00  0.00     0.004 C 
ENDBRANCH  30  31
ENDBRANCH  29  30
ENDBRANCH  28  29
ENDBRANCH  27  28
ENDBRANCH  26  27
ENDBRANCH  25  26
ENDBRANCH  24  25
ENDBRANCH  23  24
ENDBRANCH  22  23
ENDBRANCH  21  22
ENDBRANCH  20  21
ENDBRANCH  19  20
ENDBRANCH  18  19
ENDBRANCH   1  18
TORSDOF 28
ENDMDL
MODEL 6
REMARK VINA RESULT:    -3.437      6.662     11.563
REMARK INTER + INTRA:         -14.341
REMARK INTER:                 -10.607
REMARK INTRA:                  -3.733
REMARK UNBOUND:                -5.277
REMARK SMILES CCCCCCCCCCCCCCCCCCCCCCCCCCCCCC(=O)[O-]
REMARK SMILES IDX 16 1 17 2 18 3 19 4 20 5 21 6 22 7 23 8 24 9 25 10 26 11
REMARK SMILES IDX 27 12 28 13 29 14 30 15 31 16 32 17 15 18 14 19 13 20 12 21
REMARK SMILES IDX 11 22 10 23 9 24 8 25 7 26 6 27 5 28 4 29 3 30 2 31 1 32
REMARK H PARENT
REMARK Flexibility Score: inf
ROOT
ATOM      1  C   UNL     1      25.193  19.078  19.870  1.00  0.00     0.000 C 
ENDROOT
BRANCH   1   2
ATOM      2  C   UNL     1      24.639  20.417  19.355  1.00  0.00     0.000 C 
BRANCH   2   3
ATOM      3  C   UNL     1      24.113  21.321  20.483  1.00  0.00     0.000 C 
BRANCH   3   4
ATOM      4  C   UNL     1      24.615  22.777  20.368  1.00  0.00     0.000 C 
BRANCH   4   5
ATOM      5  C   UNL     1      24.628  23.543  21.706  1.00  0.00     0.000 C 
BRANCH   5   6
ATOM      6  C   UNL     1      25.929  24.304  22.017  1.00  0.00     0.000 C 
BRANCH   6   7
ATOM      7  C   UNL     1      25.862  25.246  23.235  1.00  0.00     0.000 C 
BRANCH   7   8
ATOM      8  C   UNL     1      24.584  25.057  24.072  1.00  0.00     0.000 C 
BRANCH   8   9
ATOM      9  C   UNL     1      24.452  26.097  25.195  1.00  0.00     0.000 C 
BRANCH   9  10
ATOM     10  C   UNL     1      23.455  27.220  24.851  1.00  0.00     0.000 C 
BRANCH  10  11
ATOM     11  C   UNL     1      22.395  26.764  23.826  1.00  0.00     0.000 C 
BRANCH  11  12
ATOM     12  C   UNL     1      22.377  27.613  22.541  1.00  0.00     0.000 C 
BRANCH  12  13
ATOM     13  C   UNL     1      22.952  26.915  21.294  1.00  0.00     0.006 C 
BRANCH  13  14
ATOM     14  C   UNL     1      24.289  27.498  20.810  1.00  0.00     0.053 C 
BRANCH  14  15
ATOM     15  C   UNL     1      24.754  26.851  19.542  1.00  0.00     0.041 C 
ATOM     16  O   UNL     1      25.891  27.122  19.075  1.00  0.00    -0.550 OA
ATOM     17  O   UNL     1      23.948  25.923  18.896  1.00  0.00    -0.550 OA
ENDBRANCH  14  15
ENDBRANCH  13  14
ENDBRANCH  12  13
ENDBRANCH  11  12
ENDBRANCH  10  11
ENDBRANCH   9  10
ENDBRANCH   8   9
ENDBRANCH   7   8
ENDBRANCH   6   7
ENDBRANCH   5   6
ENDBRANCH   4   5
ENDBRANCH   3   4
ENDBRANCH   2   3
ENDBRANCH   1   2
BRANCH   1  18
ATOM     18  C   UNL     1      24.449  17.844  19.318  1.00  0.00     0.000 C 
BRANCH  18  19
ATOM     19  C   UNL     1      23.446  17.261  20.331  1.00  0.00     0.000 C 
BRANCH  19  20
ATOM     20  C   UNL     1      24.136  16.511  21.482  1.00  0.00     0.000 C 
BRANCH  20  21
ATOM     21  C   UNL     1      23.770  15.017  21.519  1.00  0.00     0.000 C 
BRANCH  21  22
ATOM     22  C   UNL     1      22.790  14.628  20.400  1.00  0.00     0.000 C 
BRANCH  22  23
ATOM     23  C   UNL     1      23.304  13.460  19.539  1.00  0.00     0.000 C 
BRANCH  23  24
ATOM     24  C   UNL     1      24.683  12.956  20.001  1.00  0.00    -0.000 C 
BRANCH  24  25
ATOM     25  C   UNL     1      24.645  11.490  20.468  1.00  0.00    -0.000 C 
BRANCH  25  26
ATOM     26  C   UNL     1      23.222  10.893  20.422  1.00  0.00    -0.000 C 
BRANCH  26  27
ATOM     27  C   UNL     1      22.729  10.340  21.775  1.00  0.00    -0.000 C 
BRANCH  27  28
ATOM     28  C   UNL     1      22.813  11.322  22.960  1.00  0.00    -0.000 C 
BRANCH  28  29
ATOM     29  C   UNL     1      23.510  10.752  24.214  1.00  0.00    -0.000 C 
BRANCH  29  30
ATOM     30  C   UNL     1      24.964  11.243  24.391  1.00  0.00    -0.000 C 
BRANCH  30  31
ATOM     31  C   UNL     1      25.152  12.731  24.056  1.00  0.00    -0.003 C 
ATOM     32  C   UNL     1      26.441  13.008  23.281  1.00  0.00     0.004 C 
ENDBRANCH  30  31
ENDBRANCH  29  30
ENDBRANCH  28  29
ENDBRANCH  27  28
ENDBRANCH  26  27
ENDBRANCH  25  26
ENDBRANCH  24  25
ENDBRANCH  23  24
ENDBRANCH  22  23
ENDBRANCH  21  22
ENDBRANCH  20  21
ENDBRANCH  19  20
ENDBRANCH  18  19
ENDBRANCH   1  18
TORSDOF 28
ENDMDL
MODEL 7
REMARK VINA RESULT:    -3.425      2.535      5.645
REMARK INTER + INTRA:         -14.307
REMARK INTER:                  -9.548
REMARK INTRA:                  -4.758
REMARK UNBOUND:                -5.277
REMARK SMILES CCCCCCCCCCCCCCCCCCCCCCCCCCCCCC(=O)[O-]
REMARK SMILES IDX 16 1 17 2 18 3 19 4 20 5 21 6 22 7 23 8 24 9 25 10 26 11
REMARK SMILES IDX 27 12 28 13 29 14 30 15 31 16 32 17 15 18 14 19 13 20 12 21
REMARK SMILES IDX 11 22 10 23 9 24 8 25 7 26 6 27 5 28 4 29 3 30 2 31 1 32
REMARK H PARENT
REMARK Flexibility Score: inf
ROOT
ATOM      1  C   UNL     1      25.233  14.169  22.235  1.00  0.00     0.000 C 
ENDROOT
BRANCH   1   2
ATOM      2  C   UNL     1      23.963  14.077  21.372  1.00  0.00     0.000 C 
BRANCH   2   3
ATOM      3  C   UNL     1      24.075  13.031  20.251  1.00  0.00     0.000 C 
BRANCH   3   4
ATOM      4  C   UNL     1      23.078  11.864  20.416  1.00  0.00     0.000 C 
BRANCH   4   5
ATOM      5  C   UNL     1      23.547  10.772  21.398  1.00  0.00     0.000 C 
BRANCH   5   6
ATOM      6  C   UNL     1      22.434  10.117  22.236  1.00  0.00     0.000 C 
BRANCH   6   7
ATOM      7  C   UNL     1      22.261  10.688  23.656  1.00  0.00     0.000 C 
BRANCH   7   8
ATOM      8  C   UNL     1      23.029   9.888  24.724  1.00  0.00     0.000 C 
BRANCH   8   9
ATOM      9  C   UNL     1      23.876  10.784  25.641  1.00  0.00     0.000 C 
BRANCH   9  10
ATOM     10  C   UNL     1      25.080  10.041  26.249  1.00  0.00     0.000 C 
BRANCH  10  11
ATOM     11  C   UNL     1      26.164   9.727  25.196  1.00  0.00     0.000 C 
BRANCH  11  12
ATOM     12  C   UNL     1      26.741  10.983  24.515  1.00  0.00     0.000 C 
BRANCH  12  13
ATOM     13  C   UNL     1      26.865  10.889  22.982  1.00  0.00     0.006 C 
BRANCH  13  14
ATOM     14  C   UNL     1      27.568   9.616  22.486  1.00  0.00     0.053 C 
BRANCH  14  15
ATOM     15  C   UNL     1      29.058   9.763  22.492  1.00  0.00     0.041 C 
ATOM     16  O   UNL     1      29.701   9.635  23.566  1.00  0.00    -0.550 OA
ATOM     17  O   UNL     1      29.740  10.006  21.306  1.00  0.00    -0.550 OA
ENDBRANCH  14  15
ENDBRANCH  13  14
ENDBRANCH  12  13
ENDBRANCH  11  12
ENDBRANCH  10  11
ENDBRANCH   9  10
ENDBRANCH   8   9
ENDBRANCH   7   8
ENDBRANCH   6   7
ENDBRANCH   5   6
ENDBRANCH   4   5
ENDBRANCH   3   4
ENDBRANCH   2   3
ENDBRANCH   1   2
BRANCH   1  18
ATOM     18  C   UNL     1      24.966  14.050  23.750  1.00  0.00     0.000 C 
BRANCH  18  19
ATOM     19  C   UNL     1      23.463  14.073  24.084  1.00  0.00     0.000 C 
BRANCH  19  20
ATOM     20  C   UNL     1      23.187  14.489  25.539  1.00  0.00     0.000 C 
BRANCH  20  21
ATOM     21  C   UNL     1      24.476  14.791  26.324  1.00  0.00     0.000 C 
BRANCH  21  22
ATOM     22  C   UNL     1      24.445  16.178  26.986  1.00  0.00     0.000 C 
BRANCH  22  23
ATOM     23  C   UNL     1      23.658  17.213  26.161  1.00  0.00     0.000 C 
BRANCH  23  24
ATOM     24  C   UNL     1      24.534  18.400  25.724  1.00  0.00    -0.000 C 
BRANCH  24  25
ATOM     25  C   UNL     1      24.354  18.745  24.234  1.00  0.00    -0.000 C 
BRANCH  25  26
ATOM     26  C   UNL     1      23.744  17.577  23.429  1.00  0.00    -0.000 C 
BRANCH  26  27
ATOM     27  C   UNL     1      23.621  17.853  21.917  1.00  0.00    -0.000 C 
BRANCH  27  28
ATOM     28  C   UNL     1      24.954  17.917  21.146  1.00  0.00    -0.000 C 
BRANCH  28  29
ATOM     29  C   UNL     1      24.811  18.263  19.649  1.00  0.00    -0.000 C 
BRANCH  29  30
ATOM     30  C   UNL     1      24.977  19.768  19.343  1.00  0.00    -0.000 C 
BRANCH  30  31
ATOM     31  C   UNL     1      23.651  20.478  19.027  1.00  0.00    -0.003 C 
ATOM     32  C   UNL     1      22.782  19.701  18.038  1.00  0.00     0.004 C 
ENDBRANCH  30  31
ENDBRANCH  29  30
ENDBRANCH  28  29
ENDBRANCH  27  28
ENDBRANCH  26  27
ENDBRANCH  25  26
ENDBRANCH  24  25
ENDBRANCH  23  24
ENDBRANCH  22  23
ENDBRANCH  21  22
ENDBRANCH  20  21
ENDBRANCH  19  20
ENDBRANCH  18  19
ENDBRANCH   1  18
TORSDOF 28
ENDMDL
MODEL 8
REMARK VINA RESULT:    -3.416      6.125     11.318
REMARK INTER + INTRA:         -14.283
REMARK INTER:                  -8.951
REMARK INTRA:                  -5.333
REMARK UNBOUND:                -5.277
REMARK SMILES CCCCCCCCCCCCCCCCCCCCCCCCCCCCCC(=O)[O-]
REMARK SMILES IDX 16 1 17 2 18 3 19 4 20 5 21 6 22 7 23 8 24 9 25 10 26 11
REMARK SMILES IDX 27 12 28 13 29 14 30 15 31 16 32 17 15 18 14 19 13 20 12 21
REMARK SMILES IDX 11 22 10 23 9 24 8 25 7 26 6 27 5 28 4 29 3 30 2 31 1 32
REMARK H PARENT
REMARK Flexibility Score: inf
ROOT
ATOM      1  C   UNL     1      24.954  19.754  25.510  1.00  0.00     0.000 C 
ENDROOT
BRANCH   1   2
ATOM      2  C   UNL     1      24.571  19.899  24.027  1.00  0.00     0.000 C 
BRANCH   2   3
ATOM      3  C   UNL     1      23.080  20.211  23.822  1.00  0.00     0.000 C 
BRANCH   3   4
ATOM      4  C   UNL     1      22.824  21.679  23.417  1.00  0.00     0.000 C 
BRANCH   4   5
ATOM      5  C   UNL     1      24.089  22.561  23.427  1.00  0.00     0.000 C 
BRANCH   5   6
ATOM      6  C   UNL     1      24.274  23.460  22.190  1.00  0.00     0.000 C 
BRANCH   6   7
ATOM      7  C   UNL     1      23.711  22.890  20.875  1.00  0.00     0.000 C 
BRANCH   7   8
ATOM      8  C   UNL     1      24.791  22.681  19.798  1.00  0.00     0.000 C 
BRANCH   8   9
ATOM      9  C   UNL     1      24.811  21.247  19.248  1.00  0.00     0.000 C 
BRANCH   9  10
ATOM     10  C   UNL     1      24.165  20.232  20.210  1.00  0.00     0.000 C 
BRANCH  10  11
ATOM     11  C   UNL     1      24.975  18.921  20.303  1.00  0.00     0.000 C 
BRANCH  11  12
ATOM     12  C   UNL     1      24.095  17.657  20.338  1.00  0.00     0.000 C 
BRANCH  12  13
ATOM     13  C   UNL     1      24.259  16.788  21.600  1.00  0.00     0.006 C 
BRANCH  13  14
ATOM     14  C   UNL     1      23.023  16.772  22.514  1.00  0.00     0.053 C 
BRANCH  14  15
ATOM     15  C   UNL     1      23.266  15.987  23.766  1.00  0.00     0.041 C 
ATOM     16  O   UNL     1      22.600  14.944  23.997  1.00  0.00    -0.550 OA
ATOM     17  O   UNL     1      24.250  16.386  24.661  1.00  0.00    -0.550 OA
ENDBRANCH  14  15
ENDBRANCH  13  14
ENDBRANCH  12  13
ENDBRANCH  11  12
ENDBRANCH  10  11
ENDBRANCH   9  10
ENDBRANCH   8   9
ENDBRANCH   7   8
ENDBRANCH   6   7
ENDBRANCH   5   6
ENDBRANCH   4   5
ENDBRANCH   3   4
ENDBRANCH   2   3
ENDBRANCH   1   2
BRANCH   1  18
ATOM     18  C   UNL     1      23.807  20.094  26.485  1.00  0.00     0.000 C 
BRANCH  18  19
ATOM     19  C   UNL     1      23.982  21.479  27.137  1.00  0.00     0.000 C 
BRANCH  19  20
ATOM     20  C   UNL     1      22.673  22.285  27.173  1.00  0.00     0.000 C 
BRANCH  20  21
ATOM     21  C   UNL     1      22.892  23.752  27.585  1.00  0.00     0.000 C 
BRANCH  21  22
ATOM     22  C   UNL     1      22.340  24.739  26.543  1.00  0.00     0.000 C 
BRANCH  22  23
ATOM     23  C   UNL     1      23.437  25.316  25.632  1.00  0.00     0.000 C 
BRANCH  23  24
ATOM     24  C   UNL     1      22.874  26.299  24.590  1.00  0.00    -0.000 C 
BRANCH  24  25
ATOM     25  C   UNL     1      23.972  26.890  23.687  1.00  0.00    -0.000 C 
BRANCH  25  26
ATOM     26  C   UNL     1      25.392  26.492  24.149  1.00  0.00    -0.000 C 
BRANCH  26  27
ATOM     27  C   UNL     1      26.509  26.906  23.170  1.00  0.00    -0.000 C 
BRANCH  27  28
ATOM     28  C   UNL     1      27.162  25.751  22.386  1.00  0.00    -0.000 C 
BRANCH  28  29
ATOM     29  C   UNL     1      26.773  25.692  20.894  1.00  0.00    -0.000 C 
BRANCH  29  30
ATOM     30  C   UNL     1      25.960  26.916  20.417  1.00  0.00    -0.000 C 
BRANCH  30  31
ATOM     31  C   UNL     1      24.833  26.558  19.435  1.00  0.00    -0.003 C 
ATOM     32  C   UNL     1      23.459  26.504  20.102  1.00  0.00     0.004 C 
ENDBRANCH  30  31
ENDBRANCH  29  30
ENDBRANCH  28  29
ENDBRANCH  27  28
ENDBRANCH  26  27
ENDBRANCH  25  26
ENDBRANCH  24  25
ENDBRANCH  23  24
ENDBRANCH  22  23
ENDBRANCH  21  22
ENDBRANCH  20  21
ENDBRANCH  19  20
ENDBRANCH  18  19
ENDBRANCH   1  18
TORSDOF 28
ENDMDL
MODEL 9
REMARK VINA RESULT:    -3.409      4.596      9.096
REMARK INTER + INTRA:         -14.267
REMARK INTER:                  -8.975
REMARK INTRA:                  -5.292
REMARK UNBOUND:                -5.277
REMARK SMILES CCCCCCCCCCCCCCCCCCCCCCCCCCCCCC(=O)[O-]
REMARK SMILES IDX 16 1 17 2 18 3 19 4 20 5 21 6 22 7 23 8 24 9 25 10 26 11
REMARK SMILES IDX 27 12 28 13 29 14 30 15 31 16 32 17 15 18 14 19 13 20 12 21
REMARK SMILES IDX 11 22 10 23 9 24 8 25 7 26 6 27 5 28 4 29 3 30 2 31 1 32
REMARK H PARENT
REMARK Flexibility Score: inf
ROOT
ATOM      1  C   UNL     1      24.158  17.214  26.418  1.00  0.00     0.000 C 
ENDROOT
BRANCH   1   2
ATOM      2  C   UNL     1      24.083  18.748  26.338  1.00  0.00     0.000 C 
BRANCH   2   3
ATOM      3  C   UNL     1      25.292  19.369  25.619  1.00  0.00     0.000 C 
BRANCH   3   4
ATOM      4  C   UNL     1      24.886  20.289  24.448  1.00  0.00     0.000 C 
BRANCH   4   5
ATOM      5  C   UNL     1      23.461  20.037  23.918  1.00  0.00     0.000 C 
BRANCH   5   6
ATOM      6  C   UNL     1      23.377  19.537  22.464  1.00  0.00     0.000 C 
BRANCH   6   7
ATOM      7  C   UNL     1      24.620  18.778  21.960  1.00  0.00     0.000 C 
BRANCH   7   8
ATOM      8  C   UNL     1      24.681  18.677  20.425  1.00  0.00     0.000 C 
BRANCH   8   9
ATOM      9  C   UNL     1      23.813  19.733  19.725  1.00  0.00     0.000 C 
BRANCH   9  10
ATOM     10  C   UNL     1      24.646  20.853  19.075  1.00  0.00     0.000 C 
BRANCH  10  11
ATOM     11  C   UNL     1      24.697  22.124  19.949  1.00  0.00     0.000 C 
BRANCH  11  12
ATOM     12  C   UNL     1      23.317  22.566  20.472  1.00  0.00     0.000 C 
BRANCH  12  13
ATOM     13  C   UNL     1      23.336  23.252  21.851  1.00  0.00     0.006 C 
BRANCH  13  14
ATOM     14  C   UNL     1      24.744  23.432  22.442  1.00  0.00     0.053 C 
BRANCH  14  15
ATOM     15  C   UNL     1      25.110  24.878  22.581  1.00  0.00     0.041 C 
ATOM     16  O   UNL     1      24.272  25.772  22.292  1.00  0.00    -0.550 OA
ATOM     17  O   UNL     1      26.361  25.238  23.064  1.00  0.00    -0.550 OA
ENDBRANCH  14  15
ENDBRANCH  13  14
ENDBRANCH  12  13
ENDBRANCH  11  12
ENDBRANCH  10  11
ENDBRANCH   9  10
ENDBRANCH   8   9
ENDBRANCH   7   8
ENDBRANCH   6   7
ENDBRANCH   5   6
ENDBRANCH   4   5
ENDBRANCH   3   4
ENDBRANCH   2   3
ENDBRANCH   1   2
BRANCH   1  18
ATOM     18  C   UNL     1      24.157  16.517  25.040  1.00  0.00     0.000 C 
BRANCH  18  19
ATOM     19  C   UNL     1      22.791  15.892  24.701  1.00  0.00     0.000 C 
BRANCH  19  20
ATOM     20  C   UNL     1      22.372  16.143  23.242  1.00  0.00     0.000 C 
BRANCH  20  21
ATOM     21  C   UNL     1      23.216  15.341  22.236  1.00  0.00     0.000 C 
BRANCH  21  22
ATOM     22  C   UNL     1      22.380  14.301  21.472  1.00  0.00     0.000 C 
BRANCH  22  23
ATOM     23  C   UNL     1      23.230  13.441  20.518  1.00  0.00     0.000 C 
BRANCH  23  24
ATOM     24  C   UNL     1      22.815  11.959  20.542  1.00  0.00    -0.000 C 
BRANCH  24  25
ATOM     25  C   UNL     1      24.005  11.022  20.819  1.00  0.00    -0.000 C 
BRANCH  25  26
ATOM     26  C   UNL     1      25.364  11.745  20.700  1.00  0.00    -0.000 C 
BRANCH  26  27
ATOM     27  C   UNL     1      26.493  11.100  21.529  1.00  0.00    -0.000 C 
BRANCH  27  28
ATOM     28  C   UNL     1      27.051  11.969  22.674  1.00  0.00    -0.000 C 
BRANCH  28  29
ATOM     29  C   UNL     1      26.166  13.176  23.049  1.00  0.00    -0.000 C 
BRANCH  29  30
ATOM     30  C   UNL     1      26.129  13.469  24.565  1.00  0.00    -0.000 C 
BRANCH  30  31
ATOM     31  C   UNL     1      24.916  12.852  25.278  1.00  0.00    -0.003 C 
ATOM     32  C   UNL     1      23.866  12.313  24.306  1.00  0.00     0.004 C 
ENDBRANCH  30  31
ENDBRANCH  29  30
ENDBRANCH  28  29
ENDBRANCH  27  28
ENDBRANCH  26  27
ENDBRANCH  25  26
ENDBRANCH  24  25
ENDBRANCH  23  24
ENDBRANCH  22  23
ENDBRANCH  21  22
ENDBRANCH  20  21
ENDBRANCH  19  20
ENDBRANCH  18  19
ENDBRANCH   1  18
TORSDOF 28
ENDMDL
