MODEL 1
REMARK VINA RESULT:    -7.795      0.000      0.000
REMARK INTER + INTRA:          -9.376
REMARK INTER:                  -9.162
REMARK INTRA:                  -0.214
REMARK UNBOUND:                -0.214
REMARK SMILES O=c1c(O)c(-c2ccc(O)cc2)oc2cc(O)cc(O)c12
REMARK SMILES IDX 5 1 3 2 2 3 1 4 21 5 19 6 18 7 16 8 15 9 14 10 13 11 6 12
REMARK SMILES IDX 7 13 8 14 9 15 12 16 11 17 10 18 4 20 20 22 17 24
REMARK H PARENT 10 19 4 21 20 23 17 25
REMARK Flexibility Score: inf
ROOT
ATOM      1  C   UNL     1     -25.241 -18.919 -13.222  1.00  0.00     0.180 A 
ATOM      2  C   UNL     1     -24.467 -20.012 -13.653  1.00  0.00     0.208 A 
ATOM      3  C   UNL     1     -24.531 -21.216 -12.932  1.00  0.00     0.238 A 
ATOM      4  O   UNL     1     -23.833 -22.199 -13.303  1.00  0.00    -0.285 OA
ATOM      5  C   UNL     1     -25.379 -21.311 -11.810  1.00  0.00     0.111 A 
ATOM      6  C   UNL     1     -25.504 -22.488 -11.033  1.00  0.00     0.134 A 
ATOM      7  C   UNL     1     -26.377 -22.506  -9.934  1.00  0.00     0.093 A 
ATOM      8  C   UNL     1     -27.126 -21.375  -9.601  1.00  0.00     0.123 A 
ATOM      9  C   UNL     1     -27.006 -20.210 -10.364  1.00  0.00     0.094 A 
ATOM     10  C   UNL     1     -26.140 -20.171 -11.462  1.00  0.00     0.146 A 
ATOM     11  O   UNL     1     -26.041 -19.050 -12.167  1.00  0.00    -0.452 OA
ENDROOT
BRANCH   1  12
ATOM     12  C   UNL     1     -25.214 -17.611 -13.917  1.00  0.00     0.021 A 
ATOM     13  C   UNL     1     -26.357 -17.170 -14.605  1.00  0.00     0.016 A 
ATOM     14  C   UNL     1     -26.360 -15.930 -15.250  1.00  0.00     0.047 A 
ATOM     15  C   UNL     1     -25.229 -15.109 -15.202  1.00  0.00     0.115 A 
ATOM     16  C   UNL     1     -24.086 -16.772 -13.855  1.00  0.00     0.016 A 
ATOM     17  C   UNL     1     -24.093 -15.531 -14.501  1.00  0.00     0.047 A 
BRANCH  15  18
ATOM     18  O   UNL     1     -25.246 -13.875 -15.850  1.00  0.00    -0.508 OA
ATOM     19  H   UNL     1     -25.162 -13.006 -15.336  1.00  0.00     0.293 HD
ENDBRANCH  15  18
ENDBRANCH   1  12
BRANCH   2  20
ATOM     20  O   UNL     1     -23.672 -19.907 -14.798  1.00  0.00    -0.502 OA
ATOM     21  H   UNL     1     -23.872 -19.247 -15.538  1.00  0.00     0.293 HD
ENDBRANCH   2  20
BRANCH   6  22
ATOM     22  O   UNL     1     -24.771 -23.635 -11.341  1.00  0.00    -0.507 OA
ATOM     23  H   UNL     1     -25.086 -24.297 -12.040  1.00  0.00     0.293 HD
ENDBRANCH   6  22
BRANCH   8  24
ATOM     24  O   UNL     1     -27.986 -21.421  -8.506  1.00  0.00    -0.508 OA
ATOM     25  H   UNL     1     -28.906 -20.998  -8.537  1.00  0.00     0.293 HD
ENDBRANCH   8  24
TORSDOF 5
ENDMDL
MODEL 2
REMARK VINA RESULT:    -7.756      4.186      6.247
REMARK INTER + INTRA:          -9.330
REMARK INTER:                  -9.065
REMARK INTRA:                  -0.265
REMARK UNBOUND:                -0.214
REMARK SMILES O=c1c(O)c(-c2ccc(O)cc2)oc2cc(O)cc(O)c12
REMARK SMILES IDX 5 1 3 2 2 3 1 4 21 5 19 6 18 7 16 8 15 9 14 10 13 11 6 12
REMARK SMILES IDX 7 13 8 14 9 15 12 16 11 17 10 18 4 20 20 22 17 24
REMARK H PARENT 10 19 4 21 20 23 17 25
REMARK Flexibility Score: inf
ROOT
ATOM      1  C   UNL     1     -26.456 -21.949 -11.165  1.00  0.00     0.180 A 
ATOM      2  C   UNL     1     -25.111 -21.570 -11.334  1.00  0.00     0.208 A 
ATOM      3  C   UNL     1     -24.396 -22.077 -12.431  1.00  0.00     0.238 A 
ATOM      4  O   UNL     1     -23.187 -21.753 -12.587  1.00  0.00    -0.285 OA
ATOM      5  C   UNL     1     -25.041 -22.934 -13.346  1.00  0.00     0.111 A 
ATOM      6  C   UNL     1     -24.393 -23.484 -14.478  1.00  0.00     0.134 A 
ATOM      7  C   UNL     1     -25.106 -24.323 -15.348  1.00  0.00     0.093 A 
ATOM      8  C   UNL     1     -26.450 -24.619 -15.110  1.00  0.00     0.123 A 
ATOM      9  C   UNL     1     -27.095 -24.079 -13.992  1.00  0.00     0.094 A 
ATOM     10  C   UNL     1     -26.401 -23.243 -13.112  1.00  0.00     0.146 A 
ATOM     11  O   UNL     1     -27.035 -22.748 -12.057  1.00  0.00    -0.452 OA
ENDROOT
BRANCH   1  12
ATOM     12  C   UNL     1     -27.271 -21.472 -10.023  1.00  0.00     0.021 A 
ATOM     13  C   UNL     1     -27.411 -22.286  -8.886  1.00  0.00     0.016 A 
ATOM     14  C   UNL     1     -28.157 -21.847  -7.788  1.00  0.00     0.047 A 
ATOM     15  C   UNL     1     -28.759 -20.585  -7.807  1.00  0.00     0.115 A 
ATOM     16  C   UNL     1     -27.862 -20.195 -10.027  1.00  0.00     0.016 A 
ATOM     17  C   UNL     1     -28.608 -19.759  -8.927  1.00  0.00     0.047 A 
BRANCH  15  18
ATOM     18  O   UNL     1     -29.501 -20.161  -6.706  1.00  0.00    -0.508 OA
ATOM     19  H   UNL     1     -29.679 -19.178  -6.534  1.00  0.00     0.293 HD
ENDBRANCH  15  18
ENDBRANCH   1  12
BRANCH   2  20
ATOM     20  O   UNL     1     -24.510 -20.680 -10.440  1.00  0.00    -0.502 OA
ATOM     21  H   UNL     1     -25.045 -20.031  -9.877  1.00  0.00     0.293 HD
ENDBRANCH   2  20
BRANCH   6  22
ATOM     22  O   UNL     1     -23.051 -23.206 -14.746  1.00  0.00    -0.507 OA
ATOM     23  H   UNL     1     -22.544 -22.491 -14.237  1.00  0.00     0.293 HD
ENDBRANCH   6  22
BRANCH   8  24
ATOM     24  O   UNL     1     -27.135 -25.454 -15.990  1.00  0.00    -0.508 OA
ATOM     25  H   UNL     1     -27.556 -26.322 -15.678  1.00  0.00     0.293 HD
ENDBRANCH   8  24
TORSDOF 5
ENDMDL
MODEL 3
REMARK VINA RESULT:    -7.724      2.143      3.564
REMARK INTER + INTRA:          -9.292
REMARK INTER:                  -9.025
REMARK INTRA:                  -0.268
REMARK UNBOUND:                -0.214
REMARK SMILES O=c1c(O)c(-c2ccc(O)cc2)oc2cc(O)cc(O)c12
REMARK SMILES IDX 5 1 3 2 2 3 1 4 21 5 19 6 18 7 16 8 15 9 14 10 13 11 6 12
REMARK SMILES IDX 7 13 8 14 9 15 12 16 11 17 10 18 4 20 20 22 17 24
REMARK H PARENT 10 19 4 21 20 23 17 25
REMARK Flexibility Score: inf
ROOT
ATOM      1  C   UNL     1     -24.805 -20.100 -13.662  1.00  0.00     0.180 A 
ATOM      2  C   UNL     1     -24.657 -20.513 -12.324  1.00  0.00     0.208 A 
ATOM      3  C   UNL     1     -24.672 -21.886 -12.032  1.00  0.00     0.238 A 
ATOM      4  O   UNL     1     -24.551 -22.268 -10.836  1.00  0.00    -0.285 OA
ATOM      5  C   UNL     1     -24.815 -22.819 -13.079  1.00  0.00     0.111 A 
ATOM      6  C   UNL     1     -24.836 -24.219 -12.870  1.00  0.00     0.134 A 
ATOM      7  C   UNL     1     -24.973 -25.084 -13.967  1.00  0.00     0.093 A 
ATOM      8  C   UNL     1     -25.087 -24.578 -15.264  1.00  0.00     0.123 A 
ATOM      9  C   UNL     1     -25.067 -23.196 -15.476  1.00  0.00     0.094 A 
ATOM     10  C   UNL     1     -24.933 -22.317 -14.396  1.00  0.00     0.146 A 
ATOM     11  O   UNL     1     -24.923 -21.010 -14.626  1.00  0.00    -0.452 OA
ENDROOT
BRANCH   1  12
ATOM     12  C   UNL     1     -24.818 -18.670 -14.048  1.00  0.00     0.021 A 
ATOM     13  C   UNL     1     -26.048 -18.011 -14.214  1.00  0.00     0.016 A 
ATOM     14  C   UNL     1     -26.085 -16.656 -14.557  1.00  0.00     0.047 A 
ATOM     15  C   UNL     1     -24.895 -15.940 -14.722  1.00  0.00     0.115 A 
ATOM     16  C   UNL     1     -23.626 -17.940 -14.196  1.00  0.00     0.016 A 
ATOM     17  C   UNL     1     -23.665 -16.584 -14.538  1.00  0.00     0.047 A 
BRANCH  15  18
ATOM     18  O   UNL     1     -24.946 -14.590 -15.065  1.00  0.00    -0.508 OA
ATOM     19  H   UNL     1     -24.991 -13.866 -14.358  1.00  0.00     0.293 HD
ENDBRANCH  15  18
ENDBRANCH   1  12
BRANCH   2  20
ATOM     20  O   UNL     1     -24.467 -19.570 -11.311  1.00  0.00    -0.502 OA
ATOM     21  H   UNL     1     -24.295 -19.834 -10.349  1.00  0.00     0.293 HD
ENDBRANCH   2  20
BRANCH   6  22
ATOM     22  O   UNL     1     -24.723 -24.757 -11.587  1.00  0.00    -0.507 OA
ATOM     23  H   UNL     1     -25.355 -25.474 -11.252  1.00  0.00     0.293 HD
ENDBRANCH   6  22
BRANCH   8  24
ATOM     24  O   UNL     1     -25.220 -25.459 -16.334  1.00  0.00    -0.508 OA
ATOM     25  H   UNL     1     -25.664 -25.177 -17.201  1.00  0.00     0.293 HD
ENDBRANCH   8  24
TORSDOF 5
ENDMDL
MODEL 4
REMARK VINA RESULT:    -7.525      2.250      3.802
REMARK INTER + INTRA:          -9.058
REMARK INTER:                  -9.126
REMARK INTRA:                   0.068
REMARK UNBOUND:                -0.214
REMARK SMILES O=c1c(O)c(-c2ccc(O)cc2)oc2cc(O)cc(O)c12
REMARK SMILES IDX 5 1 3 2 2 3 1 4 21 5 19 6 18 7 16 8 15 9 14 10 13 11 6 12
REMARK SMILES IDX 7 13 8 14 9 15 12 16 11 17 10 18 4 20 20 22 17 24
REMARK H PARENT 10 19 4 21 20 23 17 25
REMARK Flexibility Score: inf
ROOT
ATOM      1  C   UNL     1     -25.627 -21.961 -11.311  1.00  0.00     0.180 A 
ATOM      2  C   UNL     1     -24.846 -23.128 -11.214  1.00  0.00     0.208 A 
ATOM      3  C   UNL     1     -25.258 -24.150 -10.343  1.00  0.00     0.238 A 
ATOM      4  O   UNL     1     -24.560 -25.195 -10.240  1.00  0.00    -0.285 OA
ATOM      5  C   UNL     1     -26.447 -23.996  -9.603  1.00  0.00     0.111 A 
ATOM      6  C   UNL     1     -26.933 -24.979  -8.707  1.00  0.00     0.134 A 
ATOM      7  C   UNL     1     -28.132 -24.756  -8.013  1.00  0.00     0.093 A 
ATOM      8  C   UNL     1     -28.852 -23.573  -8.197  1.00  0.00     0.123 A 
ATOM      9  C   UNL     1     -28.377 -22.598  -9.080  1.00  0.00     0.094 A 
ATOM     10  C   UNL     1     -27.184 -22.801  -9.780  1.00  0.00     0.146 A 
ATOM     11  O   UNL     1     -26.752 -21.858 -10.608  1.00  0.00    -0.452 OA
ENDROOT
BRANCH   1  12
ATOM     12  C   UNL     1     -25.250 -20.831 -12.192  1.00  0.00     0.021 A 
ATOM     13  C   UNL     1     -25.212 -19.528 -11.667  1.00  0.00     0.016 A 
ATOM     14  C   UNL     1     -24.838 -18.450 -12.475  1.00  0.00     0.047 A 
ATOM     15  C   UNL     1     -24.482 -18.662 -13.810  1.00  0.00     0.115 A 
ATOM     16  C   UNL     1     -24.872 -21.041 -13.531  1.00  0.00     0.016 A 
ATOM     17  C   UNL     1     -24.497 -19.960 -14.336  1.00  0.00     0.047 A 
BRANCH  15  18
ATOM     18  O   UNL     1     -24.112 -17.578 -14.604  1.00  0.00    -0.508 OA
ATOM     19  H   UNL     1     -24.482 -16.649 -14.437  1.00  0.00     0.293 HD
ENDBRANCH  15  18
ENDBRANCH   1  12
BRANCH   2  20
ATOM     20  O   UNL     1     -23.697 -23.276 -11.996  1.00  0.00    -0.502 OA
ATOM     21  H   UNL     1     -23.736 -23.536 -12.974  1.00  0.00     0.293 HD
ENDBRANCH   2  20
BRANCH   6  22
ATOM     22  O   UNL     1     -26.238 -26.172  -8.502  1.00  0.00    -0.507 OA
ATOM     23  H   UNL     1     -25.261 -26.270  -8.754  1.00  0.00     0.293 HD
ENDBRANCH   6  22
BRANCH   8  24
ATOM     24  O   UNL     1     -30.040 -23.377  -7.496  1.00  0.00    -0.508 OA
ATOM     25  H   UNL     1     -30.872 -23.021  -7.952  1.00  0.00     0.293 HD
ENDBRANCH   8  24
TORSDOF 5
ENDMDL
MODEL 5
REMARK VINA RESULT:    -7.450      4.369      6.017
REMARK INTER + INTRA:          -8.971
REMARK INTER:                  -8.847
REMARK INTRA:                  -0.124
REMARK UNBOUND:                -0.214
REMARK SMILES O=c1c(O)c(-c2ccc(O)cc2)oc2cc(O)cc(O)c12
REMARK SMILES IDX 5 1 3 2 2 3 1 4 21 5 19 6 18 7 16 8 15 9 14 10 13 11 6 12
REMARK SMILES IDX 7 13 8 14 9 15 12 16 11 17 10 18 4 20 20 22 17 24
REMARK H PARENT 10 19 4 21 20 23 17 25
REMARK Flexibility Score: inf
ROOT
ATOM      1  C   UNL     1     -26.889 -22.120 -10.424  1.00  0.00     0.180 A 
ATOM      2  C   UNL     1     -27.435 -23.142  -9.626  1.00  0.00     0.208 A 
ATOM      3  C   UNL     1     -28.317 -22.797  -8.589  1.00  0.00     0.238 A 
ATOM      4  O   UNL     1     -28.804 -23.704  -7.861  1.00  0.00    -0.285 OA
ATOM      5  C   UNL     1     -28.651 -21.443  -8.382  1.00  0.00     0.111 A 
ATOM      6  C   UNL     1     -29.535 -21.012  -7.363  1.00  0.00     0.134 A 
ATOM      7  C   UNL     1     -29.825 -19.646  -7.226  1.00  0.00     0.093 A 
ATOM      8  C   UNL     1     -29.252 -18.706  -8.087  1.00  0.00     0.123 A 
ATOM      9  C   UNL     1     -28.379 -19.127  -9.095  1.00  0.00     0.094 A 
ATOM     10  C   UNL     1     -28.076 -20.483  -9.247  1.00  0.00     0.146 A 
ATOM     11  O   UNL     1     -27.239 -20.854 -10.208  1.00  0.00    -0.452 OA
ENDROOT
BRANCH   1  12
ATOM     12  C   UNL     1     -25.937 -22.402 -11.524  1.00  0.00     0.021 A 
ATOM     13  C   UNL     1     -26.375 -23.122 -12.648  1.00  0.00     0.016 A 
ATOM     14  C   UNL     1     -25.500 -23.381 -13.707  1.00  0.00     0.047 A 
ATOM     15  C   UNL     1     -24.183 -22.910 -13.663  1.00  0.00     0.115 A 
ATOM     16  C   UNL     1     -24.618 -21.914 -11.494  1.00  0.00     0.016 A 
ATOM     17  C   UNL     1     -23.745 -22.174 -12.556  1.00  0.00     0.047 A 
BRANCH  15  18
ATOM     18  O   UNL     1     -23.322 -23.177 -14.726  1.00  0.00    -0.508 OA
ATOM     19  H   UNL     1     -22.417 -23.610 -14.578  1.00  0.00     0.293 HD
ENDBRANCH  15  18
ENDBRANCH   1  12
BRANCH   2  20
ATOM     20  O   UNL     1     -27.126 -24.481  -9.884  1.00  0.00    -0.502 OA
ATOM     21  H   UNL     1     -26.239 -24.767 -10.279  1.00  0.00     0.293 HD
ENDBRANCH   2  20
BRANCH   6  22
ATOM     22  O   UNL     1     -30.124 -21.926  -6.488  1.00  0.00    -0.507 OA
ATOM     23  H   UNL     1     -29.855 -22.903  -6.477  1.00  0.00     0.293 HD
ENDBRANCH   6  22
BRANCH   8  24
ATOM     24  O   UNL     1     -29.558 -17.357  -7.929  1.00  0.00    -0.508 OA
ATOM     25  H   UNL     1     -29.460 -16.892  -7.034  1.00  0.00     0.293 HD
ENDBRANCH   8  24
TORSDOF 5
ENDMDL
MODEL 6
REMARK VINA RESULT:    -7.361      2.883      7.853
REMARK INTER + INTRA:          -8.866
REMARK INTER:                  -9.020
REMARK INTRA:                   0.153
REMARK UNBOUND:                -0.214
REMARK SMILES O=c1c(O)c(-c2ccc(O)cc2)oc2cc(O)cc(O)c12
REMARK SMILES IDX 5 1 3 2 2 3 1 4 21 5 19 6 18 7 16 8 15 9 14 10 13 11 6 12
REMARK SMILES IDX 7 13 8 14 9 15 12 16 11 17 10 18 4 20 20 22 17 24
REMARK H PARENT 10 19 4 21 20 23 17 25
REMARK Flexibility Score: inf
ROOT
ATOM      1  C   UNL     1     -26.899 -22.713 -10.176  1.00  0.00     0.180 A 
ATOM      2  C   UNL     1     -27.260 -21.353 -10.183  1.00  0.00     0.208 A 
ATOM      3  C   UNL     1     -26.550 -20.465 -11.007  1.00  0.00     0.238 A 
ATOM      4  O   UNL     1     -26.857 -19.242 -11.012  1.00  0.00    -0.285 OA
ATOM      5  C   UNL     1     -25.507 -20.954 -11.820  1.00  0.00     0.111 A 
ATOM      6  C   UNL     1     -24.746 -20.127 -12.681  1.00  0.00     0.134 A 
ATOM      7  C   UNL     1     -23.729 -20.692 -13.468  1.00  0.00     0.093 A 
ATOM      8  C   UNL     1     -23.463 -22.062 -13.412  1.00  0.00     0.123 A 
ATOM      9  C   UNL     1     -24.212 -22.883 -12.563  1.00  0.00     0.094 A 
ATOM     10  C   UNL     1     -25.227 -22.340 -11.770  1.00  0.00     0.146 A 
ATOM     11  O   UNL     1     -25.919 -23.141 -10.969  1.00  0.00    -0.452 OA
ENDROOT
BRANCH   1  12
ATOM     12  C   UNL     1     -27.587 -23.707  -9.321  1.00  0.00     0.021 A 
ATOM     13  C   UNL     1     -28.991 -23.704  -9.250  1.00  0.00     0.016 A 
ATOM     14  C   UNL     1     -29.662 -24.647  -8.466  1.00  0.00     0.047 A 
ATOM     15  C   UNL     1     -28.942 -25.613  -7.757  1.00  0.00     0.115 A 
ATOM     16  C   UNL     1     -26.870 -24.694  -8.621  1.00  0.00     0.016 A 
ATOM     17  C   UNL     1     -27.544 -25.637  -7.838  1.00  0.00     0.047 A 
BRANCH  15  18
ATOM     18  O   UNL     1     -29.625 -26.546  -6.978  1.00  0.00    -0.508 OA
ATOM     19  H   UNL     1     -30.440 -27.035  -7.331  1.00  0.00     0.293 HD
ENDBRANCH  15  18
ENDBRANCH   1  12
BRANCH   2  20
ATOM     20  O   UNL     1     -28.329 -20.902  -9.404  1.00  0.00    -0.502 OA
ATOM     21  H   UNL     1     -28.612 -19.930  -9.381  1.00  0.00     0.293 HD
ENDBRANCH   2  20
BRANCH   6  22
ATOM     22  O   UNL     1     -24.989 -18.755 -12.761  1.00  0.00    -0.507 OA
ATOM     23  H   UNL     1     -24.397 -18.140 -13.307  1.00  0.00     0.293 HD
ENDBRANCH   6  22
BRANCH   8  24
ATOM     24  O   UNL     1     -22.449 -22.596 -14.204  1.00  0.00    -0.508 OA
ATOM     25  H   UNL     1     -22.640 -23.305 -14.902  1.00  0.00     0.293 HD
ENDBRANCH   8  24
TORSDOF 5
ENDMDL
MODEL 7
REMARK VINA RESULT:    -7.326      3.938      8.114
REMARK INTER + INTRA:          -8.824
REMARK INTER:                  -8.529
REMARK INTRA:                  -0.295
REMARK UNBOUND:                -0.214
REMARK SMILES O=c1c(O)c(-c2ccc(O)cc2)oc2cc(O)cc(O)c12
REMARK SMILES IDX 5 1 3 2 2 3 1 4 21 5 19 6 18 7 16 8 15 9 14 10 13 11 6 12
REMARK SMILES IDX 7 13 8 14 9 15 12 16 11 17 10 18 4 20 20 22 17 24
REMARK H PARENT 10 19 4 21 20 23 17 25
REMARK Flexibility Score: inf
ROOT
ATOM      1  C   UNL     1     -25.972 -23.904 -10.519  1.00  0.00     0.180 A 
ATOM      2  C   UNL     1     -25.084 -22.830 -10.328  1.00  0.00     0.208 A 
ATOM      3  C   UNL     1     -24.603 -22.139 -11.452  1.00  0.00     0.238 A 
ATOM      4  O   UNL     1     -23.798 -21.181 -11.294  1.00  0.00    -0.285 OA
ATOM      5  C   UNL     1     -25.031 -22.521 -12.740  1.00  0.00     0.111 A 
ATOM      6  C   UNL     1     -24.598 -21.875 -13.923  1.00  0.00     0.134 A 
ATOM      7  C   UNL     1     -25.077 -22.309 -15.168  1.00  0.00     0.093 A 
ATOM      8  C   UNL     1     -25.981 -23.371 -15.253  1.00  0.00     0.123 A 
ATOM      9  C   UNL     1     -26.412 -24.013 -14.088  1.00  0.00     0.094 A 
ATOM     10  C   UNL     1     -25.945 -23.597 -12.837  1.00  0.00     0.146 A 
ATOM     11  O   UNL     1     -26.366 -24.227 -11.748  1.00  0.00    -0.452 OA
ENDROOT
BRANCH   1  12
ATOM     12  C   UNL     1     -26.508 -24.694  -9.385  1.00  0.00     0.021 A 
ATOM     13  C   UNL     1     -27.784 -24.396  -8.878  1.00  0.00     0.016 A 
ATOM     14  C   UNL     1     -28.319 -25.141  -7.823  1.00  0.00     0.047 A 
ATOM     15  C   UNL     1     -27.593 -26.203  -7.274  1.00  0.00     0.115 A 
ATOM     16  C   UNL     1     -25.792 -25.775  -8.842  1.00  0.00     0.016 A 
ATOM     17  C   UNL     1     -26.329 -26.520  -7.787  1.00  0.00     0.047 A 
BRANCH  15  18
ATOM     18  O   UNL     1     -28.138 -26.937  -6.222  1.00  0.00    -0.508 OA
ATOM     19  H   UNL     1     -28.056 -26.625  -5.261  1.00  0.00     0.293 HD
ENDBRANCH  15  18
ENDBRANCH   1  12
BRANCH   2  20
ATOM     20  O   UNL     1     -24.713 -22.439  -9.039  1.00  0.00    -0.502 OA
ATOM     21  H   UNL     1     -24.295 -23.081  -8.376  1.00  0.00     0.293 HD
ENDBRANCH   2  20
BRANCH   6  22
ATOM     22  O   UNL     1     -23.697 -20.810 -13.871  1.00  0.00    -0.507 OA
ATOM     23  H   UNL     1     -23.888 -19.928 -14.331  1.00  0.00     0.293 HD
ENDBRANCH   6  22
BRANCH   8  24
ATOM     24  O   UNL     1     -26.442 -23.780 -16.502  1.00  0.00    -0.508 OA
ATOM     25  H   UNL     1     -26.961 -23.154 -17.107  1.00  0.00     0.293 HD
ENDBRANCH   8  24
TORSDOF 5
ENDMDL
MODEL 8
REMARK VINA RESULT:    -7.257      3.032      6.280
REMARK INTER + INTRA:          -8.744
REMARK INTER:                  -9.161
REMARK INTRA:                   0.417
REMARK UNBOUND:                -0.214
REMARK SMILES O=c1c(O)c(-c2ccc(O)cc2)oc2cc(O)cc(O)c12
REMARK SMILES IDX 5 1 3 2 2 3 1 4 21 5 19 6 18 7 16 8 15 9 14 10 13 11 6 12
REMARK SMILES IDX 7 13 8 14 9 15 12 16 11 17 10 18 4 20 20 22 17 24
REMARK H PARENT 10 19 4 21 20 23 17 25
REMARK Flexibility Score: inf
ROOT
ATOM      1  C   UNL     1     -27.234 -20.982  -9.678  1.00  0.00     0.180 A 
ATOM      2  C   UNL     1     -27.183 -22.385  -9.584  1.00  0.00     0.208 A 
ATOM      3  C   UNL     1     -26.444 -23.103 -10.538  1.00  0.00     0.238 A 
ATOM      4  O   UNL     1     -26.400 -24.362 -10.471  1.00  0.00    -0.285 OA
ATOM      5  C   UNL     1     -25.757 -22.407 -11.554  1.00  0.00     0.111 A 
ATOM      6  C   UNL     1     -24.988 -23.055 -12.551  1.00  0.00     0.134 A 
ATOM      7  C   UNL     1     -24.325 -22.291 -13.523  1.00  0.00     0.093 A 
ATOM      8  C   UNL     1     -24.414 -20.897 -13.517  1.00  0.00     0.123 A 
ATOM      9  C   UNL     1     -25.173 -20.252 -12.536  1.00  0.00     0.094 A 
ATOM     10  C   UNL     1     -25.843 -20.995 -11.559  1.00  0.00     0.146 A 
ATOM     11  O   UNL     1     -26.560 -20.358 -10.642  1.00  0.00    -0.452 OA
ENDROOT
BRANCH   1  12
ATOM     12  C   UNL     1     -28.007 -20.155  -8.722  1.00  0.00     0.021 A 
ATOM     13  C   UNL     1     -28.254 -20.645  -7.428  1.00  0.00     0.016 A 
ATOM     14  C   UNL     1     -28.963 -19.874  -6.502  1.00  0.00     0.047 A 
ATOM     15  C   UNL     1     -29.418 -18.599  -6.851  1.00  0.00     0.115 A 
ATOM     16  C   UNL     1     -28.450 -18.864  -9.060  1.00  0.00     0.016 A 
ATOM     17  C   UNL     1     -29.158 -18.094  -8.131  1.00  0.00     0.047 A 
BRANCH  15  18
ATOM     18  O   UNL     1     -30.124 -17.841  -5.919  1.00  0.00    -0.508 OA
ATOM     19  H   UNL     1     -29.699 -17.051  -5.447  1.00  0.00     0.293 HD
ENDBRANCH  15  18
ENDBRANCH   1  12
BRANCH   2  20
ATOM     20  O   UNL     1     -27.833 -23.047  -8.539  1.00  0.00    -0.502 OA
ATOM     21  H   UNL     1     -27.683 -22.806  -7.567  1.00  0.00     0.293 HD
ENDBRANCH   2  20
BRANCH   6  22
ATOM     22  O   UNL     1     -24.877 -24.446 -12.583  1.00  0.00    -0.507 OA
ATOM     23  H   UNL     1     -25.320 -25.032 -11.885  1.00  0.00     0.293 HD
ENDBRANCH   6  22
BRANCH   8  24
ATOM     24  O   UNL     1     -23.746 -20.163 -14.494  1.00  0.00    -0.508 OA
ATOM     25  H   UNL     1     -23.723 -20.465 -15.462  1.00  0.00     0.293 HD
ENDBRANCH   8  24
TORSDOF 5
ENDMDL
MODEL 9
REMARK VINA RESULT:    -7.244      2.416      4.763
REMARK INTER + INTRA:          -8.728
REMARK INTER:                  -8.924
REMARK INTRA:                   0.196
REMARK UNBOUND:                -0.214
REMARK SMILES O=c1c(O)c(-c2ccc(O)cc2)oc2cc(O)cc(O)c12
REMARK SMILES IDX 5 1 3 2 2 3 1 4 21 5 19 6 18 7 16 8 15 9 14 10 13 11 6 12
REMARK SMILES IDX 7 13 8 14 9 15 12 16 11 17 10 18 4 20 20 22 17 24
REMARK H PARENT 10 19 4 21 20 23 17 25
REMARK Flexibility Score: inf
ROOT
ATOM      1  C   UNL     1     -26.408 -21.527 -10.962  1.00  0.00     0.180 A 
ATOM      2  C   UNL     1     -27.588 -21.014 -10.394  1.00  0.00     0.208 A 
ATOM      3  C   UNL     1     -28.280 -21.789  -9.449  1.00  0.00     0.238 A 
ATOM      4  O   UNL     1     -29.345 -21.344  -8.941  1.00  0.00    -0.285 OA
ATOM      5  C   UNL     1     -27.771 -23.051  -9.078  1.00  0.00     0.111 A 
ATOM      6  C   UNL     1     -28.405 -23.892  -8.131  1.00  0.00     0.134 A 
ATOM      7  C   UNL     1     -27.830 -25.131  -7.807  1.00  0.00     0.093 A 
ATOM      8  C   UNL     1     -26.638 -25.542  -8.408  1.00  0.00     0.123 A 
ATOM      9  C   UNL     1     -26.008 -24.715  -9.344  1.00  0.00     0.094 A 
ATOM     10  C   UNL     1     -26.565 -23.478  -9.681  1.00  0.00     0.146 A 
ATOM     11  O   UNL     1     -25.950 -22.715 -10.576  1.00  0.00    -0.452 OA
ENDROOT
BRANCH   1  12
ATOM     12  C   UNL     1     -25.633 -20.778 -11.979  1.00  0.00     0.021 A 
ATOM     13  C   UNL     1     -25.095 -21.463 -13.081  1.00  0.00     0.016 A 
ATOM     14  C   UNL     1     -24.379 -20.773 -14.063  1.00  0.00     0.047 A 
ATOM     15  C   UNL     1     -24.204 -19.389 -13.965  1.00  0.00     0.115 A 
ATOM     16  C   UNL     1     -25.471 -19.383 -11.895  1.00  0.00     0.016 A 
ATOM     17  C   UNL     1     -24.754 -18.695 -12.880  1.00  0.00     0.047 A 
BRANCH  15  18
ATOM     18  O   UNL     1     -23.487 -18.714 -14.951  1.00  0.00    -0.508 OA
ATOM     19  H   UNL     1     -22.520 -18.445 -14.811  1.00  0.00     0.293 HD
ENDBRANCH  15  18
ENDBRANCH   1  12
BRANCH   2  20
ATOM     20  O   UNL     1     -28.045 -19.740 -10.742  1.00  0.00    -0.502 OA
ATOM     21  H   UNL     1     -28.231 -19.473 -11.701  1.00  0.00     0.293 HD
ENDBRANCH   2  20
BRANCH   6  22
ATOM     22  O   UNL     1     -29.596 -23.509  -7.512  1.00  0.00    -0.507 OA
ATOM     23  H   UNL     1     -29.658 -23.380  -6.510  1.00  0.00     0.293 HD
ENDBRANCH   6  22
BRANCH   8  24
ATOM     24  O   UNL     1     -26.089 -26.776  -8.068  1.00  0.00    -0.508 OA
ATOM     25  H   UNL     1     -25.596 -26.913  -7.193  1.00  0.00     0.293 HD
ENDBRANCH   8  24
TORSDOF 5
ENDMDL
