MODEL 1
REMARK VINA RESULT:    -4.751      0.000      0.000
REMARK INTER + INTRA:         -16.836
REMARK INTER:                 -12.527
REMARK INTRA:                  -4.309
REMARK UNBOUND:                -4.309
REMARK SMILES CCCCCCCCCCCCCCCCCCCCCCCCCCCCCC(=O)[O-]
REMARK SMILES IDX 16 1 17 2 18 3 19 4 20 5 21 6 22 7 23 8 24 9 25 10 26 11
REMARK SMILES IDX 27 12 28 13 29 14 30 15 31 16 32 17 15 18 14 19 13 20 12 21
REMARK SMILES IDX 11 22 10 23 9 24 8 25 7 26 6 27 5 28 4 29 3 30 2 31 1 32
REMARK H PARENT
REMARK Flexibility Score: inf
ROOT
ATOM      1  C   UNL     1      18.793  52.336  26.925  1.00  0.00     0.000 C 
ENDROOT
BRANCH   1   2
ATOM      2  C   UNL     1      19.156  52.837  25.515  1.00  0.00     0.000 C 
BRANCH   2   3
ATOM      3  C   UNL     1      20.510  53.565  25.479  1.00  0.00     0.000 C 
BRANCH   3   4
ATOM      4  C   UNL     1      20.541  54.690  24.430  1.00  0.00     0.000 C 
BRANCH   4   5
ATOM      5  C   UNL     1      21.850  55.498  24.466  1.00  0.00     0.000 C 
BRANCH   5   6
ATOM      6  C   UNL     1      22.517  55.470  25.852  1.00  0.00     0.000 C 
BRANCH   6   7
ATOM      7  C   UNL     1      23.965  55.996  25.836  1.00  0.00     0.000 C 
BRANCH   7   8
ATOM      8  C   UNL     1      24.439  56.578  24.491  1.00  0.00     0.000 C 
BRANCH   8   9
ATOM      9  C   UNL     1      25.719  57.428  24.618  1.00  0.00     0.000 C 
BRANCH   9  10
ATOM     10  C   UNL     1      25.642  58.738  23.808  1.00  0.00     0.000 C 
BRANCH  10  11
ATOM     11  C   UNL     1      25.695  60.012  24.671  1.00  0.00     0.000 C 
BRANCH  11  12
ATOM     12  C   UNL     1      25.558  59.727  26.172  1.00  0.00     0.000 C 
BRANCH  12  13
ATOM     13  C   UNL     1      24.293  60.379  26.749  1.00  0.00     0.006 C 
BRANCH  13  14
ATOM     14  C   UNL     1      23.134  59.379  26.882  1.00  0.00     0.053 C 
BRANCH  14  15
ATOM     15  C   UNL     1      22.050  59.651  25.884  1.00  0.00     0.041 C 
ATOM     16  O   UNL     1      22.003  59.003  24.805  1.00  0.00    -0.550 OA
ATOM     17  O   UNL     1      21.115  60.649  26.127  1.00  0.00    -0.550 OA
ENDBRANCH  14  15
ENDBRANCH  13  14
ENDBRANCH  12  13
ENDBRANCH  11  12
ENDBRANCH  10  11
ENDBRANCH   9  10
ENDBRANCH   8   9
ENDBRANCH   7   8
ENDBRANCH   6   7
ENDBRANCH   5   6
ENDBRANCH   4   5
ENDBRANCH   3   4
ENDBRANCH   2   3
ENDBRANCH   1   2
BRANCH   1  18
ATOM     18  C   UNL     1      17.268  52.245  27.140  1.00  0.00     0.000 C 
BRANCH  18  19
ATOM     19  C   UNL     1      16.714  50.810  27.117  1.00  0.00     0.000 C 
BRANCH  19  20
ATOM     20  C   UNL     1      15.641  50.596  26.036  1.00  0.00     0.000 C 
BRANCH  20  21
ATOM     21  C   UNL     1      16.218  49.981  24.749  1.00  0.00     0.000 C 
BRANCH  21  22
ATOM     22  C   UNL     1      16.486  51.045  23.668  1.00  0.00     0.000 C 
BRANCH  22  23
ATOM     23  C   UNL     1      15.363  52.101  23.584  1.00  0.00     0.000 C 
BRANCH  23  24
ATOM     24  C   UNL     1      15.811  53.519  23.985  1.00  0.00    -0.000 C 
BRANCH  24  25
ATOM     25  C   UNL     1      14.826  54.283  24.892  1.00  0.00    -0.000 C 
BRANCH  25  26
ATOM     26  C   UNL     1      13.353  53.846  24.765  1.00  0.00    -0.000 C 
BRANCH  26  27
ATOM     27  C   UNL     1      12.713  53.346  26.073  1.00  0.00    -0.000 C 
BRANCH  27  28
ATOM     28  C   UNL     1      13.592  53.577  27.324  1.00  0.00    -0.000 C 
BRANCH  28  29
ATOM     29  C   UNL     1      13.510  52.441  28.358  1.00  0.00    -0.000 C 
BRANCH  29  30
ATOM     30  C   UNL     1      13.963  52.888  29.759  1.00  0.00    -0.000 C 
BRANCH  30  31
ATOM     31  C   UNL     1      15.145  53.868  29.707  1.00  0.00    -0.003 C 
ATOM     32  C   UNL     1      16.316  53.428  30.586  1.00  0.00     0.004 C 
ENDBRANCH  30  31
ENDBRANCH  29  30
ENDBRANCH  28  29
ENDBRANCH  27  28
ENDBRANCH  26  27
ENDBRANCH  25  26
ENDBRANCH  24  25
ENDBRANCH  23  24
ENDBRANCH  22  23
ENDBRANCH  21  22
ENDBRANCH  20  21
ENDBRANCH  19  20
ENDBRANCH  18  19
ENDBRANCH   1  18
TORSDOF 28
ENDMDL
MODEL 2
REMARK VINA RESULT:    -4.605      7.344     10.512
REMARK INTER + INTRA:         -16.452
REMARK INTER:                 -11.513
REMARK INTRA:                  -4.938
REMARK UNBOUND:                -4.309
REMARK SMILES CCCCCCCCCCCCCCCCCCCCCCCCCCCCCC(=O)[O-]
REMARK SMILES IDX 16 1 17 2 18 3 19 4 20 5 21 6 22 7 23 8 24 9 25 10 26 11
REMARK SMILES IDX 27 12 28 13 29 14 30 15 31 16 32 17 15 18 14 19 13 20 12 21
REMARK SMILES IDX 11 22 10 23 9 24 8 25 7 26 6 27 5 28 4 29 3 30 2 31 1 32
REMARK H PARENT
REMARK Flexibility Score: inf
ROOT
ATOM      1  C   UNL     1      19.895  51.049  31.057  1.00  0.00     0.000 C 
ENDROOT
BRANCH   1   2
ATOM      2  C   UNL     1      19.866  49.730  31.850  1.00  0.00     0.000 C 
BRANCH   2   3
ATOM      3  C   UNL     1      18.937  49.798  33.074  1.00  0.00     0.000 C 
BRANCH   3   4
ATOM      4  C   UNL     1      18.881  51.208  33.687  1.00  0.00     0.000 C 
BRANCH   4   5
ATOM      5  C   UNL     1      17.757  51.358  34.727  1.00  0.00     0.000 C 
BRANCH   5   6
ATOM      6  C   UNL     1      17.222  49.999  35.209  1.00  0.00     0.000 C 
BRANCH   6   7
ATOM      7  C   UNL     1      16.353  50.108  36.477  1.00  0.00     0.000 C 
BRANCH   7   8
ATOM      8  C   UNL     1      16.207  51.528  37.055  1.00  0.00     0.000 C 
BRANCH   8   9
ATOM      9  C   UNL     1      16.636  51.626  38.532  1.00  0.00     0.000 C 
BRANCH   9  10
ATOM     10  C   UNL     1      18.069  51.106  38.768  1.00  0.00     0.000 C 
BRANCH  10  11
ATOM     11  C   UNL     1      19.135  52.215  38.834  1.00  0.00     0.000 C 
BRANCH  11  12
ATOM     12  C   UNL     1      19.844  52.447  37.493  1.00  0.00     0.000 C 
BRANCH  12  13
ATOM     13  C   UNL     1      21.175  51.684  37.428  1.00  0.00     0.006 C 
BRANCH  13  14
ATOM     14  C   UNL     1      22.260  52.335  38.299  1.00  0.00     0.053 C 
BRANCH  14  15
ATOM     15  C   UNL     1      22.700  51.428  39.407  1.00  0.00     0.041 C 
ATOM     16  O   UNL     1      22.878  50.200  39.191  1.00  0.00    -0.550 OA
ATOM     17  O   UNL     1      22.874  51.931  40.690  1.00  0.00    -0.550 OA
ENDBRANCH  14  15
ENDBRANCH  13  14
ENDBRANCH  12  13
ENDBRANCH  11  12
ENDBRANCH  10  11
ENDBRANCH   9  10
ENDBRANCH   8   9
ENDBRANCH   7   8
ENDBRANCH   6   7
ENDBRANCH   5   6
ENDBRANCH   4   5
ENDBRANCH   3   4
ENDBRANCH   2   3
ENDBRANCH   1   2
BRANCH   1  18
ATOM     18  C   UNL     1      19.514  50.851  29.575  1.00  0.00     0.000 C 
BRANCH  18  19
ATOM     19  C   UNL     1      18.995  49.441  29.243  1.00  0.00     0.000 C 
BRANCH  19  20
ATOM     20  C   UNL     1      18.049  49.418  28.030  1.00  0.00     0.000 C 
BRANCH  20  21
ATOM     21  C   UNL     1      17.623  50.829  27.590  1.00  0.00     0.000 C 
BRANCH  21  22
ATOM     22  C   UNL     1      16.303  50.817  26.798  1.00  0.00     0.000 C 
BRANCH  22  23
ATOM     23  C   UNL     1      16.128  52.071  25.915  1.00  0.00     0.000 C 
BRANCH  23  24
ATOM     24  C   UNL     1      15.088  53.072  26.454  1.00  0.00    -0.000 C 
BRANCH  24  25
ATOM     25  C   UNL     1      14.022  52.468  27.390  1.00  0.00    -0.000 C 
BRANCH  25  26
ATOM     26  C   UNL     1      13.904  53.152  28.766  1.00  0.00    -0.000 C 
BRANCH  26  27
ATOM     27  C   UNL     1      14.835  54.361  28.969  1.00  0.00    -0.000 C 
BRANCH  27  28
ATOM     28  C   UNL     1      15.691  54.277  30.253  1.00  0.00    -0.000 C 
BRANCH  28  29
ATOM     29  C   UNL     1      16.632  53.061  30.291  1.00  0.00    -0.000 C 
BRANCH  29  30
ATOM     30  C   UNL     1      16.243  52.051  31.386  1.00  0.00    -0.000 C 
BRANCH  30  31
ATOM     31  C   UNL     1      15.844  50.685  30.808  1.00  0.00    -0.003 C 
ATOM     32  C   UNL     1      15.466  49.672  31.888  1.00  0.00     0.004 C 
ENDBRANCH  30  31
ENDBRANCH  29  30
ENDBRANCH  28  29
ENDBRANCH  27  28
ENDBRANCH  26  27
ENDBRANCH  25  26
ENDBRANCH  24  25
ENDBRANCH  23  24
ENDBRANCH  22  23
ENDBRANCH  21  22
ENDBRANCH  20  21
ENDBRANCH  19  20
ENDBRANCH  18  19
ENDBRANCH   1  18
TORSDOF 28
ENDMDL
MODEL 3
REMARK VINA RESULT:    -4.583      7.111     11.394
REMARK INTER + INTRA:         -16.393
REMARK INTER:                 -11.672
REMARK INTRA:                  -4.721
REMARK UNBOUND:                -4.309
REMARK SMILES CCCCCCCCCCCCCCCCCCCCCCCCCCCCCC(=O)[O-]
REMARK SMILES IDX 16 1 17 2 18 3 19 4 20 5 21 6 22 7 23 8 24 9 25 10 26 11
REMARK SMILES IDX 27 12 28 13 29 14 30 15 31 16 32 17 15 18 14 19 13 20 12 21
REMARK SMILES IDX 11 22 10 23 9 24 8 25 7 26 6 27 5 28 4 29 3 30 2 31 1 32
REMARK H PARENT
REMARK Flexibility Score: inf
ROOT
ATOM      1  C   UNL     1      16.210  49.330  34.985  1.00  0.00     0.000 C 
ENDROOT
BRANCH   1   2
ATOM      2  C   UNL     1      16.150  50.525  35.954  1.00  0.00     0.000 C 
BRANCH   2   3
ATOM      3  C   UNL     1      16.408  50.114  37.414  1.00  0.00     0.000 C 
BRANCH   3   4
ATOM      4  C   UNL     1      16.580  51.329  38.342  1.00  0.00     0.000 C 
BRANCH   4   5
ATOM      5  C   UNL     1      17.634  51.094  39.437  1.00  0.00     0.000 C 
BRANCH   5   6
ATOM      6  C   UNL     1      18.159  49.648  39.441  1.00  0.00     0.000 C 
BRANCH   6   7
ATOM      7  C   UNL     1      19.432  49.470  40.292  1.00  0.00     0.000 C 
BRANCH   7   8
ATOM      8  C   UNL     1      20.445  50.627  40.211  1.00  0.00     0.000 C 
BRANCH   8   9
ATOM      9  C   UNL     1      21.775  50.220  39.548  1.00  0.00     0.000 C 
BRANCH   9  10
ATOM     10  C   UNL     1      21.636  49.997  38.028  1.00  0.00     0.000 C 
BRANCH  10  11
ATOM     11  C   UNL     1      21.143  51.234  37.256  1.00  0.00     0.000 C 
BRANCH  11  12
ATOM     12  C   UNL     1      19.921  50.944  36.374  1.00  0.00     0.000 C 
BRANCH  12  13
ATOM     13  C   UNL     1      19.962  49.512  35.820  1.00  0.00     0.006 C 
BRANCH  13  14
ATOM     14  C   UNL     1      20.487  49.464  34.377  1.00  0.00     0.053 C 
BRANCH  14  15
ATOM     15  C   UNL     1      21.509  48.384  34.194  1.00  0.00     0.041 C 
ATOM     16  O   UNL     1      22.474  48.280  34.996  1.00  0.00    -0.550 OA
ATOM     17  O   UNL     1      21.419  47.517  33.113  1.00  0.00    -0.550 OA
ENDBRANCH  14  15
ENDBRANCH  13  14
ENDBRANCH  12  13
ENDBRANCH  11  12
ENDBRANCH  10  11
ENDBRANCH   9  10
ENDBRANCH   8   9
ENDBRANCH   7   8
ENDBRANCH   6   7
ENDBRANCH   5   6
ENDBRANCH   4   5
ENDBRANCH   3   4
ENDBRANCH   2   3
ENDBRANCH   1   2
BRANCH   1  18
ATOM     18  C   UNL     1      16.844  49.705  33.630  1.00  0.00     0.000 C 
BRANCH  18  19
ATOM     19  C   UNL     1      17.244  51.186  33.511  1.00  0.00     0.000 C 
BRANCH  19  20
ATOM     20  C   UNL     1      17.079  51.741  32.086  1.00  0.00     0.000 C 
BRANCH  20  21
ATOM     21  C   UNL     1      16.089  50.917  31.244  1.00  0.00     0.000 C 
BRANCH  21  22
ATOM     22  C   UNL     1      14.997  51.796  30.608  1.00  0.00     0.000 C 
BRANCH  22  23
ATOM     23  C   UNL     1      15.389  53.289  30.561  1.00  0.00     0.000 C 
BRANCH  23  24
ATOM     24  C   UNL     1      14.740  54.067  29.401  1.00  0.00    -0.000 C 
BRANCH  24  25
ATOM     25  C   UNL     1      13.622  53.315  28.653  1.00  0.00    -0.000 C 
BRANCH  25  26
ATOM     26  C   UNL     1      13.668  53.441  27.117  1.00  0.00    -0.000 C 
BRANCH  26  27
ATOM     27  C   UNL     1      15.049  53.177  26.488  1.00  0.00    -0.000 C 
BRANCH  27  28
ATOM     28  C   UNL     1      15.626  51.781  26.821  1.00  0.00    -0.000 C 
BRANCH  28  29
ATOM     29  C   UNL     1      17.162  51.717  26.764  1.00  0.00    -0.000 C 
BRANCH  29  30
ATOM     30  C   UNL     1      17.818  52.173  28.080  1.00  0.00    -0.000 C 
BRANCH  30  31
ATOM     31  C   UNL     1      19.264  51.673  28.217  1.00  0.00    -0.003 C 
ATOM     32  C   UNL     1      19.444  50.693  29.376  1.00  0.00     0.004 C 
ENDBRANCH  30  31
ENDBRANCH  29  30
ENDBRANCH  28  29
ENDBRANCH  27  28
ENDBRANCH  26  27
ENDBRANCH  25  26
ENDBRANCH  24  25
ENDBRANCH  23  24
ENDBRANCH  22  23
ENDBRANCH  21  22
ENDBRANCH  20  21
ENDBRANCH  19  20
ENDBRANCH  18  19
ENDBRANCH   1  18
TORSDOF 28
ENDMDL
MODEL 4
REMARK VINA RESULT:    -4.567      6.737     11.051
REMARK INTER + INTRA:         -16.350
REMARK INTER:                 -11.771
REMARK INTRA:                  -4.580
REMARK UNBOUND:                -4.309
REMARK SMILES CCCCCCCCCCCCCCCCCCCCCCCCCCCCCC(=O)[O-]
REMARK SMILES IDX 16 1 17 2 18 3 19 4 20 5 21 6 22 7 23 8 24 9 25 10 26 11
REMARK SMILES IDX 27 12 28 13 29 14 30 15 31 16 32 17 15 18 14 19 13 20 12 21
REMARK SMILES IDX 11 22 10 23 9 24 8 25 7 26 6 27 5 28 4 29 3 30 2 31 1 32
REMARK H PARENT
REMARK Flexibility Score: inf
ROOT
ATOM      1  C   UNL     1      17.271  52.032  34.297  1.00  0.00     0.000 C 
ENDROOT
BRANCH   1   2
ATOM      2  C   UNL     1      17.955  50.689  34.616  1.00  0.00     0.000 C 
BRANCH   2   3
ATOM      3  C   UNL     1      19.321  50.872  35.298  1.00  0.00     0.000 C 
BRANCH   3   4
ATOM      4  C   UNL     1      20.266  49.686  35.041  1.00  0.00     0.000 C 
BRANCH   4   5
ATOM      5  C   UNL     1      20.716  48.994  36.338  1.00  0.00     0.000 C 
BRANCH   5   6
ATOM      6  C   UNL     1      19.548  48.758  37.310  1.00  0.00     0.000 C 
BRANCH   6   7
ATOM      7  C   UNL     1      18.577  47.661  36.833  1.00  0.00     0.000 C 
BRANCH   7   8
ATOM      8  C   UNL     1      17.093  47.905  37.167  1.00  0.00     0.000 C 
BRANCH   8   9
ATOM      9  C   UNL     1      16.889  48.922  38.306  1.00  0.00     0.000 C 
BRANCH   9  10
ATOM     10  C   UNL     1      16.220  50.226  37.824  1.00  0.00     0.000 C 
BRANCH  10  11
ATOM     11  C   UNL     1      16.973  51.505  38.232  1.00  0.00     0.000 C 
BRANCH  11  12
ATOM     12  C   UNL     1      17.536  51.441  39.658  1.00  0.00     0.000 C 
BRANCH  12  13
ATOM     13  C   UNL     1      18.989  51.934  39.705  1.00  0.00     0.006 C 
BRANCH  13  14
ATOM     14  C   UNL     1      19.445  52.525  38.362  1.00  0.00     0.053 C 
BRANCH  14  15
ATOM     15  C   UNL     1      20.920  52.786  38.342  1.00  0.00     0.041 C 
ATOM     16  O   UNL     1      21.651  52.236  37.477  1.00  0.00    -0.550 OA
ATOM     17  O   UNL     1      21.495  53.605  39.306  1.00  0.00    -0.550 OA
ENDBRANCH  14  15
ENDBRANCH  13  14
ENDBRANCH  12  13
ENDBRANCH  11  12
ENDBRANCH  10  11
ENDBRANCH   9  10
ENDBRANCH   8   9
ENDBRANCH   7   8
ENDBRANCH   6   7
ENDBRANCH   5   6
ENDBRANCH   4   5
ENDBRANCH   3   4
ENDBRANCH   2   3
ENDBRANCH   1   2
BRANCH   1  18
ATOM     18  C   UNL     1      17.149  52.282  32.780  1.00  0.00     0.000 C 
BRANCH  18  19
ATOM     19  C   UNL     1      18.305  51.696  31.952  1.00  0.00     0.000 C 
BRANCH  19  20
ATOM     20  C   UNL     1      17.900  51.357  30.507  1.00  0.00     0.000 C 
BRANCH  20  21
ATOM     21  C   UNL     1      18.877  51.939  29.471  1.00  0.00     0.000 C 
BRANCH  21  22
ATOM     22  C   UNL     1      18.537  51.492  28.037  1.00  0.00     0.000 C 
BRANCH  22  23
ATOM     23  C   UNL     1      17.336  50.523  27.987  1.00  0.00     0.000 C 
BRANCH  23  24
ATOM     24  C   UNL     1      16.216  50.969  27.028  1.00  0.00    -0.000 C 
BRANCH  24  25
ATOM     25  C   UNL     1      16.331  52.419  26.518  1.00  0.00    -0.000 C 
BRANCH  25  26
ATOM     26  C   UNL     1      14.987  53.104  26.200  1.00  0.00    -0.000 C 
BRANCH  26  27
ATOM     27  C   UNL     1      13.748  52.203  26.358  1.00  0.00    -0.000 C 
BRANCH  27  28
ATOM     28  C   UNL     1      12.654  52.804  27.270  1.00  0.00    -0.000 C 
BRANCH  28  29
ATOM     29  C   UNL     1      13.212  53.561  28.489  1.00  0.00    -0.000 C 
BRANCH  29  30
ATOM     30  C   UNL     1      13.882  52.621  29.507  1.00  0.00    -0.000 C 
BRANCH  30  31
ATOM     31  C   UNL     1      14.860  53.362  30.432  1.00  0.00    -0.003 C 
ATOM     32  C   UNL     1      15.773  54.327  29.677  1.00  0.00     0.004 C 
ENDBRANCH  30  31
ENDBRANCH  29  30
ENDBRANCH  28  29
ENDBRANCH  27  28
ENDBRANCH  26  27
ENDBRANCH  25  26
ENDBRANCH  24  25
ENDBRANCH  23  24
ENDBRANCH  22  23
ENDBRANCH  21  22
ENDBRANCH  20  21
ENDBRANCH  19  20
ENDBRANCH  18  19
ENDBRANCH   1  18
TORSDOF 28
ENDMDL
MODEL 5
REMARK VINA RESULT:    -4.486      8.648     12.508
REMARK INTER + INTRA:         -16.139
REMARK INTER:                  -9.689
REMARK INTRA:                  -6.450
REMARK UNBOUND:                -4.309
REMARK SMILES CCCCCCCCCCCCCCCCCCCCCCCCCCCCCC(=O)[O-]
REMARK SMILES IDX 16 1 17 2 18 3 19 4 20 5 21 6 22 7 23 8 24 9 25 10 26 11
REMARK SMILES IDX 27 12 28 13 29 14 30 15 31 16 32 17 15 18 14 19 13 20 12 21
REMARK SMILES IDX 11 22 10 23 9 24 8 25 7 26 6 27 5 28 4 29 3 30 2 31 1 32
REMARK H PARENT
REMARK Flexibility Score: inf
ROOT
ATOM      1  C   UNL     1      20.212  48.973  35.078  1.00  0.00     0.000 C 
ENDROOT
BRANCH   1   2
ATOM      2  C   UNL     1      21.348  48.713  34.073  1.00  0.00     0.000 C 
BRANCH   2   3
ATOM      3  C   UNL     1      22.531  47.958  34.703  1.00  0.00     0.000 C 
BRANCH   3   4
ATOM      4  C   UNL     1      22.891  46.681  33.924  1.00  0.00     0.000 C 
BRANCH   4   5
ATOM      5  C   UNL     1      22.265  45.417  34.537  1.00  0.00     0.000 C 
BRANCH   5   6
ATOM      6  C   UNL     1      21.840  44.397  33.467  1.00  0.00     0.000 C 
BRANCH   6   7
ATOM      7  C   UNL     1      21.112  45.043  32.273  1.00  0.00     0.000 C 
BRANCH   7   8
ATOM      8  C   UNL     1      19.665  45.493  32.548  1.00  0.00     0.000 C 
BRANCH   8   9
ATOM      9  C   UNL     1      19.264  46.755  31.760  1.00  0.00     0.000 C 
BRANCH   9  10
ATOM     10  C   UNL     1      17.972  47.404  32.298  1.00  0.00     0.000 C 
BRANCH  10  11
ATOM     11  C   UNL     1      18.009  48.942  32.327  1.00  0.00     0.000 C 
BRANCH  11  12
ATOM     12  C   UNL     1      19.044  49.537  31.363  1.00  0.00     0.000 C 
BRANCH  12  13
ATOM     13  C   UNL     1      19.092  51.068  31.473  1.00  0.00     0.006 C 
BRANCH  13  14
ATOM     14  C   UNL     1      18.594  51.567  32.838  1.00  0.00     0.053 C 
BRANCH  14  15
ATOM     15  C   UNL     1      17.359  52.404  32.706  1.00  0.00     0.041 C 
ATOM     16  O   UNL     1      16.946  53.087  33.681  1.00  0.00    -0.550 OA
ATOM     17  O   UNL     1      16.639  52.399  31.518  1.00  0.00    -0.550 OA
ENDBRANCH  14  15
ENDBRANCH  13  14
ENDBRANCH  12  13
ENDBRANCH  11  12
ENDBRANCH  10  11
ENDBRANCH   9  10
ENDBRANCH   8   9
ENDBRANCH   7   8
ENDBRANCH   6   7
ENDBRANCH   5   6
ENDBRANCH   4   5
ENDBRANCH   3   4
ENDBRANCH   2   3
ENDBRANCH   1   2
BRANCH   1  18
ATOM     18  C   UNL     1      20.104  47.861  36.143  1.00  0.00     0.000 C 
BRANCH  18  19
ATOM     19  C   UNL     1      18.992  46.834  35.869  1.00  0.00     0.000 C 
BRANCH  19  20
ATOM     20  C   UNL     1      17.743  47.053  36.739  1.00  0.00     0.000 C 
BRANCH  20  21
ATOM     21  C   UNL     1      16.609  47.757  35.973  1.00  0.00     0.000 C 
BRANCH  21  22
ATOM     22  C   UNL     1      16.207  49.091  36.628  1.00  0.00     0.000 C 
BRANCH  22  23
ATOM     23  C   UNL     1      16.760  50.315  35.867  1.00  0.00     0.000 C 
BRANCH  23  24
ATOM     24  C   UNL     1      17.796  51.130  36.665  1.00  0.00    -0.000 C 
BRANCH  24  25
ATOM     25  C   UNL     1      17.339  51.571  38.070  1.00  0.00    -0.000 C 
BRANCH  25  26
ATOM     26  C   UNL     1      18.021  50.830  39.237  1.00  0.00    -0.000 C 
BRANCH  26  27
ATOM     27  C   UNL     1      19.150  49.869  38.821  1.00  0.00    -0.000 C 
BRANCH  27  28
ATOM     28  C   UNL     1      20.498  50.153  39.523  1.00  0.00    -0.000 C 
BRANCH  28  29
ATOM     29  C   UNL     1      21.671  50.363  38.549  1.00  0.00    -0.000 C 
BRANCH  29  30
ATOM     30  C   UNL     1      21.359  51.419  37.474  1.00  0.00    -0.000 C 
BRANCH  30  31
ATOM     31  C   UNL     1      21.171  52.823  38.068  1.00  0.00    -0.003 C 
ATOM     32  C   UNL     1      20.373  53.751  37.153  1.00  0.00     0.004 C 
ENDBRANCH  30  31
ENDBRANCH  29  30
ENDBRANCH  28  29
ENDBRANCH  27  28
ENDBRANCH  26  27
ENDBRANCH  25  26
ENDBRANCH  24  25
ENDBRANCH  23  24
ENDBRANCH  22  23
ENDBRANCH  21  22
ENDBRANCH  20  21
ENDBRANCH  19  20
ENDBRANCH  18  19
ENDBRANCH   1  18
TORSDOF 28
ENDMDL
MODEL 6
REMARK VINA RESULT:    -4.485      6.024      9.832
REMARK INTER + INTRA:         -16.136
REMARK INTER:                 -10.883
REMARK INTRA:                  -5.254
REMARK UNBOUND:                -4.309
REMARK SMILES CCCCCCCCCCCCCCCCCCCCCCCCCCCCCC(=O)[O-]
REMARK SMILES IDX 16 1 17 2 18 3 19 4 20 5 21 6 22 7 23 8 24 9 25 10 26 11
REMARK SMILES IDX 27 12 28 13 29 14 30 15 31 16 32 17 15 18 14 19 13 20 12 21
REMARK SMILES IDX 11 22 10 23 9 24 8 25 7 26 6 27 5 28 4 29 3 30 2 31 1 32
REMARK H PARENT
REMARK Flexibility Score: inf
ROOT
ATOM      1  C   UNL     1      19.485  51.742  30.267  1.00  0.00     0.000 C 
ENDROOT
BRANCH   1   2
ATOM      2  C   UNL     1      19.449  50.832  29.025  1.00  0.00     0.000 C 
BRANCH   2   3
ATOM      3  C   UNL     1      18.576  51.408  27.897  1.00  0.00     0.000 C 
BRANCH   3   4
ATOM      4  C   UNL     1      17.253  50.641  27.733  1.00  0.00     0.000 C 
BRANCH   4   5
ATOM      5  C   UNL     1      16.022  51.510  28.042  1.00  0.00     0.000 C 
BRANCH   5   6
ATOM      6  C   UNL     1      16.407  52.923  28.512  1.00  0.00     0.000 C 
BRANCH   6   7
ATOM      7  C   UNL     1      15.437  53.496  29.563  1.00  0.00     0.000 C 
BRANCH   7   8
ATOM      8  C   UNL     1      13.991  52.975  29.476  1.00  0.00     0.000 C 
BRANCH   8   9
ATOM      9  C   UNL     1      13.108  53.798  28.518  1.00  0.00     0.000 C 
BRANCH   9  10
ATOM     10  C   UNL     1      12.469  52.934  27.411  1.00  0.00     0.000 C 
BRANCH  10  11
ATOM     11  C   UNL     1      12.930  53.297  25.988  1.00  0.00     0.000 C 
BRANCH  11  12
ATOM     12  C   UNL     1      14.089  54.302  25.970  1.00  0.00     0.000 C 
BRANCH  12  13
ATOM     13  C   UNL     1      15.145  53.916  24.924  1.00  0.00     0.006 C 
BRANCH  13  14
ATOM     14  C   UNL     1      15.122  52.413  24.605  1.00  0.00     0.053 C 
BRANCH  14  15
ATOM     15  C   UNL     1      16.487  51.895  24.271  1.00  0.00     0.041 C 
ATOM     16  O   UNL     1      16.621  50.836  23.603  1.00  0.00    -0.550 OA
ATOM     17  O   UNL     1      17.616  52.561  24.734  1.00  0.00    -0.550 OA
ENDBRANCH  14  15
ENDBRANCH  13  14
ENDBRANCH  12  13
ENDBRANCH  11  12
ENDBRANCH  10  11
ENDBRANCH   9  10
ENDBRANCH   8   9
ENDBRANCH   7   8
ENDBRANCH   6   7
ENDBRANCH   5   6
ENDBRANCH   4   5
ENDBRANCH   3   4
ENDBRANCH   2   3
ENDBRANCH   1   2
BRANCH   1  18
ATOM     18  C   UNL     1      18.941  51.038  31.527  1.00  0.00     0.000 C 
BRANCH  18  19
ATOM     19  C   UNL     1      17.417  51.156  31.705  1.00  0.00     0.000 C 
BRANCH  19  20
ATOM     20  C   UNL     1      16.661  49.885  31.282  1.00  0.00     0.000 C 
BRANCH  20  21
ATOM     21  C   UNL     1      15.137  50.030  31.435  1.00  0.00     0.000 C 
BRANCH  21  22
ATOM     22  C   UNL     1      14.548  48.983  32.398  1.00  0.00     0.000 C 
BRANCH  22  23
ATOM     23  C   UNL     1      15.609  47.986  32.912  1.00  0.00     0.000 C 
BRANCH  23  24
ATOM     24  C   UNL     1      15.852  48.062  34.431  1.00  0.00    -0.000 C 
BRANCH  24  25
ATOM     25  C   UNL     1      16.065  49.483  34.989  1.00  0.00    -0.000 C 
BRANCH  25  26
ATOM     26  C   UNL     1      17.469  49.750  35.567  1.00  0.00    -0.000 C 
BRANCH  26  27
ATOM     27  C   UNL     1      18.612  48.995  34.863  1.00  0.00    -0.000 C 
BRANCH  27  28
ATOM     28  C   UNL     1      19.973  49.725  34.931  1.00  0.00    -0.000 C 
BRANCH  28  29
ATOM     29  C   UNL     1      20.955  49.308  33.822  1.00  0.00    -0.000 C 
BRANCH  29  30
ATOM     30  C   UNL     1      20.833  47.817  33.460  1.00  0.00    -0.000 C 
BRANCH  30  31
ATOM     31  C   UNL     1      21.904  46.958  34.150  1.00  0.00    -0.003 C 
ATOM     32  C   UNL     1      22.908  46.360  33.166  1.00  0.00     0.004 C 
ENDBRANCH  30  31
ENDBRANCH  29  30
ENDBRANCH  28  29
ENDBRANCH  27  28
ENDBRANCH  26  27
ENDBRANCH  25  26
ENDBRANCH  24  25
ENDBRANCH  23  24
ENDBRANCH  22  23
ENDBRANCH  21  22
ENDBRANCH  20  21
ENDBRANCH  19  20
ENDBRANCH  18  19
ENDBRANCH   1  18
TORSDOF 28
ENDMDL
MODEL 7
REMARK VINA RESULT:    -4.480      7.004     11.399
REMARK INTER + INTRA:         -16.122
REMARK INTER:                 -10.399
REMARK INTRA:                  -5.723
REMARK UNBOUND:                -4.309
REMARK SMILES CCCCCCCCCCCCCCCCCCCCCCCCCCCCCC(=O)[O-]
REMARK SMILES IDX 16 1 17 2 18 3 19 4 20 5 21 6 22 7 23 8 24 9 25 10 26 11
REMARK SMILES IDX 27 12 28 13 29 14 30 15 31 16 32 17 15 18 14 19 13 20 12 21
REMARK SMILES IDX 11 22 10 23 9 24 8 25 7 26 6 27 5 28 4 29 3 30 2 31 1 32
REMARK H PARENT
REMARK Flexibility Score: inf
ROOT
ATOM      1  C   UNL     1      18.434  47.859  34.393  1.00  0.00     0.000 C 
ENDROOT
BRANCH   1   2
ATOM      2  C   UNL     1      19.592  48.627  33.730  1.00  0.00     0.000 C 
BRANCH   2   3
ATOM      3  C   UNL     1      19.857  49.987  34.398  1.00  0.00     0.000 C 
BRANCH   3   4
ATOM      4  C   UNL     1      18.879  50.271  35.551  1.00  0.00     0.000 C 
BRANCH   4   5
ATOM      5  C   UNL     1      17.949  51.461  35.260  1.00  0.00     0.000 C 
BRANCH   5   6
ATOM      6  C   UNL     1      16.661  51.415  36.100  1.00  0.00     0.000 C 
BRANCH   6   7
ATOM      7  C   UNL     1      16.386  50.027  36.708  1.00  0.00     0.000 C 
BRANCH   7   8
ATOM      8  C   UNL     1      16.278  49.990  38.243  1.00  0.00     0.000 C 
BRANCH   8   9
ATOM      9  C   UNL     1      17.599  49.598  38.933  1.00  0.00     0.000 C 
BRANCH   9  10
ATOM     10  C   UNL     1      18.421  50.824  39.379  1.00  0.00     0.000 C 
BRANCH  10  11
ATOM     11  C   UNL     1      19.807  50.475  39.951  1.00  0.00     0.000 C 
BRANCH  11  12
ATOM     12  C   UNL     1      20.761  49.891  38.901  1.00  0.00     0.000 C 
BRANCH  12  13
ATOM     13  C   UNL     1      21.901  50.869  38.580  1.00  0.00     0.006 C 
BRANCH  13  14
ATOM     14  C   UNL     1      21.540  51.822  37.431  1.00  0.00     0.053 C 
BRANCH  14  15
ATOM     15  C   UNL     1      21.159  53.181  37.936  1.00  0.00     0.041 C 
ATOM     16  O   UNL     1      21.622  53.606  39.027  1.00  0.00    -0.550 OA
ATOM     17  O   UNL     1      20.259  53.961  37.221  1.00  0.00    -0.550 OA
ENDBRANCH  14  15
ENDBRANCH  13  14
ENDBRANCH  12  13
ENDBRANCH  11  12
ENDBRANCH  10  11
ENDBRANCH   9  10
ENDBRANCH   8   9
ENDBRANCH   7   8
ENDBRANCH   6   7
ENDBRANCH   5   6
ENDBRANCH   4   5
ENDBRANCH   3   4
ENDBRANCH   2   3
ENDBRANCH   1   2
BRANCH   1  18
ATOM     18  C   UNL     1      17.379  47.389  33.370  1.00  0.00     0.000 C 
BRANCH  18  19
ATOM     19  C   UNL     1      15.928  47.698  33.776  1.00  0.00     0.000 C 
BRANCH  19  20
ATOM     20  C   UNL     1      15.478  49.112  33.371  1.00  0.00     0.000 C 
BRANCH  20  21
ATOM     21  C   UNL     1      15.969  49.506  31.967  1.00  0.00     0.000 C 
BRANCH  21  22
ATOM     22  C   UNL     1      16.502  50.949  31.922  1.00  0.00     0.000 C 
BRANCH  22  23
ATOM     23  C   UNL     1      17.952  51.031  31.398  1.00  0.00     0.000 C 
BRANCH  23  24
ATOM     24  C   UNL     1      18.350  49.860  30.480  1.00  0.00    -0.000 C 
BRANCH  24  25
ATOM     25  C   UNL     1      19.216  50.248  29.264  1.00  0.00    -0.000 C 
BRANCH  25  26
ATOM     26  C   UNL     1      19.353  51.764  29.021  1.00  0.00    -0.000 C 
BRANCH  26  27
ATOM     27  C   UNL     1      18.930  52.233  27.617  1.00  0.00    -0.000 C 
BRANCH  27  28
ATOM     28  C   UNL     1      17.700  51.484  27.056  1.00  0.00    -0.000 C 
BRANCH  28  29
ATOM     29  C   UNL     1      16.378  52.255  27.218  1.00  0.00    -0.000 C 
BRANCH  29  30
ATOM     30  C   UNL     1      15.606  51.839  28.483  1.00  0.00    -0.000 C 
BRANCH  30  31
ATOM     31  C   UNL     1      15.015  53.043  29.232  1.00  0.00    -0.003 C 
ATOM     32  C   UNL     1      16.086  54.006  29.743  1.00  0.00     0.004 C 
ENDBRANCH  30  31
ENDBRANCH  29  30
ENDBRANCH  28  29
ENDBRANCH  27  28
ENDBRANCH  26  27
ENDBRANCH  25  26
ENDBRANCH  24  25
ENDBRANCH  23  24
ENDBRANCH  22  23
ENDBRANCH  21  22
ENDBRANCH  20  21
ENDBRANCH  19  20
ENDBRANCH  18  19
ENDBRANCH   1  18
TORSDOF 28
ENDMDL
MODEL 8
REMARK VINA RESULT:    -4.467      8.892     13.544
REMARK INTER + INTRA:         -16.088
REMARK INTER:                 -10.384
REMARK INTRA:                  -5.704
REMARK UNBOUND:                -4.309
REMARK SMILES CCCCCCCCCCCCCCCCCCCCCCCCCCCCCC(=O)[O-]
REMARK SMILES IDX 16 1 17 2 18 3 19 4 20 5 21 6 22 7 23 8 24 9 25 10 26 11
REMARK SMILES IDX 27 12 28 13 29 14 30 15 31 16 32 17 15 18 14 19 13 20 12 21
REMARK SMILES IDX 11 22 10 23 9 24 8 25 7 26 6 27 5 28 4 29 3 30 2 31 1 32
REMARK H PARENT
REMARK Flexibility Score: inf
ROOT
ATOM      1  C   UNL     1      21.359  47.954  33.628  1.00  0.00     0.000 C 
ENDROOT
BRANCH   1   2
ATOM      2  C   UNL     1      22.635  47.228  34.091  1.00  0.00     0.000 C 
BRANCH   2   3
ATOM      3  C   UNL     1      22.379  45.752  34.441  1.00  0.00     0.000 C 
BRANCH   3   4
ATOM      4  C   UNL     1      20.878  45.423  34.522  1.00  0.00     0.000 C 
BRANCH   4   5
ATOM      5  C   UNL     1      20.492  44.737  35.843  1.00  0.00     0.000 C 
BRANCH   5   6
ATOM      6  C   UNL     1      19.132  45.218  36.375  1.00  0.00     0.000 C 
BRANCH   6   7
ATOM      7  C   UNL     1      18.899  46.726  36.162  1.00  0.00     0.000 C 
BRANCH   7   8
ATOM      8  C   UNL     1      17.717  47.086  35.242  1.00  0.00     0.000 C 
BRANCH   8   9
ATOM      9  C   UNL     1      17.237  48.540  35.415  1.00  0.00     0.000 C 
BRANCH   9  10
ATOM     10  C   UNL     1      17.266  49.335  34.093  1.00  0.00     0.000 C 
BRANCH  10  11
ATOM     11  C   UNL     1      17.486  50.847  34.276  1.00  0.00     0.000 C 
BRANCH  11  12
ATOM     12  C   UNL     1      18.308  51.476  33.143  1.00  0.00     0.000 C 
BRANCH  12  13
ATOM     13  C   UNL     1      18.199  50.651  31.853  1.00  0.00     0.006 C 
BRANCH  13  14
ATOM     14  C   UNL     1      19.577  50.274  31.288  1.00  0.00     0.053 C 
BRANCH  14  15
ATOM     15  C   UNL     1      19.490  49.837  29.857  1.00  0.00     0.041 C 
ATOM     16  O   UNL     1      19.186  48.649  29.572  1.00  0.00    -0.550 OA
ATOM     17  O   UNL     1      19.784  50.733  28.837  1.00  0.00    -0.550 OA
ENDBRANCH  14  15
ENDBRANCH  13  14
ENDBRANCH  12  13
ENDBRANCH  11  12
ENDBRANCH  10  11
ENDBRANCH   9  10
ENDBRANCH   8   9
ENDBRANCH   7   8
ENDBRANCH   6   7
ENDBRANCH   5   6
ENDBRANCH   4   5
ENDBRANCH   3   4
ENDBRANCH   2   3
ENDBRANCH   1   2
BRANCH   1  18
ATOM     18  C   UNL     1      21.007  49.155  34.531  1.00  0.00     0.000 C 
BRANCH  18  19
ATOM     19  C   UNL     1      21.732  49.154  35.888  1.00  0.00     0.000 C 
BRANCH  19  20
ATOM     20  C   UNL     1      20.877  49.736  37.027  1.00  0.00     0.000 C 
BRANCH  20  21
ATOM     21  C   UNL     1      20.061  50.962  36.583  1.00  0.00     0.000 C 
BRANCH  21  22
ATOM     22  C   UNL     1      20.382  52.210  37.426  1.00  0.00     0.000 C 
BRANCH  22  23
ATOM     23  C   UNL     1      21.888  52.343  37.739  1.00  0.00     0.000 C 
BRANCH  23  24
ATOM     24  C   UNL     1      22.187  52.801  39.179  1.00  0.00    -0.000 C 
BRANCH  24  25
ATOM     25  C   UNL     1      22.460  51.664  40.184  1.00  0.00    -0.000 C 
BRANCH  25  26
ATOM     26  C   UNL     1      21.607  51.712  41.467  1.00  0.00    -0.000 C 
BRANCH  26  27
ATOM     27  C   UNL     1      20.177  51.162  41.312  1.00  0.00    -0.000 C 
BRANCH  27  28
ATOM     28  C   UNL     1      20.110  49.808  40.568  1.00  0.00    -0.000 C 
BRANCH  28  29
ATOM     29  C   UNL     1      18.701  49.447  40.066  1.00  0.00    -0.000 C 
BRANCH  29  30
ATOM     30  C   UNL     1      17.866  50.692  39.712  1.00  0.00    -0.000 C 
BRANCH  30  31
ATOM     31  C   UNL     1      16.862  50.423  38.581  1.00  0.00    -0.003 C 
ATOM     32  C   UNL     1      16.554  51.671  37.754  1.00  0.00     0.004 C 
ENDBRANCH  30  31
ENDBRANCH  29  30
ENDBRANCH  28  29
ENDBRANCH  27  28
ENDBRANCH  26  27
ENDBRANCH  25  26
ENDBRANCH  24  25
ENDBRANCH  23  24
ENDBRANCH  22  23
ENDBRANCH  21  22
ENDBRANCH  20  21
ENDBRANCH  19  20
ENDBRANCH  18  19
ENDBRANCH   1  18
TORSDOF 28
ENDMDL
MODEL 9
REMARK VINA RESULT:    -4.461      7.468     12.419
REMARK INTER + INTRA:         -16.071
REMARK INTER:                 -11.343
REMARK INTRA:                  -4.728
REMARK UNBOUND:                -4.309
REMARK SMILES CCCCCCCCCCCCCCCCCCCCCCCCCCCCCC(=O)[O-]
REMARK SMILES IDX 16 1 17 2 18 3 19 4 20 5 21 6 22 7 23 8 24 9 25 10 26 11
REMARK SMILES IDX 27 12 28 13 29 14 30 15 31 16 32 17 15 18 14 19 13 20 12 21
REMARK SMILES IDX 11 22 10 23 9 24 8 25 7 26 6 27 5 28 4 29 3 30 2 31 1 32
REMARK H PARENT
REMARK Flexibility Score: inf
ROOT
ATOM      1  C   UNL     1      16.523  51.373  36.538  1.00  0.00     0.000 C 
ENDROOT
BRANCH   1   2
ATOM      2  C   UNL     1      16.450  50.061  35.736  1.00  0.00     0.000 C 
BRANCH   2   3
ATOM      3  C   UNL     1      16.952  50.225  34.291  1.00  0.00     0.000 C 
BRANCH   3   4
ATOM      4  C   UNL     1      17.482  51.642  34.014  1.00  0.00     0.000 C 
BRANCH   4   5
ATOM      5  C   UNL     1      18.739  51.642  33.128  1.00  0.00     0.000 C 
BRANCH   5   6
ATOM      6  C   UNL     1      18.936  50.305  32.393  1.00  0.00     0.000 C 
BRANCH   6   7
ATOM      7  C   UNL     1      19.296  50.481  30.905  1.00  0.00     0.000 C 
BRANCH   7   8
ATOM      8  C   UNL     1      18.764  51.768  30.247  1.00  0.00     0.000 C 
BRANCH   8   9
ATOM      9  C   UNL     1      17.470  51.545  29.441  1.00  0.00     0.000 C 
BRANCH   9  10
ATOM     10  C   UNL     1      17.745  51.133  27.980  1.00  0.00     0.000 C 
BRANCH  10  11
ATOM     11  C   UNL     1      17.051  52.025  26.935  1.00  0.00     0.000 C 
BRANCH  11  12
ATOM     12  C   UNL     1      15.646  52.468  27.363  1.00  0.00     0.000 C 
BRANCH  12  13
ATOM     13  C   UNL     1      14.562  51.673  26.620  1.00  0.00     0.006 C 
BRANCH  13  14
ATOM     14  C   UNL     1      13.230  51.654  27.386  1.00  0.00     0.053 C 
BRANCH  14  15
ATOM     15  C   UNL     1      12.573  53.000  27.390  1.00  0.00     0.041 C 
ATOM     16  O   UNL     1      11.981  53.422  26.361  1.00  0.00    -0.550 OA
ATOM     17  O   UNL     1      12.649  53.808  28.517  1.00  0.00    -0.550 OA
ENDBRANCH  14  15
ENDBRANCH  13  14
ENDBRANCH  12  13
ENDBRANCH  11  12
ENDBRANCH  10  11
ENDBRANCH   9  10
ENDBRANCH   8   9
ENDBRANCH   7   8
ENDBRANCH   6   7
ENDBRANCH   5   6
ENDBRANCH   4   5
ENDBRANCH   3   4
ENDBRANCH   2   3
ENDBRANCH   1   2
BRANCH   1  18
ATOM     18  C   UNL     1      16.536  51.130  38.061  1.00  0.00     0.000 C 
BRANCH  18  19
ATOM     19  C   UNL     1      17.634  50.162  38.534  1.00  0.00     0.000 C 
BRANCH  19  20
ATOM     20  C   UNL     1      18.102  50.439  39.973  1.00  0.00     0.000 C 
BRANCH  20  21
ATOM     21  C   UNL     1      19.308  49.572  40.376  1.00  0.00     0.000 C 
BRANCH  21  22
ATOM     22  C   UNL     1      20.381  50.384  41.124  1.00  0.00     0.000 C 
BRANCH  22  23
ATOM     23  C   UNL     1      21.645  50.624  40.271  1.00  0.00     0.000 C 
BRANCH  23  24
ATOM     24  C   UNL     1      21.975  52.112  40.050  1.00  0.00    -0.000 C 
BRANCH  24  25
ATOM     25  C   UNL     1      20.782  53.076  40.200  1.00  0.00    -0.000 C 
BRANCH  25  26
ATOM     26  C   UNL     1      20.014  53.366  38.895  1.00  0.00    -0.000 C 
BRANCH  26  27
ATOM     27  C   UNL     1      20.786  53.036  37.604  1.00  0.00    -0.000 C 
BRANCH  27  28
ATOM     28  C   UNL     1      20.141  51.906  36.767  1.00  0.00    -0.000 C 
BRANCH  28  29
ATOM     29  C   UNL     1      20.977  50.615  36.724  1.00  0.00    -0.000 C 
BRANCH  29  30
ATOM     30  C   UNL     1      20.438  49.602  35.697  1.00  0.00    -0.000 C 
BRANCH  30  31
ATOM     31  C   UNL     1      19.783  48.383  36.366  1.00  0.00    -0.003 C 
ATOM     32  C   UNL     1      19.195  47.399  35.355  1.00  0.00     0.004 C 
ENDBRANCH  30  31
ENDBRANCH  29  30
ENDBRANCH  28  29
ENDBRANCH  27  28
ENDBRANCH  26  27
ENDBRANCH  25  26
ENDBRANCH  24  25
ENDBRANCH  23  24
ENDBRANCH  22  23
ENDBRANCH  21  22
ENDBRANCH  20  21
ENDBRANCH  19  20
ENDBRANCH  18  19
ENDBRANCH   1  18
TORSDOF 28
ENDMDL
