MODEL 1
REMARK VINA RESULT:    -4.039      0.000      0.000
REMARK INTER + INTRA:          -5.253
REMARK INTER:                  -5.692
REMARK INTRA:                   0.440
REMARK UNBOUND:                 0.440
REMARK SMILES CC1=CCC(=C(C)C)C(=O)CC(C)=CCC1
REMARK SMILES IDX 12 1 14 2 13 3 15 4 16 5 2 6 1 7 3 8 11 10 9 11 10 12 5 13
REMARK SMILES IDX 6 14 7 15 8 16 4 17
REMARK H PARENT
REMARK Flexibility Score: 60.00
ROOT
ATOM      1  C   UNL     1     -23.137 -48.576 103.457  1.00  0.00    -0.070 C 
ATOM      2  C   UNL     1     -22.800 -47.657 102.522  1.00  0.00    -0.027 C 
ATOM      3  C   UNL     1     -23.855 -49.818 102.985  1.00  0.00     0.039 C 
ENDROOT
BRANCH   2   4
ATOM      4  C   UNL     1     -22.178 -46.306 102.781  1.00  0.00     0.032 C 
BRANCH   4   5
ATOM      5  C   UNL     1     -20.645 -46.378 102.922  1.00  0.00     0.034 C 
BRANCH   5   6
ATOM      6  C   UNL     1     -20.174 -45.893 104.280  1.00  0.00    -0.077 C 
ATOM      7  C   UNL     1     -20.249 -44.416 104.579  1.00  0.00     0.039 C 
ATOM      8  C   UNL     1     -19.711 -46.712 105.250  1.00  0.00    -0.023 CG0
ATOM      9  G   UNL     1     -19.594 -48.215 105.154  1.00  0.00     0.000 G0
ENDBRANCH   5   6
ENDBRANCH   4   5
ENDBRANCH   2   4
BRANCH   1  10
ATOM     10  C   UNL     1     -22.892 -48.396 104.946  1.00  0.00     0.111 C 
BRANCH  10  11
ATOM     11  C   UNL     1     -21.863 -49.372 105.461  1.00  0.00     0.163 C 
ATOM     12  O   UNL     1     -22.088 -50.604 105.316  1.00  0.00    -0.294 OA
BRANCH  11  13
ATOM     13  C   UNL     1     -20.580 -48.915 106.081  1.00  0.00    -0.002 C 
ATOM     14  C   UNL     1     -20.346 -49.040 107.423  1.00  0.00    -0.069 C 
ATOM     15  C   UNL     1     -19.031 -48.611 108.037  1.00  0.00     0.039 C 
ATOM     16  C   UNL     1     -21.400 -49.578 108.365  1.00  0.00     0.039 C 
BRANCH  13  17
ATOM     17  C   UNL     1     -19.575 -48.237 105.168  1.00  0.00     0.066 CG0
ATOM     18  G   UNL     1     -19.734 -46.738 105.257  1.00  0.00     0.000 G0
ENDBRANCH  13  17
ENDBRANCH  11  13
ENDBRANCH  10  11
ENDBRANCH   1  10
TORSDOF 0
ENDMDL
MODEL 2
REMARK VINA RESULT:    -3.987      2.037      5.052
REMARK INTER + INTRA:          -5.178
REMARK INTER:                  -5.810
REMARK INTRA:                   0.632
REMARK UNBOUND:                 0.440
REMARK SMILES CC1=CCC(=C(C)C)C(=O)CC(C)=CCC1
REMARK SMILES IDX 12 1 14 2 13 3 15 4 16 5 2 6 1 7 3 8 11 10 9 11 10 12 5 13
REMARK SMILES IDX 6 14 7 15 8 16 4 17
REMARK H PARENT
REMARK Flexibility Score: 60.00
ROOT
ATOM      1  C   UNL     1     -20.806 -48.476 105.821  1.00  0.00    -0.070 C 
ATOM      2  C   UNL     1     -22.112 -48.831 105.836  1.00  0.00    -0.027 C 
ATOM      3  C   UNL     1     -19.832 -49.373 106.546  1.00  0.00     0.039 C 
ENDROOT
BRANCH   2   4
ATOM      4  C   UNL     1     -23.262 -48.033 105.272  1.00  0.00     0.032 C 
BRANCH   4   5
ATOM      5  C   UNL     1     -24.109 -48.842 104.270  1.00  0.00     0.034 C 
BRANCH   5   6
ATOM      6  C   UNL     1     -23.307 -49.264 103.054  1.00  0.00    -0.077 C 
ATOM      7  C   UNL     1     -23.389 -50.703 102.606  1.00  0.00     0.039 C 
ATOM      8  C   UNL     1     -22.541 -48.419 102.329  1.00  0.00    -0.023 CG0
ATOM      9  G   UNL     1     -22.360 -46.944 102.596  1.00  0.00     0.000 G0
ENDBRANCH   5   6
ENDBRANCH   4   5
ENDBRANCH   2   4
BRANCH   1  10
ATOM     10  C   UNL     1     -20.284 -47.203 105.176  1.00  0.00     0.111 C 
BRANCH  10  11
ATOM     11  C   UNL     1     -20.056 -47.384 103.696  1.00  0.00     0.163 C 
ATOM     12  O   UNL     1     -19.198 -48.232 103.327  1.00  0.00    -0.294 OA
BRANCH  11  13
ATOM     13  C   UNL     1     -20.847 -46.630 102.674  1.00  0.00    -0.002 C 
ATOM     14  C   UNL     1     -20.278 -45.659 101.897  1.00  0.00    -0.069 C 
ATOM     15  C   UNL     1     -21.076 -44.927 100.839  1.00  0.00     0.039 C 
ATOM     16  C   UNL     1     -18.836 -45.243 102.078  1.00  0.00     0.039 C 
BRANCH  13  17
ATOM     17  C   UNL     1     -22.331 -46.936 102.588  1.00  0.00     0.066 CG0
ATOM     18  G   UNL     1     -22.535 -48.411 102.337  1.00  0.00     0.000 G0
ENDBRANCH  13  17
ENDBRANCH  11  13
ENDBRANCH  10  11
ENDBRANCH   1  10
TORSDOF 0
ENDMDL
MODEL 3
REMARK VINA RESULT:    -3.959      2.025      5.421
REMARK INTER + INTRA:          -5.139
REMARK INTER:                  -5.666
REMARK INTRA:                   0.527
REMARK UNBOUND:                 0.440
REMARK SMILES CC1=CCC(=C(C)C)C(=O)CC(C)=CCC1
REMARK SMILES IDX 12 1 14 2 13 3 15 4 16 5 2 6 1 7 3 8 11 10 9 11 10 12 5 13
REMARK SMILES IDX 6 14 7 15 8 16 4 17
REMARK H PARENT
REMARK Flexibility Score: 60.00
ROOT
ATOM      1  C   UNL     1     -18.663 -47.288 107.034  1.00  0.00    -0.070 C 
ATOM      2  C   UNL     1     -18.899 -48.018 108.151  1.00  0.00    -0.027 C 
ATOM      3  C   UNL     1     -18.131 -45.887 107.217  1.00  0.00     0.039 C 
ENDROOT
BRANCH   2   4
ATOM      4  C   UNL     1     -19.524 -49.390 108.206  1.00  0.00     0.032 C 
BRANCH   4   5
ATOM      5  C   UNL     1     -21.054 -49.351 108.028  1.00  0.00     0.034 C 
BRANCH   5   6
ATOM      6  C   UNL     1     -21.518 -50.222 106.877  1.00  0.00    -0.077 C 
ATOM      7  C   UNL     1     -21.375 -51.718 107.009  1.00  0.00     0.039 C 
ATOM      8  C   UNL     1     -22.078 -49.738 105.747  1.00  0.00    -0.023 CG0
ATOM      9  G   UNL     1     -22.336 -48.281 105.445  1.00  0.00     0.000 G0
ENDBRANCH   5   6
ENDBRANCH   4   5
ENDBRANCH   2   4
BRANCH   1  10
ATOM     10  C   UNL     1     -18.964 -47.777 105.627  1.00  0.00     0.111 C 
BRANCH  10  11
ATOM     11  C   UNL     1     -20.129 -47.037 105.019  1.00  0.00     0.163 C 
ATOM     12  O   UNL     1     -20.068 -45.778 104.963  1.00  0.00    -0.294 OA
BRANCH  11  13
ATOM     13  C   UNL     1     -21.311 -47.754 104.446  1.00  0.00    -0.002 C 
ATOM     14  C   UNL     1     -21.498 -47.865 103.095  1.00  0.00    -0.069 C 
ATOM     15  C   UNL     1     -22.675 -48.625 102.523  1.00  0.00     0.039 C 
ATOM     16  C   UNL     1     -20.560 -47.207 102.108  1.00  0.00     0.039 C 
BRANCH  13  17
ATOM     17  C   UNL     1     -22.336 -48.289 105.428  1.00  0.00     0.066 CG0
ATOM     18  G   UNL     1     -22.045 -49.739 105.731  1.00  0.00     0.000 G0
ENDBRANCH  13  17
ENDBRANCH  11  13
ENDBRANCH  10  11
ENDBRANCH   1  10
TORSDOF 0
ENDMDL
MODEL 4
REMARK VINA RESULT:    -3.954      2.562      3.624
REMARK INTER + INTRA:          -5.132
REMARK INTER:                  -5.741
REMARK INTRA:                   0.609
REMARK UNBOUND:                 0.440
REMARK SMILES CC1=CCC(=C(C)C)C(=O)CC(C)=CCC1
REMARK SMILES IDX 12 1 14 2 13 3 15 4 16 5 2 6 1 7 3 8 11 10 9 11 10 12 5 13
REMARK SMILES IDX 6 14 7 15 8 16 4 17
REMARK H PARENT
REMARK Flexibility Score: 60.00
ROOT
ATOM      1  C   UNL     1     -21.996 -47.225 102.892  1.00  0.00    -0.070 C 
ATOM      2  C   UNL     1     -21.884 -46.742 101.631  1.00  0.00    -0.027 C 
ATOM      3  C   UNL     1     -22.235 -48.707 103.050  1.00  0.00     0.039 C 
ENDROOT
BRANCH   2   4
ATOM      4  C   UNL     1     -21.750 -45.291 101.240  1.00  0.00     0.032 C 
BRANCH   4   5
ATOM      5  C   UNL     1     -20.373 -44.967 100.629  1.00  0.00     0.034 C 
BRANCH   5   6
ATOM      6  C   UNL     1     -19.460 -46.177 100.604  1.00  0.00    -0.077 C 
ATOM      7  C   UNL     1     -19.447 -47.040  99.367  1.00  0.00     0.039 C 
ATOM      8  C   UNL     1     -18.634 -46.515 101.620  1.00  0.00    -0.023 CG0
ATOM      9  G   UNL     1     -18.479 -45.761 102.919  1.00  0.00     0.000 G0
ENDBRANCH   5   6
ENDBRANCH   4   5
ENDBRANCH   2   4
BRANCH   1  10
ATOM     10  C   UNL     1     -21.958 -46.355 104.137  1.00  0.00     0.111 C 
BRANCH  10  11
ATOM     11  C   UNL     1     -20.626 -45.664 104.291  1.00  0.00     0.163 C 
ATOM     12  O   UNL     1     -20.619 -44.477 104.718  1.00  0.00    -0.294 OA
BRANCH  11  13
ATOM     13  C   UNL     1     -19.334 -46.361 104.003  1.00  0.00    -0.002 C 
ATOM     14  C   UNL     1     -18.928 -47.450 104.724  1.00  0.00    -0.069 C 
ATOM     15  C   UNL     1     -17.638 -48.173 104.402  1.00  0.00     0.039 C 
ATOM     16  C   UNL     1     -19.729 -47.964 105.900  1.00  0.00     0.039 C 
BRANCH  13  17
ATOM     17  C   UNL     1     -18.453 -45.761 102.923  1.00  0.00     0.066 CG0
ATOM     18  G   UNL     1     -18.640 -46.519 101.630  1.00  0.00     0.000 G0
ENDBRANCH  13  17
ENDBRANCH  11  13
ENDBRANCH  10  11
ENDBRANCH   1  10
TORSDOF 0
ENDMDL
MODEL 5
REMARK VINA RESULT:    -3.928      1.283      4.020
REMARK INTER + INTRA:          -5.096
REMARK INTER:                  -5.635
REMARK INTRA:                   0.539
REMARK UNBOUND:                 0.440
REMARK SMILES CC1=CCC(=C(C)C)C(=O)CC(C)=CCC1
REMARK SMILES IDX 12 1 14 2 13 3 15 4 16 5 2 6 1 7 3 8 11 10 9 11 10 12 5 13
REMARK SMILES IDX 6 14 7 15 8 16 4 17
REMARK H PARENT
REMARK Flexibility Score: 60.00
ROOT
ATOM      1  C   UNL     1     -20.736 -50.173 107.712  1.00  0.00    -0.070 C 
ATOM      2  C   UNL     1     -19.597 -49.743 108.307  1.00  0.00    -0.027 C 
ATOM      3  C   UNL     1     -20.942 -51.664 107.598  1.00  0.00     0.039 C 
ENDROOT
BRANCH   2   4
ATOM      4  C   UNL     1     -19.141 -48.311 108.432  1.00  0.00     0.032 C 
BRANCH   4   5
ATOM      5  C   UNL     1     -18.193 -47.889 107.293  1.00  0.00     0.034 C 
BRANCH   5   6
ATOM      6  C   UNL     1     -18.690 -46.656 106.563  1.00  0.00    -0.077 C 
ATOM      7  C   UNL     1     -18.354 -45.301 107.135  1.00  0.00     0.039 C 
ATOM      8  C   UNL     1     -19.396 -46.700 105.411  1.00  0.00    -0.023 CG0
ATOM      9  G   UNL     1     -19.798 -47.952 104.670  1.00  0.00     0.000 G0
ENDBRANCH   5   6
ENDBRANCH   4   5
ENDBRANCH   2   4
BRANCH   1  10
ATOM     10  C   UNL     1     -21.773 -49.244 107.103  1.00  0.00     0.111 C 
BRANCH  10  11
ATOM     11  C   UNL     1     -21.765 -49.315 105.596  1.00  0.00     0.163 C 
ATOM     12  O   UNL     1     -22.203 -50.363 105.049  1.00  0.00    -0.294 OA
BRANCH  11  13
ATOM     13  C   UNL     1     -21.307 -48.168 104.752  1.00  0.00    -0.002 C 
ATOM     14  C   UNL     1     -22.189 -47.393 104.051  1.00  0.00    -0.069 C 
ATOM     15  C   UNL     1     -21.721 -46.211 103.229  1.00  0.00     0.039 C 
ATOM     16  C   UNL     1     -23.670 -47.699 104.032  1.00  0.00     0.039 C 
BRANCH  13  17
ATOM     17  C   UNL     1     -19.809 -47.945 104.646  1.00  0.00     0.066 CG0
ATOM     18  G   UNL     1     -19.420 -46.709 105.421  1.00  0.00     0.000 G0
ENDBRANCH  13  17
ENDBRANCH  11  13
ENDBRANCH  10  11
ENDBRANCH   1  10
TORSDOF 0
ENDMDL
MODEL 6
REMARK VINA RESULT:    -3.894      1.816      3.716
REMARK INTER + INTRA:          -5.048
REMARK INTER:                  -5.515
REMARK INTRA:                   0.467
REMARK UNBOUND:                 0.440
REMARK SMILES CC1=CCC(=C(C)C)C(=O)CC(C)=CCC1
REMARK SMILES IDX 12 1 14 2 13 3 15 4 16 5 2 6 1 7 3 8 11 10 9 11 10 12 5 13
REMARK SMILES IDX 6 14 7 15 8 16 4 17
REMARK H PARENT
REMARK Flexibility Score: 60.00
ROOT
ATOM      1  C   UNL     1     -22.172 -47.131 103.131  1.00  0.00    -0.070 C 
ATOM      2  C   UNL     1     -22.800 -48.246 103.573  1.00  0.00    -0.027 C 
ATOM      3  C   UNL     1     -22.051 -46.946 101.638  1.00  0.00     0.039 C 
ENDROOT
BRANCH   2   4
ATOM      4  C   UNL     1     -22.940 -48.682 105.011  1.00  0.00     0.032 C 
BRANCH   4   5
ATOM      5  C   UNL     1     -21.820 -49.646 105.449  1.00  0.00     0.034 C 
BRANCH   5   6
ATOM      6  C   UNL     1     -21.146 -49.195 106.731  1.00  0.00    -0.077 C 
ATOM      7  C   UNL     1     -21.808 -49.531 108.044  1.00  0.00     0.039 C 
ATOM      8  C   UNL     1     -19.970 -48.530 106.767  1.00  0.00    -0.023 CG0
ATOM      9  G   UNL     1     -19.142 -48.136 105.567  1.00  0.00     0.000 G0
ENDBRANCH   5   6
ENDBRANCH   4   5
ENDBRANCH   2   4
BRANCH   1  10
ATOM     10  C   UNL     1     -21.533 -46.101 104.048  1.00  0.00     0.111 C 
BRANCH  10  11
ATOM     11  C   UNL     1     -20.030 -46.231 104.068  1.00  0.00     0.163 C 
ATOM     12  O   UNL     1     -19.397 -45.954 103.012  1.00  0.00    -0.294 OA
BRANCH  11  13
ATOM     13  C   UNL     1     -19.285 -46.624 105.304  1.00  0.00    -0.002 C 
ATOM     14  C   UNL     1     -18.710 -45.691 106.124  1.00  0.00    -0.069 C 
ATOM     15  C   UNL     1     -17.991 -46.094 107.393  1.00  0.00     0.039 C 
ATOM     16  C   UNL     1     -18.734 -44.218 105.786  1.00  0.00     0.039 C 
BRANCH  13  17
ATOM     17  C   UNL     1     -19.128 -48.109 105.572  1.00  0.00     0.066 CG0
ATOM     18  G   UNL     1     -19.977 -48.508 106.756  1.00  0.00     0.000 G0
ENDBRANCH  13  17
ENDBRANCH  11  13
ENDBRANCH  10  11
ENDBRANCH   1  10
TORSDOF 0
ENDMDL
MODEL 7
REMARK VINA RESULT:    -3.824      1.979      5.111
REMARK INTER + INTRA:          -4.949
REMARK INTER:                  -5.332
REMARK INTRA:                   0.383
REMARK UNBOUND:                 0.440
REMARK SMILES CC1=CCC(=C(C)C)C(=O)CC(C)=CCC1
REMARK SMILES IDX 12 1 14 2 13 3 15 4 16 5 2 6 1 7 3 8 11 10 9 11 10 12 5 13
REMARK SMILES IDX 6 14 7 15 8 16 4 17
REMARK H PARENT
REMARK Flexibility Score: 60.00
ROOT
ATOM      1  C   UNL     1     -19.302 -48.382 107.299  1.00  0.00    -0.070 C 
ATOM      2  C   UNL     1     -20.349 -49.187 107.599  1.00  0.00    -0.027 C 
ATOM      3  C   UNL     1     -18.652 -47.633 108.438  1.00  0.00     0.039 C 
ENDROOT
BRANCH   2   4
ATOM      4  C   UNL     1     -21.207 -49.941 106.613  1.00  0.00     0.032 C 
BRANCH   4   5
ATOM      5  C   UNL     1     -22.357 -49.082 106.051  1.00  0.00     0.034 C 
BRANCH   5   6
ATOM      6  C   UNL     1     -22.437 -49.152 104.539  1.00  0.00    -0.077 C 
ATOM      7  C   UNL     1     -22.974 -50.413 103.907  1.00  0.00     0.039 C 
ATOM      8  C   UNL     1     -22.078 -48.138 103.720  1.00  0.00    -0.023 CG0
ATOM      9  G   UNL     1     -21.554 -46.792 104.161  1.00  0.00     0.000 G0
ENDBRANCH   5   6
ENDBRANCH   4   5
ENDBRANCH   2   4
BRANCH   1  10
ATOM     10  C   UNL     1     -18.796 -48.145 105.886  1.00  0.00     0.111 C 
BRANCH  10  11
ATOM     11  C   UNL     1     -19.284 -46.828 105.335  1.00  0.00     0.163 C 
ATOM     12  O   UNL     1     -18.992 -45.776 105.967  1.00  0.00    -0.294 OA
BRANCH  11  13
ATOM     13  C   UNL     1     -20.047 -46.740 104.051  1.00  0.00    -0.002 C 
ATOM     14  C   UNL     1     -19.416 -46.569 102.850  1.00  0.00    -0.069 C 
ATOM     15  C   UNL     1     -20.192 -46.520 101.552  1.00  0.00     0.039 C 
ATOM     16  C   UNL     1     -17.917 -46.385 102.762  1.00  0.00     0.039 C 
BRANCH  13  17
ATOM     17  C   UNL     1     -21.561 -46.774 104.146  1.00  0.00     0.066 CG0
ATOM     18  G   UNL     1     -22.071 -48.127 103.711  1.00  0.00     0.000 G0
ENDBRANCH  13  17
ENDBRANCH  11  13
ENDBRANCH  10  11
ENDBRANCH   1  10
TORSDOF 0
ENDMDL
MODEL 8
REMARK VINA RESULT:    -3.668      2.546      4.805
REMARK INTER + INTRA:          -4.729
REMARK INTER:                  -5.243
REMARK INTRA:                   0.514
REMARK UNBOUND:                 0.440
REMARK SMILES CC1=CCC(=C(C)C)C(=O)CC(C)=CCC1
REMARK SMILES IDX 12 1 14 2 13 3 15 4 16 5 2 6 1 7 3 8 11 10 9 11 10 12 5 13
REMARK SMILES IDX 6 14 7 15 8 16 4 17
REMARK H PARENT
REMARK Flexibility Score: 60.00
ROOT
ATOM      1  C   UNL     1     -22.391 -48.618 103.185  1.00  0.00    -0.070 C 
ATOM      2  C   UNL     1     -21.598 -48.887 104.249  1.00  0.00    -0.027 C 
ATOM      3  C   UNL     1     -23.212 -49.755 102.624  1.00  0.00     0.039 C 
ENDROOT
BRANCH   2   4
ATOM      4  C   UNL     1     -20.623 -47.935 104.898  1.00  0.00     0.032 C 
BRANCH   4   5
ATOM      5  C   UNL     1     -19.186 -48.107 104.368  1.00  0.00     0.034 C 
BRANCH   5   6
ATOM      6  C   UNL     1     -18.575 -46.788 103.934  1.00  0.00    -0.077 C 
ATOM      7  C   UNL     1     -17.923 -45.922 104.983  1.00  0.00     0.039 C 
ATOM      8  C   UNL     1     -18.559 -46.354 102.655  1.00  0.00    -0.023 CG0
ATOM      9  G   UNL     1     -19.126 -47.091 101.465  1.00  0.00     0.000 G0
ENDBRANCH   5   6
ENDBRANCH   4   5
ENDBRANCH   2   4
BRANCH   1  10
ATOM     10  C   UNL     1     -22.448 -47.267 102.493  1.00  0.00     0.111 C 
BRANCH  10  11
ATOM     11  C   UNL     1     -21.674 -47.273 101.198  1.00  0.00     0.163 C 
ATOM     12  O   UNL     1     -22.125 -47.957 100.240  1.00  0.00    -0.294 OA
BRANCH  11  13
ATOM     13  C   UNL     1     -20.433 -46.457 101.014  1.00  0.00    -0.002 C 
ATOM     14  C   UNL     1     -20.463 -45.227 100.416  1.00  0.00    -0.069 C 
ATOM     15  C   UNL     1     -19.209 -44.392 100.268  1.00  0.00     0.039 C 
ATOM     16  C   UNL     1     -21.740 -44.656  99.843  1.00  0.00     0.039 C 
BRANCH  13  17
ATOM     17  C   UNL     1     -19.123 -47.087 101.452  1.00  0.00     0.066 CG0
ATOM     18  G   UNL     1     -18.574 -46.346 102.648  1.00  0.00     0.000 G0
ENDBRANCH  13  17
ENDBRANCH  11  13
ENDBRANCH  10  11
ENDBRANCH   1  10
TORSDOF 0
ENDMDL
MODEL 9
REMARK VINA RESULT:    -3.649     10.571     12.393
REMARK INTER + INTRA:          -4.703
REMARK INTER:                  -5.439
REMARK INTRA:                   0.736
REMARK UNBOUND:                 0.440
REMARK SMILES CC1=CCC(=C(C)C)C(=O)CC(C)=CCC1
REMARK SMILES IDX 12 1 14 2 13 3 15 4 16 5 2 6 1 7 3 8 11 10 9 11 10 12 5 13
REMARK SMILES IDX 6 14 7 15 8 16 4 17
REMARK H PARENT
REMARK Flexibility Score: 60.00
ROOT
ATOM      1  C   UNL     1     -21.415 -59.930  97.193  1.00  0.00    -0.070 C 
ATOM      2  C   UNL     1     -22.060 -58.815  96.776  1.00  0.00    -0.027 C 
ATOM      3  C   UNL     1     -20.525 -60.632  96.197  1.00  0.00     0.039 C 
ENDROOT
BRANCH   2   4
ATOM      4  C   UNL     1     -23.073 -58.021  97.565  1.00  0.00     0.032 C 
BRANCH   4   5
ATOM      5  C   UNL     1     -22.575 -56.605  97.912  1.00  0.00     0.034 C 
BRANCH   5   6
ATOM      6  C   UNL     1     -22.181 -56.478  99.370  1.00  0.00    -0.077 C 
ATOM      7  C   UNL     1     -23.196 -55.930 100.342  1.00  0.00     0.039 C 
ATOM      8  C   UNL     1     -20.977 -56.853  99.857  1.00  0.00    -0.023 CG0
ATOM      9  G   UNL     1     -19.848 -57.452  99.054  1.00  0.00     0.000 G0
ENDBRANCH   5   6
ENDBRANCH   4   5
ENDBRANCH   2   4
BRANCH   1  10
ATOM     10  C   UNL     1     -21.588 -60.540  98.574  1.00  0.00     0.111 C 
BRANCH  10  11
ATOM     11  C   UNL     1     -20.926 -59.701  99.639  1.00  0.00     0.163 C 
ATOM     12  O   UNL     1     -21.432 -59.702 100.795  1.00  0.00    -0.294 OA
BRANCH  11  13
ATOM     13  C   UNL     1     -19.675 -58.925  99.372  1.00  0.00    -0.002 C 
ATOM     14  C   UNL     1     -18.438 -59.499  99.471  1.00  0.00    -0.069 C 
ATOM     15  C   UNL     1     -17.179 -58.718  99.162  1.00  0.00     0.039 C 
ATOM     16  C   UNL     1     -18.263 -60.930  99.927  1.00  0.00     0.039 C 
BRANCH  13  17
ATOM     17  C   UNL     1     -19.834 -57.449  99.059  1.00  0.00     0.066 CG0
ATOM     18  G   UNL     1     -20.981 -56.877  99.858  1.00  0.00     0.000 G0
ENDBRANCH  13  17
ENDBRANCH  11  13
ENDBRANCH  10  11
ENDBRANCH   1  10
TORSDOF 0
ENDMDL
