MODEL 1
REMARK VINA RESULT:    -3.155      0.000      0.000
REMARK INTER + INTRA:          -4.097
REMARK INTER:                  -3.708
REMARK INTRA:                  -0.389
REMARK UNBOUND:                -0.389
REMARK SMILES [NH3+][C@H](CO)C(=O)[O-]
REMARK SMILES IDX 3 1 2 2 1 3 5 7 6 8 7 9 4 10
REMARK H PARENT 1 4 1 5 1 6 4 11
REMARK Flexibility Score: inf
ROOT
ATOM      1  C   UNL     1      22.474  39.809  24.978  1.00  0.00     0.227 C 
ENDROOT
BRANCH   1   2
ATOM      2  C   UNL     1      23.258  39.402  23.717  1.00  0.00     0.253 C 
BRANCH   2   3
ATOM      3  N   UNL     1      24.530  40.129  23.622  1.00  0.00    -0.348 N 
ATOM      4  H   UNL     1      24.898  40.324  24.581  1.00  0.00     0.345 HD
ATOM      5  H   UNL     1      25.241  39.575  23.090  1.00  0.00     0.345 HD
ATOM      6  H   UNL     1      24.378  41.043  23.137  1.00  0.00     0.345 HD
ENDBRANCH   2   3
BRANCH   2   7
ATOM      7  C   UNL     1      23.477  37.911  23.677  1.00  0.00     0.102 C 
ATOM      8  O   UNL     1      24.508  37.399  24.190  1.00  0.00    -0.544 OA
ATOM      9  O   UNL     1      22.513  37.087  23.111  1.00  0.00    -0.544 OA
ENDBRANCH   2   7
ENDBRANCH   1   2
BRANCH   1  10
ATOM     10  O   UNL     1      22.228  38.703  25.807  1.00  0.00    -0.390 OA
ATOM     11  H   UNL     1      21.539  38.151  25.353  1.00  0.00     0.210 HD
ENDBRANCH   1  10
TORSDOF 4
ENDMDL
MODEL 2
REMARK VINA RESULT:    -3.076      2.116      2.795
REMARK INTER + INTRA:          -4.004
REMARK INTER:                  -3.638
REMARK INTRA:                  -0.366
REMARK UNBOUND:                -0.389
REMARK SMILES [NH3+][C@H](CO)C(=O)[O-]
REMARK SMILES IDX 3 1 2 2 1 3 5 7 6 8 7 9 4 10
REMARK H PARENT 1 4 1 5 1 6 4 11
REMARK Flexibility Score: inf
ROOT
ATOM      1  C   UNL     1      23.921  37.081  24.320  1.00  0.00     0.227 C 
ENDROOT
BRANCH   1   2
ATOM      2  C   UNL     1      22.908  38.236  24.203  1.00  0.00     0.253 C 
BRANCH   2   3
ATOM      3  N   UNL     1      22.444  38.673  25.526  1.00  0.00    -0.348 N 
ATOM      4  H   UNL     1      22.463  37.867  26.191  1.00  0.00     0.345 HD
ATOM      5  H   UNL     1      23.049  39.440  25.902  1.00  0.00     0.345 HD
ATOM      6  H   UNL     1      21.459  39.018  25.457  1.00  0.00     0.345 HD
ENDBRANCH   2   3
BRANCH   2   7
ATOM      7  C   UNL     1      23.489  39.385  23.421  1.00  0.00     0.102 C 
ATOM      8  O   UNL     1      24.292  40.191  23.963  1.00  0.00    -0.544 OA
ATOM      9  O   UNL     1      23.176  39.532  22.075  1.00  0.00    -0.544 OA
ENDBRANCH   2   7
ENDBRANCH   1   2
BRANCH   1  10
ATOM     10  O   UNL     1      25.023  37.281  23.473  1.00  0.00    -0.390 OA
ATOM     11  H   UNL     1      25.471  36.401  23.371  1.00  0.00     0.210 HD
ENDBRANCH   1  10
TORSDOF 4
ENDMDL
MODEL 3
REMARK VINA RESULT:    -2.960      1.906      2.310
REMARK INTER + INTRA:          -3.868
REMARK INTER:                  -3.486
REMARK INTRA:                  -0.382
REMARK UNBOUND:                -0.389
REMARK SMILES [NH3+][C@H](CO)C(=O)[O-]
REMARK SMILES IDX 3 1 2 2 1 3 5 7 6 8 7 9 4 10
REMARK H PARENT 1 4 1 5 1 6 4 11
REMARK Flexibility Score: inf
ROOT
ATOM      1  C   UNL     1      22.225  39.368  23.195  1.00  0.00     0.227 C 
ENDROOT
BRANCH   1   2
ATOM      2  C   UNL     1      23.107  38.970  24.393  1.00  0.00     0.253 C 
BRANCH   2   3
ATOM      3  N   UNL     1      22.298  38.740  25.597  1.00  0.00    -0.348 N 
ATOM      4  H   UNL     1      22.485  37.780  25.970  1.00  0.00     0.345 HD
ATOM      5  H   UNL     1      22.519  39.443  26.339  1.00  0.00     0.345 HD
ATOM      6  H   UNL     1      21.282  38.805  25.356  1.00  0.00     0.345 HD
ENDBRANCH   2   3
BRANCH   2   7
ATOM      7  C   UNL     1      23.951  37.766  24.065  1.00  0.00     0.102 C 
ATOM      8  O   UNL     1      23.605  36.615  24.445  1.00  0.00    -0.544 OA
ATOM      9  O   UNL     1      25.097  37.917  23.295  1.00  0.00    -0.544 OA
ENDBRANCH   2   7
ENDBRANCH   1   2
BRANCH   1  10
ATOM     10  O   UNL     1      22.243  38.380  22.197  1.00  0.00    -0.390 OA
ATOM     11  H   UNL     1      21.966  37.530  22.629  1.00  0.00     0.210 HD
ENDBRANCH   1  10
TORSDOF 4
ENDMDL
MODEL 4
REMARK VINA RESULT:    -2.915      2.045      2.420
REMARK INTER + INTRA:          -3.815
REMARK INTER:                  -3.614
REMARK INTRA:                  -0.201
REMARK UNBOUND:                -0.389
REMARK SMILES [NH3+][C@H](CO)C(=O)[O-]
REMARK SMILES IDX 3 1 2 2 1 3 5 7 6 8 7 9 4 10
REMARK H PARENT 1 4 1 5 1 6 4 11
REMARK Flexibility Score: inf
ROOT
ATOM      1  C   UNL     1      22.969  37.901  24.567  1.00  0.00     0.227 C 
ENDROOT
BRANCH   1   2
ATOM      2  C   UNL     1      23.997  38.738  23.782  1.00  0.00     0.253 C 
BRANCH   2   3
ATOM      3  N   UNL     1      25.083  37.897  23.263  1.00  0.00    -0.348 N 
ATOM      4  H   UNL     1      25.698  38.463  22.634  1.00  0.00     0.345 HD
ATOM      5  H   UNL     1      25.661  37.505  24.042  1.00  0.00     0.345 HD
ATOM      6  H   UNL     1      24.682  37.108  22.706  1.00  0.00     0.345 HD
ENDBRANCH   2   3
BRANCH   2   7
ATOM      7  C   UNL     1      23.330  39.512  22.675  1.00  0.00     0.102 C 
ATOM      8  O   UNL     1      22.087  39.720  22.695  1.00  0.00    -0.544 OA
ATOM      9  O   UNL     1      24.096  40.044  21.647  1.00  0.00    -0.544 OA
ENDBRANCH   2   7
ENDBRANCH   1   2
BRANCH   1  10
ATOM     10  O   UNL     1      22.381  38.651  25.598  1.00  0.00    -0.390 OA
ATOM     11  H   UNL     1      22.962  38.547  26.397  1.00  0.00     0.210 HD
ENDBRANCH   1  10
TORSDOF 4
ENDMDL
MODEL 5
REMARK VINA RESULT:    -2.784      1.871      2.435
REMARK INTER + INTRA:          -3.662
REMARK INTER:                  -3.280
REMARK INTRA:                  -0.382
REMARK UNBOUND:                -0.389
REMARK SMILES [NH3+][C@H](CO)C(=O)[O-]
REMARK SMILES IDX 3 1 2 2 1 3 5 7 6 8 7 9 4 10
REMARK H PARENT 1 4 1 5 1 6 4 11
REMARK Flexibility Score: inf
ROOT
ATOM      1  C   UNL     1      23.842  39.839  22.642  1.00  0.00     0.227 C 
ENDROOT
BRANCH   1   2
ATOM      2  C   UNL     1      22.797  38.748  22.940  1.00  0.00     0.253 C 
BRANCH   2   3
ATOM      3  N   UNL     1      22.855  37.668  21.946  1.00  0.00    -0.348 N 
ATOM      4  H   UNL     1      22.043  37.748  21.291  1.00  0.00     0.345 HD
ATOM      5  H   UNL     1      23.743  37.712  21.395  1.00  0.00     0.345 HD
ATOM      6  H   UNL     1      22.797  36.742  22.429  1.00  0.00     0.345 HD
ENDBRANCH   2   3
BRANCH   2   7
ATOM      7  C   UNL     1      22.962  38.212  24.339  1.00  0.00     0.102 C 
ATOM      8  O   UNL     1      23.760  37.265  24.575  1.00  0.00    -0.544 OA
ATOM      9  O   UNL     1      22.264  38.796  25.388  1.00  0.00    -0.544 OA
ENDBRANCH   2   7
ENDBRANCH   1   2
BRANCH   1  10
ATOM     10  O   UNL     1      24.513  40.237  23.810  1.00  0.00    -0.390 OA
ATOM     11  H   UNL     1      24.142  39.695  24.554  1.00  0.00     0.210 HD
ENDBRANCH   1  10
TORSDOF 4
ENDMDL
MODEL 6
REMARK VINA RESULT:    -2.770      2.229      2.333
REMARK INTER + INTRA:          -3.645
REMARK INTER:                  -3.627
REMARK INTRA:                  -0.018
REMARK UNBOUND:                -0.389
REMARK SMILES [NH3+][C@H](CO)C(=O)[O-]
REMARK SMILES IDX 3 1 2 2 1 3 5 7 6 8 7 9 4 10
REMARK H PARENT 1 4 1 5 1 6 4 11
REMARK Flexibility Score: inf
ROOT
ATOM      1  C   UNL     1      22.610  38.336  24.425  1.00  0.00     0.227 C 
ENDROOT
BRANCH   1   2
ATOM      2  C   UNL     1      23.938  37.570  24.278  1.00  0.00     0.253 C 
BRANCH   2   3
ATOM      3  N   UNL     1      23.708  36.126  24.138  1.00  0.00    -0.348 N 
ATOM      4  H   UNL     1      24.076  35.798  23.215  1.00  0.00     0.345 HD
ATOM      5  H   UNL     1      24.183  35.594  24.903  1.00  0.00     0.345 HD
ATOM      6  H   UNL     1      22.682  35.929  24.171  1.00  0.00     0.345 HD
ENDBRANCH   2   3
BRANCH   2   7
ATOM      7  C   UNL     1      24.746  38.108  23.126  1.00  0.00     0.102 C 
ATOM      8  O   UNL     1      25.728  37.462  22.671  1.00  0.00    -0.544 OA
ATOM      9  O   UNL     1      24.379  39.306  22.525  1.00  0.00    -0.544 OA
ENDBRANCH   2   7
ENDBRANCH   1   2
BRANCH   1  10
ATOM     10  O   UNL     1      22.351  38.657  25.767  1.00  0.00    -0.390 OA
ATOM     11  H   UNL     1      22.539  37.841  26.299  1.00  0.00     0.210 HD
ENDBRANCH   1  10
TORSDOF 4
ENDMDL
MODEL 7
REMARK VINA RESULT:    -2.763      1.469      2.687
REMARK INTER + INTRA:          -3.636
REMARK INTER:                  -3.244
REMARK INTRA:                  -0.392
REMARK UNBOUND:                -0.389
REMARK SMILES [NH3+][C@H](CO)C(=O)[O-]
REMARK SMILES IDX 3 1 2 2 1 3 5 7 6 8 7 9 4 10
REMARK H PARENT 1 4 1 5 1 6 4 11
REMARK Flexibility Score: inf
ROOT
ATOM      1  C   UNL     1      24.729  36.732  24.168  1.00  0.00     0.227 C 
ENDROOT
BRANCH   1   2
ATOM      2  C   UNL     1      24.198  38.108  23.725  1.00  0.00     0.253 C 
BRANCH   2   3
ATOM      3  N   UNL     1      24.427  38.331  22.291  1.00  0.00    -0.348 N 
ATOM      4  H   UNL     1      25.342  38.820  22.152  1.00  0.00     0.345 HD
ATOM      5  H   UNL     1      24.442  37.426  21.767  1.00  0.00     0.345 HD
ATOM      6  H   UNL     1      23.669  38.938  21.904  1.00  0.00     0.345 HD
ENDBRANCH   2   3
BRANCH   2   7
ATOM      7  C   UNL     1      22.740  38.261  24.074  1.00  0.00     0.102 C 
ATOM      8  O   UNL     1      21.845  37.991  23.230  1.00  0.00    -0.544 OA
ATOM      9  O   UNL     1      22.377  38.659  25.355  1.00  0.00    -0.544 OA
ENDBRANCH   2   7
ENDBRANCH   1   2
BRANCH   1  10
ATOM     10  O   UNL     1      23.702  35.935  24.699  1.00  0.00    -0.390 OA
ATOM     11  H   UNL     1      23.369  36.397  25.512  1.00  0.00     0.210 HD
ENDBRANCH   1  10
TORSDOF 4
ENDMDL
MODEL 8
REMARK VINA RESULT:    -2.673      1.919      2.881
REMARK INTER + INTRA:          -3.530
REMARK INTER:                  -3.172
REMARK INTRA:                  -0.358
REMARK UNBOUND:                -0.389
REMARK SMILES [NH3+][C@H](CO)C(=O)[O-]
REMARK SMILES IDX 3 1 2 2 1 3 5 7 6 8 7 9 4 10
REMARK H PARENT 1 4 1 5 1 6 4 11
REMARK Flexibility Score: inf
ROOT
ATOM      1  C   UNL     1      22.498  37.604  22.636  1.00  0.00     0.227 C 
ENDROOT
BRANCH   1   2
ATOM      2  C   UNL     1      23.108  37.880  24.023  1.00  0.00     0.253 C 
BRANCH   2   3
ATOM      3  N   UNL     1      24.348  37.117  24.221  1.00  0.00    -0.348 N 
ATOM      4  H   UNL     1      24.411  36.355  23.508  1.00  0.00     0.345 HD
ATOM      5  H   UNL     1      25.187  37.736  24.134  1.00  0.00     0.345 HD
ATOM      6  H   UNL     1      24.344  36.679  25.170  1.00  0.00     0.345 HD
ENDBRANCH   2   3
BRANCH   2   7
ATOM      7  C   UNL     1      23.336  39.355  24.228  1.00  0.00     0.102 C 
ATOM      8  O   UNL     1      24.319  39.935  23.692  1.00  0.00    -0.544 OA
ATOM      9  O   UNL     1      22.430  40.096  24.976  1.00  0.00    -0.544 OA
ENDBRANCH   2   7
ENDBRANCH   1   2
BRANCH   1  10
ATOM     10  O   UNL     1      22.017  38.784  22.046  1.00  0.00    -0.390 OA
ATOM     11  H   UNL     1      21.026  38.721  22.043  1.00  0.00     0.210 HD
ENDBRANCH   1  10
TORSDOF 4
ENDMDL
MODEL 9
REMARK VINA RESULT:    -2.668      1.345      2.413
REMARK INTER + INTRA:          -3.524
REMARK INTER:                  -3.139
REMARK INTRA:                  -0.385
REMARK UNBOUND:                -0.389
REMARK SMILES [NH3+][C@H](CO)C(=O)[O-]
REMARK SMILES IDX 3 1 2 2 1 3 5 7 6 8 7 9 4 10
REMARK H PARENT 1 4 1 5 1 6 4 11
REMARK Flexibility Score: inf
ROOT
ATOM      1  C   UNL     1      23.600  38.275  21.870  1.00  0.00     0.227 C 
ENDROOT
BRANCH   1   2
ATOM      2  C   UNL     1      24.231  38.497  23.257  1.00  0.00     0.253 C 
BRANCH   2   3
ATOM      3  N   UNL     1      24.285  39.925  23.596  1.00  0.00    -0.348 N 
ATOM      4  H   UNL     1      24.928  40.070  24.409  1.00  0.00     0.345 HD
ATOM      5  H   UNL     1      24.627  40.491  22.786  1.00  0.00     0.345 HD
ATOM      6  H   UNL     1      23.332  40.258  23.869  1.00  0.00     0.345 HD
ENDBRANCH   2   3
BRANCH   2   7
ATOM      7  C   UNL     1      23.497  37.712  24.314  1.00  0.00     0.102 C 
ATOM      8  O   UNL     1      22.624  38.265  25.035  1.00  0.00    -0.544 OA
ATOM      9  O   UNL     1      23.749  36.355  24.465  1.00  0.00    -0.544 OA
ENDBRANCH   2   7
ENDBRANCH   1   2
BRANCH   1  10
ATOM     10  O   UNL     1      22.384  37.580  21.966  1.00  0.00    -0.390 OA
ATOM     11  H   UNL     1      21.830  38.061  22.635  1.00  0.00     0.210 HD
ENDBRANCH   1  10
TORSDOF 4
ENDMDL
