MODEL 1
REMARK VINA RESULT:    -5.240      0.000      0.000
REMARK INTER + INTRA:          -5.894
REMARK INTER:                  -5.853
REMARK INTRA:                  -0.041
REMARK UNBOUND:                -0.041
REMARK SMILES O=C([O-])c1ccc(O)c(O)c1
REMARK SMILES IDX 4 1 11 2 5 3 9 4 6 5 7 6 2 7 1 8 3 9 10 10 8 12
REMARK H PARENT 10 11 8 13
REMARK Flexibility Score: inf
ROOT
ATOM      1  C   UNL     1      10.624 -27.268 -10.744  1.00  0.00     0.001 A 
ATOM      2  C   UNL     1      11.300 -26.354  -9.917  1.00  0.00     0.060 A 
ATOM      3  C   UNL     1       9.910 -26.783 -11.850  1.00  0.00     0.014 A 
ATOM      4  C   UNL     1      11.268 -24.979 -10.182  1.00  0.00     0.158 A 
ATOM      5  C   UNL     1       9.872 -25.414 -12.123  1.00  0.00     0.051 A 
ATOM      6  C   UNL     1      10.543 -24.503 -11.301  1.00  0.00     0.157 A 
ENDROOT
BRANCH   1   7
ATOM      7  C   UNL     1      10.663 -28.719 -10.458  1.00  0.00     0.072 C 
ATOM      8  O   UNL     1      10.705 -29.137  -9.269  1.00  0.00    -0.545 OA
ATOM      9  O   UNL     1      10.650 -29.643 -11.496  1.00  0.00    -0.545 OA
ENDBRANCH   1   7
BRANCH   4  10
ATOM     10  O   UNL     1      11.962 -24.131  -9.317  1.00  0.00    -0.504 OA
ATOM     11  H   UNL     1      12.340 -24.421  -8.426  1.00  0.00     0.293 HD
ENDBRANCH   4  10
BRANCH   6  12
ATOM     12  O   UNL     1      10.466 -23.148 -11.629  1.00  0.00    -0.504 OA
ATOM     13  H   UNL     1      10.249 -22.802 -12.553  1.00  0.00     0.293 HD
ENDBRANCH   6  12
TORSDOF 3
ENDMDL
MODEL 2
REMARK VINA RESULT:    -4.910     12.879     14.046
REMARK INTER + INTRA:          -5.525
REMARK INTER:                  -5.489
REMARK INTRA:                  -0.036
REMARK UNBOUND:                -0.041
REMARK SMILES O=C([O-])c1ccc(O)c(O)c1
REMARK SMILES IDX 4 1 11 2 5 3 9 4 6 5 7 6 2 7 1 8 3 9 10 10 8 12
REMARK H PARENT 10 11 8 13
REMARK Flexibility Score: inf
ROOT
ATOM      1  C   UNL     1      16.266 -32.789 -20.880  1.00  0.00     0.001 A 
ATOM      2  C   UNL     1      17.319 -33.655 -21.223  1.00  0.00     0.060 A 
ATOM      3  C   UNL     1      16.482 -31.403 -20.938  1.00  0.00     0.014 A 
ATOM      4  C   UNL     1      18.568 -33.154 -21.616  1.00  0.00     0.158 A 
ATOM      5  C   UNL     1      17.722 -30.895 -21.329  1.00  0.00     0.051 A 
ATOM      6  C   UNL     1      18.771 -31.755 -21.669  1.00  0.00     0.157 A 
ENDROOT
BRANCH   1   7
ATOM      7  C   UNL     1      14.951 -33.324 -20.466  1.00  0.00     0.072 C 
ATOM      8  O   UNL     1      14.102 -33.677 -21.328  1.00  0.00    -0.545 OA
ATOM      9  O   UNL     1      14.633 -33.446 -19.118  1.00  0.00    -0.545 OA
ENDBRANCH   1   7
BRANCH   4  10
ATOM     10  O   UNL     1      19.566 -34.075 -21.941  1.00  0.00    -0.504 OA
ATOM     11  H   UNL     1      20.032 -34.663 -21.266  1.00  0.00     0.293 HD
ENDBRANCH   4  10
BRANCH   6  12
ATOM     12  O   UNL     1      19.986 -31.183 -22.052  1.00  0.00    -0.504 OA
ATOM     13  H   UNL     1      20.527 -30.563 -21.467  1.00  0.00     0.293 HD
ENDBRANCH   6  12
TORSDOF 3
ENDMDL
MODEL 3
REMARK VINA RESULT:    -4.866      2.890      3.373
REMARK INTER + INTRA:          -5.476
REMARK INTER:                  -5.440
REMARK INTRA:                  -0.036
REMARK UNBOUND:                -0.041
REMARK SMILES O=C([O-])c1ccc(O)c(O)c1
REMARK SMILES IDX 4 1 11 2 5 3 9 4 6 5 7 6 2 7 1 8 3 9 10 10 8 12
REMARK H PARENT 10 11 8 13
REMARK Flexibility Score: inf
ROOT
ATOM      1  C   UNL     1       9.399 -25.809 -10.462  1.00  0.00     0.001 A 
ATOM      2  C   UNL     1       8.466 -25.438  -9.478  1.00  0.00     0.060 A 
ATOM      3  C   UNL     1       9.143 -25.474 -11.801  1.00  0.00     0.014 A 
ATOM      4  C   UNL     1       7.296 -24.745  -9.816  1.00  0.00     0.158 A 
ATOM      5  C   UNL     1       7.981 -24.783 -12.147  1.00  0.00     0.051 A 
ATOM      6  C   UNL     1       7.051 -24.413 -11.170  1.00  0.00     0.157 A 
ENDROOT
BRANCH   1   7
ATOM      7  C   UNL     1      10.632 -26.542 -10.097  1.00  0.00     0.072 C 
ATOM      8  O   UNL     1      10.629 -27.800 -10.016  1.00  0.00    -0.545 OA
ATOM      9  O   UNL     1      11.811 -25.852  -9.841  1.00  0.00    -0.545 OA
ENDBRANCH   1   7
BRANCH   4  10
ATOM     10  O   UNL     1       6.416 -24.409  -8.786  1.00  0.00    -0.504 OA
ATOM     11  H   UNL     1       5.999 -25.083  -8.159  1.00  0.00     0.293 HD
ENDBRANCH   4  10
BRANCH   6  12
ATOM     12  O   UNL     1       5.909 -23.723 -11.583  1.00  0.00    -0.504 OA
ATOM     13  H   UNL     1       5.759 -22.737 -11.429  1.00  0.00     0.293 HD
ENDBRANCH   6  12
TORSDOF 3
ENDMDL
MODEL 4
REMARK VINA RESULT:    -4.750      2.697      3.865
REMARK INTER + INTRA:          -5.347
REMARK INTER:                  -5.303
REMARK INTRA:                  -0.044
REMARK UNBOUND:                -0.041
REMARK SMILES O=C([O-])c1ccc(O)c(O)c1
REMARK SMILES IDX 4 1 11 2 5 3 9 4 6 5 7 6 2 7 1 8 3 9 10 10 8 12
REMARK H PARENT 10 11 8 13
REMARK Flexibility Score: inf
ROOT
ATOM      1  C   UNL     1       8.641 -24.934 -10.230  1.00  0.00     0.001 A 
ATOM      2  C   UNL     1       9.092 -24.033 -11.210  1.00  0.00     0.060 A 
ATOM      3  C   UNL     1       9.530 -25.903  -9.738  1.00  0.00     0.014 A 
ATOM      4  C   UNL     1      10.405 -24.090 -11.695  1.00  0.00     0.158 A 
ATOM      5  C   UNL     1      10.840 -25.967 -10.215  1.00  0.00     0.051 A 
ATOM      6  C   UNL     1      11.291 -25.071 -11.190  1.00  0.00     0.157 A 
ENDROOT
BRANCH   1   7
ATOM      7  C   UNL     1       7.252 -24.868  -9.722  1.00  0.00     0.072 C 
ATOM      8  O   UNL     1       6.938 -25.434  -8.641  1.00  0.00    -0.545 OA
ATOM      9  O   UNL     1       6.275 -24.178 -10.430  1.00  0.00    -0.545 OA
ENDBRANCH   1   7
BRANCH   4  10
ATOM     10  O   UNL     1      10.782 -23.162 -12.668  1.00  0.00    -0.504 OA
ATOM     11  H   UNL     1      11.308 -22.322 -12.472  1.00  0.00     0.293 HD
ENDBRANCH   4  10
BRANCH   6  12
ATOM     12  O   UNL     1      12.613 -25.190 -11.624  1.00  0.00    -0.504 OA
ATOM     13  H   UNL     1      13.397 -24.739 -11.175  1.00  0.00     0.293 HD
ENDBRANCH   6  12
TORSDOF 3
ENDMDL
MODEL 5
REMARK VINA RESULT:    -4.653      2.727      3.592
REMARK INTER + INTRA:          -5.238
REMARK INTER:                  -5.195
REMARK INTRA:                  -0.044
REMARK UNBOUND:                -0.041
REMARK SMILES O=C([O-])c1ccc(O)c(O)c1
REMARK SMILES IDX 4 1 11 2 5 3 9 4 6 5 7 6 2 7 1 8 3 9 10 10 8 12
REMARK H PARENT 10 11 8 13
REMARK Flexibility Score: inf
ROOT
ATOM      1  C   UNL     1       8.534 -24.877 -10.417  1.00  0.00     0.001 A 
ATOM      2  C   UNL     1       9.695 -25.255  -9.719  1.00  0.00     0.060 A 
ATOM      3  C   UNL     1       8.646 -24.498 -11.764  1.00  0.00     0.014 A 
ATOM      4  C   UNL     1      10.947 -25.257 -10.347  1.00  0.00     0.158 A 
ATOM      5  C   UNL     1       9.890 -24.497 -12.398  1.00  0.00     0.051 A 
ATOM      6  C   UNL     1      11.046 -24.872 -11.705  1.00  0.00     0.157 A 
ENDROOT
BRANCH   1   7
ATOM      7  C   UNL     1       7.215 -24.877  -9.748  1.00  0.00     0.072 C 
ATOM      8  O   UNL     1       6.238 -24.266 -10.258  1.00  0.00    -0.545 OA
ATOM      9  O   UNL     1       7.034 -25.553  -8.547  1.00  0.00    -0.545 OA
ENDBRANCH   1   7
BRANCH   4  10
ATOM     10  O   UNL     1      12.055 -25.644  -9.590  1.00  0.00    -0.504 OA
ATOM     11  H   UNL     1      12.841 -25.041  -9.391  1.00  0.00     0.293 HD
ENDBRANCH   4  10
BRANCH   6  12
ATOM     12  O   UNL     1      12.258 -24.849 -12.397  1.00  0.00    -0.504 OA
ATOM     13  H   UNL     1      12.506 -25.507 -13.122  1.00  0.00     0.293 HD
ENDBRANCH   6  12
TORSDOF 3
ENDMDL
MODEL 6
REMARK VINA RESULT:    -4.600      1.409      2.707
REMARK INTER + INTRA:          -5.179
REMARK INTER:                  -5.136
REMARK INTRA:                  -0.043
REMARK UNBOUND:                -0.041
REMARK SMILES O=C([O-])c1ccc(O)c(O)c1
REMARK SMILES IDX 4 1 11 2 5 3 9 4 6 5 7 6 2 7 1 8 3 9 10 10 8 12
REMARK H PARENT 10 11 8 13
REMARK Flexibility Score: inf
ROOT
ATOM      1  C   UNL     1      10.110 -26.732 -12.022  1.00  0.00     0.001 A 
ATOM      2  C   UNL     1      10.024 -25.344 -12.228  1.00  0.00     0.060 A 
ATOM      3  C   UNL     1      10.800 -27.210 -10.896  1.00  0.00     0.014 A 
ATOM      4  C   UNL     1      10.613 -24.443 -11.331  1.00  0.00     0.158 A 
ATOM      5  C   UNL     1      11.389 -26.319  -9.997  1.00  0.00     0.051 A 
ATOM      6  C   UNL     1      11.306 -24.937 -10.201  1.00  0.00     0.157 A 
ENDROOT
BRANCH   1   7
ATOM      7  C   UNL     1       9.485 -27.678 -12.972  1.00  0.00     0.072 C 
ATOM      8  O   UNL     1       9.926 -28.853 -13.089  1.00  0.00    -0.545 OA
ATOM      9  O   UNL     1       8.402 -27.284 -13.749  1.00  0.00    -0.545 OA
ENDBRANCH   1   7
BRANCH   4  10
ATOM     10  O   UNL     1      10.487 -23.079 -11.601  1.00  0.00    -0.504 OA
ATOM     11  H   UNL     1      11.133 -22.555 -12.175  1.00  0.00     0.293 HD
ENDBRANCH   4  10
BRANCH   6  12
ATOM     12  O   UNL     1      11.917 -24.102  -9.264  1.00  0.00    -0.504 OA
ATOM     13  H   UNL     1      12.905 -23.891  -9.256  1.00  0.00     0.293 HD
ENDBRANCH   6  12
TORSDOF 3
ENDMDL
MODEL 7
REMARK VINA RESULT:    -4.510      2.659      3.667
REMARK INTER + INTRA:          -5.078
REMARK INTER:                  -5.039
REMARK INTRA:                  -0.039
REMARK UNBOUND:                -0.041
REMARK SMILES O=C([O-])c1ccc(O)c(O)c1
REMARK SMILES IDX 4 1 11 2 5 3 9 4 6 5 7 6 2 7 1 8 3 9 10 10 8 12
REMARK H PARENT 10 11 8 13
REMARK Flexibility Score: inf
ROOT
ATOM      1  C   UNL     1       9.927 -25.544 -10.948  1.00  0.00     0.001 A 
ATOM      2  C   UNL     1       9.304 -25.157 -12.147  1.00  0.00     0.060 A 
ATOM      3  C   UNL     1       9.195 -25.482  -9.752  1.00  0.00     0.014 A 
ATOM      4  C   UNL     1       7.974 -24.715 -12.161  1.00  0.00     0.158 A 
ATOM      5  C   UNL     1       7.870 -25.043  -9.756  1.00  0.00     0.051 A 
ATOM      6  C   UNL     1       7.248 -24.656 -10.947  1.00  0.00     0.157 A 
ENDROOT
BRANCH   1   7
ATOM      7  C   UNL     1      11.331 -26.011 -10.941  1.00  0.00     0.072 C 
ATOM      8  O   UNL     1      12.154 -25.551 -10.105  1.00  0.00    -0.545 OA
ATOM      9  O   UNL     1      11.761 -26.964 -11.856  1.00  0.00    -0.545 OA
ENDBRANCH   1   7
BRANCH   4  10
ATOM     10  O   UNL     1       7.422 -24.347 -13.389  1.00  0.00    -0.504 OA
ATOM     11  H   UNL     1       6.727 -24.891 -13.881  1.00  0.00     0.293 HD
ENDBRANCH   4  10
BRANCH   6  12
ATOM     12  O   UNL     1       5.921 -24.227 -10.882  1.00  0.00    -0.504 OA
ATOM     13  H   UNL     1       5.267 -24.520 -10.171  1.00  0.00     0.293 HD
ENDBRANCH   6  12
TORSDOF 3
ENDMDL
MODEL 8
REMARK VINA RESULT:    -4.487     12.557     13.810
REMARK INTER + INTRA:          -5.053
REMARK INTER:                  -5.017
REMARK INTRA:                  -0.036
REMARK UNBOUND:                -0.041
REMARK SMILES O=C([O-])c1ccc(O)c(O)c1
REMARK SMILES IDX 4 1 11 2 5 3 9 4 6 5 7 6 2 7 1 8 3 9 10 10 8 12
REMARK H PARENT 10 11 8 13
REMARK Flexibility Score: inf
ROOT
ATOM      1  C   UNL     1      16.352 -31.506 -20.706  1.00  0.00     0.001 A 
ATOM      2  C   UNL     1      17.584 -30.983 -21.135  1.00  0.00     0.060 A 
ATOM      3  C   UNL     1      16.179 -32.899 -20.675  1.00  0.00     0.014 A 
ATOM      4  C   UNL     1      18.631 -31.829 -21.527  1.00  0.00     0.158 A 
ATOM      5  C   UNL     1      17.216 -33.749 -21.063  1.00  0.00     0.051 A 
ATOM      6  C   UNL     1      18.443 -33.231 -21.491  1.00  0.00     0.157 A 
ENDROOT
BRANCH   1   7
ATOM      7  C   UNL     1      15.251 -30.607 -20.293  1.00  0.00     0.072 C 
ATOM      8  O   UNL     1      14.512 -30.062 -21.156  1.00  0.00    -0.545 OA
ATOM      9  O   UNL     1      15.016 -30.354 -18.947  1.00  0.00    -0.545 OA
ENDBRANCH   1   7
BRANCH   4  10
ATOM     10  O   UNL     1      19.826 -31.238 -21.941  1.00  0.00    -0.504 OA
ATOM     11  H   UNL     1      20.346 -30.571 -21.389  1.00  0.00     0.293 HD
ENDBRANCH   4  10
BRANCH   6  12
ATOM     12  O   UNL     1      19.439 -34.135 -21.866  1.00  0.00    -0.504 OA
ATOM     13  H   UNL     1      20.301 -33.870 -22.319  1.00  0.00     0.293 HD
ENDBRANCH   6  12
TORSDOF 3
ENDMDL
MODEL 9
REMARK VINA RESULT:    -4.456     12.350     13.276
REMARK INTER + INTRA:          -5.018
REMARK INTER:                  -4.979
REMARK INTRA:                  -0.039
REMARK UNBOUND:                -0.041
REMARK SMILES O=C([O-])c1ccc(O)c(O)c1
REMARK SMILES IDX 4 1 11 2 5 3 9 4 6 5 7 6 2 7 1 8 3 9 10 10 8 12
REMARK H PARENT 10 11 8 13
REMARK Flexibility Score: inf
ROOT
ATOM      1  C   UNL     1      13.375 -38.564  -8.347  1.00  0.00     0.001 A 
ATOM      2  C   UNL     1      13.381 -39.335  -7.173  1.00  0.00     0.060 A 
ATOM      3  C   UNL     1      14.123 -37.376  -8.384  1.00  0.00     0.014 A 
ATOM      4  C   UNL     1      14.117 -38.936  -6.050  1.00  0.00     0.158 A 
ATOM      5  C   UNL     1      14.860 -36.971  -7.270  1.00  0.00     0.051 A 
ATOM      6  C   UNL     1      14.867 -37.736  -6.099  1.00  0.00     0.157 A 
ENDROOT
BRANCH   1   7
ATOM      7  C   UNL     1      12.595 -38.992  -9.530  1.00  0.00     0.072 C 
ATOM      8  O   UNL     1      13.137 -39.058 -10.665  1.00  0.00    -0.545 OA
ATOM      9  O   UNL     1      11.252 -39.327  -9.404  1.00  0.00    -0.545 OA
ENDBRANCH   1   7
BRANCH   4  10
ATOM     10  O   UNL     1      14.076 -39.753  -4.918  1.00  0.00    -0.504 OA
ATOM     11  H   UNL     1      14.676 -40.553  -4.777  1.00  0.00     0.293 HD
ENDBRANCH   4  10
BRANCH   6  12
ATOM     12  O   UNL     1      15.625 -37.275  -5.022  1.00  0.00    -0.504 OA
ATOM     13  H   UNL     1      16.206 -36.449  -5.052  1.00  0.00     0.293 HD
ENDBRANCH   6  12
TORSDOF 3
ENDMDL
