MODEL 1
REMARK VINA RESULT:    -3.461      0.000      0.000
REMARK INTER + INTRA:          -8.342
REMARK INTER:                  -6.496
REMARK INTRA:                  -1.846
REMARK UNBOUND:                -1.846
REMARK SMILES O=C([O-])CCCCCCCCCCCCCCC(=O)[O-]
REMARK SMILES IDX 10 1 9 2 8 3 7 4 6 5 5 6 4 7 2 8 1 9 3 10 11 11 12 12 13 13
REMARK SMILES IDX 14 14 15 15 16 16 17 17 18 18 19 19 20 20
REMARK H PARENT
REMARK Flexibility Score: inf
ROOT
ATOM      1  C   UNL     1      56.752  26.844  51.833  1.00  0.00     0.000 C 
ENDROOT
BRANCH   1   2
ATOM      2  C   UNL     1      56.558  26.306  50.404  1.00  0.00     0.000 C 
BRANCH   2   3
ATOM      3  C   UNL     1      55.090  26.133  49.967  1.00  0.00     0.000 C 
BRANCH   3   4
ATOM      4  C   UNL     1      54.054  26.872  50.839  1.00  0.00     0.000 C 
BRANCH   4   5
ATOM      5  C   UNL     1      53.415  28.108  50.181  1.00  0.00     0.000 C 
BRANCH   5   6
ATOM      6  C   UNL     1      54.079  29.425  50.614  1.00  0.00     0.006 C 
BRANCH   6   7
ATOM      7  C   UNL     1      53.341  30.088  51.786  1.00  0.00     0.053 C 
BRANCH   7   8
ATOM      8  C   UNL     1      54.275  30.457  52.897  1.00  0.00     0.041 C 
ATOM      9  O   UNL     1      54.774  29.562  53.629  1.00  0.00    -0.550 OA
ATOM     10  O   UNL     1      54.570  31.791  53.145  1.00  0.00    -0.550 OA
ENDBRANCH   7   8
ENDBRANCH   6   7
ENDBRANCH   5   6
ENDBRANCH   4   5
ENDBRANCH   3   4
ENDBRANCH   2   3
ENDBRANCH   1   2
BRANCH   1  11
ATOM     11  C   UNL     1      57.510  28.179  51.869  1.00  0.00     0.000 C 
BRANCH  11  12
ATOM     12  C   UNL     1      57.581  28.810  50.473  1.00  0.00     0.000 C 
BRANCH  12  13
ATOM     13  C   UNL     1      59.030  29.149  50.096  1.00  0.00     0.000 C 
BRANCH  13  14
ATOM     14  C   UNL     1      59.834  27.916  49.644  1.00  0.00     0.000 C 
BRANCH  14  15
ATOM     15  C   UNL     1      60.783  27.329  50.708  1.00  0.00     0.000 C 
BRANCH  15  16
ATOM     16  C   UNL     1      61.207  25.869  50.470  1.00  0.00     0.006 C 
BRANCH  16  17
ATOM     17  C   UNL     1      60.079  24.868  50.753  1.00  0.00     0.053 C 
BRANCH  17  18
ATOM     18  C   UNL     1      60.634  23.485  50.899  1.00  0.00     0.041 C 
ATOM     19  O   UNL     1      60.693  22.943  52.034  1.00  0.00    -0.550 OA
ATOM     20  O   UNL     1      61.039  22.778  49.775  1.00  0.00    -0.550 OA
ENDBRANCH  17  18
ENDBRANCH  16  17
ENDBRANCH  15  16
ENDBRANCH  14  15
ENDBRANCH  13  14
ENDBRANCH  12  13
ENDBRANCH  11  12
ENDBRANCH   1  11
TORSDOF 15
ENDMDL
MODEL 2
REMARK VINA RESULT:    -3.372     12.334     15.249
REMARK INTER + INTRA:          -8.175
REMARK INTER:                  -6.743
REMARK INTRA:                  -1.432
REMARK UNBOUND:                -1.846
REMARK SMILES O=C([O-])CCCCCCCCCCCCCCC(=O)[O-]
REMARK SMILES IDX 10 1 9 2 8 3 7 4 6 5 5 6 4 7 2 8 1 9 3 10 11 11 12 12 13 13
REMARK SMILES IDX 14 14 15 15 16 16 17 17 18 18 19 19 20 20
REMARK H PARENT
REMARK Flexibility Score: inf
ROOT
ATOM      1  C   UNL     1      64.127  29.303  59.232  1.00  0.00     0.000 C 
ENDROOT
BRANCH   1   2
ATOM      2  C   UNL     1      65.239  29.914  60.103  1.00  0.00     0.000 C 
BRANCH   2   3
ATOM      3  C   UNL     1      66.604  29.205  60.008  1.00  0.00     0.000 C 
BRANCH   3   4
ATOM      4  C   UNL     1      66.812  28.045  61.003  1.00  0.00     0.000 C 
BRANCH   4   5
ATOM      5  C   UNL     1      68.102  28.129  61.840  1.00  0.00     0.000 C 
BRANCH   5   6
ATOM      6  C   UNL     1      69.361  28.315  60.977  1.00  0.00     0.006 C 
BRANCH   6   7
ATOM      7  C   UNL     1      70.128  29.595  61.341  1.00  0.00     0.053 C 
BRANCH   7   8
ATOM      8  C   UNL     1      71.289  29.829  60.425  1.00  0.00     0.041 C 
ATOM      9  O   UNL     1      72.061  28.881  60.125  1.00  0.00    -0.550 OA
ATOM     10  O   UNL     1      71.537  31.102  59.927  1.00  0.00    -0.550 OA
ENDBRANCH   7   8
ENDBRANCH   6   7
ENDBRANCH   5   6
ENDBRANCH   4   5
ENDBRANCH   3   4
ENDBRANCH   2   3
ENDBRANCH   1   2
BRANCH   1  11
ATOM     11  C   UNL     1      62.882  28.911  60.042  1.00  0.00     0.000 C 
BRANCH  11  12
ATOM     12  C   UNL     1      62.815  29.692  61.359  1.00  0.00     0.000 C 
BRANCH  12  13
ATOM     13  C   UNL     1      61.450  30.376  61.525  1.00  0.00     0.000 C 
BRANCH  13  14
ATOM     14  C   UNL     1      61.110  31.322  60.359  1.00  0.00     0.000 C 
BRANCH  14  15
ATOM     15  C   UNL     1      61.601  32.774  60.530  1.00  0.00     0.000 C 
BRANCH  15  16
ATOM     16  C   UNL     1      62.914  33.110  59.801  1.00  0.00     0.006 C 
BRANCH  16  17
ATOM     17  C   UNL     1      64.098  33.288  60.760  1.00  0.00     0.053 C 
BRANCH  17  18
ATOM     18  C   UNL     1      64.554  34.713  60.766  1.00  0.00     0.041 C 
ATOM     19  O   UNL     1      64.826  35.297  59.684  1.00  0.00    -0.550 OA
ATOM     20  O   UNL     1      64.631  35.412  61.964  1.00  0.00    -0.550 OA
ENDBRANCH  17  18
ENDBRANCH  16  17
ENDBRANCH  15  16
ENDBRANCH  14  15
ENDBRANCH  13  14
ENDBRANCH  12  13
ENDBRANCH  11  12
ENDBRANCH   1  11
TORSDOF 15
ENDMDL
MODEL 3
REMARK VINA RESULT:    -3.365     10.637     12.258
REMARK INTER + INTRA:          -8.161
REMARK INTER:                  -5.943
REMARK INTRA:                  -2.218
REMARK UNBOUND:                -1.846
REMARK SMILES O=C([O-])CCCCCCCCCCCCCCC(=O)[O-]
REMARK SMILES IDX 10 1 9 2 8 3 7 4 6 5 5 6 4 7 2 8 1 9 3 10 11 11 12 12 13 13
REMARK SMILES IDX 14 14 15 15 16 16 17 17 18 18 19 19 20 20
REMARK H PARENT
REMARK Flexibility Score: inf
ROOT
ATOM      1  C   UNL     1      61.334  34.010  57.746  1.00  0.00     0.000 C 
ENDROOT
BRANCH   1   2
ATOM      2  C   UNL     1      60.404  33.111  58.580  1.00  0.00     0.000 C 
BRANCH   2   3
ATOM      3  C   UNL     1      61.077  31.867  59.191  1.00  0.00     0.000 C 
BRANCH   3   4
ATOM      4  C   UNL     1      61.044  31.793  60.732  1.00  0.00     0.000 C 
BRANCH   4   5
ATOM      5  C   UNL     1      60.752  30.396  61.310  1.00  0.00     0.000 C 
BRANCH   5   6
ATOM      6  C   UNL     1      62.031  29.604  61.629  1.00  0.00     0.006 C 
BRANCH   6   7
ATOM      7  C   UNL     1      62.408  28.634  60.500  1.00  0.00     0.053 C 
BRANCH   7   8
ATOM      8  C   UNL     1      62.681  27.255  61.016  1.00  0.00     0.041 C 
ATOM      9  O   UNL     1      63.710  26.632  60.645  1.00  0.00    -0.550 OA
ATOM     10  O   UNL     1      61.783  26.646  61.883  1.00  0.00    -0.550 OA
ENDBRANCH   7   8
ENDBRANCH   6   7
ENDBRANCH   5   6
ENDBRANCH   4   5
ENDBRANCH   3   4
ENDBRANCH   2   3
ENDBRANCH   1   2
BRANCH   1  11
ATOM     11  C   UNL     1      61.687  35.325  58.456  1.00  0.00     0.000 C 
BRANCH  11  12
ATOM     12  C   UNL     1      60.951  35.442  59.796  1.00  0.00     0.000 C 
BRANCH  12  13
ATOM     13  C   UNL     1      61.943  35.596  60.957  1.00  0.00     0.000 C 
BRANCH  13  14
ATOM     14  C   UNL     1      63.404  35.354  60.533  1.00  0.00     0.000 C 
BRANCH  14  15
ATOM     15  C   UNL     1      63.972  33.969  60.905  1.00  0.00     0.000 C 
BRANCH  15  16
ATOM     16  C   UNL     1      64.470  33.128  59.716  1.00  0.00     0.006 C 
BRANCH  16  17
ATOM     17  C   UNL     1      64.636  31.644  60.066  1.00  0.00     0.053 C 
BRANCH  17  18
ATOM     18  C   UNL     1      65.018  30.861  58.849  1.00  0.00     0.041 C 
ATOM     19  O   UNL     1      64.139  30.517  58.015  1.00  0.00    -0.550 OA
ATOM     20  O   UNL     1      66.351  30.554  58.611  1.00  0.00    -0.550 OA
ENDBRANCH  17  18
ENDBRANCH  16  17
ENDBRANCH  15  16
ENDBRANCH  14  15
ENDBRANCH  13  14
ENDBRANCH  12  13
ENDBRANCH  11  12
ENDBRANCH   1  11
TORSDOF 15
ENDMDL
MODEL 4
REMARK VINA RESULT:    -3.339      2.227      3.777
REMARK INTER + INTRA:          -8.113
REMARK INTER:                  -5.572
REMARK INTRA:                  -2.540
REMARK UNBOUND:                -1.846
REMARK SMILES O=C([O-])CCCCCCCCCCCCCCC(=O)[O-]
REMARK SMILES IDX 10 1 9 2 8 3 7 4 6 5 5 6 4 7 2 8 1 9 3 10 11 11 12 12 13 13
REMARK SMILES IDX 14 14 15 15 16 16 17 17 18 18 19 19 20 20
REMARK H PARENT
REMARK Flexibility Score: inf
ROOT
ATOM      1  C   UNL     1      59.450  25.433  50.827  1.00  0.00     0.000 C 
ENDROOT
BRANCH   1   2
ATOM      2  C   UNL     1      58.544  25.131  52.033  1.00  0.00     0.000 C 
BRANCH   2   3
ATOM      3  C   UNL     1      57.066  25.533  51.854  1.00  0.00     0.000 C 
BRANCH   3   4
ATOM      4  C   UNL     1      56.758  26.352  50.584  1.00  0.00     0.000 C 
BRANCH   4   5
ATOM      5  C   UNL     1      55.294  26.293  50.111  1.00  0.00     0.000 C 
BRANCH   5   6
ATOM      6  C   UNL     1      54.558  27.632  50.281  1.00  0.00     0.006 C 
BRANCH   6   7
ATOM      7  C   UNL     1      55.483  28.738  50.808  1.00  0.00     0.053 C 
BRANCH   7   8
ATOM      8  C   UNL     1      54.849  29.513  51.921  1.00  0.00     0.041 C 
ATOM      9  O   UNL     1      55.068  29.195  53.120  1.00  0.00    -0.550 OA
ATOM     10  O   UNL     1      53.992  30.569  51.635  1.00  0.00    -0.550 OA
ENDBRANCH   7   8
ENDBRANCH   6   7
ENDBRANCH   5   6
ENDBRANCH   4   5
ENDBRANCH   3   4
ENDBRANCH   2   3
ENDBRANCH   1   2
BRANCH   1  11
ATOM     11  C   UNL     1      60.796  26.053  51.232  1.00  0.00     0.000 C 
BRANCH  11  12
ATOM     12  C   UNL     1      61.057  27.352  50.461  1.00  0.00     0.000 C 
BRANCH  12  13
ATOM     13  C   UNL     1      59.878  27.693  49.540  1.00  0.00     0.000 C 
BRANCH  13  14
ATOM     14  C   UNL     1      59.215  29.037  49.889  1.00  0.00     0.000 C 
BRANCH  14  15
ATOM     15  C   UNL     1      59.714  29.694  51.193  1.00  0.00     0.000 C 
BRANCH  15  16
ATOM     16  C   UNL     1      58.652  29.844  52.296  1.00  0.00     0.006 C 
BRANCH  16  17
ATOM     17  C   UNL     1      58.582  28.624  53.223  1.00  0.00     0.053 C 
BRANCH  17  18
ATOM     18  C   UNL     1      59.773  28.588  54.129  1.00  0.00     0.041 C 
ATOM     19  O   UNL     1      60.391  27.507  54.321  1.00  0.00    -0.550 OA
ATOM     20  O   UNL     1      60.229  29.758  54.722  1.00  0.00    -0.550 OA
ENDBRANCH  17  18
ENDBRANCH  16  17
ENDBRANCH  15  16
ENDBRANCH  14  15
ENDBRANCH  13  14
ENDBRANCH  12  13
ENDBRANCH  11  12
ENDBRANCH   1  11
TORSDOF 15
ENDMDL
MODEL 5
REMARK VINA RESULT:    -3.336      2.842      4.946
REMARK INTER + INTRA:          -8.108
REMARK INTER:                  -6.983
REMARK INTRA:                  -1.124
REMARK UNBOUND:                -1.846
REMARK SMILES O=C([O-])CCCCCCCCCCCCCCC(=O)[O-]
REMARK SMILES IDX 10 1 9 2 8 3 7 4 6 5 5 6 4 7 2 8 1 9 3 10 11 11 12 12 13 13
REMARK SMILES IDX 14 14 15 15 16 16 17 17 18 18 19 19 20 20
REMARK H PARENT
REMARK Flexibility Score: inf
ROOT
ATOM      1  C   UNL     1      60.622  26.179  50.766  1.00  0.00     0.000 C 
ENDROOT
BRANCH   1   2
ATOM      2  C   UNL     1      59.545  26.780  49.846  1.00  0.00     0.000 C 
BRANCH   2   3
ATOM      3  C   UNL     1      59.688  28.291  49.575  1.00  0.00     0.000 C 
BRANCH   3   4
ATOM      4  C   UNL     1      58.568  29.172  50.164  1.00  0.00     0.000 C 
BRANCH   4   5
ATOM      5  C   UNL     1      57.680  28.480  51.214  1.00  0.00     0.000 C 
BRANCH   5   6
ATOM      6  C   UNL     1      56.216  28.349  50.763  1.00  0.00     0.006 C 
BRANCH   6   7
ATOM      7  C   UNL     1      55.819  26.889  50.502  1.00  0.00     0.053 C 
BRANCH   7   8
ATOM      8  C   UNL     1      54.661  26.464  51.352  1.00  0.00     0.041 C 
ATOM      9  O   UNL     1      54.213  25.291  51.272  1.00  0.00    -0.550 OA
ATOM     10  O   UNL     1      54.058  27.373  52.212  1.00  0.00    -0.550 OA
ENDBRANCH   7   8
ENDBRANCH   6   7
ENDBRANCH   5   6
ENDBRANCH   4   5
ENDBRANCH   3   4
ENDBRANCH   2   3
ENDBRANCH   1   2
BRANCH   1  11
ATOM     11  C   UNL     1      60.049  25.190  51.790  1.00  0.00     0.000 C 
BRANCH  11  12
ATOM     12  C   UNL     1      59.958  23.777  51.200  1.00  0.00     0.000 C 
BRANCH  12  13
ATOM     13  C   UNL     1      61.174  23.472  50.315  1.00  0.00     0.000 C 
BRANCH  13  14
ATOM     14  C   UNL     1      61.063  22.117  49.593  1.00  0.00     0.000 C 
BRANCH  14  15
ATOM     15  C   UNL     1      61.975  21.003  50.148  1.00  0.00     0.000 C 
BRANCH  15  16
ATOM     16  C   UNL     1      61.245  19.724  50.595  1.00  0.00     0.006 C 
BRANCH  16  17
ATOM     17  C   UNL     1      59.741  19.940  50.804  1.00  0.00     0.053 C 
BRANCH  17  18
ATOM     18  C   UNL     1      58.969  18.765  50.290  1.00  0.00     0.041 C 
ATOM     19  O   UNL     1      57.724  18.699  50.465  1.00  0.00    -0.550 OA
ATOM     20  O   UNL     1      59.618  17.767  49.575  1.00  0.00    -0.550 OA
ENDBRANCH  17  18
ENDBRANCH  16  17
ENDBRANCH  15  16
ENDBRANCH  14  15
ENDBRANCH  13  14
ENDBRANCH  12  13
ENDBRANCH  11  12
ENDBRANCH   1  11
TORSDOF 15
ENDMDL
MODEL 6
REMARK VINA RESULT:    -3.285     10.517     12.014
REMARK INTER + INTRA:          -8.012
REMARK INTER:                  -5.802
REMARK INTRA:                  -2.210
REMARK UNBOUND:                -1.846
REMARK SMILES O=C([O-])CCCCCCCCCCCCCCC(=O)[O-]
REMARK SMILES IDX 10 1 9 2 8 3 7 4 6 5 5 6 4 7 2 8 1 9 3 10 11 11 12 12 13 13
REMARK SMILES IDX 14 14 15 15 16 16 17 17 18 18 19 19 20 20
REMARK H PARENT
REMARK Flexibility Score: inf
ROOT
ATOM      1  C   UNL     1      63.647  32.724  60.235  1.00  0.00     0.000 C 
ENDROOT
BRANCH   1   2
ATOM      2  C   UNL     1      64.298  34.118  60.193  1.00  0.00     0.000 C 
BRANCH   2   3
ATOM      3  C   UNL     1      63.859  35.075  61.318  1.00  0.00     0.000 C 
BRANCH   3   4
ATOM      4  C   UNL     1      62.856  36.168  60.897  1.00  0.00     0.000 C 
BRANCH   4   5
ATOM      5  C   UNL     1      61.383  35.722  60.868  1.00  0.00     0.000 C 
BRANCH   5   6
ATOM      6  C   UNL     1      60.642  36.191  59.605  1.00  0.00     0.006 C 
BRANCH   6   7
ATOM      7  C   UNL     1      61.348  35.740  58.319  1.00  0.00     0.053 C 
BRANCH   7   8
ATOM      8  C   UNL     1      60.390  35.141  57.337  1.00  0.00     0.041 C 
ATOM      9  O   UNL     1      59.363  34.534  57.742  1.00  0.00    -0.550 OA
ATOM     10  O   UNL     1      60.646  35.225  55.974  1.00  0.00    -0.550 OA
ENDBRANCH   7   8
ENDBRANCH   6   7
ENDBRANCH   5   6
ENDBRANCH   4   5
ENDBRANCH   3   4
ENDBRANCH   2   3
ENDBRANCH   1   2
BRANCH   1  11
ATOM     11  C   UNL     1      62.821  32.413  58.978  1.00  0.00     0.000 C 
BRANCH  11  12
ATOM     12  C   UNL     1      61.373  32.065  59.344  1.00  0.00     0.000 C 
BRANCH  12  13
ATOM     13  C   UNL     1      61.155  32.141  60.861  1.00  0.00     0.000 C 
BRANCH  13  14
ATOM     14  C   UNL     1      60.724  30.795  61.473  1.00  0.00     0.000 C 
BRANCH  14  15
ATOM     15  C   UNL     1      60.448  29.672  60.452  1.00  0.00     0.000 C 
BRANCH  15  16
ATOM     16  C   UNL     1      61.568  28.626  60.314  1.00  0.00     0.006 C 
BRANCH  16  17
ATOM     17  C   UNL     1      62.720  28.855  61.301  1.00  0.00     0.053 C 
BRANCH  17  18
ATOM     18  C   UNL     1      64.033  28.549  60.650  1.00  0.00     0.041 C 
ATOM     19  O   UNL     1      64.796  29.485  60.293  1.00  0.00    -0.550 OA
ATOM     20  O   UNL     1      64.434  27.231  60.482  1.00  0.00    -0.550 OA
ENDBRANCH  17  18
ENDBRANCH  16  17
ENDBRANCH  15  16
ENDBRANCH  14  15
ENDBRANCH  13  14
ENDBRANCH  12  13
ENDBRANCH  11  12
ENDBRANCH   1  11
TORSDOF 15
ENDMDL
MODEL 7
REMARK VINA RESULT:    -3.274      9.958     11.465
REMARK INTER + INTRA:          -7.991
REMARK INTER:                  -5.990
REMARK INTRA:                  -2.001
REMARK UNBOUND:                -1.846
REMARK SMILES O=C([O-])CCCCCCCCCCCCCCC(=O)[O-]
REMARK SMILES IDX 10 1 9 2 8 3 7 4 6 5 5 6 4 7 2 8 1 9 3 10 11 11 12 12 13 13
REMARK SMILES IDX 14 14 15 15 16 16 17 17 18 18 19 19 20 20
REMARK H PARENT
REMARK Flexibility Score: inf
ROOT
ATOM      1  C   UNL     1      63.436  35.459  60.328  1.00  0.00     0.000 C 
ENDROOT
BRANCH   1   2
ATOM      2  C   UNL     1      62.132  35.995  60.946  1.00  0.00     0.000 C 
BRANCH   2   3
ATOM      3  C   UNL     1      61.120  36.570  59.935  1.00  0.00     0.000 C 
BRANCH   3   4
ATOM      4  C   UNL     1      59.956  35.628  59.565  1.00  0.00     0.000 C 
BRANCH   4   5
ATOM      5  C   UNL     1      60.072  34.965  58.180  1.00  0.00     0.000 C 
BRANCH   5   6
ATOM      6  C   UNL     1      58.704  34.620  57.568  1.00  0.00     0.006 C 
BRANCH   6   7
ATOM      7  C   UNL     1      58.753  33.334  56.730  1.00  0.00     0.053 C 
BRANCH   7   8
ATOM      8  C   UNL     1      58.150  32.171  57.457  1.00  0.00     0.041 C 
ATOM      9  O   UNL     1      58.889  31.344  58.052  1.00  0.00    -0.550 OA
ATOM     10  O   UNL     1      56.774  31.984  57.450  1.00  0.00    -0.550 OA
ENDBRANCH   7   8
ENDBRANCH   6   7
ENDBRANCH   5   6
ENDBRANCH   4   5
ENDBRANCH   3   4
ENDBRANCH   2   3
ENDBRANCH   1   2
BRANCH   1  11
ATOM     11  C   UNL     1      64.160  34.457  61.239  1.00  0.00     0.000 C 
BRANCH  11  12
ATOM     12  C   UNL     1      64.046  33.031  60.689  1.00  0.00     0.000 C 
BRANCH  12  13
ATOM     13  C   UNL     1      63.336  33.021  59.328  1.00  0.00     0.000 C 
BRANCH  13  14
ATOM     14  C   UNL     1      62.050  32.175  59.330  1.00  0.00     0.000 C 
BRANCH  14  15
ATOM     15  C   UNL     1      61.220  32.250  60.628  1.00  0.00     0.000 C 
BRANCH  15  16
ATOM     16  C   UNL     1      60.790  30.890  61.207  1.00  0.00     0.006 C 
BRANCH  16  17
ATOM     17  C   UNL     1      61.982  29.988  61.554  1.00  0.00     0.053 C 
BRANCH  17  18
ATOM     18  C   UNL     1      61.852  28.665  60.866  1.00  0.00     0.041 C 
ATOM     19  O   UNL     1      61.967  27.596  61.522  1.00  0.00    -0.550 OA
ATOM     20  O   UNL     1      61.555  28.614  59.511  1.00  0.00    -0.550 OA
ENDBRANCH  17  18
ENDBRANCH  16  17
ENDBRANCH  15  16
ENDBRANCH  14  15
ENDBRANCH  13  14
ENDBRANCH  12  13
ENDBRANCH  11  12
ENDBRANCH   1  11
TORSDOF 15
ENDMDL
MODEL 8
REMARK VINA RESULT:    -3.270     11.072     13.191
REMARK INTER + INTRA:          -7.984
REMARK INTER:                  -6.006
REMARK INTRA:                  -1.978
REMARK UNBOUND:                -1.846
REMARK SMILES O=C([O-])CCCCCCCCCCCCCCC(=O)[O-]
REMARK SMILES IDX 10 1 9 2 8 3 7 4 6 5 5 6 4 7 2 8 1 9 3 10 11 11 12 12 13 13
REMARK SMILES IDX 14 14 15 15 16 16 17 17 18 18 19 19 20 20
REMARK H PARENT
REMARK Flexibility Score: inf
ROOT
ATOM      1  C   UNL     1      61.126  32.936  59.152  1.00  0.00     0.000 C 
ENDROOT
BRANCH   1   2
ATOM      2  C   UNL     1      61.543  32.462  60.556  1.00  0.00     0.000 C 
BRANCH   2   3
ATOM      3  C   UNL     1      60.827  31.190  61.053  1.00  0.00     0.000 C 
BRANCH   3   4
ATOM      4  C   UNL     1      61.755  30.086  61.599  1.00  0.00     0.000 C 
BRANCH   4   5
ATOM      5  C   UNL     1      63.249  30.276  61.282  1.00  0.00     0.000 C 
BRANCH   5   6
ATOM      6  C   UNL     1      63.713  29.447  60.073  1.00  0.00     0.006 C 
BRANCH   6   7
ATOM      7  C   UNL     1      62.837  28.205  59.854  1.00  0.00     0.053 C 
BRANCH   7   8
ATOM      8  C   UNL     1      63.400  26.997  60.537  1.00  0.00     0.041 C 
ATOM      9  O   UNL     1      64.581  26.630  60.304  1.00  0.00    -0.550 OA
ATOM     10  O   UNL     1      62.610  26.259  61.409  1.00  0.00    -0.550 OA
ENDBRANCH   7   8
ENDBRANCH   6   7
ENDBRANCH   5   6
ENDBRANCH   4   5
ENDBRANCH   3   4
ENDBRANCH   2   3
ENDBRANCH   1   2
BRANCH   1  11
ATOM     11  C   UNL     1      60.846  34.444  59.090  1.00  0.00     0.000 C 
BRANCH  11  12
ATOM     12  C   UNL     1      61.064  35.101  60.459  1.00  0.00     0.000 C 
BRANCH  12  13
ATOM     13  C   UNL     1      61.754  36.464  60.312  1.00  0.00     0.000 C 
BRANCH  13  14
ATOM     14  C   UNL     1      62.983  36.614  61.227  1.00  0.00     0.000 C 
BRANCH  14  15
ATOM     15  C   UNL     1      63.781  35.316  61.469  1.00  0.00     0.000 C 
BRANCH  15  16
ATOM     16  C   UNL     1      64.947  35.075  60.494  1.00  0.00     0.006 C 
BRANCH  16  17
ATOM     17  C   UNL     1      64.644  33.982  59.461  1.00  0.00     0.053 C 
BRANCH  17  18
ATOM     18  C   UNL     1      64.401  34.590  58.115  1.00  0.00     0.041 C 
ATOM     19  O   UNL     1      64.074  33.863  57.140  1.00  0.00    -0.550 OA
ATOM     20  O   UNL     1      64.487  35.967  57.949  1.00  0.00    -0.550 OA
ENDBRANCH  17  18
ENDBRANCH  16  17
ENDBRANCH  15  16
ENDBRANCH  14  15
ENDBRANCH  13  14
ENDBRANCH  12  13
ENDBRANCH  11  12
ENDBRANCH   1  11
TORSDOF 15
ENDMDL
MODEL 9
REMARK VINA RESULT:    -3.211      3.148      7.585
REMARK INTER + INTRA:          -7.872
REMARK INTER:                  -6.015
REMARK INTRA:                  -1.857
REMARK UNBOUND:                -1.846
REMARK SMILES O=C([O-])CCCCCCCCCCCCCCC(=O)[O-]
REMARK SMILES IDX 10 1 9 2 8 3 7 4 6 5 5 6 4 7 2 8 1 9 3 10 11 11 12 12 13 13
REMARK SMILES IDX 14 14 15 15 16 16 17 17 18 18 19 19 20 20
REMARK H PARENT
REMARK Flexibility Score: inf
ROOT
ATOM      1  C   UNL     1      58.699  29.342  50.987  1.00  0.00     0.000 C 
ENDROOT
BRANCH   1   2
ATOM      2  C   UNL     1      59.232  28.997  49.585  1.00  0.00     0.000 C 
BRANCH   2   3
ATOM      3  C   UNL     1      59.992  27.658  49.489  1.00  0.00     0.000 C 
BRANCH   3   4
ATOM      4  C   UNL     1      60.582  27.142  50.817  1.00  0.00     0.000 C 
BRANCH   4   5
ATOM      5  C   UNL     1      62.119  27.071  50.861  1.00  0.00     0.000 C 
BRANCH   5   6
ATOM      6  C   UNL     1      62.787  27.920  49.766  1.00  0.00     0.006 C 
BRANCH   6   7
ATOM      7  C   UNL     1      63.266  29.278  50.299  1.00  0.00     0.053 C 
BRANCH   7   8
ATOM      8  C   UNL     1      64.264  29.916  49.383  1.00  0.00     0.041 C 
ATOM      9  O   UNL     1      64.635  29.322  48.337  1.00  0.00    -0.550 OA
ATOM     10  O   UNL     1      64.809  31.154  49.701  1.00  0.00    -0.550 OA
ENDBRANCH   7   8
ENDBRANCH   6   7
ENDBRANCH   5   6
ENDBRANCH   4   5
ENDBRANCH   3   4
ENDBRANCH   2   3
ENDBRANCH   1   2
BRANCH   1  11
ATOM     11  C   UNL     1      57.255  28.869  51.209  1.00  0.00     0.000 C 
BRANCH  11  12
ATOM     12  C   UNL     1      57.180  27.851  52.353  1.00  0.00     0.000 C 
BRANCH  12  13
ATOM     13  C   UNL     1      56.870  26.445  51.820  1.00  0.00     0.000 C 
BRANCH  13  14
ATOM     14  C   UNL     1      56.391  26.452  50.357  1.00  0.00     0.000 C 
BRANCH  14  15
ATOM     15  C   UNL     1      54.980  25.871  50.128  1.00  0.00     0.000 C 
BRANCH  15  16
ATOM     16  C   UNL     1      53.861  26.916  49.978  1.00  0.00     0.006 C 
BRANCH  16  17
ATOM     17  C   UNL     1      53.236  27.315  51.321  1.00  0.00     0.053 C 
BRANCH  17  18
ATOM     18  C   UNL     1      53.603  28.723  51.670  1.00  0.00     0.041 C 
ATOM     19  O   UNL     1      53.743  29.062  52.875  1.00  0.00    -0.550 OA
ATOM     20  O   UNL     1      53.839  29.649  50.662  1.00  0.00    -0.550 OA
ENDBRANCH  17  18
ENDBRANCH  16  17
ENDBRANCH  15  16
ENDBRANCH  14  15
ENDBRANCH  13  14
ENDBRANCH  12  13
ENDBRANCH  11  12
ENDBRANCH   1  11
TORSDOF 15
ENDMDL
