MODEL 1
REMARK VINA RESULT:    -4.161      0.000      0.000
REMARK INTER + INTRA:          -5.723
REMARK INTER:                  -5.377
REMARK INTRA:                  -0.346
REMARK UNBOUND:                -0.346
REMARK SMILES CCCCCCC(=O)[O-]
REMARK SMILES IDX 5 1 6 2 7 3 8 4 9 5 4 6 3 7 2 8 1 9
REMARK H PARENT
REMARK Flexibility Score: inf
ROOT
ATOM      1  C   UNL     1      15.255  17.019  38.532  1.00  0.00     0.006 C 
ENDROOT
BRANCH   1   2
ATOM      2  C   UNL     1      15.836  15.631  38.225  1.00  0.00     0.053 C 
BRANCH   2   3
ATOM      3  C   UNL     1      14.780  14.680  37.751  1.00  0.00     0.041 C 
ATOM      4  O   UNL     1      14.631  13.565  38.316  1.00  0.00    -0.550 OA
ATOM      5  O   UNL     1      13.983  15.012  36.662  1.00  0.00    -0.550 OA
ENDBRANCH   2   3
ENDBRANCH   1   2
BRANCH   1   6
ATOM      6  C   UNL     1      16.066  18.146  37.878  1.00  0.00     0.000 C 
BRANCH   6   7
ATOM      7  C   UNL     1      15.789  18.219  36.369  1.00  0.00    -0.000 C 
BRANCH   7   8
ATOM      8  C   UNL     1      17.063  18.062  35.526  1.00  0.00    -0.003 C 
ATOM      9  C   UNL     1      17.178  16.684  34.878  1.00  0.00     0.004 C 
ENDBRANCH   7   8
ENDBRANCH   6   7
ENDBRANCH   1   6
TORSDOF 5
ENDMDL
MODEL 2
REMARK VINA RESULT:    -4.121      0.839      1.444
REMARK INTER + INTRA:          -5.671
REMARK INTER:                  -5.486
REMARK INTRA:                  -0.185
REMARK UNBOUND:                -0.346
REMARK SMILES CCCCCCC(=O)[O-]
REMARK SMILES IDX 5 1 6 2 7 3 8 4 9 5 4 6 3 7 2 8 1 9
REMARK H PARENT
REMARK Flexibility Score: inf
ROOT
ATOM      1  C   UNL     1      15.395  16.998  38.386  1.00  0.00     0.006 C 
ENDROOT
BRANCH   1   2
ATOM      2  C   UNL     1      15.903  15.582  38.084  1.00  0.00     0.053 C 
BRANCH   2   3
ATOM      3  C   UNL     1      14.774  14.629  37.833  1.00  0.00     0.041 C 
ATOM      4  O   UNL     1      13.988  14.817  36.868  1.00  0.00    -0.550 OA
ATOM      5  O   UNL     1      14.571  13.552  38.686  1.00  0.00    -0.550 OA
ENDBRANCH   2   3
ENDBRANCH   1   2
BRANCH   1   6
ATOM      6  C   UNL     1      16.089  18.062  37.524  1.00  0.00     0.000 C 
BRANCH   6   7
ATOM      7  C   UNL     1      17.115  17.419  36.579  1.00  0.00    -0.000 C 
BRANCH   7   8
ATOM      8  C   UNL     1      17.582  18.377  35.473  1.00  0.00    -0.003 C 
ATOM      9  C   UNL     1      18.978  18.043  34.951  1.00  0.00     0.004 C 
ENDBRANCH   7   8
ENDBRANCH   6   7
ENDBRANCH   1   6
TORSDOF 5
ENDMDL
MODEL 3
REMARK VINA RESULT:    -4.026      1.374      1.595
REMARK INTER + INTRA:          -5.549
REMARK INTER:                  -5.321
REMARK INTRA:                  -0.228
REMARK UNBOUND:                -0.346
REMARK SMILES CCCCCCC(=O)[O-]
REMARK SMILES IDX 5 1 6 2 7 3 8 4 9 5 4 6 3 7 2 8 1 9
REMARK H PARENT
REMARK Flexibility Score: inf
ROOT
ATOM      1  C   UNL     1      16.651  16.355  36.973  1.00  0.00     0.006 C 
ENDROOT
BRANCH   1   2
ATOM      2  C   UNL     1      15.894  15.612  38.082  1.00  0.00     0.053 C 
BRANCH   2   3
ATOM      3  C   UNL     1      14.410  15.721  37.909  1.00  0.00     0.041 C 
ATOM      4  O   UNL     1      13.708  16.279  38.792  1.00  0.00    -0.550 OA
ATOM      5  O   UNL     1      13.799  15.175  36.787  1.00  0.00    -0.550 OA
ENDBRANCH   2   3
ENDBRANCH   1   2
BRANCH   1   6
ATOM      6  C   UNL     1      16.443  17.874  37.042  1.00  0.00     0.000 C 
BRANCH   6   7
ATOM      7  C   UNL     1      17.022  18.565  35.799  1.00  0.00    -0.000 C 
BRANCH   7   8
ATOM      8  C   UNL     1      18.271  17.855  35.256  1.00  0.00    -0.003 C 
ATOM      9  C   UNL     1      18.305  17.802  33.729  1.00  0.00     0.004 C 
ENDBRANCH   7   8
ENDBRANCH   6   7
ENDBRANCH   1   6
TORSDOF 5
ENDMDL
MODEL 4
REMARK VINA RESULT:    -4.005      3.277      4.726
REMARK INTER + INTRA:          -5.521
REMARK INTER:                  -5.235
REMARK INTRA:                  -0.286
REMARK UNBOUND:                -0.346
REMARK SMILES CCCCCCC(=O)[O-]
REMARK SMILES IDX 5 1 6 2 7 3 8 4 9 5 4 6 3 7 2 8 1 9
REMARK H PARENT
REMARK Flexibility Score: inf
ROOT
ATOM      1  C   UNL     1      17.185  17.458  34.576  1.00  0.00     0.006 C 
ENDROOT
BRANCH   1   2
ATOM      2  C   UNL     1      18.507  17.434  33.796  1.00  0.00     0.053 C 
BRANCH   2   3
ATOM      3  C   UNL     1      19.422  16.356  34.289  1.00  0.00     0.041 C 
ATOM      4  O   UNL     1      18.976  15.200  34.515  1.00  0.00    -0.550 OA
ATOM      5  O   UNL     1      20.761  16.637  34.530  1.00  0.00    -0.550 OA
ENDBRANCH   2   3
ENDBRANCH   1   2
BRANCH   1   6
ATOM      6  C   UNL     1      17.209  18.470  35.731  1.00  0.00     0.000 C 
BRANCH   6   7
ATOM      7  C   UNL     1      16.758  17.814  37.045  1.00  0.00    -0.000 C 
BRANCH   7   8
ATOM      8  C   UNL     1      16.565  16.296  36.912  1.00  0.00    -0.003 C 
ATOM      9  C   UNL     1      15.751  15.700  38.059  1.00  0.00     0.004 C 
ENDBRANCH   7   8
ENDBRANCH   6   7
ENDBRANCH   1   6
TORSDOF 5
ENDMDL
MODEL 5
REMARK VINA RESULT:    -3.951      2.696      4.177
REMARK INTER + INTRA:          -5.451
REMARK INTER:                  -5.228
REMARK INTRA:                  -0.222
REMARK UNBOUND:                -0.346
REMARK SMILES CCCCCCC(=O)[O-]
REMARK SMILES IDX 5 1 6 2 7 3 8 4 9 5 4 6 3 7 2 8 1 9
REMARK H PARENT
REMARK Flexibility Score: inf
ROOT
ATOM      1  C   UNL     1      16.795  17.904  36.774  1.00  0.00     0.006 C 
ENDROOT
BRANCH   1   2
ATOM      2  C   UNL     1      17.244  16.481  36.415  1.00  0.00     0.053 C 
BRANCH   2   3
ATOM      3  C   UNL     1      17.836  16.416  35.040  1.00  0.00     0.041 C 
ATOM      4  O   UNL     1      17.488  17.246  34.160  1.00  0.00    -0.550 OA
ATOM      5  O   UNL     1      18.748  15.418  34.722  1.00  0.00    -0.550 OA
ENDBRANCH   2   3
ENDBRANCH   1   2
BRANCH   1   6
ATOM      6  C   UNL     1      15.848  17.928  37.982  1.00  0.00     0.000 C 
BRANCH   6   7
ATOM      7  C   UNL     1      15.474  16.502  38.415  1.00  0.00    -0.000 C 
BRANCH   7   8
ATOM      8  C   UNL     1      13.955  16.279  38.465  1.00  0.00    -0.003 C 
ATOM      9  C   UNL     1      13.169  17.583  38.591  1.00  0.00     0.004 C 
ENDBRANCH   7   8
ENDBRANCH   6   7
ENDBRANCH   1   6
TORSDOF 5
ENDMDL
MODEL 6
REMARK VINA RESULT:    -3.949      3.043      4.525
REMARK INTER + INTRA:          -5.449
REMARK INTER:                  -5.255
REMARK INTRA:                  -0.194
REMARK UNBOUND:                -0.346
REMARK SMILES CCCCCCC(=O)[O-]
REMARK SMILES IDX 5 1 6 2 7 3 8 4 9 5 4 6 3 7 2 8 1 9
REMARK H PARENT
REMARK Flexibility Score: inf
ROOT
ATOM      1  C   UNL     1      17.121  18.204  35.451  1.00  0.00     0.006 C 
ENDROOT
BRANCH   1   2
ATOM      2  C   UNL     1      17.629  17.340  34.289  1.00  0.00     0.053 C 
BRANCH   2   3
ATOM      3  C   UNL     1      18.966  16.734  34.591  1.00  0.00     0.041 C 
ATOM      4  O   UNL     1      19.117  15.484  34.561  1.00  0.00    -0.550 OA
ATOM      5  O   UNL     1      20.036  17.549  34.940  1.00  0.00    -0.550 OA
ENDBRANCH   2   3
ENDBRANCH   1   2
BRANCH   1   6
ATOM      6  C   UNL     1      17.102  17.438  36.781  1.00  0.00     0.000 C 
BRANCH   6   7
ATOM      7  C   UNL     1      16.121  18.082  37.771  1.00  0.00    -0.000 C 
BRANCH   7   8
ATOM      8  C   UNL     1      15.294  17.044  38.544  1.00  0.00    -0.003 C 
ATOM      9  C   UNL     1      15.676  15.606  38.196  1.00  0.00     0.004 C 
ENDBRANCH   7   8
ENDBRANCH   6   7
ENDBRANCH   1   6
TORSDOF 5
ENDMDL
MODEL 7
REMARK VINA RESULT:    -3.946      1.301      1.975
REMARK INTER + INTRA:          -5.445
REMARK INTER:                  -5.288
REMARK INTRA:                  -0.157
REMARK UNBOUND:                -0.346
REMARK SMILES CCCCCCC(=O)[O-]
REMARK SMILES IDX 5 1 6 2 7 3 8 4 9 5 4 6 3 7 2 8 1 9
REMARK H PARENT
REMARK Flexibility Score: inf
ROOT
ATOM      1  C   UNL     1      16.794  16.257  36.805  1.00  0.00     0.006 C 
ENDROOT
BRANCH   1   2
ATOM      2  C   UNL     1      15.963  15.890  38.042  1.00  0.00     0.053 C 
BRANCH   2   3
ATOM      3  C   UNL     1      14.906  14.878  37.720  1.00  0.00     0.041 C 
ATOM      4  O   UNL     1      14.087  15.091  36.788  1.00  0.00    -0.550 OA
ATOM      5  O   UNL     1      14.805  13.715  38.473  1.00  0.00    -0.550 OA
ENDBRANCH   2   3
ENDBRANCH   1   2
BRANCH   1   6
ATOM      6  C   UNL     1      16.940  17.775  36.631  1.00  0.00     0.000 C 
BRANCH   6   7
ATOM      7  C   UNL     1      17.216  18.137  35.164  1.00  0.00    -0.000 C 
BRANCH   7   8
ATOM      8  C   UNL     1      18.485  17.466  34.618  1.00  0.00    -0.003 C 
ATOM      9  C   UNL     1      19.724  18.349  34.750  1.00  0.00     0.004 C 
ENDBRANCH   7   8
ENDBRANCH   6   7
ENDBRANCH   1   6
TORSDOF 5
ENDMDL
MODEL 8
REMARK VINA RESULT:    -3.682      8.819      9.614
REMARK INTER + INTRA:          -5.103
REMARK INTER:                  -4.886
REMARK INTRA:                  -0.217
REMARK UNBOUND:                -0.346
REMARK SMILES CCCCCCC(=O)[O-]
REMARK SMILES IDX 5 1 6 2 7 3 8 4 9 5 4 6 3 7 2 8 1 9
REMARK H PARENT
REMARK Flexibility Score: inf
ROOT
ATOM      1  C   UNL     1       8.573  21.043  32.713  1.00  0.00     0.006 C 
ENDROOT
BRANCH   1   2
ATOM      2  C   UNL     1       9.206  22.288  33.349  1.00  0.00     0.053 C 
BRANCH   2   3
ATOM      3  C   UNL     1      10.491  22.664  32.676  1.00  0.00     0.041 C 
ATOM      4  O   UNL     1      11.472  21.876  32.698  1.00  0.00    -0.550 OA
ATOM      5  O   UNL     1      10.614  23.900  32.053  1.00  0.00    -0.550 OA
ENDBRANCH   2   3
ENDBRANCH   1   2
BRANCH   1   6
ATOM      6  C   UNL     1       8.716  19.799  33.601  1.00  0.00     0.000 C 
BRANCH   6   7
ATOM      7  C   UNL     1       8.810  18.524  32.749  1.00  0.00    -0.000 C 
BRANCH   7   8
ATOM      8  C   UNL     1       9.012  18.825  31.256  1.00  0.00    -0.003 C 
ATOM      9  C   UNL     1       9.793  17.730  30.532  1.00  0.00     0.004 C 
ENDBRANCH   7   8
ENDBRANCH   6   7
ENDBRANCH   1   6
TORSDOF 5
ENDMDL
