MODEL 1
REMARK VINA RESULT:    -5.495      0.000      0.000
REMARK INTER + INTRA:         -10.570
REMARK INTER:                  -8.547
REMARK INTRA:                  -2.023
REMARK UNBOUND:                -2.023
REMARK SMILES COc1cc(CNC(=O)CCCCC=CC(C)C)ccc1O
REMARK SMILES IDX 11 1 12 2 13 3 14 4 15 5 16 6 17 7 18 8 10 9 8 10 9 11 7 12
REMARK SMILES IDX 6 14 5 15 4 16 19 17 3 18 20 19 21 20 2 21 1 22 22 23
REMARK H PARENT 7 13 22 24
REMARK Flexibility Score: inf
ROOT
ATOM      1  C   UNL     1       2.282  -3.206 -33.744  1.00  0.00     0.010 C 
ENDROOT
BRANCH   1   2
ATOM      2  C   UNL     1       2.179  -4.341 -32.713  1.00  0.00     0.005 C 
BRANCH   2   3
ATOM      3  C   UNL     1       0.749  -4.887 -32.589  1.00  0.00     0.027 C 
BRANCH   3   4
ATOM      4  C   UNL     1      -0.010  -4.205 -31.482  1.00  0.00    -0.031 C 
ATOM      5  C   UNL     1       0.621  -3.502 -30.527  1.00  0.00    -0.028 C 
BRANCH   5   6
ATOM      6  C   UNL     1      -0.113  -2.733 -29.451  1.00  0.00     0.005 C 
ATOM      7  C   UNL     1      -1.451  -3.396 -29.103  1.00  0.00     0.012 C 
ATOM      8  C   UNL     1      -0.303  -1.262 -29.849  1.00  0.00     0.012 C 
ENDBRANCH   5   6
ENDBRANCH   3   4
ENDBRANCH   2   3
ENDBRANCH   1   2
BRANCH   1   9
ATOM      9  C   UNL     1       2.616  -1.874 -33.066  1.00  0.00     0.100 C 
BRANCH   9  10
ATOM     10  C   UNL     1       1.537  -0.866 -33.329  1.00  0.00     0.220 C 
ATOM     11  O   UNL     1       1.815   0.363 -33.291  1.00  0.00    -0.275 OA
ATOM     12  N   UNL     1       0.192  -1.297 -33.577  1.00  0.00    -0.352 N 
ATOM     13  H   UNL     1      -0.025  -2.318 -33.561  1.00  0.00     0.163 HD
BRANCH  12  14
ATOM     14  C   UNL     1      -0.905  -0.361 -33.814  1.00  0.00     0.151 C 
BRANCH  14  15
ATOM     15  C   UNL     1      -2.033  -0.621 -32.851  1.00  0.00    -0.025 A 
ATOM     16  C   UNL     1      -2.476  -1.934 -32.626  1.00  0.00     0.056 A 
ATOM     17  C   UNL     1      -2.669   0.443 -32.196  1.00  0.00     0.009 A 
ATOM     18  C   UNL     1      -3.548  -2.188 -31.744  1.00  0.00     0.160 A 
ATOM     19  C   UNL     1      -3.732   0.198 -31.322  1.00  0.00     0.050 A 
ATOM     20  C   UNL     1      -4.173  -1.109 -31.091  1.00  0.00     0.157 A 
BRANCH  18  21
ATOM     21  O   UNL     1      -4.017  -3.488 -31.497  1.00  0.00    -0.493 OA
ATOM     22  C   UNL     1      -3.586  -4.651 -32.198  1.00  0.00     0.278 C 
ENDBRANCH  18  21
BRANCH  20  23
ATOM     23  O   UNL     1      -5.236  -1.319 -30.209  1.00  0.00    -0.504 OA
ATOM     24  H   UNL     1      -6.183  -1.017 -30.419  1.00  0.00     0.293 HD
ENDBRANCH  20  23
ENDBRANCH  14  15
ENDBRANCH  12  14
ENDBRANCH   9  10
ENDBRANCH   1   9
TORSDOF 10
ENDMDL
MODEL 2
REMARK VINA RESULT:    -5.425      2.096      5.476
REMARK INTER + INTRA:         -10.461
REMARK INTER:                  -8.499
REMARK INTRA:                  -1.961
REMARK UNBOUND:                -2.023
REMARK SMILES COc1cc(CNC(=O)CCCCC=CC(C)C)ccc1O
REMARK SMILES IDX 11 1 12 2 13 3 14 4 15 5 16 6 17 7 18 8 10 9 8 10 9 11 7 12
REMARK SMILES IDX 6 14 5 15 4 16 19 17 3 18 20 19 21 20 2 21 1 22 22 23
REMARK H PARENT 7 13 22 24
REMARK Flexibility Score: inf
ROOT
ATOM      1  C   UNL     1      -5.772  -1.955 -31.162  1.00  0.00     0.010 C 
ENDROOT
BRANCH   1   2
ATOM      2  C   UNL     1      -6.424  -3.333 -31.358  1.00  0.00     0.005 C 
BRANCH   2   3
ATOM      3  C   UNL     1      -5.384  -4.452 -31.513  1.00  0.00     0.027 C 
BRANCH   3   4
ATOM      4  C   UNL     1      -3.980  -3.930 -31.356  1.00  0.00    -0.031 C 
ATOM      5  C   UNL     1      -2.953  -4.463 -32.037  1.00  0.00    -0.028 C 
BRANCH   5   6
ATOM      6  C   UNL     1      -1.547  -3.909 -31.971  1.00  0.00     0.005 C 
ATOM      7  C   UNL     1      -0.690  -4.413 -33.139  1.00  0.00     0.012 C 
ATOM      8  C   UNL     1      -0.889  -4.218 -30.618  1.00  0.00     0.012 C 
ENDBRANCH   5   6
ENDBRANCH   3   4
ENDBRANCH   2   3
ENDBRANCH   1   2
BRANCH   1   9
ATOM      9  C   UNL     1      -6.195  -0.983 -32.268  1.00  0.00     0.100 C 
BRANCH   9  10
ATOM     10  C   UNL     1      -5.008  -0.215 -32.773  1.00  0.00     0.220 C 
ATOM     11  O   UNL     1      -5.139   1.005 -33.063  1.00  0.00    -0.275 OA
ATOM     12  N   UNL     1      -3.751  -0.876 -32.966  1.00  0.00    -0.352 N 
ATOM     13  H   UNL     1      -3.677  -1.897 -32.761  1.00  0.00     0.163 HD
BRANCH  12  14
ATOM     14  C   UNL     1      -2.569  -0.186 -33.479  1.00  0.00     0.151 C 
BRANCH  14  15
ATOM     15  C   UNL     1      -1.395  -0.404 -32.561  1.00  0.00    -0.025 A 
ATOM     16  C   UNL     1      -0.130  -0.695 -33.096  1.00  0.00     0.056 A 
ATOM     17  C   UNL     1      -1.560  -0.348 -31.170  1.00  0.00     0.009 A 
ATOM     18  C   UNL     1       0.973  -0.923 -32.246  1.00  0.00     0.160 A 
ATOM     19  C   UNL     1      -0.472  -0.575 -30.324  1.00  0.00     0.050 A 
ATOM     20  C   UNL     1       0.792  -0.859 -30.851  1.00  0.00     0.157 A 
BRANCH  18  21
ATOM     21  O   UNL     1       2.251  -1.217 -32.746  1.00  0.00    -0.493 OA
ATOM     22  C   UNL     1       2.668  -2.503 -33.196  1.00  0.00     0.278 C 
ENDBRANCH  18  21
BRANCH  20  23
ATOM     23  O   UNL     1       1.858  -1.078 -29.975  1.00  0.00    -0.504 OA
ATOM     24  H   UNL     1       1.721  -1.421 -29.029  1.00  0.00     0.293 HD
ENDBRANCH  20  23
ENDBRANCH  14  15
ENDBRANCH  12  14
ENDBRANCH   9  10
ENDBRANCH   1   9
TORSDOF 10
ENDMDL
MODEL 3
REMARK VINA RESULT:    -5.371      1.536      2.568
REMARK INTER + INTRA:         -10.377
REMARK INTER:                  -8.599
REMARK INTRA:                  -1.778
REMARK UNBOUND:                -2.023
REMARK SMILES COc1cc(CNC(=O)CCCCC=CC(C)C)ccc1O
REMARK SMILES IDX 11 1 12 2 13 3 14 4 15 5 16 6 17 7 18 8 10 9 8 10 9 11 7 12
REMARK SMILES IDX 6 14 5 15 4 16 19 17 3 18 20 19 21 20 2 21 1 22 22 23
REMARK H PARENT 7 13 22 24
REMARK Flexibility Score: inf
ROOT
ATOM      1  C   UNL     1       2.038  -3.320 -32.373  1.00  0.00     0.010 C 
ENDROOT
BRANCH   1   2
ATOM      2  C   UNL     1       1.945  -4.573 -33.258  1.00  0.00     0.005 C 
BRANCH   2   3
ATOM      3  C   UNL     1       0.497  -4.898 -33.655  1.00  0.00     0.027 C 
BRANCH   3   4
ATOM      4  C   UNL     1      -0.469  -4.569 -32.548  1.00  0.00    -0.031 C 
ATOM      5  C   UNL     1      -1.696  -4.088 -32.808  1.00  0.00    -0.028 C 
BRANCH   5   6
ATOM      6  C   UNL     1      -2.722  -3.828 -31.727  1.00  0.00     0.005 C 
ATOM      7  C   UNL     1      -2.095  -3.901 -30.329  1.00  0.00     0.012 C 
ATOM      8  C   UNL     1      -3.920  -4.781 -31.855  1.00  0.00     0.012 C 
ENDBRANCH   5   6
ENDBRANCH   3   4
ENDBRANCH   2   3
ENDBRANCH   1   2
BRANCH   1   9
ATOM      9  C   UNL     1       2.852  -2.219 -33.060  1.00  0.00     0.100 C 
BRANCH   9  10
ATOM     10  C   UNL     1       1.953  -1.103 -33.504  1.00  0.00     0.220 C 
ATOM     11  O   UNL     1       2.433   0.052 -33.664  1.00  0.00    -0.275 OA
ATOM     12  N   UNL     1       0.552  -1.338 -33.698  1.00  0.00    -0.352 N 
ATOM     13  H   UNL     1       0.167  -2.292 -33.517  1.00  0.00     0.163 HD
BRANCH  12  14
ATOM     14  C   UNL     1      -0.376  -0.285 -34.103  1.00  0.00     0.151 C 
BRANCH  14  15
ATOM     15  C   UNL     1      -1.575  -0.263 -33.193  1.00  0.00    -0.025 A 
ATOM     16  C   UNL     1      -2.856  -0.045 -33.725  1.00  0.00     0.056 A 
ATOM     17  C   UNL     1      -1.421  -0.428 -31.810  1.00  0.00     0.009 A 
ATOM     18  C   UNL     1      -3.985   0.001 -32.879  1.00  0.00     0.160 A 
ATOM     19  C   UNL     1      -2.535  -0.383 -30.967  1.00  0.00     0.050 A 
ATOM     20  C   UNL     1      -3.814  -0.172 -31.493  1.00  0.00     0.157 A 
BRANCH  18  21
ATOM     21  O   UNL     1      -5.280   0.217 -33.376  1.00  0.00    -0.493 OA
ATOM     22  C   UNL     1      -5.844   1.499 -33.635  1.00  0.00     0.278 C 
ENDBRANCH  18  21
BRANCH  20  23
ATOM     23  O   UNL     1      -4.907  -0.135 -30.622  1.00  0.00    -0.504 OA
ATOM     24  H   UNL     1      -5.466  -0.958 -30.420  1.00  0.00     0.293 HD
ENDBRANCH  20  23
ENDBRANCH  14  15
ENDBRANCH  12  14
ENDBRANCH   9  10
ENDBRANCH   1   9
TORSDOF 10
ENDMDL
MODEL 4
REMARK VINA RESULT:    -5.336      2.508      5.538
REMARK INTER + INTRA:         -10.323
REMARK INTER:                  -8.467
REMARK INTRA:                  -1.855
REMARK UNBOUND:                -2.023
REMARK SMILES COc1cc(CNC(=O)CCCCC=CC(C)C)ccc1O
REMARK SMILES IDX 11 1 12 2 13 3 14 4 15 5 16 6 17 7 18 8 10 9 8 10 9 11 7 12
REMARK SMILES IDX 6 14 5 15 4 16 19 17 3 18 20 19 21 20 2 21 1 22 22 23
REMARK H PARENT 7 13 22 24
REMARK Flexibility Score: inf
ROOT
ATOM      1  C   UNL     1      -5.987   0.195 -32.824  1.00  0.00     0.010 C 
ENDROOT
BRANCH   1   2
ATOM      2  C   UNL     1      -6.123   0.414 -31.308  1.00  0.00     0.005 C 
BRANCH   2   3
ATOM      3  C   UNL     1      -5.625  -0.793 -30.498  1.00  0.00     0.027 C 
BRANCH   3   4
ATOM      4  C   UNL     1      -5.273  -1.953 -31.392  1.00  0.00    -0.031 C 
ATOM      5  C   UNL     1      -4.372  -2.877 -31.020  1.00  0.00    -0.028 C 
BRANCH   5   6
ATOM      6  C   UNL     1      -4.058  -4.100 -31.853  1.00  0.00     0.005 C 
ATOM      7  C   UNL     1      -4.263  -5.392 -31.051  1.00  0.00     0.012 C 
ATOM      8  C   UNL     1      -2.642  -4.024 -32.443  1.00  0.00     0.012 C 
ENDBRANCH   5   6
ENDBRANCH   3   4
ENDBRANCH   2   3
ENDBRANCH   1   2
BRANCH   1   9
ATOM      9  C   UNL     1      -5.482   1.462 -33.521  1.00  0.00     0.100 C 
BRANCH   9  10
ATOM     10  C   UNL     1      -3.996   1.397 -33.713  1.00  0.00     0.220 C 
ATOM     11  O   UNL     1      -3.379   2.420 -34.118  1.00  0.00    -0.275 OA
ATOM     12  N   UNL     1      -3.291   0.170 -33.483  1.00  0.00    -0.352 N 
ATOM     13  H   UNL     1      -3.828  -0.677 -33.190  1.00  0.00     0.163 HD
BRANCH  12  14
ATOM     14  C   UNL     1      -1.849   0.040 -33.679  1.00  0.00     0.151 C 
BRANCH  14  15
ATOM     15  C   UNL     1      -1.211  -0.598 -32.474  1.00  0.00    -0.025 A 
ATOM     16  C   UNL     1      -0.108  -1.453 -32.633  1.00  0.00     0.056 A 
ATOM     17  C   UNL     1      -1.728  -0.371 -31.191  1.00  0.00     0.009 A 
ATOM     18  C   UNL     1       0.484  -2.076 -31.513  1.00  0.00     0.160 A 
ATOM     19  C   UNL     1      -1.146  -0.986 -30.079  1.00  0.00     0.050 A 
ATOM     20  C   UNL     1      -0.044  -1.834 -30.231  1.00  0.00     0.157 A 
BRANCH  18  21
ATOM     21  O   UNL     1       1.586  -2.936 -31.636  1.00  0.00    -0.493 OA
ATOM     22  C   UNL     1       2.529  -2.896 -32.703  1.00  0.00     0.278 C 
ENDBRANCH  18  21
BRANCH  20  23
ATOM     23  O   UNL     1       0.514  -2.430 -29.097  1.00  0.00    -0.504 OA
ATOM     24  H   UNL     1       0.504  -1.979 -28.188  1.00  0.00     0.293 HD
ENDBRANCH  20  23
ENDBRANCH  14  15
ENDBRANCH  12  14
ENDBRANCH   9  10
ENDBRANCH   1   9
TORSDOF 10
ENDMDL
MODEL 5
REMARK VINA RESULT:    -5.329      1.072      2.009
REMARK INTER + INTRA:         -10.312
REMARK INTER:                  -8.502
REMARK INTRA:                  -1.810
REMARK UNBOUND:                -2.023
REMARK SMILES COc1cc(CNC(=O)CCCCC=CC(C)C)ccc1O
REMARK SMILES IDX 11 1 12 2 13 3 14 4 15 5 16 6 17 7 18 8 10 9 8 10 9 11 7 12
REMARK SMILES IDX 6 14 5 15 4 16 19 17 3 18 20 19 21 20 2 21 1 22 22 23
REMARK H PARENT 7 13 22 24
REMARK Flexibility Score: inf
ROOT
ATOM      1  C   UNL     1       1.982  -3.092 -33.979  1.00  0.00     0.010 C 
ENDROOT
BRANCH   1   2
ATOM      2  C   UNL     1       2.020  -4.501 -33.366  1.00  0.00     0.005 C 
BRANCH   2   3
ATOM      3  C   UNL     1       0.615  -5.086 -33.161  1.00  0.00     0.027 C 
BRANCH   3   4
ATOM      4  C   UNL     1      -0.046  -4.521 -31.931  1.00  0.00    -0.031 C 
ATOM      5  C   UNL     1       0.581  -4.502 -30.744  1.00  0.00    -0.028 C 
BRANCH   5   6
ATOM      6  C   UNL     1      -0.017  -3.865 -29.509  1.00  0.00     0.005 C 
ATOM      7  C   UNL     1      -1.422  -4.410 -29.222  1.00  0.00     0.012 C 
ATOM      8  C   UNL     1      -0.020  -2.334 -29.617  1.00  0.00     0.012 C 
ENDBRANCH   5   6
ENDBRANCH   3   4
ENDBRANCH   2   3
ENDBRANCH   1   2
BRANCH   1   9
ATOM      9  C   UNL     1       2.359  -2.029 -32.942  1.00  0.00     0.100 C 
BRANCH   9  10
ATOM     10  C   UNL     1       1.306  -0.962 -32.880  1.00  0.00     0.220 C 
ATOM     11  O   UNL     1       1.455   0.007 -32.087  1.00  0.00    -0.275 OA
ATOM     12  N   UNL     1       0.122  -1.069 -33.681  1.00  0.00    -0.352 N 
ATOM     13  H   UNL     1       0.000  -1.902 -34.298  1.00  0.00     0.163 HD
BRANCH  12  14
ATOM     14  C   UNL     1      -0.948  -0.074 -33.642  1.00  0.00     0.151 C 
BRANCH  14  15
ATOM     15  C   UNL     1      -2.139  -0.615 -32.896  1.00  0.00    -0.025 A 
ATOM     16  C   UNL     1      -3.229   0.223 -32.613  1.00  0.00     0.056 A 
ATOM     17  C   UNL     1      -2.158  -1.944 -32.453  1.00  0.00     0.009 A 
ATOM     18  C   UNL     1      -4.342  -0.265 -31.894  1.00  0.00     0.160 A 
ATOM     19  C   UNL     1      -3.256  -2.433 -31.741  1.00  0.00     0.050 A 
ATOM     20  C   UNL     1      -4.347  -1.604 -31.460  1.00  0.00     0.157 A 
BRANCH  18  21
ATOM     21  O   UNL     1      -5.448   0.544 -31.593  1.00  0.00    -0.493 OA
ATOM     22  C   UNL     1      -6.570   0.733 -32.450  1.00  0.00     0.278 C 
ENDBRANCH  18  21
BRANCH  20  23
ATOM     23  O   UNL     1      -5.430  -2.127 -30.748  1.00  0.00    -0.504 OA
ATOM     24  H   UNL     1      -5.307  -2.685 -29.909  1.00  0.00     0.293 HD
ENDBRANCH  20  23
ENDBRANCH  14  15
ENDBRANCH  12  14
ENDBRANCH   9  10
ENDBRANCH   1   9
TORSDOF 10
ENDMDL
MODEL 6
REMARK VINA RESULT:    -5.192      2.241      5.224
REMARK INTER + INTRA:         -10.098
REMARK INTER:                  -8.694
REMARK INTRA:                  -1.403
REMARK UNBOUND:                -2.023
REMARK SMILES COc1cc(CNC(=O)CCCCC=CC(C)C)ccc1O
REMARK SMILES IDX 11 1 12 2 13 3 14 4 15 5 16 6 17 7 18 8 10 9 8 10 9 11 7 12
REMARK SMILES IDX 6 14 5 15 4 16 19 17 3 18 20 19 21 20 2 21 1 22 22 23
REMARK H PARENT 7 13 22 24
REMARK Flexibility Score: inf
ROOT
ATOM      1  C   UNL     1      -2.705  -0.345 -33.860  1.00  0.00     0.010 C 
ENDROOT
BRANCH   1   2
ATOM      2  C   UNL     1      -1.358  -0.312 -33.121  1.00  0.00     0.005 C 
BRANCH   2   3
ATOM      3  C   UNL     1      -0.170  -0.153 -34.081  1.00  0.00     0.027 C 
BRANCH   3   4
ATOM      4  C   UNL     1       0.698  -1.383 -34.097  1.00  0.00    -0.031 C 
ATOM      5  C   UNL     1       0.339  -2.504 -33.450  1.00  0.00    -0.028 C 
BRANCH   5   6
ATOM      6  C   UNL     1       1.142  -3.785 -33.517  1.00  0.00     0.005 C 
ATOM      7  C   UNL     1       0.285  -5.004 -33.153  1.00  0.00     0.012 C 
ATOM      8  C   UNL     1       2.399  -3.700 -32.639  1.00  0.00     0.012 C 
ENDBRANCH   5   6
ENDBRANCH   3   4
ENDBRANCH   2   3
ENDBRANCH   1   2
BRANCH   1   9
ATOM      9  C   UNL     1      -3.856   0.038 -32.926  1.00  0.00     0.100 C 
BRANCH   9  10
ATOM     10  C   UNL     1      -4.218  -1.117 -32.039  1.00  0.00     0.220 C 
ATOM     11  O   UNL     1      -4.929  -0.914 -31.018  1.00  0.00    -0.275 OA
ATOM     12  N   UNL     1      -3.719  -2.430 -32.326  1.00  0.00    -0.352 N 
ATOM     13  H   UNL     1      -3.095  -2.568 -33.152  1.00  0.00     0.163 HD
BRANCH  12  14
ATOM     14  C   UNL     1      -4.016  -3.587 -31.484  1.00  0.00     0.151 C 
BRANCH  14  15
ATOM     15  C   UNL     1      -2.837  -3.911 -30.604  1.00  0.00    -0.025 A 
ATOM     16  C   UNL     1      -1.760  -3.015 -30.515  1.00  0.00     0.056 A 
ATOM     17  C   UNL     1      -2.791  -5.118 -29.892  1.00  0.00     0.009 A 
ATOM     18  C   UNL     1      -0.639  -3.318 -29.712  1.00  0.00     0.160 A 
ATOM     19  C   UNL     1      -1.684  -5.424 -29.096  1.00  0.00     0.050 A 
ATOM     20  C   UNL     1      -0.611  -4.532 -29.000  1.00  0.00     0.157 A 
BRANCH  18  21
ATOM     21  O   UNL     1       0.455  -2.447 -29.600  1.00  0.00    -0.493 OA
ATOM     22  C   UNL     1       0.538  -1.168 -30.223  1.00  0.00     0.278 C 
ENDBRANCH  18  21
BRANCH  20  23
ATOM     23  O   UNL     1       0.479  -4.869 -28.192  1.00  0.00    -0.504 OA
ATOM     24  H   UNL     1       1.247  -4.226 -28.024  1.00  0.00     0.293 HD
ENDBRANCH  20  23
ENDBRANCH  14  15
ENDBRANCH  12  14
ENDBRANCH   9  10
ENDBRANCH   1   9
TORSDOF 10
ENDMDL
MODEL 7
REMARK VINA RESULT:    -5.145      2.489      5.176
REMARK INTER + INTRA:         -10.026
REMARK INTER:                  -8.522
REMARK INTRA:                  -1.503
REMARK UNBOUND:                -2.023
REMARK SMILES COc1cc(CNC(=O)CCCCC=CC(C)C)ccc1O
REMARK SMILES IDX 11 1 12 2 13 3 14 4 15 5 16 6 17 7 18 8 10 9 8 10 9 11 7 12
REMARK SMILES IDX 6 14 5 15 4 16 19 17 3 18 20 19 21 20 2 21 1 22 22 23
REMARK H PARENT 7 13 22 24
REMARK Flexibility Score: inf
ROOT
ATOM      1  C   UNL     1      -2.752  -0.471 -33.726  1.00  0.00     0.010 C 
ENDROOT
BRANCH   1   2
ATOM      2  C   UNL     1      -1.427  -0.327 -32.960  1.00  0.00     0.005 C 
BRANCH   2   3
ATOM      3  C   UNL     1      -0.233  -0.099 -33.898  1.00  0.00     0.027 C 
BRANCH   3   4
ATOM      4  C   UNL     1       0.574  -1.356 -34.084  1.00  0.00    -0.031 C 
ATOM      5  C   UNL     1       0.399  -2.426 -33.292  1.00  0.00    -0.028 C 
BRANCH   5   6
ATOM      6  C   UNL     1       1.129  -3.735 -33.505  1.00  0.00     0.005 C 
ATOM      7  C   UNL     1       0.212  -4.937 -33.243  1.00  0.00     0.012 C 
ATOM      8  C   UNL     1       2.404  -3.806 -32.652  1.00  0.00     0.012 C 
ENDBRANCH   5   6
ENDBRANCH   3   4
ENDBRANCH   2   3
ENDBRANCH   1   2
BRANCH   1   9
ATOM      9  C   UNL     1      -3.947  -0.131 -32.830  1.00  0.00     0.100 C 
BRANCH   9  10
ATOM     10  C   UNL     1      -4.251  -1.274 -31.906  1.00  0.00     0.220 C 
ATOM     11  O   UNL     1      -4.823  -1.045 -30.806  1.00  0.00    -0.275 OA
ATOM     12  N   UNL     1      -3.852  -2.607 -32.252  1.00  0.00    -0.352 N 
ATOM     13  H   UNL     1      -3.339  -2.768 -33.148  1.00  0.00     0.163 HD
BRANCH  12  14
ATOM     14  C   UNL     1      -4.097  -3.754 -31.380  1.00  0.00     0.151 C 
BRANCH  14  15
ATOM     15  C   UNL     1      -2.869  -4.068 -30.568  1.00  0.00    -0.025 A 
ATOM     16  C   UNL     1      -2.798  -5.262 -29.833  1.00  0.00     0.056 A 
ATOM     17  C   UNL     1      -1.801  -3.160 -30.512  1.00  0.00     0.009 A 
ATOM     18  C   UNL     1      -1.662  -5.556 -29.049  1.00  0.00     0.160 A 
ATOM     19  C   UNL     1      -0.674  -3.446 -29.737  1.00  0.00     0.050 A 
ATOM     20  C   UNL     1      -0.597  -4.637 -29.008  1.00  0.00     0.157 A 
BRANCH  18  21
ATOM     21  O   UNL     1      -1.559  -6.740 -28.303  1.00  0.00    -0.493 OA
ATOM     22  C   UNL     1      -2.558  -7.754 -28.251  1.00  0.00     0.278 C 
ENDBRANCH  18  21
BRANCH  20  23
ATOM     23  O   UNL     1       0.546  -4.892 -28.246  1.00  0.00    -0.504 OA
ATOM     24  H   UNL     1       1.181  -5.655 -28.461  1.00  0.00     0.293 HD
ENDBRANCH  20  23
ENDBRANCH  14  15
ENDBRANCH  12  14
ENDBRANCH   9  10
ENDBRANCH   1   9
TORSDOF 10
ENDMDL
MODEL 8
REMARK VINA RESULT:    -5.030      2.761      6.855
REMARK INTER + INTRA:          -9.846
REMARK INTER:                  -8.921
REMARK INTRA:                  -0.925
REMARK UNBOUND:                -2.023
REMARK SMILES COc1cc(CNC(=O)CCCCC=CC(C)C)ccc1O
REMARK SMILES IDX 11 1 12 2 13 3 14 4 15 5 16 6 17 7 18 8 10 9 8 10 9 11 7 12
REMARK SMILES IDX 6 14 5 15 4 16 19 17 3 18 20 19 21 20 2 21 1 22 22 23
REMARK H PARENT 7 13 22 24
REMARK Flexibility Score: inf
ROOT
ATOM      1  C   UNL     1      -2.618   0.447 -33.035  1.00  0.00     0.010 C 
ENDROOT
BRANCH   1   2
ATOM      2  C   UNL     1      -3.878   0.283 -33.899  1.00  0.00     0.005 C 
BRANCH   2   3
ATOM      3  C   UNL     1      -4.654   1.600 -34.052  1.00  0.00     0.027 C 
BRANCH   3   4
ATOM      4  C   UNL     1      -6.040   1.497 -33.471  1.00  0.00    -0.031 C 
ATOM      5  C   UNL     1      -6.410   0.446 -32.721  1.00  0.00    -0.028 C 
BRANCH   5   6
ATOM      6  C   UNL     1      -7.763   0.351 -32.051  1.00  0.00     0.005 C 
ATOM      7  C   UNL     1      -8.888   0.798 -32.992  1.00  0.00     0.012 C 
ATOM      8  C   UNL     1      -7.788   1.137 -30.732  1.00  0.00     0.012 C 
ENDBRANCH   5   6
ENDBRANCH   3   4
ENDBRANCH   2   3
ENDBRANCH   1   2
BRANCH   1   9
ATOM      9  C   UNL     1      -2.963   0.404 -31.543  1.00  0.00     0.100 C 
BRANCH   9  10
ATOM     10  C   UNL     1      -2.493  -0.884 -30.934  1.00  0.00     0.220 C 
ATOM     11  O   UNL     1      -3.247  -1.894 -30.965  1.00  0.00    -0.275 OA
ATOM     12  N   UNL     1      -1.218  -0.951 -30.282  1.00  0.00    -0.352 N 
ATOM     13  H   UNL     1      -0.628  -0.090 -30.229  1.00  0.00     0.163 HD
BRANCH  12  14
ATOM     14  C   UNL     1      -0.720  -2.170 -29.648  1.00  0.00     0.151 C 
BRANCH  14  15
ATOM     15  C   UNL     1       0.105  -2.968 -30.622  1.00  0.00    -0.025 A 
ATOM     16  C   UNL     1       0.617  -2.355 -31.776  1.00  0.00     0.056 A 
ATOM     17  C   UNL     1       0.341  -4.333 -30.404  1.00  0.00     0.009 A 
ATOM     18  C   UNL     1       1.372  -3.098 -32.709  1.00  0.00     0.160 A 
ATOM     19  C   UNL     1       1.087  -5.074 -31.324  1.00  0.00     0.050 A 
ATOM     20  C   UNL     1       1.605  -4.466 -32.472  1.00  0.00     0.157 A 
BRANCH  18  21
ATOM     21  O   UNL     1       1.899  -2.518 -33.873  1.00  0.00    -0.493 OA
ATOM     22  C   UNL     1       3.071  -1.709 -33.915  1.00  0.00     0.278 C 
ENDBRANCH  18  21
BRANCH  20  23
ATOM     23  O   UNL     1       2.348  -5.237 -33.370  1.00  0.00    -0.504 OA
ATOM     24  H   UNL     1       1.932  -5.664 -34.192  1.00  0.00     0.293 HD
ENDBRANCH  20  23
ENDBRANCH  14  15
ENDBRANCH  12  14
ENDBRANCH   9  10
ENDBRANCH   1   9
TORSDOF 10
ENDMDL
MODEL 9
REMARK VINA RESULT:    -5.024      2.571      6.264
REMARK INTER + INTRA:          -9.837
REMARK INTER:                  -8.096
REMARK INTRA:                  -1.741
REMARK UNBOUND:                -2.023
REMARK SMILES COc1cc(CNC(=O)CCCCC=CC(C)C)ccc1O
REMARK SMILES IDX 11 1 12 2 13 3 14 4 15 5 16 6 17 7 18 8 10 9 8 10 9 11 7 12
REMARK SMILES IDX 6 14 5 15 4 16 19 17 3 18 20 19 21 20 2 21 1 22 22 23
REMARK H PARENT 7 13 22 24
REMARK Flexibility Score: inf
ROOT
ATOM      1  C   UNL     1      -4.545  -5.776 -30.892  1.00  0.00     0.010 C 
ENDROOT
BRANCH   1   2
ATOM      2  C   UNL     1      -4.155  -4.362 -31.351  1.00  0.00     0.005 C 
BRANCH   2   3
ATOM      3  C   UNL     1      -2.942  -4.369 -32.293  1.00  0.00     0.027 C 
BRANCH   3   4
ATOM      4  C   UNL     1      -2.512  -2.971 -32.651  1.00  0.00    -0.031 C 
ATOM      5  C   UNL     1      -2.627  -1.955 -31.780  1.00  0.00    -0.028 C 
BRANCH   5   6
ATOM      6  C   UNL     1      -2.126  -0.559 -32.075  1.00  0.00     0.005 C 
ATOM      7  C   UNL     1      -3.287   0.423 -32.278  1.00  0.00     0.012 C 
ATOM      8  C   UNL     1      -1.169  -0.552 -33.275  1.00  0.00     0.012 C 
ENDBRANCH   5   6
ENDBRANCH   3   4
ENDBRANCH   2   3
ENDBRANCH   1   2
BRANCH   1   9
ATOM      9  C   UNL     1      -4.362  -5.936 -29.380  1.00  0.00     0.100 C 
BRANCH   9  10
ATOM     10  C   UNL     1      -2.907  -5.873 -29.019  1.00  0.00     0.220 C 
ATOM     11  O   UNL     1      -2.268  -6.944 -28.835  1.00  0.00    -0.275 OA
ATOM     12  N   UNL     1      -2.262  -4.605 -28.839  1.00  0.00    -0.352 N 
ATOM     13  H   UNL     1      -2.821  -3.730 -28.953  1.00  0.00     0.163 HD
BRANCH  12  14
ATOM     14  C   UNL     1      -0.856  -4.482 -28.462  1.00  0.00     0.151 C 
BRANCH  14  15
ATOM     15  C   UNL     1      -0.020  -4.128 -29.663  1.00  0.00    -0.025 A 
ATOM     16  C   UNL     1       0.333  -2.790 -29.903  1.00  0.00     0.056 A 
ATOM     17  C   UNL     1       0.386  -5.121 -30.566  1.00  0.00     0.009 A 
ATOM     18  C   UNL     1       1.097  -2.442 -31.038  1.00  0.00     0.160 A 
ATOM     19  C   UNL     1       1.141  -4.782 -31.692  1.00  0.00     0.050 A 
ATOM     20  C   UNL     1       1.500  -3.452 -31.932  1.00  0.00     0.157 A 
BRANCH  18  21
ATOM     21  O   UNL     1       1.467  -1.116 -31.309  1.00  0.00    -0.493 OA
ATOM     22  C   UNL     1       1.495  -0.070 -30.343  1.00  0.00     0.278 C 
ENDBRANCH  18  21
BRANCH  20  23
ATOM     23  O   UNL     1       2.259  -3.149 -33.066  1.00  0.00    -0.504 OA
ATOM     24  H   UNL     1       3.216  -2.816 -33.005  1.00  0.00     0.293 HD
ENDBRANCH  20  23
ENDBRANCH  14  15
ENDBRANCH  12  14
ENDBRANCH   9  10
ENDBRANCH   1   9
TORSDOF 10
ENDMDL
