MODEL 1
REMARK VINA RESULT:    -4.782      0.000      0.000
REMARK INTER + INTRA:          -9.159
REMARK INTER:                  -8.416
REMARK INTRA:                  -0.743
REMARK UNBOUND:                -0.743
REMARK SMILES CCCCCCCCCCCCCCC(=O)[O-]
REMARK SMILES IDX 9 1 10 2 11 3 12 4 13 5 14 6 15 7 16 8 17 9 8 10 7 11 6 12
REMARK SMILES IDX 5 13 4 14 3 15 2 16 1 17
REMARK H PARENT
REMARK Flexibility Score: inf
ROOT
ATOM      1  C   UNL     1      -4.703  -3.183   4.733  1.00  0.00     0.000 C 
ENDROOT
BRANCH   1   2
ATOM      2  C   UNL     1      -4.905  -2.771   3.264  1.00  0.00     0.000 C 
BRANCH   2   3
ATOM      3  C   UNL     1      -5.985  -3.597   2.551  1.00  0.00     0.000 C 
BRANCH   3   4
ATOM      4  C   UNL     1      -5.447  -4.973   2.143  1.00  0.00     0.000 C 
BRANCH   4   5
ATOM      5  C   UNL     1      -4.672  -4.892   0.820  1.00  0.00     0.006 C 
BRANCH   5   6
ATOM      6  C   UNL     1      -5.529  -5.313  -0.381  1.00  0.00     0.053 C 
BRANCH   6   7
ATOM      7  C   UNL     1      -5.943  -4.136  -1.210  1.00  0.00     0.041 C 
ATOM      8  O   UNL     1      -5.602  -2.971  -0.870  1.00  0.00    -0.550 OA
ATOM      9  O   UNL     1      -6.732  -4.320  -2.337  1.00  0.00    -0.550 OA
ENDBRANCH   6   7
ENDBRANCH   5   6
ENDBRANCH   4   5
ENDBRANCH   3   4
ENDBRANCH   2   3
ENDBRANCH   1   2
BRANCH   1  10
ATOM     10  C   UNL     1      -4.202  -2.062   5.664  1.00  0.00     0.000 C 
BRANCH  10  11
ATOM     11  C   UNL     1      -3.402  -0.979   4.922  1.00  0.00    -0.000 C 
BRANCH  11  12
ATOM     12  C   UNL     1      -2.945   0.157   5.850  1.00  0.00    -0.000 C 
BRANCH  12  13
ATOM     13  C   UNL     1      -1.673   0.859   5.348  1.00  0.00    -0.000 C 
BRANCH  13  14
ATOM     14  C   UNL     1      -0.536  -0.149   5.141  1.00  0.00    -0.000 C 
BRANCH  14  15
ATOM     15  C   UNL     1       0.096  -0.549   6.483  1.00  0.00    -0.000 C 
BRANCH  15  16
ATOM     16  C   UNL     1       1.386  -1.367   6.307  1.00  0.00    -0.003 C 
ATOM     17  C   UNL     1       1.879  -1.390   4.861  1.00  0.00     0.004 C 
ENDBRANCH  15  16
ENDBRANCH  14  15
ENDBRANCH  13  14
ENDBRANCH  12  13
ENDBRANCH  11  12
ENDBRANCH  10  11
ENDBRANCH   1  10
TORSDOF 13
ENDMDL
MODEL 2
REMARK VINA RESULT:    -4.655      1.249      1.817
REMARK INTER + INTRA:          -8.936
REMARK INTER:                  -8.170
REMARK INTRA:                  -0.766
REMARK UNBOUND:                -0.743
REMARK SMILES CCCCCCCCCCCCCCC(=O)[O-]
REMARK SMILES IDX 9 1 10 2 11 3 12 4 13 5 14 6 15 7 16 8 17 9 8 10 7 11 6 12
REMARK SMILES IDX 5 13 4 14 3 15 2 16 1 17
REMARK H PARENT
REMARK Flexibility Score: inf
ROOT
ATOM      1  C   UNL     1      -4.462  -2.126   3.404  1.00  0.00     0.000 C 
ENDROOT
BRANCH   1   2
ATOM      2  C   UNL     1      -4.986  -2.692   2.073  1.00  0.00     0.000 C 
BRANCH   2   3
ATOM      3  C   UNL     1      -5.198  -4.213   2.108  1.00  0.00     0.000 C 
BRANCH   3   4
ATOM      4  C   UNL     1      -4.738  -4.863   0.799  1.00  0.00     0.000 C 
BRANCH   4   5
ATOM      5  C   UNL     1      -5.584  -4.375  -0.386  1.00  0.00     0.006 C 
BRANCH   5   6
ATOM      6  C   UNL     1      -6.650  -5.398  -0.800  1.00  0.00     0.053 C 
BRANCH   6   7
ATOM      7  C   UNL     1      -6.394  -5.946  -2.170  1.00  0.00     0.041 C 
ATOM      8  O   UNL     1      -5.212  -6.109  -2.576  1.00  0.00    -0.550 OA
ATOM      9  O   UNL     1      -7.457  -6.244  -3.012  1.00  0.00    -0.550 OA
ENDBRANCH   6   7
ENDBRANCH   5   6
ENDBRANCH   4   5
ENDBRANCH   3   4
ENDBRANCH   2   3
ENDBRANCH   1   2
BRANCH   1  10
ATOM     10  C   UNL     1      -4.805  -2.963   4.651  1.00  0.00     0.000 C 
BRANCH  10  11
ATOM     11  C   UNL     1      -4.445  -2.254   5.967  1.00  0.00    -0.000 C 
BRANCH  11  12
ATOM     12  C   UNL     1      -4.152  -0.758   5.770  1.00  0.00    -0.000 C 
BRANCH  12  13
ATOM     13  C   UNL     1      -2.816  -0.327   6.396  1.00  0.00    -0.000 C 
BRANCH  13  14
ATOM     14  C   UNL     1      -2.018   0.558   5.431  1.00  0.00    -0.000 C 
BRANCH  14  15
ATOM     15  C   UNL     1      -0.604  -0.001   5.213  1.00  0.00    -0.000 C 
BRANCH  15  16
ATOM     16  C   UNL     1       0.046  -0.488   6.518  1.00  0.00    -0.003 C 
ATOM     17  C   UNL     1       1.346  -1.255   6.281  1.00  0.00     0.004 C 
ENDBRANCH  15  16
ENDBRANCH  14  15
ENDBRANCH  13  14
ENDBRANCH  12  13
ENDBRANCH  11  12
ENDBRANCH  10  11
ENDBRANCH   1  10
TORSDOF 13
ENDMDL
MODEL 3
REMARK VINA RESULT:    -4.630      3.893      7.880
REMARK INTER + INTRA:          -8.892
REMARK INTER:                  -7.862
REMARK INTRA:                  -1.029
REMARK UNBOUND:                -0.743
REMARK SMILES CCCCCCCCCCCCCCC(=O)[O-]
REMARK SMILES IDX 9 1 10 2 11 3 12 4 13 5 14 6 15 7 16 8 17 9 8 10 7 11 6 12
REMARK SMILES IDX 5 13 4 14 3 15 2 16 1 17
REMARK H PARENT
REMARK Flexibility Score: inf
ROOT
ATOM      1  C   UNL     1      -5.557  -0.998   5.474  1.00  0.00     0.000 C 
ENDROOT
BRANCH   1   2
ATOM      2  C   UNL     1      -4.663   0.047   6.165  1.00  0.00     0.000 C 
BRANCH   2   3
ATOM      3  C   UNL     1      -3.221  -0.439   6.372  1.00  0.00     0.000 C 
BRANCH   3   4
ATOM      4  C   UNL     1      -2.362  -0.157   5.135  1.00  0.00     0.000 C 
BRANCH   4   5
ATOM      5  C   UNL     1      -1.122   0.672   5.501  1.00  0.00     0.006 C 
BRANCH   5   6
ATOM      6  C   UNL     1      -0.571   0.311   6.887  1.00  0.00     0.053 C 
BRANCH   6   7
ATOM      7  C   UNL     1       0.278  -0.923   6.844  1.00  0.00     0.041 C 
ATOM      8  O   UNL     1       0.099  -1.844   7.684  1.00  0.00    -0.550 OA
ATOM      9  O   UNL     1       1.288  -1.041   5.898  1.00  0.00    -0.550 OA
ENDBRANCH   6   7
ENDBRANCH   5   6
ENDBRANCH   4   5
ENDBRANCH   3   4
ENDBRANCH   2   3
ENDBRANCH   1   2
BRANCH   1  10
ATOM     10  C   UNL     1      -5.100  -2.461   5.638  1.00  0.00     0.000 C 
BRANCH  10  11
ATOM     11  C   UNL     1      -4.755  -3.134   4.299  1.00  0.00    -0.000 C 
BRANCH  11  12
ATOM     12  C   UNL     1      -4.772  -2.147   3.121  1.00  0.00    -0.000 C 
BRANCH  12  13
ATOM     13  C   UNL     1      -5.160  -2.815   1.792  1.00  0.00    -0.000 C 
BRANCH  13  14
ATOM     14  C   UNL     1      -5.200  -4.341   1.937  1.00  0.00    -0.000 C 
BRANCH  14  15
ATOM     15  C   UNL     1      -4.728  -5.029   0.647  1.00  0.00    -0.000 C 
BRANCH  15  16
ATOM     16  C   UNL     1      -5.638  -4.723  -0.553  1.00  0.00    -0.003 C 
ATOM     17  C   UNL     1      -6.905  -5.577  -0.567  1.00  0.00     0.004 C 
ENDBRANCH  15  16
ENDBRANCH  14  15
ENDBRANCH  13  14
ENDBRANCH  12  13
ENDBRANCH  11  12
ENDBRANCH  10  11
ENDBRANCH   1  10
TORSDOF 13
ENDMDL
MODEL 4
REMARK VINA RESULT:    -4.605      1.623      3.666
REMARK INTER + INTRA:          -8.847
REMARK INTER:                  -8.004
REMARK INTRA:                  -0.843
REMARK UNBOUND:                -0.743
REMARK SMILES CCCCCCCCCCCCCCC(=O)[O-]
REMARK SMILES IDX 9 1 10 2 11 3 12 4 13 5 14 6 15 7 16 8 17 9 8 10 7 11 6 12
REMARK SMILES IDX 5 13 4 14 3 15 2 16 1 17
REMARK H PARENT
REMARK Flexibility Score: inf
ROOT
ATOM      1  C   UNL     1      -2.238   0.241   5.118  1.00  0.00     0.000 C 
ENDROOT
BRANCH   1   2
ATOM      2  C   UNL     1      -3.161  -0.800   5.774  1.00  0.00     0.000 C 
BRANCH   2   3
ATOM      3  C   UNL     1      -4.112  -1.475   4.775  1.00  0.00     0.000 C 
BRANCH   3   4
ATOM      4  C   UNL     1      -4.567  -2.846   5.289  1.00  0.00     0.000 C 
BRANCH   4   5
ATOM      5  C   UNL     1      -5.014  -3.748   4.129  1.00  0.00     0.006 C 
BRANCH   5   6
ATOM      6  C   UNL     1      -4.939  -3.032   2.774  1.00  0.00     0.053 C 
BRANCH   6   7
ATOM      7  C   UNL     1      -4.881  -4.003   1.635  1.00  0.00     0.041 C 
ATOM      8  O   UNL     1      -5.211  -5.206   1.811  1.00  0.00    -0.550 OA
ATOM      9  O   UNL     1      -4.432  -3.589   0.388  1.00  0.00    -0.550 OA
ENDBRANCH   6   7
ENDBRANCH   5   6
ENDBRANCH   4   5
ENDBRANCH   3   4
ENDBRANCH   2   3
ENDBRANCH   1   2
BRANCH   1  10
ATOM     10  C   UNL     1      -0.765   0.185   5.566  1.00  0.00     0.000 C 
BRANCH  10  11
ATOM     11  C   UNL     1      -0.600  -0.251   7.032  1.00  0.00    -0.000 C 
BRANCH  11  12
ATOM     12  C   UNL     1       0.843  -0.660   7.367  1.00  0.00    -0.000 C 
BRANCH  12  13
ATOM     13  C   UNL     1       1.034  -2.185   7.407  1.00  0.00    -0.000 C 
BRANCH  13  14
ATOM     14  C   UNL     1       2.411  -2.580   6.862  1.00  0.00    -0.000 C 
BRANCH  14  15
ATOM     15  C   UNL     1       2.342  -2.879   5.357  1.00  0.00    -0.000 C 
BRANCH  15  16
ATOM     16  C   UNL     1       2.769  -1.680   4.496  1.00  0.00    -0.003 C 
ATOM     17  C   UNL     1       2.491  -1.891   3.009  1.00  0.00     0.004 C 
ENDBRANCH  15  16
ENDBRANCH  14  15
ENDBRANCH  13  14
ENDBRANCH  12  13
ENDBRANCH  11  12
ENDBRANCH  10  11
ENDBRANCH   1  10
TORSDOF 13
ENDMDL
MODEL 5
REMARK VINA RESULT:    -4.580      1.551      2.393
REMARK INTER + INTRA:          -8.804
REMARK INTER:                  -7.440
REMARK INTRA:                  -1.364
REMARK UNBOUND:                -0.743
REMARK SMILES CCCCCCCCCCCCCCC(=O)[O-]
REMARK SMILES IDX 9 1 10 2 11 3 12 4 13 5 14 6 15 7 16 8 17 9 8 10 7 11 6 12
REMARK SMILES IDX 5 13 4 14 3 15 2 16 1 17
REMARK H PARENT
REMARK Flexibility Score: inf
ROOT
ATOM      1  C   UNL     1      -4.076  -1.800   4.874  1.00  0.00     0.000 C 
ENDROOT
BRANCH   1   2
ATOM      2  C   UNL     1      -4.652  -3.216   5.049  1.00  0.00     0.000 C 
BRANCH   2   3
ATOM      3  C   UNL     1      -5.111  -3.848   3.727  1.00  0.00     0.000 C 
BRANCH   3   4
ATOM      4  C   UNL     1      -5.171  -2.801   2.609  1.00  0.00     0.000 C 
BRANCH   4   5
ATOM      5  C   UNL     1      -4.746  -3.406   1.263  1.00  0.00     0.006 C 
BRANCH   5   6
ATOM      6  C   UNL     1      -5.055  -4.907   1.178  1.00  0.00     0.053 C 
BRANCH   6   7
ATOM      7  C   UNL     1      -5.946  -5.226   0.017  1.00  0.00     0.041 C 
ATOM      8  O   UNL     1      -5.451  -5.628  -1.070  1.00  0.00    -0.550 OA
ATOM      9  O   UNL     1      -7.319  -5.047   0.122  1.00  0.00    -0.550 OA
ENDBRANCH   6   7
ENDBRANCH   5   6
ENDBRANCH   4   5
ENDBRANCH   3   4
ENDBRANCH   2   3
ENDBRANCH   1   2
BRANCH   1  10
ATOM     10  C   UNL     1      -4.753  -0.708   5.724  1.00  0.00     0.000 C 
BRANCH  10  11
ATOM     11  C   UNL     1      -4.940  -1.123   7.193  1.00  0.00    -0.000 C 
BRANCH  11  12
ATOM     12  C   UNL     1      -3.884  -0.500   8.120  1.00  0.00    -0.000 C 
BRANCH  12  13
ATOM     13  C   UNL     1      -2.504  -1.161   7.975  1.00  0.00    -0.000 C 
BRANCH  13  14
ATOM     14  C   UNL     1      -1.428  -0.118   7.652  1.00  0.00    -0.000 C 
BRANCH  14  15
ATOM     15  C   UNL     1      -0.471  -0.633   6.566  1.00  0.00    -0.000 C 
BRANCH  15  16
ATOM     16  C   UNL     1      -0.748  -0.007   5.190  1.00  0.00    -0.003 C 
ATOM     17  C   UNL     1      -1.648   1.225   5.271  1.00  0.00     0.004 C 
ENDBRANCH  15  16
ENDBRANCH  14  15
ENDBRANCH  13  14
ENDBRANCH  12  13
ENDBRANCH  11  12
ENDBRANCH  10  11
ENDBRANCH   1  10
TORSDOF 13
ENDMDL
MODEL 6
REMARK VINA RESULT:    -4.557      1.947      3.298
REMARK INTER + INTRA:          -8.762
REMARK INTER:                  -7.643
REMARK INTRA:                  -1.119
REMARK UNBOUND:                -0.743
REMARK SMILES CCCCCCCCCCCCCCC(=O)[O-]
REMARK SMILES IDX 9 1 10 2 11 3 12 4 13 5 14 6 15 7 16 8 17 9 8 10 7 11 6 12
REMARK SMILES IDX 5 13 4 14 3 15 2 16 1 17
REMARK H PARENT
REMARK Flexibility Score: inf
ROOT
ATOM      1  C   UNL     1      -5.719  -2.727   0.998  1.00  0.00     0.000 C 
ENDROOT
BRANCH   1   2
ATOM      2  C   UNL     1      -4.576  -3.679   0.602  1.00  0.00     0.000 C 
BRANCH   2   3
ATOM      3  C   UNL     1      -5.042  -5.127   0.396  1.00  0.00     0.000 C 
BRANCH   3   4
ATOM      4  C   UNL     1      -6.534  -5.276   0.715  1.00  0.00     0.000 C 
BRANCH   4   5
ATOM      5  C   UNL     1      -7.330  -5.659  -0.540  1.00  0.00     0.006 C 
BRANCH   5   6
ATOM      6  C   UNL     1      -6.440  -5.756  -1.786  1.00  0.00     0.053 C 
BRANCH   6   7
ATOM      7  C   UNL     1      -6.678  -4.617  -2.730  1.00  0.00     0.041 C 
ATOM      8  O   UNL     1      -7.373  -3.630  -2.368  1.00  0.00    -0.550 OA
ATOM      9  O   UNL     1      -6.162  -4.660  -4.018  1.00  0.00    -0.550 OA
ENDBRANCH   6   7
ENDBRANCH   5   6
ENDBRANCH   4   5
ENDBRANCH   3   4
ENDBRANCH   2   3
ENDBRANCH   1   2
BRANCH   1  10
ATOM     10  C   UNL     1      -5.360  -1.687   2.075  1.00  0.00     0.000 C 
BRANCH  10  11
ATOM     11  C   UNL     1      -5.822  -2.098   3.483  1.00  0.00    -0.000 C 
BRANCH  11  12
ATOM     12  C   UNL     1      -4.786  -2.966   4.214  1.00  0.00    -0.000 C 
BRANCH  12  13
ATOM     13  C   UNL     1      -4.214  -2.282   5.466  1.00  0.00    -0.000 C 
BRANCH  13  14
ATOM     14  C   UNL     1      -4.890  -0.927   5.707  1.00  0.00    -0.000 C 
BRANCH  14  15
ATOM     15  C   UNL     1      -3.884   0.103   6.242  1.00  0.00    -0.000 C 
BRANCH  15  16
ATOM     16  C   UNL     1      -2.430  -0.261   5.904  1.00  0.00    -0.003 C 
ATOM     17  C   UNL     1      -1.687   0.872   5.197  1.00  0.00     0.004 C 
ENDBRANCH  15  16
ENDBRANCH  14  15
ENDBRANCH  13  14
ENDBRANCH  12  13
ENDBRANCH  11  12
ENDBRANCH  10  11
ENDBRANCH   1  10
TORSDOF 13
ENDMDL
MODEL 7
REMARK VINA RESULT:    -4.509      2.072      3.680
REMARK INTER + INTRA:          -8.678
REMARK INTER:                  -7.444
REMARK INTRA:                  -1.234
REMARK UNBOUND:                -0.743
REMARK SMILES CCCCCCCCCCCCCCC(=O)[O-]
REMARK SMILES IDX 9 1 10 2 11 3 12 4 13 5 14 6 15 7 16 8 17 9 8 10 7 11 6 12
REMARK SMILES IDX 5 13 4 14 3 15 2 16 1 17
REMARK H PARENT
REMARK Flexibility Score: inf
ROOT
ATOM      1  C   UNL     1      -5.597  -5.161   2.284  1.00  0.00     0.000 C 
ENDROOT
BRANCH   1   2
ATOM      2  C   UNL     1      -4.803  -4.860   1.000  1.00  0.00     0.000 C 
BRANCH   2   3
ATOM      3  C   UNL     1      -5.598  -5.152  -0.281  1.00  0.00     0.000 C 
BRANCH   3   4
ATOM      4  C   UNL     1      -6.323  -3.896  -0.778  1.00  0.00     0.000 C 
BRANCH   4   5
ATOM      5  C   UNL     1      -5.477  -2.639  -0.533  1.00  0.00     0.006 C 
BRANCH   5   6
ATOM      6  C   UNL     1      -6.273  -1.531   0.172  1.00  0.00     0.053 C 
BRANCH   6   7
ATOM      7  C   UNL     1      -6.184  -0.230  -0.564  1.00  0.00     0.041 C 
ATOM      8  O   UNL     1      -6.852   0.765  -0.174  1.00  0.00    -0.550 OA
ATOM      9  O   UNL     1      -5.392  -0.123  -1.699  1.00  0.00    -0.550 OA
ENDBRANCH   6   7
ENDBRANCH   5   6
ENDBRANCH   4   5
ENDBRANCH   3   4
ENDBRANCH   2   3
ENDBRANCH   1   2
BRANCH   1  10
ATOM     10  C   UNL     1      -5.927  -3.932   3.151  1.00  0.00     0.000 C 
BRANCH  10  11
ATOM     11  C   UNL     1      -4.825  -2.860   3.117  1.00  0.00    -0.000 C 
BRANCH  11  12
ATOM     12  C   UNL     1      -4.790  -2.008   4.396  1.00  0.00    -0.000 C 
BRANCH  12  13
ATOM     13  C   UNL     1      -4.496  -2.840   5.655  1.00  0.00    -0.000 C 
BRANCH  13  14
ATOM     14  C   UNL     1      -3.752  -2.004   6.703  1.00  0.00    -0.000 C 
BRANCH  14  15
ATOM     15  C   UNL     1      -3.575  -0.554   6.227  1.00  0.00    -0.000 C 
BRANCH  15  16
ATOM     16  C   UNL     1      -2.124  -0.064   6.352  1.00  0.00    -0.003 C 
ATOM     17  C   UNL     1      -1.673   0.760   5.147  1.00  0.00     0.004 C 
ENDBRANCH  15  16
ENDBRANCH  14  15
ENDBRANCH  13  14
ENDBRANCH  12  13
ENDBRANCH  11  12
ENDBRANCH  10  11
ENDBRANCH   1  10
TORSDOF 13
ENDMDL
MODEL 8
REMARK VINA RESULT:    -4.492      5.058      7.594
REMARK INTER + INTRA:          -8.649
REMARK INTER:                  -7.055
REMARK INTRA:                  -1.594
REMARK UNBOUND:                -0.743
REMARK SMILES CCCCCCCCCCCCCCC(=O)[O-]
REMARK SMILES IDX 9 1 10 2 11 3 12 4 13 5 14 6 15 7 16 8 17 9 8 10 7 11 6 12
REMARK SMILES IDX 5 13 4 14 3 15 2 16 1 17
REMARK H PARENT
REMARK Flexibility Score: inf
ROOT
ATOM      1  C   UNL     1      -7.173  -1.340  -0.777  1.00  0.00     0.000 C 
ENDROOT
BRANCH   1   2
ATOM      2  C   UNL     1      -6.023  -1.767  -1.706  1.00  0.00     0.000 C 
BRANCH   2   3
ATOM      3  C   UNL     1      -5.211  -0.578  -2.243  1.00  0.00     0.000 C 
BRANCH   3   4
ATOM      4  C   UNL     1      -5.911   0.750  -1.934  1.00  0.00     0.000 C 
BRANCH   4   5
ATOM      5  C   UNL     1      -4.967   1.938  -2.173  1.00  0.00     0.006 C 
BRANCH   5   6
ATOM      6  C   UNL     1      -4.861   2.306  -3.659  1.00  0.00     0.053 C 
BRANCH   6   7
ATOM      7  C   UNL     1      -5.224   3.738  -3.905  1.00  0.00     0.041 C 
ATOM      8  O   UNL     1      -6.390   4.146  -3.659  1.00  0.00    -0.550 OA
ATOM      9  O   UNL     1      -4.287   4.613  -4.437  1.00  0.00    -0.550 OA
ENDBRANCH   6   7
ENDBRANCH   5   6
ENDBRANCH   4   5
ENDBRANCH   3   4
ENDBRANCH   2   3
ENDBRANCH   1   2
BRANCH   1  10
ATOM     10  C   UNL     1      -7.076  -1.866   0.667  1.00  0.00     0.000 C 
BRANCH  10  11
ATOM     11  C   UNL     1      -5.809  -1.388   1.395  1.00  0.00    -0.000 C 
BRANCH  11  12
ATOM     12  C   UNL     1      -4.922  -2.554   1.863  1.00  0.00    -0.000 C 
BRANCH  12  13
ATOM     13  C   UNL     1      -5.698  -3.601   2.676  1.00  0.00    -0.000 C 
BRANCH  13  14
ATOM     14  C   UNL     1      -5.551  -4.996   2.058  1.00  0.00    -0.000 C 
BRANCH  14  15
ATOM     15  C   UNL     1      -4.738  -4.938   0.755  1.00  0.00    -0.000 C 
BRANCH  15  16
ATOM     16  C   UNL     1      -5.572  -5.317  -0.479  1.00  0.00    -0.003 C 
ATOM     17  C   UNL     1      -7.064  -5.439  -0.170  1.00  0.00     0.004 C 
ENDBRANCH  15  16
ENDBRANCH  14  15
ENDBRANCH  13  14
ENDBRANCH  12  13
ENDBRANCH  11  12
ENDBRANCH  10  11
ENDBRANCH   1  10
TORSDOF 13
ENDMDL
MODEL 9
REMARK VINA RESULT:    -4.482      4.707      7.931
REMARK INTER + INTRA:          -8.631
REMARK INTER:                  -7.702
REMARK INTRA:                  -0.929
REMARK UNBOUND:                -0.743
REMARK SMILES CCCCCCCCCCCCCCC(=O)[O-]
REMARK SMILES IDX 9 1 10 2 11 3 12 4 13 5 14 6 15 7 16 8 17 9 8 10 7 11 6 12
REMARK SMILES IDX 5 13 4 14 3 15 2 16 1 17
REMARK H PARENT
REMARK Flexibility Score: inf
ROOT
ATOM      1  C   UNL     1       0.381  -1.102   6.340  1.00  0.00     0.000 C 
ENDROOT
BRANCH   1   2
ATOM      2  C   UNL     1       1.894  -1.098   6.619  1.00  0.00     0.000 C 
BRANCH   2   3
ATOM      3  C   UNL     1       2.733  -1.490   5.394  1.00  0.00     0.000 C 
BRANCH   3   4
ATOM      4  C   UNL     1       1.877  -1.505   4.122  1.00  0.00     0.000 C 
BRANCH   4   5
ATOM      5  C   UNL     1       2.692  -1.993   2.916  1.00  0.00     0.006 C 
BRANCH   5   6
ATOM      6  C   UNL     1       4.139  -2.339   3.293  1.00  0.00     0.053 C 
BRANCH   6   7
ATOM      7  C   UNL     1       5.126  -1.619   2.427  1.00  0.00     0.041 C 
ATOM      8  O   UNL     1       5.545  -0.478   2.758  1.00  0.00    -0.550 OA
ATOM      9  O   UNL     1       5.559  -2.193   1.239  1.00  0.00    -0.550 OA
ENDBRANCH   6   7
ENDBRANCH   5   6
ENDBRANCH   4   5
ENDBRANCH   3   4
ENDBRANCH   2   3
ENDBRANCH   1   2
BRANCH   1  10
ATOM     10  C   UNL     1      -0.360   0.191   6.731  1.00  0.00     0.000 C 
BRANCH  10  11
ATOM     11  C   UNL     1      -1.188   0.781   5.577  1.00  0.00    -0.000 C 
BRANCH  11  12
ATOM     12  C   UNL     1      -2.320  -0.155   5.125  1.00  0.00    -0.000 C 
BRANCH  12  13
ATOM     13  C   UNL     1      -3.174  -0.664   6.298  1.00  0.00    -0.000 C 
BRANCH  13  14
ATOM     14  C   UNL     1      -4.221  -1.675   5.817  1.00  0.00    -0.000 C 
BRANCH  14  15
ATOM     15  C   UNL     1      -4.284  -1.714   4.282  1.00  0.00    -0.000 C 
BRANCH  15  16
ATOM     16  C   UNL     1      -4.844  -3.041   3.748  1.00  0.00    -0.003 C 
ATOM     17  C   UNL     1      -5.053  -4.081   4.848  1.00  0.00     0.004 C 
ENDBRANCH  15  16
ENDBRANCH  14  15
ENDBRANCH  13  14
ENDBRANCH  12  13
ENDBRANCH  11  12
ENDBRANCH  10  11
ENDBRANCH   1  10
TORSDOF 13
ENDMDL
