MODEL 1
REMARK VINA RESULT:    -3.839      0.000      0.000
REMARK INTER + INTRA:          -8.178
REMARK INTER:                  -6.757
REMARK INTRA:                  -1.420
REMARK UNBOUND:                -1.420
REMARK SMILES CCCCCCC=CCCCCCCCC(=O)[O-]
REMARK SMILES IDX 10 1 11 2 12 3 13 4 14 5 15 6 16 7 17 8 18 9 9 10 8 11 7 12
REMARK SMILES IDX 6 13 5 14 4 15 3 16 2 17 1 18
REMARK H PARENT
REMARK Flexibility Score: inf
ROOT
ATOM      1  C   UNL     1       2.245  -5.183  -7.321  1.00  0.00     0.004 C 
ENDROOT
BRANCH   1   2
ATOM      2  C   UNL     1       3.755  -5.398  -7.148  1.00  0.00     0.000 C 
BRANCH   2   3
ATOM      3  C   UNL     1       4.088  -6.532  -6.163  1.00  0.00     0.000 C 
BRANCH   3   4
ATOM      4  C   UNL     1       5.069  -6.152  -5.034  1.00  0.00     0.000 C 
BRANCH   4   5
ATOM      5  C   UNL     1       5.550  -4.690  -5.054  1.00  0.00     0.006 C 
BRANCH   5   6
ATOM      6  C   UNL     1       5.957  -4.178  -3.666  1.00  0.00     0.053 C 
BRANCH   6   7
ATOM      7  C   UNL     1       6.200  -2.702  -3.704  1.00  0.00     0.041 C 
ATOM      8  O   UNL     1       7.270  -2.225  -3.246  1.00  0.00    -0.550 OA
ATOM      9  O   UNL     1       5.224  -1.850  -4.203  1.00  0.00    -0.550 OA
ENDBRANCH   6   7
ENDBRANCH   5   6
ENDBRANCH   4   5
ENDBRANCH   3   4
ENDBRANCH   2   3
ENDBRANCH   1   2
BRANCH   1  10
ATOM     10  C   UNL     1       1.931  -3.711  -7.613  1.00  0.00     0.027 C 
BRANCH  10  11
ATOM     11  C   UNL     1       3.007  -2.811  -7.057  1.00  0.00    -0.031 C 
ATOM     12  C   UNL     1       2.873  -1.484  -6.885  1.00  0.00    -0.031 C 
BRANCH  12  13
ATOM     13  C   UNL     1       1.604  -0.722  -7.192  1.00  0.00     0.027 C 
BRANCH  13  14
ATOM     14  C   UNL     1       1.647  -0.049  -8.574  1.00  0.00     0.004 C 
BRANCH  14  15
ATOM     15  C   UNL     1       0.345  -0.193  -9.383  1.00  0.00     0.000 C 
BRANCH  15  16
ATOM     16  C   UNL     1      -0.564  -1.312  -8.851  1.00  0.00    -0.000 C 
BRANCH  16  17
ATOM     17  C   UNL     1      -1.261  -2.045 -10.003  1.00  0.00    -0.003 C 
ATOM     18  C   UNL     1      -0.839  -3.510 -10.061  1.00  0.00     0.004 C 
ENDBRANCH  16  17
ENDBRANCH  15  16
ENDBRANCH  14  15
ENDBRANCH  13  14
ENDBRANCH  12  13
ENDBRANCH  10  11
ENDBRANCH   1  10
TORSDOF 13
ENDMDL
MODEL 2
REMARK VINA RESULT:    -3.833      1.780      3.562
REMARK INTER + INTRA:          -8.167
REMARK INTER:                  -6.687
REMARK INTRA:                  -1.480
REMARK UNBOUND:                -1.420
REMARK SMILES CCCCCCC=CCCCCCCCC(=O)[O-]
REMARK SMILES IDX 10 1 11 2 12 3 13 4 14 5 15 6 16 7 17 8 18 9 9 10 8 11 7 12
REMARK SMILES IDX 6 13 5 14 4 15 3 16 2 17 1 18
REMARK H PARENT
REMARK Flexibility Score: inf
ROOT
ATOM      1  C   UNL     1       3.941  -7.373  -5.458  1.00  0.00     0.004 C 
ENDROOT
BRANCH   1   2
ATOM      2  C   UNL     1       5.236  -6.588  -5.710  1.00  0.00     0.000 C 
BRANCH   2   3
ATOM      3  C   UNL     1       5.319  -5.291  -4.884  1.00  0.00     0.000 C 
BRANCH   3   4
ATOM      4  C   UNL     1       5.958  -4.092  -5.613  1.00  0.00     0.000 C 
BRANCH   4   5
ATOM      5  C   UNL     1       5.717  -2.723  -4.952  1.00  0.00     0.006 C 
BRANCH   5   6
ATOM      6  C   UNL     1       5.961  -2.742  -3.438  1.00  0.00     0.053 C 
BRANCH   6   7
ATOM      7  C   UNL     1       7.402  -2.476  -3.137  1.00  0.00     0.041 C 
ATOM      8  O   UNL     1       8.036  -3.233  -2.356  1.00  0.00    -0.550 OA
ATOM      9  O   UNL     1       8.033  -1.365  -3.684  1.00  0.00    -0.550 OA
ENDBRANCH   6   7
ENDBRANCH   5   6
ENDBRANCH   4   5
ENDBRANCH   3   4
ENDBRANCH   2   3
ENDBRANCH   1   2
BRANCH   1  10
ATOM     10  C   UNL     1       3.403  -7.974  -6.761  1.00  0.00     0.027 C 
BRANCH  10  11
ATOM     11  C   UNL     1       1.949  -7.625  -6.955  1.00  0.00    -0.031 C 
ATOM     12  C   UNL     1       1.508  -6.471  -7.489  1.00  0.00    -0.031 C 
BRANCH  12  13
ATOM     13  C   UNL     1       2.423  -5.383  -8.003  1.00  0.00     0.027 C 
BRANCH  13  14
ATOM     14  C   UNL     1       2.386  -4.124  -7.122  1.00  0.00     0.004 C 
BRANCH  14  15
ATOM     15  C   UNL     1       2.702  -2.820  -7.878  1.00  0.00     0.000 C 
BRANCH  15  16
ATOM     16  C   UNL     1       2.903  -1.622  -6.937  1.00  0.00    -0.000 C 
BRANCH  16  17
ATOM     17  C   UNL     1       1.793  -0.583  -7.130  1.00  0.00    -0.003 C 
ATOM     18  C   UNL     1       1.531  -0.322  -8.610  1.00  0.00     0.004 C 
ENDBRANCH  16  17
ENDBRANCH  15  16
ENDBRANCH  14  15
ENDBRANCH  13  14
ENDBRANCH  12  13
ENDBRANCH  10  11
ENDBRANCH   1  10
TORSDOF 13
ENDMDL
MODEL 3
REMARK VINA RESULT:    -3.786      2.827      7.160
REMARK INTER + INTRA:          -8.084
REMARK INTER:                  -6.318
REMARK INTRA:                  -1.766
REMARK UNBOUND:                -1.420
REMARK SMILES CCCCCCC=CCCCCCCCC(=O)[O-]
REMARK SMILES IDX 10 1 11 2 12 3 13 4 14 5 15 6 16 7 17 8 18 9 9 10 8 11 7 12
REMARK SMILES IDX 6 13 5 14 4 15 3 16 2 17 1 18
REMARK H PARENT
REMARK Flexibility Score: inf
ROOT
ATOM      1  C   UNL     1       4.947  -6.308  -5.623  1.00  0.00     0.004 C 
ENDROOT
BRANCH   1   2
ATOM      2  C   UNL     1       4.384  -5.764  -6.943  1.00  0.00     0.000 C 
BRANCH   2   3
ATOM      3  C   UNL     1       2.849  -5.648  -6.936  1.00  0.00     0.000 C 
BRANCH   3   4
ATOM      4  C   UNL     1       2.289  -4.344  -7.540  1.00  0.00     0.000 C 
BRANCH   4   5
ATOM      5  C   UNL     1       3.328  -3.232  -7.769  1.00  0.00     0.006 C 
BRANCH   5   6
ATOM      6  C   UNL     1       3.147  -2.042  -6.819  1.00  0.00     0.053 C 
BRANCH   6   7
ATOM      7  C   UNL     1       2.194  -1.047  -7.403  1.00  0.00     0.041 C 
ATOM      8  O   UNL     1       2.474  -0.461  -8.481  1.00  0.00    -0.550 OA
ATOM      9  O   UNL     1       1.019  -0.733  -6.733  1.00  0.00    -0.550 OA
ENDBRANCH   6   7
ENDBRANCH   5   6
ENDBRANCH   4   5
ENDBRANCH   3   4
ENDBRANCH   2   3
ENDBRANCH   1   2
BRANCH   1  10
ATOM     10  C   UNL     1       5.528  -5.176  -4.768  1.00  0.00     0.027 C 
BRANCH  10  11
ATOM     11  C   UNL     1       6.160  -4.116  -5.635  1.00  0.00    -0.031 C 
ATOM     12  C   UNL     1       6.275  -2.821  -5.290  1.00  0.00    -0.031 C 
BRANCH  12  13
ATOM     13  C   UNL     1       5.818  -2.264  -3.961  1.00  0.00     0.027 C 
BRANCH  13  14
ATOM     14  C   UNL     1       6.964  -2.179  -2.939  1.00  0.00     0.004 C 
BRANCH  14  15
ATOM     15  C   UNL     1       8.344  -1.903  -3.565  1.00  0.00     0.000 C 
BRANCH  15  16
ATOM     16  C   UNL     1       9.355  -3.026  -3.289  1.00  0.00    -0.000 C 
BRANCH  16  17
ATOM     17  C   UNL     1       8.831  -3.981  -2.210  1.00  0.00    -0.003 C 
ATOM     18  C   UNL     1       9.835  -4.130  -1.070  1.00  0.00     0.004 C 
ENDBRANCH  16  17
ENDBRANCH  15  16
ENDBRANCH  14  15
ENDBRANCH  13  14
ENDBRANCH  12  13
ENDBRANCH  10  11
ENDBRANCH   1  10
TORSDOF 13
ENDMDL
MODEL 4
REMARK VINA RESULT:    -3.785      1.199      2.698
REMARK INTER + INTRA:          -8.081
REMARK INTER:                  -6.689
REMARK INTRA:                  -1.392
REMARK UNBOUND:                -1.420
REMARK SMILES CCCCCCC=CCCCCCCCC(=O)[O-]
REMARK SMILES IDX 10 1 11 2 12 3 13 4 14 5 15 6 16 7 17 8 18 9 9 10 8 11 7 12
REMARK SMILES IDX 6 13 5 14 4 15 3 16 2 17 1 18
REMARK H PARENT
REMARK Flexibility Score: inf
ROOT
ATOM      1  C   UNL     1       3.942  -6.783  -5.943  1.00  0.00     0.004 C 
ENDROOT
BRANCH   1   2
ATOM      2  C   UNL     1       5.165  -6.381  -5.106  1.00  0.00     0.000 C 
BRANCH   2   3
ATOM      3  C   UNL     1       5.462  -4.872  -5.170  1.00  0.00     0.000 C 
BRANCH   3   4
ATOM      4  C   UNL     1       5.943  -4.244  -3.846  1.00  0.00     0.000 C 
BRANCH   4   5
ATOM      5  C   UNL     1       5.879  -2.707  -3.791  1.00  0.00     0.006 C 
BRANCH   5   6
ATOM      6  C   UNL     1       7.092  -2.085  -3.086  1.00  0.00     0.053 C 
BRANCH   6   7
ATOM      7  C   UNL     1       8.245  -1.971  -4.033  1.00  0.00     0.041 C 
ATOM      8  O   UNL     1       8.228  -1.108  -4.949  1.00  0.00    -0.550 OA
ATOM      9  O   UNL     1       9.317  -2.848  -3.932  1.00  0.00    -0.550 OA
ENDBRANCH   6   7
ENDBRANCH   5   6
ENDBRANCH   4   5
ENDBRANCH   3   4
ENDBRANCH   2   3
ENDBRANCH   1   2
BRANCH   1  10
ATOM     10  C   UNL     1       3.789  -5.869  -7.164  1.00  0.00     0.027 C 
BRANCH  10  11
ATOM     11  C   UNL     1       2.414  -5.251  -7.205  1.00  0.00    -0.031 C 
ATOM     12  C   UNL     1       2.176  -3.936  -7.353  1.00  0.00    -0.031 C 
BRANCH  12  13
ATOM     13  C   UNL     1       3.264  -2.902  -7.538  1.00  0.00     0.027 C 
BRANCH  13  14
ATOM     14  C   UNL     1       3.077  -1.687  -6.615  1.00  0.00     0.004 C 
BRANCH  14  15
ATOM     15  C   UNL     1       2.033  -0.672  -7.118  1.00  0.00     0.000 C 
BRANCH  15  16
ATOM     16  C   UNL     1       2.008  -0.557  -8.650  1.00  0.00    -0.000 C 
BRANCH  16  17
ATOM     17  C   UNL     1       0.575  -0.362  -9.160  1.00  0.00    -0.003 C 
ATOM     18  C   UNL     1      -0.317  -1.535  -8.761  1.00  0.00     0.004 C 
ENDBRANCH  16  17
ENDBRANCH  15  16
ENDBRANCH  14  15
ENDBRANCH  13  14
ENDBRANCH  12  13
ENDBRANCH  10  11
ENDBRANCH   1  10
TORSDOF 13
ENDMDL
MODEL 5
REMARK VINA RESULT:    -3.727      2.754      6.443
REMARK INTER + INTRA:          -7.980
REMARK INTER:                  -6.393
REMARK INTRA:                  -1.587
REMARK UNBOUND:                -1.420
REMARK SMILES CCCCCCC=CCCCCCCCC(=O)[O-]
REMARK SMILES IDX 10 1 11 2 12 3 13 4 14 5 15 6 16 7 17 8 18 9 9 10 8 11 7 12
REMARK SMILES IDX 6 13 5 14 4 15 3 16 2 17 1 18
REMARK H PARENT
REMARK Flexibility Score: inf
ROOT
ATOM      1  C   UNL     1       2.090  -8.536  -7.580  1.00  0.00     0.004 C 
ENDROOT
BRANCH   1   2
ATOM      2  C   UNL     1       1.336  -7.200  -7.519  1.00  0.00     0.000 C 
BRANCH   2   3
ATOM      3  C   UNL     1       2.123  -6.040  -8.156  1.00  0.00     0.000 C 
BRANCH   3   4
ATOM      4  C   UNL     1       1.966  -4.678  -7.450  1.00  0.00     0.000 C 
BRANCH   4   5
ATOM      5  C   UNL     1       2.979  -3.601  -7.878  1.00  0.00     0.006 C 
BRANCH   5   6
ATOM      6  C   UNL     1       3.000  -2.393  -6.932  1.00  0.00     0.053 C 
BRANCH   6   7
ATOM      7  C   UNL     1       2.031  -1.351  -7.394  1.00  0.00     0.041 C 
ATOM      8  O   UNL     1       1.283  -0.771  -6.564  1.00  0.00    -0.550 OA
ATOM      9  O   UNL     1       1.921  -1.053  -8.746  1.00  0.00    -0.550 OA
ENDBRANCH   6   7
ENDBRANCH   5   6
ENDBRANCH   4   5
ENDBRANCH   3   4
ENDBRANCH   2   3
ENDBRANCH   1   2
BRANCH   1  10
ATOM     10  C   UNL     1       3.581  -8.337  -7.283  1.00  0.00     0.027 C 
BRANCH  10  11
ATOM     11  C   UNL     1       3.843  -8.364  -5.798  1.00  0.00    -0.031 C 
ATOM     12  C   UNL     1       4.409  -7.357  -5.108  1.00  0.00    -0.031 C 
BRANCH  12  13
ATOM     13  C   UNL     1       4.824  -6.044  -5.730  1.00  0.00     0.027 C 
BRANCH  13  14
ATOM     14  C   UNL     1       5.587  -5.145  -4.743  1.00  0.00     0.004 C 
BRANCH  14  15
ATOM     15  C   UNL     1       6.265  -3.928  -5.399  1.00  0.00     0.000 C 
BRANCH  15  16
ATOM     16  C   UNL     1       5.903  -2.604  -4.710  1.00  0.00    -0.000 C 
BRANCH  16  17
ATOM     17  C   UNL     1       6.340  -2.614  -3.240  1.00  0.00    -0.003 C 
ATOM     18  C   UNL     1       7.860  -2.575  -3.116  1.00  0.00     0.004 C 
ENDBRANCH  16  17
ENDBRANCH  15  16
ENDBRANCH  14  15
ENDBRANCH  13  14
ENDBRANCH  12  13
ENDBRANCH  10  11
ENDBRANCH   1  10
TORSDOF 13
ENDMDL
MODEL 6
REMARK VINA RESULT:    -3.712      2.875      6.466
REMARK INTER + INTRA:          -7.954
REMARK INTER:                  -6.248
REMARK INTRA:                  -1.706
REMARK UNBOUND:                -1.420
REMARK SMILES CCCCCCC=CCCCCCCCC(=O)[O-]
REMARK SMILES IDX 10 1 11 2 12 3 13 4 14 5 15 6 16 7 17 8 18 9 9 10 8 11 7 12
REMARK SMILES IDX 6 13 5 14 4 15 3 16 2 17 1 18
REMARK H PARENT
REMARK Flexibility Score: inf
ROOT
ATOM      1  C   UNL     1       3.263  -7.749  -6.068  1.00  0.00     0.004 C 
ENDROOT
BRANCH   1   2
ATOM      2  C   UNL     1       2.353  -7.000  -7.053  1.00  0.00     0.000 C 
BRANCH   2   3
ATOM      3  C   UNL     1       3.057  -5.811  -7.731  1.00  0.00     0.000 C 
BRANCH   3   4
ATOM      4  C   UNL     1       2.641  -4.421  -7.209  1.00  0.00     0.000 C 
BRANCH   4   5
ATOM      5  C   UNL     1       3.629  -3.283  -7.523  1.00  0.00     0.006 C 
BRANCH   5   6
ATOM      6  C   UNL     1       3.364  -2.018  -6.697  1.00  0.00     0.053 C 
BRANCH   6   7
ATOM      7  C   UNL     1       2.284  -1.199  -7.330  1.00  0.00     0.041 C 
ATOM      8  O   UNL     1       2.459  -0.693  -8.469  1.00  0.00    -0.550 OA
ATOM      9  O   UNL     1       1.102  -0.955  -6.642  1.00  0.00    -0.550 OA
ENDBRANCH   6   7
ENDBRANCH   5   6
ENDBRANCH   4   5
ENDBRANCH   3   4
ENDBRANCH   2   3
ENDBRANCH   1   2
BRANCH   1  10
ATOM     10  C   UNL     1       4.687  -7.183  -6.100  1.00  0.00     0.027 C 
BRANCH  10  11
ATOM     11  C   UNL     1       5.031  -6.519  -4.791  1.00  0.00    -0.031 C 
ATOM     12  C   UNL     1       5.819  -5.434  -4.672  1.00  0.00    -0.031 C 
BRANCH  12  13
ATOM     13  C   UNL     1       6.434  -4.713  -5.850  1.00  0.00     0.027 C 
BRANCH  13  14
ATOM     14  C   UNL     1       6.720  -3.233  -5.544  1.00  0.00     0.004 C 
BRANCH  14  15
ATOM     15  C   UNL     1       6.035  -2.714  -4.266  1.00  0.00     0.000 C 
BRANCH  15  16
ATOM     16  C   UNL     1       7.040  -2.273  -3.191  1.00  0.00    -0.000 C 
BRANCH  16  17
ATOM     17  C   UNL     1       8.442  -2.103  -3.790  1.00  0.00    -0.003 C 
ATOM     18  C   UNL     1       8.685  -0.661  -4.225  1.00  0.00     0.004 C 
ENDBRANCH  16  17
ENDBRANCH  15  16
ENDBRANCH  14  15
ENDBRANCH  13  14
ENDBRANCH  12  13
ENDBRANCH  10  11
ENDBRANCH   1  10
TORSDOF 13
ENDMDL
MODEL 7
REMARK VINA RESULT:    -3.689      1.667      3.433
REMARK INTER + INTRA:          -7.913
REMARK INTER:                  -5.973
REMARK INTRA:                  -1.940
REMARK UNBOUND:                -1.420
REMARK SMILES CCCCCCC=CCCCCCCCC(=O)[O-]
REMARK SMILES IDX 10 1 11 2 12 3 13 4 14 5 15 6 16 7 17 8 18 9 9 10 8 11 7 12
REMARK SMILES IDX 6 13 5 14 4 15 3 16 2 17 1 18
REMARK H PARENT
REMARK Flexibility Score: inf
ROOT
ATOM      1  C   UNL     1       2.327  -8.341  -6.783  1.00  0.00     0.004 C 
ENDROOT
BRANCH   1   2
ATOM      2  C   UNL     1       3.538  -8.186  -5.852  1.00  0.00     0.000 C 
BRANCH   2   3
ATOM      3  C   UNL     1       3.956  -6.717  -5.656  1.00  0.00     0.000 C 
BRANCH   3   4
ATOM      4  C   UNL     1       5.453  -6.427  -5.890  1.00  0.00     0.000 C 
BRANCH   4   5
ATOM      5  C   UNL     1       5.889  -4.979  -5.603  1.00  0.00     0.006 C 
BRANCH   5   6
ATOM      6  C   UNL     1       5.938  -4.657  -4.104  1.00  0.00     0.053 C 
BRANCH   6   7
ATOM      7  C   UNL     1       6.061  -3.181  -3.891  1.00  0.00     0.041 C 
ATOM      8  O   UNL     1       5.585  -2.378  -4.735  1.00  0.00    -0.550 OA
ATOM      9  O   UNL     1       6.744  -2.693  -2.784  1.00  0.00    -0.550 OA
ENDBRANCH   6   7
ENDBRANCH   5   6
ENDBRANCH   4   5
ENDBRANCH   3   4
ENDBRANCH   2   3
ENDBRANCH   1   2
BRANCH   1  10
ATOM     10  C   UNL     1       1.745  -6.974  -7.157  1.00  0.00     0.027 C 
BRANCH  10  11
ATOM     11  C   UNL     1       1.536  -6.867  -8.647  1.00  0.00    -0.031 C 
ATOM     12  C   UNL     1       2.363  -6.217  -9.486  1.00  0.00    -0.031 C 
BRANCH  12  13
ATOM     13  C   UNL     1       3.639  -5.537  -9.044  1.00  0.00     0.027 C 
BRANCH  13  14
ATOM     14  C   UNL     1       3.483  -4.011  -8.945  1.00  0.00     0.004 C 
BRANCH  14  15
ATOM     15  C   UNL     1       3.127  -3.507  -7.534  1.00  0.00     0.000 C 
BRANCH  15  16
ATOM     16  C   UNL     1       1.616  -3.316  -7.335  1.00  0.00    -0.000 C 
BRANCH  16  17
ATOM     17  C   UNL     1       1.182  -1.908  -7.762  1.00  0.00    -0.003 C 
ATOM     18  C   UNL     1       2.089  -0.843  -7.153  1.00  0.00     0.004 C 
ENDBRANCH  16  17
ENDBRANCH  15  16
ENDBRANCH  14  15
ENDBRANCH  13  14
ENDBRANCH  12  13
ENDBRANCH  10  11
ENDBRANCH   1  10
TORSDOF 13
ENDMDL
MODEL 8
REMARK VINA RESULT:    -3.633      1.240      2.990
REMARK INTER + INTRA:          -7.814
REMARK INTER:                  -5.831
REMARK INTRA:                  -1.983
REMARK UNBOUND:                -1.420
REMARK SMILES CCCCCCC=CCCCCCCCC(=O)[O-]
REMARK SMILES IDX 10 1 11 2 12 3 13 4 14 5 15 6 16 7 17 8 18 9 9 10 8 11 7 12
REMARK SMILES IDX 6 13 5 14 4 15 3 16 2 17 1 18
REMARK H PARENT
REMARK Flexibility Score: inf
ROOT
ATOM      1  C   UNL     1       1.417  -5.408  -8.956  1.00  0.00     0.004 C 
ENDROOT
BRANCH   1   2
ATOM      2  C   UNL     1       2.107  -5.147  -7.609  1.00  0.00     0.000 C 
BRANCH   2   3
ATOM      3  C   UNL     1       2.682  -6.427  -6.975  1.00  0.00     0.000 C 
BRANCH   3   4
ATOM      4  C   UNL     1       3.979  -6.230  -6.165  1.00  0.00     0.000 C 
BRANCH   4   5
ATOM      5  C   UNL     1       4.672  -4.870  -6.364  1.00  0.00     0.006 C 
BRANCH   5   6
ATOM      6  C   UNL     1       5.498  -4.438  -5.146  1.00  0.00     0.053 C 
BRANCH   6   7
ATOM      7  C   UNL     1       5.900  -3.002  -5.270  1.00  0.00     0.041 C 
ATOM      8  O   UNL     1       5.516  -2.162  -4.416  1.00  0.00    -0.550 OA
ATOM      9  O   UNL     1       6.661  -2.583  -6.354  1.00  0.00    -0.550 OA
ENDBRANCH   6   7
ENDBRANCH   5   6
ENDBRANCH   4   5
ENDBRANCH   3   4
ENDBRANCH   2   3
ENDBRANCH   1   2
BRANCH   1  10
ATOM     10  C   UNL     1       1.304  -4.115  -9.772  1.00  0.00     0.027 C 
BRANCH  10  11
ATOM     11  C   UNL     1      -0.076  -3.973 -10.365  1.00  0.00    -0.031 C 
ATOM     12  C   UNL     1      -0.981  -3.058  -9.974  1.00  0.00    -0.031 C 
BRANCH  12  13
ATOM     13  C   UNL     1      -0.716  -2.021  -8.906  1.00  0.00     0.027 C 
BRANCH  13  14
ATOM     14  C   UNL     1       0.093  -0.827  -9.440  1.00  0.00     0.004 C 
BRANCH  14  15
ATOM     15  C   UNL     1       1.266  -0.409  -8.534  1.00  0.00     0.000 C 
BRANCH  15  16
ATOM     16  C   UNL     1       1.409  -1.307  -7.296  1.00  0.00    -0.000 C 
BRANCH  16  17
ATOM     17  C   UNL     1       2.885  -1.500  -6.927  1.00  0.00    -0.003 C 
ATOM     18  C   UNL     1       3.734  -1.765  -8.167  1.00  0.00     0.004 C 
ENDBRANCH  16  17
ENDBRANCH  15  16
ENDBRANCH  14  15
ENDBRANCH  13  14
ENDBRANCH  12  13
ENDBRANCH  10  11
ENDBRANCH   1  10
TORSDOF 13
ENDMDL
MODEL 9
REMARK VINA RESULT:    -3.630      2.758      6.338
REMARK INTER + INTRA:          -7.809
REMARK INTER:                  -5.553
REMARK INTRA:                  -2.256
REMARK UNBOUND:                -1.420
REMARK SMILES CCCCCCC=CCCCCCCCC(=O)[O-]
REMARK SMILES IDX 10 1 11 2 12 3 13 4 14 5 15 6 16 7 17 8 18 9 9 10 8 11 7 12
REMARK SMILES IDX 6 13 5 14 4 15 3 16 2 17 1 18
REMARK H PARENT
REMARK Flexibility Score: inf
ROOT
ATOM      1  C   UNL     1       3.986  -7.321  -6.088  1.00  0.00     0.004 C 
ENDROOT
BRANCH   1   2
ATOM      2  C   UNL     1       3.063  -7.531  -7.296  1.00  0.00     0.000 C 
BRANCH   2   3
ATOM      3  C   UNL     1       1.847  -6.586  -7.290  1.00  0.00     0.000 C 
BRANCH   3   4
ATOM      4  C   UNL     1       1.599  -5.832  -8.613  1.00  0.00     0.000 C 
BRANCH   4   5
ATOM      5  C   UNL     1       2.056  -4.363  -8.622  1.00  0.00     0.006 C 
BRANCH   5   6
ATOM      6  C   UNL     1       1.796  -3.649  -7.289  1.00  0.00     0.053 C 
BRANCH   6   7
ATOM      7  C   UNL     1       1.964  -2.171  -7.446  1.00  0.00     0.041 C 
ATOM      8  O   UNL     1       1.180  -1.379  -6.860  1.00  0.00    -0.550 OA
ATOM      9  O   UNL     1       2.957  -1.668  -8.278  1.00  0.00    -0.550 OA
ENDBRANCH   6   7
ENDBRANCH   5   6
ENDBRANCH   4   5
ENDBRANCH   3   4
ENDBRANCH   2   3
ENDBRANCH   1   2
BRANCH   1  10
ATOM     10  C   UNL     1       4.257  -5.830  -5.858  1.00  0.00     0.027 C 
BRANCH  10  11
ATOM     11  C   UNL     1       5.231  -5.296  -6.878  1.00  0.00    -0.031 C 
ATOM     12  C   UNL     1       5.671  -4.025  -6.917  1.00  0.00    -0.031 C 
BRANCH  12  13
ATOM     13  C   UNL     1       5.271  -2.969  -5.912  1.00  0.00     0.027 C 
BRANCH  13  14
ATOM     14  C   UNL     1       6.464  -2.477  -5.076  1.00  0.00     0.004 C 
BRANCH  14  15
ATOM     15  C   UNL     1       6.419  -2.916  -3.600  1.00  0.00     0.000 C 
BRANCH  15  16
ATOM     16  C   UNL     1       7.489  -3.963  -3.259  1.00  0.00    -0.000 C 
BRANCH  16  17
ATOM     17  C   UNL     1       6.974  -5.381  -3.534  1.00  0.00    -0.003 C 
ATOM     18  C   UNL     1       7.931  -6.151  -4.439  1.00  0.00     0.004 C 
ENDBRANCH  16  17
ENDBRANCH  15  16
ENDBRANCH  14  15
ENDBRANCH  13  14
ENDBRANCH  12  13
ENDBRANCH  10  11
ENDBRANCH   1  10
TORSDOF 13
ENDMDL
