MODEL 1
REMARK VINA RESULT:    -3.338      0.000      0.000
REMARK INTER + INTRA:          -5.083
REMARK INTER:                  -4.705
REMARK INTRA:                  -0.378
REMARK UNBOUND:                -0.378
REMARK SMILES CCCCCCCCC(=O)[O-]
REMARK SMILES IDX 6 1 7 2 8 3 9 4 10 5 11 6 5 7 4 8 3 9 2 10 1 11
REMARK H PARENT
REMARK Flexibility Score: inf
ROOT
ATOM      1  C   UNL     1      53.869  52.598  47.242  1.00  0.00     0.000 C 
ENDROOT
BRANCH   1   2
ATOM      2  C   UNL     1      52.626  52.475  48.139  1.00  0.00     0.006 C 
BRANCH   2   3
ATOM      3  C   UNL     1      52.993  52.223  49.608  1.00  0.00     0.053 C 
BRANCH   3   4
ATOM      4  C   UNL     1      52.466  53.299  50.508  1.00  0.00     0.041 C 
ATOM      5  O   UNL     1      52.777  54.502  50.307  1.00  0.00    -0.550 OA
ATOM      6  O   UNL     1      51.606  52.976  51.550  1.00  0.00    -0.550 OA
ENDBRANCH   3   4
ENDBRANCH   2   3
ENDBRANCH   1   2
BRANCH   1   7
ATOM      7  C   UNL     1      54.138  54.044  46.798  1.00  0.00     0.000 C 
BRANCH   7   8
ATOM      8  C   UNL     1      52.883  54.928  46.866  1.00  0.00    -0.000 C 
BRANCH   8   9
ATOM      9  C   UNL     1      52.872  55.952  45.724  1.00  0.00    -0.000 C 
BRANCH   9  10
ATOM     10  C   UNL     1      51.440  56.379  45.382  1.00  0.00    -0.003 C 
ATOM     11  C   UNL     1      51.265  56.564  43.877  1.00  0.00     0.004 C 
ENDBRANCH   9  10
ENDBRANCH   8   9
ENDBRANCH   7   8
ENDBRANCH   1   7
TORSDOF 7
ENDMDL
MODEL 2
REMARK VINA RESULT:    -3.308      2.587      5.316
REMARK INTER + INTRA:          -5.039
REMARK INTER:                  -4.630
REMARK INTRA:                  -0.408
REMARK UNBOUND:                -0.378
REMARK SMILES CCCCCCCCC(=O)[O-]
REMARK SMILES IDX 6 1 7 2 8 3 9 4 10 5 11 6 5 7 4 8 3 9 2 10 1 11
REMARK H PARENT
REMARK Flexibility Score: inf
ROOT
ATOM      1  C   UNL     1      53.315  53.139  47.436  1.00  0.00     0.000 C 
ENDROOT
BRANCH   1   2
ATOM      2  C   UNL     1      53.108  54.661  47.507  1.00  0.00     0.006 C 
BRANCH   2   3
ATOM      3  C   UNL     1      53.134  55.315  46.118  1.00  0.00     0.053 C 
BRANCH   3   4
ATOM      4  C   UNL     1      52.117  56.408  45.997  1.00  0.00     0.041 C 
ATOM      5  O   UNL     1      52.097  57.351  46.831  1.00  0.00    -0.550 OA
ATOM      6  O   UNL     1      51.210  56.402  44.944  1.00  0.00    -0.550 OA
ENDBRANCH   3   4
ENDBRANCH   2   3
ENDBRANCH   1   2
BRANCH   1   7
ATOM      7  C   UNL     1      52.375  52.369  48.376  1.00  0.00     0.000 C 
BRANCH   7   8
ATOM      8  C   UNL     1      53.014  52.073  49.742  1.00  0.00    -0.000 C 
BRANCH   8   9
ATOM      9  C   UNL     1      52.007  52.292  50.878  1.00  0.00    -0.000 C 
BRANCH   9  10
ATOM     10  C   UNL     1      52.505  53.360  51.857  1.00  0.00    -0.003 C 
ATOM     11  C   UNL     1      52.358  54.760  51.267  1.00  0.00     0.004 C 
ENDBRANCH   9  10
ENDBRANCH   8   9
ENDBRANCH   7   8
ENDBRANCH   1   7
TORSDOF 7
ENDMDL
MODEL 3
REMARK VINA RESULT:    -3.259      2.590      5.654
REMARK INTER + INTRA:          -4.971
REMARK INTER:                  -4.649
REMARK INTRA:                  -0.322
REMARK UNBOUND:                -0.378
REMARK SMILES CCCCCCCCC(=O)[O-]
REMARK SMILES IDX 6 1 7 2 8 3 9 4 10 5 11 6 5 7 4 8 3 9 2 10 1 11
REMARK H PARENT
REMARK Flexibility Score: inf
ROOT
ATOM      1  C   UNL     1      53.262  53.044  47.282  1.00  0.00     0.000 C 
ENDROOT
BRANCH   1   2
ATOM      2  C   UNL     1      53.217  54.565  47.503  1.00  0.00     0.006 C 
BRANCH   2   3
ATOM      3  C   UNL     1      53.264  55.344  46.181  1.00  0.00     0.053 C 
BRANCH   3   4
ATOM      4  C   UNL     1      52.223  56.422  46.131  1.00  0.00     0.041 C 
ATOM      5  O   UNL     1      52.263  57.379  46.948  1.00  0.00    -0.550 OA
ATOM      6  O   UNL     1      51.228  56.384  45.163  1.00  0.00    -0.550 OA
ENDBRANCH   3   4
ENDBRANCH   2   3
ENDBRANCH   1   2
BRANCH   1   7
ATOM      7  C   UNL     1      52.806  52.252  48.518  1.00  0.00     0.000 C 
BRANCH   7   8
ATOM      8  C   UNL     1      52.306  53.161  49.652  1.00  0.00    -0.000 C 
BRANCH   8   9
ATOM      9  C   UNL     1      52.044  52.351  50.928  1.00  0.00    -0.000 C 
BRANCH   9  10
ATOM     10  C   UNL     1      52.478  50.892  50.753  1.00  0.00    -0.003 C 
ATOM     11  C   UNL     1      53.616  50.536  51.706  1.00  0.00     0.004 C 
ENDBRANCH   9  10
ENDBRANCH   8   9
ENDBRANCH   7   8
ENDBRANCH   1   7
TORSDOF 7
ENDMDL
MODEL 4
REMARK VINA RESULT:    -3.243      2.912      5.436
REMARK INTER + INTRA:          -4.948
REMARK INTER:                  -4.616
REMARK INTRA:                  -0.332
REMARK UNBOUND:                -0.378
REMARK SMILES CCCCCCCCC(=O)[O-]
REMARK SMILES IDX 6 1 7 2 8 3 9 4 10 5 11 6 5 7 4 8 3 9 2 10 1 11
REMARK H PARENT
REMARK Flexibility Score: inf
ROOT
ATOM      1  C   UNL     1      54.261  53.925  47.309  1.00  0.00     0.000 C 
ENDROOT
BRANCH   1   2
ATOM      2  C   UNL     1      53.873  54.860  46.152  1.00  0.00     0.006 C 
BRANCH   2   3
ATOM      3  C   UNL     1      52.725  55.806  46.532  1.00  0.00     0.053 C 
BRANCH   3   4
ATOM      4  C   UNL     1      52.008  56.327  45.324  1.00  0.00     0.041 C 
ATOM      5  O   UNL     1      52.596  56.379  44.212  1.00  0.00    -0.550 OA
ATOM      6  O   UNL     1      50.681  56.727  45.420  1.00  0.00    -0.550 OA
ENDBRANCH   3   4
ENDBRANCH   2   3
ENDBRANCH   1   2
BRANCH   1   7
ATOM      7  C   UNL     1      53.463  52.612  47.303  1.00  0.00     0.000 C 
BRANCH   7   8
ATOM      8  C   UNL     1      53.151  52.101  48.718  1.00  0.00    -0.000 C 
BRANCH   8   9
ATOM      9  C   UNL     1      52.356  53.144  49.514  1.00  0.00    -0.000 C 
BRANCH   9  10
ATOM     10  C   UNL     1      51.964  52.601  50.892  1.00  0.00    -0.003 C 
ATOM     11  C   UNL     1      52.674  53.362  52.008  1.00  0.00     0.004 C 
ENDBRANCH   9  10
ENDBRANCH   8   9
ENDBRANCH   7   8
ENDBRANCH   1   7
TORSDOF 7
ENDMDL
MODEL 5
REMARK VINA RESULT:    -3.124     12.516     14.129
REMARK INTER + INTRA:          -4.780
REMARK INTER:                  -4.561
REMARK INTRA:                  -0.219
REMARK UNBOUND:                -0.378
REMARK SMILES CCCCCCCCC(=O)[O-]
REMARK SMILES IDX 6 1 7 2 8 3 9 4 10 5 11 6 5 7 4 8 3 9 2 10 1 11
REMARK H PARENT
REMARK Flexibility Score: inf
ROOT
ATOM      1  C   UNL     1      50.908  53.346  62.163  1.00  0.00     0.000 C 
ENDROOT
BRANCH   1   2
ATOM      2  C   UNL     1      50.389  51.981  61.683  1.00  0.00     0.006 C 
BRANCH   2   3
ATOM      3  C   UNL     1      51.001  50.816  62.475  1.00  0.00     0.053 C 
BRANCH   3   4
ATOM      4  C   UNL     1      50.213  49.553  62.308  1.00  0.00     0.041 C 
ATOM      5  O   UNL     1      49.627  49.036  63.295  1.00  0.00    -0.550 OA
ATOM      6  O   UNL     1      50.101  48.963  61.055  1.00  0.00    -0.550 OA
ENDBRANCH   3   4
ENDBRANCH   2   3
ENDBRANCH   1   2
BRANCH   1   7
ATOM      7  C   UNL     1      50.540  54.490  61.206  1.00  0.00     0.000 C 
BRANCH   7   8
ATOM      8  C   UNL     1      50.021  55.735  61.942  1.00  0.00    -0.000 C 
BRANCH   8   9
ATOM      9  C   UNL     1      49.303  56.685  60.975  1.00  0.00    -0.000 C 
BRANCH   9  10
ATOM     10  C   UNL     1      49.790  56.477  59.537  1.00  0.00    -0.003 C 
ATOM     11  C   UNL     1      49.335  57.617  58.630  1.00  0.00     0.004 C 
ENDBRANCH   9  10
ENDBRANCH   8   9
ENDBRANCH   7   8
ENDBRANCH   1   7
TORSDOF 7
ENDMDL
MODEL 6
REMARK VINA RESULT:    -3.105      1.295      1.833
REMARK INTER + INTRA:          -4.754
REMARK INTER:                  -4.346
REMARK INTRA:                  -0.408
REMARK UNBOUND:                -0.378
REMARK SMILES CCCCCCCCC(=O)[O-]
REMARK SMILES IDX 6 1 7 2 8 3 9 4 10 5 11 6 5 7 4 8 3 9 2 10 1 11
REMARK H PARENT
REMARK Flexibility Score: inf
ROOT
ATOM      1  C   UNL     1      53.522  53.479  47.234  1.00  0.00     0.000 C 
ENDROOT
BRANCH   1   2
ATOM      2  C   UNL     1      52.794  52.278  47.860  1.00  0.00     0.006 C 
BRANCH   2   3
ATOM      3  C   UNL     1      53.488  51.780  49.136  1.00  0.00     0.053 C 
BRANCH   3   4
ATOM      4  C   UNL     1      52.543  51.716  50.297  1.00  0.00     0.041 C 
ATOM      5  O   UNL     1      52.389  50.638  50.930  1.00  0.00    -0.550 OA
ATOM      6  O   UNL     1      51.855  52.854  50.698  1.00  0.00    -0.550 OA
ENDBRANCH   3   4
ENDBRANCH   2   3
ENDBRANCH   1   2
BRANCH   1   7
ATOM      7  C   UNL     1      53.052  54.823  47.812  1.00  0.00     0.000 C 
BRANCH   7   8
ATOM      8  C   UNL     1      53.273  55.995  46.843  1.00  0.00    -0.000 C 
BRANCH   8   9
ATOM      9  C   UNL     1      52.164  56.048  45.785  1.00  0.00    -0.000 C 
BRANCH   9  10
ATOM     10  C   UNL     1      52.725  56.462  44.420  1.00  0.00    -0.003 C 
ATOM     11  C   UNL     1      54.251  56.425  44.416  1.00  0.00     0.004 C 
ENDBRANCH   9  10
ENDBRANCH   8   9
ENDBRANCH   7   8
ENDBRANCH   1   7
TORSDOF 7
ENDMDL
MODEL 7
REMARK VINA RESULT:    -2.998      2.945      5.499
REMARK INTER + INTRA:          -4.602
REMARK INTER:                  -4.005
REMARK INTRA:                  -0.597
REMARK UNBOUND:                -0.378
REMARK SMILES CCCCCCCCC(=O)[O-]
REMARK SMILES IDX 6 1 7 2 8 3 9 4 10 5 11 6 5 7 4 8 3 9 2 10 1 11
REMARK H PARENT
REMARK Flexibility Score: inf
ROOT
ATOM      1  C   UNL     1      53.797  55.207  50.121  1.00  0.00     0.000 C 
ENDROOT
BRANCH   1   2
ATOM      2  C   UNL     1      53.268  55.736  48.778  1.00  0.00     0.006 C 
BRANCH   2   3
ATOM      3  C   UNL     1      53.114  54.620  47.735  1.00  0.00     0.053 C 
BRANCH   3   4
ATOM      4  C   UNL     1      53.163  55.153  46.335  1.00  0.00     0.041 C 
ATOM      5  O   UNL     1      54.151  54.902  45.596  1.00  0.00    -0.550 OA
ATOM      6  O   UNL     1      52.103  55.900  45.838  1.00  0.00    -0.550 OA
ENDBRANCH   3   4
ENDBRANCH   2   3
ENDBRANCH   1   2
BRANCH   1   7
ATOM      7  C   UNL     1      52.695  55.086  51.185  1.00  0.00     0.000 C 
BRANCH   7   8
ATOM      8  C   UNL     1      52.674  53.707  51.863  1.00  0.00    -0.000 C 
BRANCH   8   9
ATOM      9  C   UNL     1      51.823  52.715  51.061  1.00  0.00    -0.000 C 
BRANCH   9  10
ATOM     10  C   UNL     1      52.556  51.382  50.880  1.00  0.00    -0.003 C 
ATOM     11  C   UNL     1      53.413  51.390  49.617  1.00  0.00     0.004 C 
ENDBRANCH   9  10
ENDBRANCH   8   9
ENDBRANCH   7   8
ENDBRANCH   1   7
TORSDOF 7
ENDMDL
MODEL 8
REMARK VINA RESULT:    -2.993     11.633     13.128
REMARK INTER + INTRA:          -4.595
REMARK INTER:                  -4.327
REMARK INTRA:                  -0.269
REMARK UNBOUND:                -0.378
REMARK SMILES CCCCCCCCC(=O)[O-]
REMARK SMILES IDX 6 1 7 2 8 3 9 4 10 5 11 6 5 7 4 8 3 9 2 10 1 11
REMARK H PARENT
REMARK Flexibility Score: inf
ROOT
ATOM      1  C   UNL     1      50.611  54.909  60.394  1.00  0.00     0.000 C 
ENDROOT
BRANCH   1   2
ATOM      2  C   UNL     1      51.430  53.769  61.023  1.00  0.00     0.006 C 
BRANCH   2   3
ATOM      3  C   UNL     1      50.545  52.761  61.769  1.00  0.00     0.053 C 
BRANCH   3   4
ATOM      4  C   UNL     1      50.937  51.346  61.470  1.00  0.00     0.041 C 
ATOM      5  O   UNL     1      52.148  51.046  61.300  1.00  0.00    -0.550 OA
ATOM      6  O   UNL     1      49.967  50.353  61.411  1.00  0.00    -0.550 OA
ENDBRANCH   3   4
ENDBRANCH   2   3
ENDBRANCH   1   2
BRANCH   1   7
ATOM      7  C   UNL     1      49.919  55.790  61.446  1.00  0.00     0.000 C 
BRANCH   7   8
ATOM      8  C   UNL     1      49.157  56.969  60.821  1.00  0.00    -0.000 C 
BRANCH   8   9
ATOM      9  C   UNL     1      49.218  56.912  59.289  1.00  0.00    -0.000 C 
BRANCH   9  10
ATOM     10  C   UNL     1      49.991  58.108  58.724  1.00  0.00    -0.003 C 
ATOM     11  C   UNL     1      49.490  58.480  57.331  1.00  0.00     0.004 C 
ENDBRANCH   9  10
ENDBRANCH   8   9
ENDBRANCH   7   8
ENDBRANCH   1   7
TORSDOF 7
ENDMDL
MODEL 9
REMARK VINA RESULT:    -2.927      2.330      4.969
REMARK INTER + INTRA:          -4.503
REMARK INTER:                  -3.815
REMARK INTRA:                  -0.688
REMARK UNBOUND:                -0.378
REMARK SMILES CCCCCCCCC(=O)[O-]
REMARK SMILES IDX 6 1 7 2 8 3 9 4 10 5 11 6 5 7 4 8 3 9 2 10 1 11
REMARK H PARENT
REMARK Flexibility Score: inf
ROOT
ATOM      1  C   UNL     1      52.766  52.231  48.060  1.00  0.00     0.000 C 
ENDROOT
BRANCH   1   2
ATOM      2  C   UNL     1      53.570  53.284  47.278  1.00  0.00     0.006 C 
BRANCH   2   3
ATOM      3  C   UNL     1      52.918  54.672  47.336  1.00  0.00     0.053 C 
BRANCH   3   4
ATOM      4  C   UNL     1      53.552  55.544  48.377  1.00  0.00     0.041 C 
ATOM      5  O   UNL     1      54.559  55.139  49.014  1.00  0.00    -0.550 OA
ATOM      6  O   UNL     1      53.049  56.816  48.620  1.00  0.00    -0.550 OA
ENDBRANCH   3   4
ENDBRANCH   2   3
ENDBRANCH   1   2
BRANCH   1   7
ATOM      7  C   UNL     1      53.541  51.665  49.260  1.00  0.00     0.000 C 
BRANCH   7   8
ATOM      8  C   UNL     1      52.708  51.652  50.551  1.00  0.00    -0.000 C 
BRANCH   8   9
ATOM      9  C   UNL     1      51.962  52.979  50.735  1.00  0.00    -0.000 C 
BRANCH   9  10
ATOM     10  C   UNL     1      52.705  53.897  51.711  1.00  0.00    -0.003 C 
ATOM     11  C   UNL     1      53.480  53.088  52.748  1.00  0.00     0.004 C 
ENDBRANCH   9  10
ENDBRANCH   8   9
ENDBRANCH   7   8
ENDBRANCH   1   7
TORSDOF 7
ENDMDL
