MODEL 1
REMARK VINA RESULT:    22.295      0.000      0.000
REMARK INTER + INTRA:          49.898
REMARK INTER:                  50.969
REMARK INTRA:                  -1.071
REMARK UNBOUND:                -1.071
REMARK SMILES CCCCCCCCCCCCCCCCCCCCCCCC(=O)[O-]
REMARK SMILES IDX 13 1 14 2 15 3 16 4 17 5 18 6 19 7 20 8 21 9 22 10 23 11
REMARK SMILES IDX 24 12 25 13 26 14 12 15 11 16 10 17 9 18 8 19 7 20 6 21 5 22
REMARK SMILES IDX 4 23 3 24 2 25 1 26
REMARK H PARENT
REMARK Flexibility Score: inf
ROOT
ATOM      1  C   UNL     1       6.732  17.079  48.139  1.00  0.00     0.000 C 
ENDROOT
BRANCH   1   2
ATOM      2  C   UNL     1       7.585  16.721  46.910  1.00  0.00     0.000 C 
BRANCH   2   3
ATOM      3  C   UNL     1       8.953  16.120  47.285  1.00  0.00     0.000 C 
BRANCH   3   4
ATOM      4  C   UNL     1       9.761  15.548  46.105  1.00  0.00     0.000 C 
BRANCH   4   5
ATOM      5  C   UNL     1       8.952  14.565  45.245  1.00  0.00     0.000 C 
BRANCH   5   6
ATOM      6  C   UNL     1       9.281  14.739  43.753  1.00  0.00     0.000 C 
BRANCH   6   7
ATOM      7  C   UNL     1       9.925  13.483  43.143  1.00  0.00     0.000 C 
BRANCH   7   8
ATOM      8  C   UNL     1      11.453  13.454  43.328  1.00  0.00     0.000 C 
BRANCH   8   9
ATOM      9  C   UNL     1      12.080  12.132  42.859  1.00  0.00     0.000 C 
BRANCH   9  10
ATOM     10  C   UNL     1      12.965  11.483  43.938  1.00  0.00     0.006 C 
BRANCH  10  11
ATOM     11  C   UNL     1      14.454  11.784  43.721  1.00  0.00     0.053 C 
BRANCH  11  12
ATOM     12  C   UNL     1      15.247  11.600  44.979  1.00  0.00     0.041 C 
ATOM     13  O   UNL     1      14.660  11.454  46.084  1.00  0.00    -0.550 OA
ATOM     14  O   UNL     1      16.635  11.620  44.935  1.00  0.00    -0.550 OA
ENDBRANCH  11  12
ENDBRANCH  10  11
ENDBRANCH   9  10
ENDBRANCH   8   9
ENDBRANCH   7   8
ENDBRANCH   6   7
ENDBRANCH   5   6
ENDBRANCH   4   5
ENDBRANCH   3   4
ENDBRANCH   2   3
ENDBRANCH   1   2
BRANCH   1  15
ATOM     15  C   UNL     1       5.898  18.357  47.938  1.00  0.00     0.000 C 
BRANCH  15  16
ATOM     16  C   UNL     1       5.053  18.789  49.153  1.00  0.00     0.000 C 
BRANCH  16  17
ATOM     17  C   UNL     1       5.211  20.264  49.569  1.00  0.00     0.000 C 
BRANCH  17  18
ATOM     18  C   UNL     1       5.611  20.482  51.042  1.00  0.00    -0.000 C 
BRANCH  18  19
ATOM     19  C   UNL     1       4.612  19.923  52.075  1.00  0.00    -0.000 C 
BRANCH  19  20
ATOM     20  C   UNL     1       3.907  20.982  52.945  1.00  0.00    -0.000 C 
BRANCH  20  21
ATOM     21  C   UNL     1       3.822  20.645  54.445  1.00  0.00    -0.000 C 
BRANCH  21  22
ATOM     22  C   UNL     1       4.483  21.713  55.335  1.00  0.00    -0.000 C 
BRANCH  22  23
ATOM     23  C   UNL     1       5.850  21.257  55.872  1.00  0.00    -0.000 C 
BRANCH  23  24
ATOM     24  C   UNL     1       6.966  21.384  54.819  1.00  0.00    -0.000 C 
BRANCH  24  25
ATOM     25  C   UNL     1       8.142  20.433  55.096  1.00  0.00    -0.003 C 
ATOM     26  C   UNL     1       9.124  20.997  56.124  1.00  0.00     0.004 C 
ENDBRANCH  24  25
ENDBRANCH  23  24
ENDBRANCH  22  23
ENDBRANCH  21  22
ENDBRANCH  20  21
ENDBRANCH  19  20
ENDBRANCH  18  19
ENDBRANCH  17  18
ENDBRANCH  16  17
ENDBRANCH  15  16
ENDBRANCH   1  15
TORSDOF 22
ENDMDL
MODEL 2
REMARK VINA RESULT:    22.639      1.371      2.972
REMARK INTER + INTRA:          50.685
REMARK INTER:                  51.509
REMARK INTRA:                  -0.823
REMARK UNBOUND:                -1.071
REMARK SMILES CCCCCCCCCCCCCCCCCCCCCCCC(=O)[O-]
REMARK SMILES IDX 13 1 14 2 15 3 16 4 17 5 18 6 19 7 20 8 21 9 22 10 23 11
REMARK SMILES IDX 24 12 25 13 26 14 12 15 11 16 10 17 9 18 8 19 7 20 6 21 5 22
REMARK SMILES IDX 4 23 3 24 2 25 1 26
REMARK H PARENT
REMARK Flexibility Score: inf
ROOT
ATOM      1  C   UNL     1       8.002  15.330  46.086  1.00  0.00     0.000 C 
ENDROOT
BRANCH   1   2
ATOM      2  C   UNL     1       9.256  15.238  45.199  1.00  0.00     0.000 C 
BRANCH   2   3
ATOM      3  C   UNL     1       9.115  14.197  44.072  1.00  0.00     0.000 C 
BRANCH   3   4
ATOM      4  C   UNL     1      10.326  13.261  43.892  1.00  0.00     0.000 C 
BRANCH   4   5
ATOM      5  C   UNL     1      10.981  13.386  42.508  1.00  0.00     0.000 C 
BRANCH   5   6
ATOM      6  C   UNL     1      12.363  12.714  42.489  1.00  0.00     0.000 C 
BRANCH   6   7
ATOM      7  C   UNL     1      12.442  11.507  43.438  1.00  0.00     0.000 C 
BRANCH   7   8
ATOM      8  C   UNL     1      13.803  10.791  43.371  1.00  0.00     0.000 C 
BRANCH   8   9
ATOM      9  C   UNL     1      14.464  10.647  44.751  1.00  0.00     0.000 C 
BRANCH   9  10
ATOM     10  C   UNL     1      15.068  11.967  45.258  1.00  0.00     0.006 C 
BRANCH  10  11
ATOM     11  C   UNL     1      16.011  11.752  46.450  1.00  0.00     0.053 C 
BRANCH  11  12
ATOM     12  C   UNL     1      15.390  12.201  47.737  1.00  0.00     0.041 C 
ATOM     13  O   UNL     1      14.631  11.428  48.380  1.00  0.00    -0.550 OA
ATOM     14  O   UNL     1      15.624  13.486  48.210  1.00  0.00    -0.550 OA
ENDBRANCH  11  12
ENDBRANCH  10  11
ENDBRANCH   9  10
ENDBRANCH   8   9
ENDBRANCH   7   8
ENDBRANCH   6   7
ENDBRANCH   5   6
ENDBRANCH   4   5
ENDBRANCH   3   4
ENDBRANCH   2   3
ENDBRANCH   1   2
BRANCH   1  15
ATOM     15  C   UNL     1       7.034  16.442  45.641  1.00  0.00     0.000 C 
BRANCH  15  16
ATOM     16  C   UNL     1       5.967  16.839  46.680  1.00  0.00     0.000 C 
BRANCH  16  17
ATOM     17  C   UNL     1       6.369  17.988  47.625  1.00  0.00     0.000 C 
BRANCH  17  18
ATOM     18  C   UNL     1       5.503  18.115  48.895  1.00  0.00    -0.000 C 
BRANCH  18  19
ATOM     19  C   UNL     1       5.885  19.281  49.827  1.00  0.00    -0.000 C 
BRANCH  19  20
ATOM     20  C   UNL     1       4.726  19.858  50.664  1.00  0.00    -0.000 C 
BRANCH  20  21
ATOM     21  C   UNL     1       5.153  20.760  51.837  1.00  0.00    -0.000 C 
BRANCH  21  22
ATOM     22  C   UNL     1       4.541  20.323  53.180  1.00  0.00    -0.000 C 
BRANCH  22  23
ATOM     23  C   UNL     1       4.854  21.316  54.313  1.00  0.00    -0.000 C 
BRANCH  23  24
ATOM     24  C   UNL     1       5.704  20.684  55.429  1.00  0.00    -0.000 C 
BRANCH  24  25
ATOM     25  C   UNL     1       6.906  21.561  55.815  1.00  0.00    -0.003 C 
ATOM     26  C   UNL     1       8.215  20.773  55.872  1.00  0.00     0.004 C 
ENDBRANCH  24  25
ENDBRANCH  23  24
ENDBRANCH  22  23
ENDBRANCH  21  22
ENDBRANCH  20  21
ENDBRANCH  19  20
ENDBRANCH  18  19
ENDBRANCH  17  18
ENDBRANCH  16  17
ENDBRANCH  15  16
ENDBRANCH   1  15
TORSDOF 22
ENDMDL
MODEL 3
REMARK VINA RESULT:    22.705      4.121      5.322
REMARK INTER + INTRA:          50.835
REMARK INTER:                  51.371
REMARK INTRA:                  -0.536
REMARK UNBOUND:                -1.071
REMARK SMILES CCCCCCCCCCCCCCCCCCCCCCCC(=O)[O-]
REMARK SMILES IDX 13 1 14 2 15 3 16 4 17 5 18 6 19 7 20 8 21 9 22 10 23 11
REMARK SMILES IDX 24 12 25 13 26 14 12 15 11 16 10 17 9 18 8 19 7 20 6 21 5 22
REMARK SMILES IDX 4 23 3 24 2 25 1 26
REMARK H PARENT
REMARK Flexibility Score: inf
ROOT
ATOM      1  C   UNL     1       5.353  18.468  48.611  1.00  0.00     0.000 C 
ENDROOT
BRANCH   1   2
ATOM      2  C   UNL     1       6.484  17.694  47.912  1.00  0.00     0.000 C 
BRANCH   2   3
ATOM      3  C   UNL     1       6.024  17.011  46.610  1.00  0.00     0.000 C 
BRANCH   3   4
ATOM      4  C   UNL     1       7.157  16.634  45.635  1.00  0.00     0.000 C 
BRANCH   4   5
ATOM      5  C   UNL     1       7.636  15.184  45.805  1.00  0.00     0.000 C 
BRANCH   5   6
ATOM      6  C   UNL     1       9.065  15.009  45.265  1.00  0.00     0.000 C 
BRANCH   6   7
ATOM      7  C   UNL     1       9.146  13.957  44.148  1.00  0.00     0.000 C 
BRANCH   7   8
ATOM      8  C   UNL     1       8.457  14.417  42.851  1.00  0.00     0.000 C 
BRANCH   8   9
ATOM      9  C   UNL     1       8.348  15.947  42.750  1.00  0.00     0.000 C 
BRANCH   9  10
ATOM     10  C   UNL     1       6.922  16.417  42.413  1.00  0.00     0.006 C 
BRANCH  10  11
ATOM     11  C   UNL     1       6.908  17.456  41.285  1.00  0.00     0.053 C 
BRANCH  11  12
ATOM     12  C   UNL     1       6.277  16.914  40.039  1.00  0.00     0.041 C 
ATOM     13  O   UNL     1       5.516  15.911  40.097  1.00  0.00    -0.550 OA
ATOM     14  O   UNL     1       6.554  17.497  38.809  1.00  0.00    -0.550 OA
ENDBRANCH  11  12
ENDBRANCH  10  11
ENDBRANCH   9  10
ENDBRANCH   8   9
ENDBRANCH   7   8
ENDBRANCH   6   7
ENDBRANCH   5   6
ENDBRANCH   4   5
ENDBRANCH   3   4
ENDBRANCH   2   3
ENDBRANCH   1   2
BRANCH   1  15
ATOM     15  C   UNL     1       5.657  18.767  50.090  1.00  0.00     0.000 C 
BRANCH  15  16
ATOM     16  C   UNL     1       6.072  20.220  50.397  1.00  0.00     0.000 C 
BRANCH  16  17
ATOM     17  C   UNL     1       5.366  20.862  51.607  1.00  0.00     0.000 C 
BRANCH  17  18
ATOM     18  C   UNL     1       4.407  19.925  52.368  1.00  0.00    -0.000 C 
BRANCH  18  19
ATOM     19  C   UNL     1       4.004  20.412  53.774  1.00  0.00    -0.000 C 
BRANCH  19  20
ATOM     20  C   UNL     1       5.036  21.320  54.473  1.00  0.00    -0.000 C 
BRANCH  20  21
ATOM     21  C   UNL     1       5.448  20.873  55.888  1.00  0.00    -0.000 C 
BRANCH  21  22
ATOM     22  C   UNL     1       6.821  20.178  55.919  1.00  0.00    -0.000 C 
BRANCH  22  23
ATOM     23  C   UNL     1       7.924  21.041  55.283  1.00  0.00    -0.000 C 
BRANCH  23  24
ATOM     24  C   UNL     1       9.213  21.059  56.124  1.00  0.00    -0.000 C 
BRANCH  24  25
ATOM     25  C   UNL     1      10.402  20.425  55.384  1.00  0.00    -0.003 C 
ATOM     26  C   UNL     1      11.667  21.282  55.462  1.00  0.00     0.004 C 
ENDBRANCH  24  25
ENDBRANCH  23  24
ENDBRANCH  22  23
ENDBRANCH  21  22
ENDBRANCH  20  21
ENDBRANCH  19  20
ENDBRANCH  18  19
ENDBRANCH  17  18
ENDBRANCH  16  17
ENDBRANCH  15  16
ENDBRANCH   1  15
TORSDOF 22
ENDMDL
MODEL 4
REMARK VINA RESULT:    22.790      4.185     11.390
REMARK INTER + INTRA:          51.029
REMARK INTER:                  51.938
REMARK INTRA:                  -0.909
REMARK UNBOUND:                -1.071
REMARK SMILES CCCCCCCCCCCCCCCCCCCCCCCC(=O)[O-]
REMARK SMILES IDX 13 1 14 2 15 3 16 4 17 5 18 6 19 7 20 8 21 9 22 10 23 11
REMARK SMILES IDX 24 12 25 13 26 14 12 15 11 16 10 17 9 18 8 19 7 20 6 21 5 22
REMARK SMILES IDX 4 23 3 24 2 25 1 26
REMARK H PARENT
REMARK Flexibility Score: inf
ROOT
ATOM      1  C   UNL     1       4.102  21.004  51.812  1.00  0.00     0.000 C 
ENDROOT
BRANCH   1   2
ATOM      2  C   UNL     1       3.806  21.362  53.279  1.00  0.00     0.000 C 
BRANCH   2   3
ATOM      3  C   UNL     1       4.133  20.214  54.253  1.00  0.00     0.000 C 
BRANCH   3   4
ATOM      4  C   UNL     1       4.412  20.648  55.704  1.00  0.00     0.000 C 
BRANCH   4   5
ATOM      5  C   UNL     1       5.369  21.847  55.798  1.00  0.00     0.000 C 
BRANCH   5   6
ATOM      6  C   UNL     1       6.799  21.387  56.124  1.00  0.00     0.000 C 
BRANCH   6   7
ATOM      7  C   UNL     1       7.858  22.125  55.290  1.00  0.00     0.000 C 
BRANCH   7   8
ATOM      8  C   UNL     1       9.257  21.495  55.420  1.00  0.00     0.000 C 
BRANCH   8   9
ATOM      9  C   UNL     1       9.249  19.980  55.167  1.00  0.00     0.000 C 
BRANCH   9  10
ATOM     10  C   UNL     1      10.429  19.520  54.293  1.00  0.00     0.006 C 
BRANCH  10  11
ATOM     11  C   UNL     1      11.285  18.455  54.991  1.00  0.00     0.053 C 
BRANCH  11  12
ATOM     12  C   UNL     1      12.475  19.058  55.672  1.00  0.00     0.041 C 
ATOM     13  O   UNL     1      13.511  18.369  55.870  1.00  0.00    -0.550 OA
ATOM     14  O   UNL     1      12.429  20.374  56.116  1.00  0.00    -0.550 OA
ENDBRANCH  11  12
ENDBRANCH  10  11
ENDBRANCH   9  10
ENDBRANCH   8   9
ENDBRANCH   7   8
ENDBRANCH   6   7
ENDBRANCH   5   6
ENDBRANCH   4   5
ENDBRANCH   3   4
ENDBRANCH   2   3
ENDBRANCH   1   2
BRANCH   1  15
ATOM     15  C   UNL     1       5.433  20.251  51.636  1.00  0.00     0.000 C 
BRANCH  15  16
ATOM     16  C   UNL     1       5.374  19.013  50.719  1.00  0.00     0.000 C 
BRANCH  16  17
ATOM     17  C   UNL     1       5.833  19.251  49.267  1.00  0.00     0.000 C 
BRANCH  17  18
ATOM     18  C   UNL     1       6.647  18.096  48.649  1.00  0.00    -0.000 C 
BRANCH  18  19
ATOM     19  C   UNL     1       5.930  17.329  47.520  1.00  0.00    -0.000 C 
BRANCH  19  20
ATOM     20  C   UNL     1       6.690  17.275  46.180  1.00  0.00    -0.000 C 
BRANCH  20  21
ATOM     21  C   UNL     1       7.293  15.903  45.825  1.00  0.00    -0.000 C 
BRANCH  21  22
ATOM     22  C   UNL     1       8.781  15.789  46.203  1.00  0.00    -0.000 C 
BRANCH  22  23
ATOM     23  C   UNL     1       9.631  15.223  45.053  1.00  0.00    -0.000 C 
BRANCH  23  24
ATOM     24  C   UNL     1       8.951  14.035  44.350  1.00  0.00    -0.000 C 
BRANCH  24  25
ATOM     25  C   UNL     1       8.506  12.947  45.341  1.00  0.00    -0.003 C 
ATOM     26  C   UNL     1       8.816  11.534  44.842  1.00  0.00     0.004 C 
ENDBRANCH  24  25
ENDBRANCH  23  24
ENDBRANCH  22  23
ENDBRANCH  21  22
ENDBRANCH  20  21
ENDBRANCH  19  20
ENDBRANCH  18  19
ENDBRANCH  17  18
ENDBRANCH  16  17
ENDBRANCH  15  16
ENDBRANCH   1  15
TORSDOF 22
ENDMDL
MODEL 5
REMARK VINA RESULT:    23.062      4.893     12.845
REMARK INTER + INTRA:          51.652
REMARK INTER:                  52.655
REMARK INTRA:                  -1.003
REMARK UNBOUND:                -1.071
REMARK SMILES CCCCCCCCCCCCCCCCCCCCCCCC(=O)[O-]
REMARK SMILES IDX 13 1 14 2 15 3 16 4 17 5 18 6 19 7 20 8 21 9 22 10 23 11
REMARK SMILES IDX 24 12 25 13 26 14 12 15 11 16 10 17 9 18 8 19 7 20 6 21 5 22
REMARK SMILES IDX 4 23 3 24 2 25 1 26
REMARK H PARENT
REMARK Flexibility Score: inf
ROOT
ATOM      1  C   UNL     1       9.054  14.627  46.067  1.00  0.00     0.000 C 
ENDROOT
BRANCH   1   2
ATOM      2  C   UNL     1       8.382  15.919  46.562  1.00  0.00     0.000 C 
BRANCH   2   3
ATOM      3  C   UNL     1       6.898  16.013  46.159  1.00  0.00     0.000 C 
BRANCH   3   4
ATOM      4  C   UNL     1       6.211  17.349  46.503  1.00  0.00     0.000 C 
BRANCH   4   5
ATOM      5  C   UNL     1       6.126  17.609  48.015  1.00  0.00     0.000 C 
BRANCH   5   6
ATOM      6  C   UNL     1       5.469  18.968  48.304  1.00  0.00     0.000 C 
BRANCH   6   7
ATOM      7  C   UNL     1       4.824  19.023  49.699  1.00  0.00     0.000 C 
BRANCH   7   8
ATOM      8  C   UNL     1       5.656  19.840  50.703  1.00  0.00     0.000 C 
BRANCH   8   9
ATOM      9  C   UNL     1       4.887  21.045  51.267  1.00  0.00     0.000 C 
BRANCH   9  10
ATOM     10  C   UNL     1       5.312  21.399  52.702  1.00  0.00     0.006 C 
BRANCH  10  11
ATOM     11  C   UNL     1       4.303  20.899  53.744  1.00  0.00     0.053 C 
BRANCH  11  12
ATOM     12  C   UNL     1       4.742  21.219  55.140  1.00  0.00     0.041 C 
ATOM     13  O   UNL     1       3.939  21.752  55.952  1.00  0.00    -0.550 OA
ATOM     14  O   UNL     1       6.048  20.958  55.535  1.00  0.00    -0.550 OA
ENDBRANCH  11  12
ENDBRANCH  10  11
ENDBRANCH   9  10
ENDBRANCH   8   9
ENDBRANCH   7   8
ENDBRANCH   6   7
ENDBRANCH   5   6
ENDBRANCH   4   5
ENDBRANCH   3   4
ENDBRANCH   2   3
ENDBRANCH   1   2
BRANCH   1  15
ATOM     15  C   UNL     1       8.493  14.138  44.719  1.00  0.00     0.000 C 
BRANCH  15  16
ATOM     16  C   UNL     1       9.182  14.719  43.469  1.00  0.00     0.000 C 
BRANCH  16  17
ATOM     17  C   UNL     1      10.700  14.466  43.380  1.00  0.00     0.000 C 
BRANCH  17  18
ATOM     18  C   UNL     1      11.109  12.980  43.374  1.00  0.00    -0.000 C 
BRANCH  18  19
ATOM     19  C   UNL     1      12.509  12.695  42.794  1.00  0.00    -0.000 C 
BRANCH  19  20
ATOM     20  C   UNL     1      13.084  11.303  43.124  1.00  0.00    -0.000 C 
BRANCH  20  21
ATOM     21  C   UNL     1      13.632  11.145  44.555  1.00  0.00    -0.000 C 
BRANCH  21  22
ATOM     22  C   UNL     1      15.154  10.922  44.590  1.00  0.00    -0.000 C 
BRANCH  22  23
ATOM     23  C   UNL     1      15.833  11.719  45.716  1.00  0.00    -0.000 C 
BRANCH  23  24
ATOM     24  C   UNL     1      15.071  11.617  47.049  1.00  0.00    -0.000 C 
BRANCH  24  25
ATOM     25  C   UNL     1      14.902  12.984  47.732  1.00  0.00    -0.003 C 
ATOM     26  C   UNL     1      16.060  13.318  48.674  1.00  0.00     0.004 C 
ENDBRANCH  24  25
ENDBRANCH  23  24
ENDBRANCH  22  23
ENDBRANCH  21  22
ENDBRANCH  20  21
ENDBRANCH  19  20
ENDBRANCH  18  19
ENDBRANCH  17  18
ENDBRANCH  16  17
ENDBRANCH  15  16
ENDBRANCH   1  15
TORSDOF 22
ENDMDL
MODEL 6
REMARK VINA RESULT:    23.161      1.590      4.134
REMARK INTER + INTRA:          51.878
REMARK INTER:                  52.621
REMARK INTRA:                  -0.744
REMARK UNBOUND:                -1.071
REMARK SMILES CCCCCCCCCCCCCCCCCCCCCCCC(=O)[O-]
REMARK SMILES IDX 13 1 14 2 15 3 16 4 17 5 18 6 19 7 20 8 21 9 22 10 23 11
REMARK SMILES IDX 24 12 25 13 26 14 12 15 11 16 10 17 9 18 8 19 7 20 6 21 5 22
REMARK SMILES IDX 4 23 3 24 2 25 1 26
REMARK H PARENT
REMARK Flexibility Score: inf
ROOT
ATOM      1  C   UNL     1       8.989  14.614  45.217  1.00  0.00     0.000 C 
ENDROOT
BRANCH   1   2
ATOM      2  C   UNL     1       9.616  14.505  43.816  1.00  0.00     0.000 C 
BRANCH   2   3
ATOM      3  C   UNL     1      10.446  13.221  43.631  1.00  0.00     0.000 C 
BRANCH   3   4
ATOM      4  C   UNL     1      11.428  13.244  42.444  1.00  0.00     0.000 C 
BRANCH   4   5
ATOM      5  C   UNL     1      12.785  12.603  42.776  1.00  0.00     0.000 C 
BRANCH   5   6
ATOM      6  C   UNL     1      12.601  11.182  43.332  1.00  0.00     0.000 C 
BRANCH   6   7
ATOM      7  C   UNL     1      13.768  10.748  44.233  1.00  0.00     0.000 C 
BRANCH   7   8
ATOM      8  C   UNL     1      15.113  11.352  43.791  1.00  0.00     0.000 C 
BRANCH   8   9
ATOM      9  C   UNL     1      16.083  11.559  44.964  1.00  0.00     0.000 C 
BRANCH   9  10
ATOM     10  C   UNL     1      15.420  11.314  46.331  1.00  0.00     0.006 C 
BRANCH  10  11
ATOM     11  C   UNL     1      14.688  12.559  46.849  1.00  0.00     0.053 C 
BRANCH  11  12
ATOM     12  C   UNL     1      15.179  12.968  48.204  1.00  0.00     0.041 C 
ATOM     13  O   UNL     1      14.399  13.527  49.020  1.00  0.00    -0.550 OA
ATOM     14  O   UNL     1      16.507  12.759  48.554  1.00  0.00    -0.550 OA
ENDBRANCH  11  12
ENDBRANCH  10  11
ENDBRANCH   9  10
ENDBRANCH   8   9
ENDBRANCH   7   8
ENDBRANCH   6   7
ENDBRANCH   5   6
ENDBRANCH   4   5
ENDBRANCH   3   4
ENDBRANCH   2   3
ENDBRANCH   1   2
BRANCH   1  15
ATOM     15  C   UNL     1       7.774  15.559  45.259  1.00  0.00     0.000 C 
BRANCH  15  16
ATOM     16  C   UNL     1       7.716  16.503  46.476  1.00  0.00     0.000 C 
BRANCH  16  17
ATOM     17  C   UNL     1       6.339  16.608  47.159  1.00  0.00     0.000 C 
BRANCH  17  18
ATOM     18  C   UNL     1       5.905  18.041  47.525  1.00  0.00    -0.000 C 
BRANCH  18  19
ATOM     19  C   UNL     1       6.014  18.389  49.023  1.00  0.00    -0.000 C 
BRANCH  19  20
ATOM     20  C   UNL     1       5.167  19.594  49.479  1.00  0.00    -0.000 C 
BRANCH  20  21
ATOM     21  C   UNL     1       5.622  20.253  50.795  1.00  0.00    -0.000 C 
BRANCH  21  22
ATOM     22  C   UNL     1       4.650  19.994  51.960  1.00  0.00    -0.000 C 
BRANCH  22  23
ATOM     23  C   UNL     1       5.026  20.793  53.219  1.00  0.00    -0.000 C 
BRANCH  23  24
ATOM     24  C   UNL     1       3.790  21.235  54.023  1.00  0.00    -0.000 C 
BRANCH  24  25
ATOM     25  C   UNL     1       4.161  22.114  55.229  1.00  0.00    -0.003 C 
ATOM     26  C   UNL     1       5.557  21.805  55.774  1.00  0.00     0.004 C 
ENDBRANCH  24  25
ENDBRANCH  23  24
ENDBRANCH  22  23
ENDBRANCH  21  22
ENDBRANCH  20  21
ENDBRANCH  19  20
ENDBRANCH  18  19
ENDBRANCH  17  18
ENDBRANCH  16  17
ENDBRANCH  15  16
ENDBRANCH   1  15
TORSDOF 22
ENDMDL
MODEL 7
REMARK VINA RESULT:    24.132      0.910      2.123
REMARK INTER + INTRA:          54.097
REMARK INTER:                  53.977
REMARK INTRA:                   0.120
REMARK UNBOUND:                -1.071
REMARK SMILES CCCCCCCCCCCCCCCCCCCCCCCC(=O)[O-]
REMARK SMILES IDX 13 1 14 2 15 3 16 4 17 5 18 6 19 7 20 8 21 9 22 10 23 11
REMARK SMILES IDX 24 12 25 13 26 14 12 15 11 16 10 17 9 18 8 19 7 20 6 21 5 22
REMARK SMILES IDX 4 23 3 24 2 25 1 26
REMARK H PARENT
REMARK Flexibility Score: inf
ROOT
ATOM      1  C   UNL     1       7.874  16.370  48.499  1.00  0.00     0.000 C 
ENDROOT
BRANCH   1   2
ATOM      2  C   UNL     1       9.104  16.626  47.611  1.00  0.00     0.000 C 
BRANCH   2   3
ATOM      3  C   UNL     1       9.525  15.386  46.800  1.00  0.00     0.000 C 
BRANCH   3   4
ATOM      4  C   UNL     1       9.470  15.556  45.270  1.00  0.00     0.000 C 
BRANCH   4   5
ATOM      5  C   UNL     1       8.746  14.400  44.563  1.00  0.00     0.000 C 
BRANCH   5   6
ATOM      6  C   UNL     1       9.500  13.970  43.295  1.00  0.00     0.000 C 
BRANCH   6   7
ATOM      7  C   UNL     1      10.583  12.918  43.583  1.00  0.00     0.000 C 
BRANCH   7   8
ATOM      8  C   UNL     1      11.779  13.022  42.619  1.00  0.00     0.000 C 
BRANCH   8   9
ATOM      9  C   UNL     1      12.830  11.927  42.861  1.00  0.00     0.000 C 
BRANCH   9  10
ATOM     10  C   UNL     1      13.496  12.042  44.243  1.00  0.00     0.006 C 
BRANCH  10  11
ATOM     11  C   UNL     1      14.563  10.962  44.462  1.00  0.00     0.053 C 
BRANCH  11  12
ATOM     12  C   UNL     1      15.632  11.420  45.407  1.00  0.00     0.041 C 
ATOM     13  O   UNL     1      16.815  11.571  45.003  1.00  0.00    -0.550 OA
ATOM     14  O   UNL     1      15.326  11.650  46.743  1.00  0.00    -0.550 OA
ENDBRANCH  11  12
ENDBRANCH  10  11
ENDBRANCH   9  10
ENDBRANCH   8   9
ENDBRANCH   7   8
ENDBRANCH   6   7
ENDBRANCH   5   6
ENDBRANCH   4   5
ENDBRANCH   3   4
ENDBRANCH   2   3
ENDBRANCH   1   2
BRANCH   1  15
ATOM     15  C   UNL     1       6.794  17.458  48.354  1.00  0.00     0.000 C 
BRANCH  15  16
ATOM     16  C   UNL     1       5.962  17.391  47.058  1.00  0.00     0.000 C 
BRANCH  16  17
ATOM     17  C   UNL     1       5.504  18.753  46.502  1.00  0.00     0.000 C 
BRANCH  17  18
ATOM     18  C   UNL     1       5.227  19.828  47.572  1.00  0.00    -0.000 C 
BRANCH  18  19
ATOM     19  C   UNL     1       5.204  19.309  49.023  1.00  0.00    -0.000 C 
BRANCH  19  20
ATOM     20  C   UNL     1       5.108  20.399  50.108  1.00  0.00    -0.000 C 
BRANCH  20  21
ATOM     21  C   UNL     1       4.758  19.890  51.519  1.00  0.00    -0.000 C 
BRANCH  21  22
ATOM     22  C   UNL     1       4.430  21.028  52.501  1.00  0.00    -0.000 C 
BRANCH  22  23
ATOM     23  C   UNL     1       4.282  20.525  53.947  1.00  0.00    -0.000 C 
BRANCH  23  24
ATOM     24  C   UNL     1       4.801  21.543  54.978  1.00  0.00    -0.000 C 
BRANCH  24  25
ATOM     25  C   UNL     1       5.896  20.953  55.882  1.00  0.00    -0.003 C 
ATOM     26  C   UNL     1       7.229  20.779  55.154  1.00  0.00     0.004 C 
ENDBRANCH  24  25
ENDBRANCH  23  24
ENDBRANCH  22  23
ENDBRANCH  21  22
ENDBRANCH  20  21
ENDBRANCH  19  20
ENDBRANCH  18  19
ENDBRANCH  17  18
ENDBRANCH  16  17
ENDBRANCH  15  16
ENDBRANCH   1  15
TORSDOF 22
ENDMDL
MODEL 8
REMARK VINA RESULT:    24.224      5.530     11.056
REMARK INTER + INTRA:          54.307
REMARK INTER:                  55.973
REMARK INTRA:                  -1.666
REMARK UNBOUND:                -1.071
REMARK SMILES CCCCCCCCCCCCCCCCCCCCCCCC(=O)[O-]
REMARK SMILES IDX 13 1 14 2 15 3 16 4 17 5 18 6 19 7 20 8 21 9 22 10 23 11
REMARK SMILES IDX 24 12 25 13 26 14 12 15 11 16 10 17 9 18 8 19 7 20 6 21 5 22
REMARK SMILES IDX 4 23 3 24 2 25 1 26
REMARK H PARENT
REMARK Flexibility Score: inf
ROOT
ATOM      1  C   UNL     1       9.818  15.705  46.404  1.00  0.00     0.000 C 
ENDROOT
BRANCH   1   2
ATOM      2  C   UNL     1       9.479  16.182  47.827  1.00  0.00     0.000 C 
BRANCH   2   3
ATOM      3  C   UNL     1       7.964  16.192  48.109  1.00  0.00     0.000 C 
BRANCH   3   4
ATOM      4  C   UNL     1       7.369  17.577  48.430  1.00  0.00     0.000 C 
BRANCH   4   5
ATOM      5  C   UNL     1       5.946  17.760  47.881  1.00  0.00     0.000 C 
BRANCH   5   6
ATOM      6  C   UNL     1       5.916  17.574  46.356  1.00  0.00     0.000 C 
BRANCH   6   7
ATOM      7  C   UNL     1       5.502  18.856  45.615  1.00  0.00     0.000 C 
BRANCH   7   8
ATOM      8  C   UNL     1       5.054  18.584  44.168  1.00  0.00     0.000 C 
BRANCH   8   9
ATOM      9  C   UNL     1       5.240  17.114  43.758  1.00  0.00     0.000 C 
BRANCH   9  10
ATOM     10  C   UNL     1       6.546  16.878  42.981  1.00  0.00     0.006 C 
BRANCH  10  11
ATOM     11  C   UNL     1       6.287  16.395  41.548  1.00  0.00     0.053 C 
BRANCH  11  12
ATOM     12  C   UNL     1       6.393  17.514  40.558  1.00  0.00     0.041 C 
ATOM     13  O   UNL     1       6.625  18.689  40.950  1.00  0.00    -0.550 OA
ATOM     14  O   UNL     1       6.202  17.265  39.205  1.00  0.00    -0.550 OA
ENDBRANCH  11  12
ENDBRANCH  10  11
ENDBRANCH   9  10
ENDBRANCH   8   9
ENDBRANCH   7   8
ENDBRANCH   6   7
ENDBRANCH   5   6
ENDBRANCH   4   5
ENDBRANCH   3   4
ENDBRANCH   2   3
ENDBRANCH   1   2
BRANCH   1  15
ATOM     15  C   UNL     1       8.605  15.110  45.666  1.00  0.00     0.000 C 
BRANCH  15  16
ATOM     16  C   UNL     1       8.863  14.695  44.204  1.00  0.00     0.000 C 
BRANCH  16  17
ATOM     17  C   UNL     1      10.344  14.475  43.837  1.00  0.00     0.000 C 
BRANCH  17  18
ATOM     18  C   UNL     1      10.634  13.167  43.075  1.00  0.00    -0.000 C 
BRANCH  18  19
ATOM     19  C   UNL     1      12.120  12.926  42.742  1.00  0.00    -0.000 C 
BRANCH  19  20
ATOM     20  C   UNL     1      12.524  11.447  42.579  1.00  0.00    -0.000 C 
BRANCH  20  21
ATOM     21  C   UNL     1      13.218  10.820  43.802  1.00  0.00    -0.000 C 
BRANCH  21  22
ATOM     22  C   UNL     1      14.517  11.548  44.190  1.00  0.00    -0.000 C 
BRANCH  22  23
ATOM     23  C   UNL     1      15.210  10.898  45.400  1.00  0.00    -0.000 C 
BRANCH  23  24
ATOM     24  C   UNL     1      15.840  11.937  46.343  1.00  0.00    -0.000 C 
BRANCH  24  25
ATOM     25  C   UNL     1      15.155  11.969  47.720  1.00  0.00    -0.003 C 
ATOM     26  C   UNL     1      15.305  13.321  48.420  1.00  0.00     0.004 C 
ENDBRANCH  24  25
ENDBRANCH  23  24
ENDBRANCH  22  23
ENDBRANCH  21  22
ENDBRANCH  20  21
ENDBRANCH  19  20
ENDBRANCH  18  19
ENDBRANCH  17  18
ENDBRANCH  16  17
ENDBRANCH  15  16
ENDBRANCH   1  15
TORSDOF 22
ENDMDL
MODEL 9
REMARK VINA RESULT:    24.677      4.874      7.869
REMARK INTER + INTRA:          55.344
REMARK INTER:                  56.594
REMARK INTRA:                  -1.250
REMARK UNBOUND:                -1.071
REMARK SMILES CCCCCCCCCCCCCCCCCCCCCCCC(=O)[O-]
REMARK SMILES IDX 13 1 14 2 15 3 16 4 17 5 18 6 19 7 20 8 21 9 22 10 23 11
REMARK SMILES IDX 24 12 25 13 26 14 12 15 11 16 10 17 9 18 8 19 7 20 6 21 5 22
REMARK SMILES IDX 4 23 3 24 2 25 1 26
REMARK H PARENT
REMARK Flexibility Score: inf
ROOT
ATOM      1  C   UNL     1       8.359  15.243  45.835  1.00  0.00     0.000 C 
ENDROOT
BRANCH   1   2
ATOM      2  C   UNL     1       8.968  14.146  44.945  1.00  0.00     0.000 C 
BRANCH   2   3
ATOM      3  C   UNL     1       9.677  14.711  43.700  1.00  0.00     0.000 C 
BRANCH   3   4
ATOM      4  C   UNL     1      11.163  14.328  43.564  1.00  0.00     0.000 C 
BRANCH   4   5
ATOM      5  C   UNL     1      11.369  12.926  42.969  1.00  0.00     0.000 C 
BRANCH   5   6
ATOM      6  C   UNL     1      12.861  12.557  42.933  1.00  0.00     0.000 C 
BRANCH   6   7
ATOM      7  C   UNL     1      13.126  11.133  43.450  1.00  0.00     0.000 C 
BRANCH   7   8
ATOM      8  C   UNL     1      13.943  11.121  44.754  1.00  0.00     0.000 C 
BRANCH   8   9
ATOM      9  C   UNL     1      15.410  11.524  44.537  1.00  0.00     0.000 C 
BRANCH   9  10
ATOM     10  C   UNL     1      16.094  11.985  45.836  1.00  0.00     0.006 C 
BRANCH  10  11
ATOM     11  C   UNL     1      15.240  11.689  47.076  1.00  0.00     0.053 C 
BRANCH  11  12
ATOM     12  C   UNL     1      15.214  12.851  48.022  1.00  0.00     0.041 C 
ATOM     13  O   UNL     1      16.260  13.194  48.634  1.00  0.00    -0.550 OA
ATOM     14  O   UNL     1      14.027  13.534  48.251  1.00  0.00    -0.550 OA
ENDBRANCH  11  12
ENDBRANCH  10  11
ENDBRANCH   9  10
ENDBRANCH   8   9
ENDBRANCH   7   8
ENDBRANCH   6   7
ENDBRANCH   5   6
ENDBRANCH   4   5
ENDBRANCH   3   4
ENDBRANCH   2   3
ENDBRANCH   1   2
BRANCH   1  15
ATOM     15  C   UNL     1       9.327  15.735  46.926  1.00  0.00     0.000 C 
BRANCH  15  16
ATOM     16  C   UNL     1       8.745  16.776  47.903  1.00  0.00     0.000 C 
BRANCH  16  17
ATOM     17  C   UNL     1       7.221  16.692  48.118  1.00  0.00     0.000 C 
BRANCH  17  18
ATOM     18  C   UNL     1       6.383  17.556  47.155  1.00  0.00    -0.000 C 
BRANCH  18  19
ATOM     19  C   UNL     1       5.582  16.764  46.102  1.00  0.00    -0.000 C 
BRANCH  19  20
ATOM     20  C   UNL     1       5.544  17.396  44.696  1.00  0.00    -0.000 C 
BRANCH  20  21
ATOM     21  C   UNL     1       6.150  16.533  43.574  1.00  0.00    -0.000 C 
BRANCH  21  22
ATOM     22  C   UNL     1       5.482  16.773  42.209  1.00  0.00    -0.000 C 
BRANCH  22  23
ATOM     23  C   UNL     1       6.510  16.880  41.069  1.00  0.00    -0.000 C 
BRANCH  23  24
ATOM     24  C   UNL     1       7.080  18.302  40.924  1.00  0.00    -0.000 C 
BRANCH  24  25
ATOM     25  C   UNL     1       6.009  19.385  41.134  1.00  0.00    -0.003 C 
ATOM     26  C   UNL     1       6.613  20.762  41.414  1.00  0.00     0.004 C 
ENDBRANCH  24  25
ENDBRANCH  23  24
ENDBRANCH  22  23
ENDBRANCH  21  22
ENDBRANCH  20  21
ENDBRANCH  19  20
ENDBRANCH  18  19
ENDBRANCH  17  18
ENDBRANCH  16  17
ENDBRANCH  15  16
ENDBRANCH   1  15
TORSDOF 22
ENDMDL
