MODEL 1
REMARK VINA RESULT:     0.960      0.000      0.000
REMARK INTER + INTRA:           0.673
REMARK INTER:                   1.016
REMARK INTRA:                  -0.343
REMARK UNBOUND:                -0.343
REMARK SMILES CC1=CC[C@@]23[C@@H]([C@@H](C(C)C)CC[C@H]2C)[C@H]13
REMARK SMILES IDX 14 1 13 2 12 3 11 4 7 5 6 6 5 7 15 8 2 9 3 10 4 11 1 12 8 13
REMARK SMILES IDX 9 14 10 15
REMARK H PARENT
REMARK Flexibility Score: inf
ROOT
ATOM      1  C   UNL     1     150.934 134.875 162.605  1.00  0.00     0.008 C 
ATOM      2  C   UNL     1     152.134 135.041 161.655  1.00  0.00    -0.007 C 
ATOM      3  C   UNL     1     153.456 134.875 162.431  1.00  0.00     0.004 C 
ATOM      4  C   UNL     1     153.832 136.139 163.205  1.00  0.00     0.004 C 
ATOM      5  C   UNL     1     154.160 137.302 162.245  1.00  0.00    -0.004 C 
ATOM      6  C   UNL     1     152.996 137.537 161.242  1.00  0.00     0.007 C 
ATOM      7  C   UNL     1     152.037 136.390 160.892  1.00  0.00    -0.013 C 
ATOM      8  C   UNL     1     153.178 136.746 159.941  1.00  0.00     0.025 C 
ATOM      9  C   UNL     1     152.504 137.317 158.741  1.00  0.00    -0.073 C 
ATOM     10  C   UNL     1     151.183 137.318 158.848  1.00  0.00    -0.027 C 
ATOM     11  C   UNL     1     150.735 136.749 160.149  1.00  0.00     0.035 C 
ATOM     12  C   UNL     1     153.238 137.843 157.548  1.00  0.00     0.039 C 
ENDROOT
BRANCH   5  13
ATOM     13  C   UNL     1     154.488 138.630 163.003  1.00  0.00    -0.014 C 
ATOM     14  C   UNL     1     154.005 139.885 162.254  1.00  0.00     0.007 C 
ATOM     15  C   UNL     1     153.860 138.630 164.411  1.00  0.00     0.007 C 
ENDBRANCH   5  13
TORSDOF 1
ENDMDL
MODEL 2
REMARK VINA RESULT:     1.598      1.673      4.405
REMARK INTER + INTRA:           1.348
REMARK INTER:                   1.577
REMARK INTRA:                  -0.229
REMARK UNBOUND:                -0.343
REMARK SMILES CC1=CC[C@@]23[C@@H]([C@@H](C(C)C)CC[C@H]2C)[C@H]13
REMARK SMILES IDX 14 1 13 2 12 3 11 4 7 5 6 6 5 7 15 8 2 9 3 10 4 11 1 12 8 13
REMARK SMILES IDX 9 14 10 15
REMARK H PARENT
REMARK Flexibility Score: inf
ROOT
ATOM      1  C   UNL     1     154.457 134.876 160.550  1.00  0.00     0.008 C 
ATOM      2  C   UNL     1     153.543 135.288 161.718  1.00  0.00    -0.007 C 
ATOM      3  C   UNL     1     152.085 134.884 161.423  1.00  0.00     0.004 C 
ATOM      4  C   UNL     1     151.396 135.867 160.475  1.00  0.00     0.004 C 
ATOM      5  C   UNL     1     151.225 137.250 161.135  1.00  0.00    -0.004 C 
ATOM      6  C   UNL     1     152.585 137.783 161.666  1.00  0.00     0.007 C 
ATOM      7  C   UNL     1     153.710 136.800 162.028  1.00  0.00    -0.013 C 
ATOM      8  C   UNL     1     152.834 137.395 163.128  1.00  0.00     0.025 C 
ATOM      9  C   UNL     1     153.745 138.298 163.887  1.00  0.00    -0.073 C 
ATOM     10  C   UNL     1     154.983 138.290 163.416  1.00  0.00    -0.027 C 
ATOM     11  C   UNL     1     155.122 137.379 162.246  1.00  0.00     0.035 C 
ATOM     12  C   UNL     1     153.308 139.132 165.050  1.00  0.00     0.039 C 
ENDROOT
BRANCH   5  13
ATOM     13  C   UNL     1     150.581 138.299 160.171  1.00  0.00    -0.014 C 
ATOM     14  C   UNL     1     149.282 137.796 159.515  1.00  0.00     0.007 C 
ATOM     15  C   UNL     1     150.275 139.614 160.913  1.00  0.00     0.007 C 
ENDBRANCH   5  13
TORSDOF 1
ENDMDL
