MODEL 1
REMARK VINA RESULT:    -2.616      0.000      0.000
REMARK INTER + INTRA:          -2.692
REMARK INTER:                  -2.692
REMARK INTRA:                   0.000
REMARK UNBOUND:                 0.000
REMARK SMILES CC1(C)[C@H]2CC[C@]1(C)[C@@H](O)C2
REMARK SMILES IDX 1 1 2 2 4 3 5 4 6 5 7 6 9 7 11 8 8 9 3 10 10 11
REMARK H PARENT 10 12
REMARK Flexibility Score: inf
ROOT
ATOM      1  C   UNL     1     129.641 114.380 120.874  1.00  0.00     0.012 C 
ATOM      2  C   UNL     1     128.582 113.817 119.875  1.00  0.00    -0.025 C 
ATOM      3  C   UNL     1     129.185 113.283 118.566  1.00  0.00    -0.002 C 
ATOM      4  C   UNL     1     130.063 112.098 119.037  1.00  0.00     0.005 C 
ATOM      5  C   UNL     1     129.247 111.509 120.204  1.00  0.00     0.010 C 
ATOM      6  C   UNL     1     127.996 112.433 120.243  1.00  0.00    -0.001 C 
ATOM      7  C   UNL     1     127.149 112.038 118.995  1.00  0.00     0.121 C 
ATOM      8  C   UNL     1     127.969 112.656 117.837  1.00  0.00     0.036 C 
ATOM      9  C   UNL     1     127.237 112.353 121.575  1.00  0.00     0.015 C 
ATOM     10  C   UNL     1     127.548 114.966 119.668  1.00  0.00     0.012 C 
ENDROOT
BRANCH   7  11
ATOM     11  O   UNL     1     125.849 112.566 119.055  1.00  0.00    -0.393 OA
ATOM     12  H   UNL     1     125.749 113.160 118.265  1.00  0.00     0.210 HD
ENDBRANCH   7  11
TORSDOF 1
ENDMDL
MODEL 2
REMARK VINA RESULT:    -2.614     14.334     15.700
REMARK INTER + INTRA:          -2.691
REMARK INTER:                  -2.691
REMARK INTRA:                   0.000
REMARK UNBOUND:                 0.000
REMARK SMILES CC1(C)[C@H]2CC[C@]1(C)[C@@H](O)C2
REMARK SMILES IDX 1 1 2 2 4 3 5 4 6 5 7 6 9 7 11 8 8 9 3 10 10 11
REMARK H PARENT 10 12
REMARK Flexibility Score: inf
ROOT
ATOM      1  C   UNL     1     124.865 129.903 120.898  1.00  0.00     0.012 C 
ATOM      2  C   UNL     1     125.299 128.766 119.922  1.00  0.00    -0.025 C 
ATOM      3  C   UNL     1     125.806 129.274 118.562  1.00  0.00    -0.002 C 
ATOM      4  C   UNL     1     127.073 130.081 118.935  1.00  0.00     0.005 C 
ATOM      5  C   UNL     1     127.662 129.272 120.108  1.00  0.00     0.010 C 
ATOM      6  C   UNL     1     126.655 128.096 120.247  1.00  0.00    -0.001 C 
ATOM      7  C   UNL     1     126.923 127.171 119.021  1.00  0.00     0.121 C 
ATOM      8  C   UNL     1     126.305 127.985 117.858  1.00  0.00     0.036 C 
ATOM      9  C   UNL     1     126.749 127.389 121.607  1.00  0.00     0.015 C 
ATOM     10  C   UNL     1     124.069 127.812 119.817  1.00  0.00     0.012 C 
ENDROOT
BRANCH   7  11
ATOM     11  O   UNL     1     126.307 125.917 119.165  1.00  0.00    -0.393 OA
ATOM     12  H   UNL     1     125.986 125.866 120.102  1.00  0.00     0.210 HD
ENDBRANCH   7  11
TORSDOF 1
ENDMDL
MODEL 3
REMARK VINA RESULT:    -2.531     14.126     15.789
REMARK INTER + INTRA:          -2.605
REMARK INTER:                  -2.605
REMARK INTRA:                   0.000
REMARK UNBOUND:                 0.000
REMARK SMILES CC1(C)[C@H]2CC[C@]1(C)[C@@H](O)C2
REMARK SMILES IDX 1 1 2 2 4 3 5 4 6 5 7 6 9 7 11 8 8 9 3 10 10 11
REMARK H PARENT 10 12
REMARK Flexibility Score: inf
ROOT
ATOM      1  C   UNL     1     127.178 127.453 117.235  1.00  0.00     0.012 C 
ATOM      2  C   UNL     1     127.042 128.380 118.483  1.00  0.00    -0.025 C 
ATOM      3  C   UNL     1     125.750 129.215 118.499  1.00  0.00    -0.002 C 
ATOM      4  C   UNL     1     124.636 128.144 118.584  1.00  0.00     0.005 C 
ATOM      5  C   UNL     1     125.269 127.061 119.481  1.00  0.00     0.010 C 
ATOM      6  C   UNL     1     126.667 127.662 119.801  1.00  0.00    -0.001 C 
ATOM      7  C   UNL     1     126.399 128.827 120.802  1.00  0.00     0.121 C 
ATOM      8  C   UNL     1     125.788 129.912 119.883  1.00  0.00     0.036 C 
ATOM      9  C   UNL     1     127.666 126.610 120.305  1.00  0.00     0.015 C 
ATOM     10  C   UNL     1     128.344 129.236 118.514  1.00  0.00     0.012 C 
ENDROOT
BRANCH   7  11
ATOM     11  O   UNL     1     127.580 129.271 121.419  1.00  0.00    -0.393 OA
ATOM     12  H   UNL     1     127.557 130.263 121.392  1.00  0.00     0.210 HD
ENDBRANCH   7  11
TORSDOF 1
ENDMDL
MODEL 4
REMARK VINA RESULT:    -2.527      1.760      3.137
REMARK INTER + INTRA:          -2.601
REMARK INTER:                  -2.601
REMARK INTRA:                   0.000
REMARK UNBOUND:                 0.000
REMARK SMILES CC1(C)[C@H]2CC[C@]1(C)[C@@H](O)C2
REMARK SMILES IDX 1 1 2 2 4 3 5 4 6 5 7 6 9 7 11 8 8 9 3 10 10 11
REMARK H PARENT 10 12
REMARK Flexibility Score: inf
ROOT
ATOM      1  C   UNL     1     127.447 111.900 117.261  1.00  0.00     0.012 C 
ATOM      2  C   UNL     1     128.388 112.034 118.500  1.00  0.00    -0.025 C 
ATOM      3  C   UNL     1     129.189 113.346 118.533  1.00  0.00    -0.002 C 
ATOM      4  C   UNL     1     128.090 114.430 118.658  1.00  0.00     0.005 C 
ATOM      5  C   UNL     1     127.037 113.749 119.555  1.00  0.00     0.010 C 
ATOM      6  C   UNL     1     127.678 112.361 119.836  1.00  0.00    -0.001 C 
ATOM      7  C   UNL     1     128.849 112.637 120.827  1.00  0.00     0.121 C 
ATOM      8  C   UNL     1     129.905 113.297 119.907  1.00  0.00     0.036 C 
ATOM      9  C   UNL     1     126.660 111.323 120.331  1.00  0.00     0.015 C 
ATOM     10  C   UNL     1     129.278 110.754 118.490  1.00  0.00     0.012 C 
ENDROOT
BRANCH   7  11
ATOM     11  O   UNL     1     129.333 111.455 121.411  1.00  0.00    -0.393 OA
ATOM     12  H   UNL     1     130.028 111.727 122.065  1.00  0.00     0.210 HD
ENDBRANCH   7  11
TORSDOF 1
ENDMDL
MODEL 5
REMARK VINA RESULT:    -2.484      1.255      2.256
REMARK INTER + INTRA:          -2.557
REMARK INTER:                  -2.557
REMARK INTRA:                   0.000
REMARK UNBOUND:                 0.000
REMARK SMILES CC1(C)[C@H]2CC[C@]1(C)[C@@H](O)C2
REMARK SMILES IDX 1 1 2 2 4 3 5 4 6 5 7 6 9 7 11 8 8 9 3 10 10 11
REMARK H PARENT 10 12
REMARK Flexibility Score: inf
ROOT
ATOM      1  C   UNL     1     129.660 111.797 120.078  1.00  0.00     0.012 C 
ATOM      2  C   UNL     1     128.941 113.175 119.948  1.00  0.00    -0.025 C 
ATOM      3  C   UNL     1     128.788 113.663 118.497  1.00  0.00    -0.002 C 
ATOM      4  C   UNL     1     127.872 112.592 117.857  1.00  0.00     0.005 C 
ATOM      5  C   UNL     1     126.917 112.223 119.011  1.00  0.00     0.010 C 
ATOM      6  C   UNL     1     127.409 113.144 120.164  1.00  0.00    -0.001 C 
ATOM      7  C   UNL     1     126.943 114.580 119.775  1.00  0.00     0.121 C 
ATOM      8  C   UNL     1     127.926 114.943 118.635  1.00  0.00     0.036 C 
ATOM      9  C   UNL     1     126.931 112.675 121.546  1.00  0.00     0.015 C 
ATOM     10  C   UNL     1     129.742 114.155 120.859  1.00  0.00     0.012 C 
ENDROOT
BRANCH   7  11
ATOM     11  O   UNL     1     127.043 115.474 120.854  1.00  0.00    -0.393 OA
ATOM     12  H   UNL     1     126.291 115.262 121.467  1.00  0.00     0.210 HD
ENDBRANCH   7  11
TORSDOF 1
ENDMDL
MODEL 6
REMARK VINA RESULT:    -2.479     14.233     15.390
REMARK INTER + INTRA:          -2.551
REMARK INTER:                  -2.551
REMARK INTRA:                   0.000
REMARK UNBOUND:                 0.000
REMARK SMILES CC1(C)[C@H]2CC[C@]1(C)[C@@H](O)C2
REMARK SMILES IDX 1 1 2 2 4 3 5 4 6 5 7 6 9 7 11 8 8 9 3 10 10 11
REMARK H PARENT 10 12
REMARK Flexibility Score: inf
ROOT
ATOM      1  C   UNL     1     127.251 129.661 120.134  1.00  0.00     0.012 C 
ATOM      2  C   UNL     1     125.876 128.943 119.967  1.00  0.00    -0.025 C 
ATOM      3  C   UNL     1     125.411 128.821 118.506  1.00  0.00    -0.002 C 
ATOM      4  C   UNL     1     126.493 127.919 117.864  1.00  0.00     0.005 C 
ATOM      5  C   UNL     1     126.844 126.941 119.003  1.00  0.00     0.010 C 
ATOM      6  C   UNL     1     125.905 127.407 120.151  1.00  0.00    -0.001 C 
ATOM      7  C   UNL     1     124.476 126.949 119.731  1.00  0.00     0.121 C 
ATOM      8  C   UNL     1     124.129 127.955 118.606  1.00  0.00     0.036 C 
ATOM      9  C   UNL     1     126.353 126.900 121.530  1.00  0.00     0.015 C 
ATOM     10  C   UNL     1     124.881 129.724 120.880  1.00  0.00     0.012 C 
ENDROOT
BRANCH   7  11
ATOM     11  O   UNL     1     123.565 127.025 120.797  1.00  0.00    -0.393 OA
ATOM     12  H   UNL     1     124.061 126.749 121.612  1.00  0.00     0.210 HD
ENDBRANCH   7  11
TORSDOF 1
ENDMDL
MODEL 7
REMARK VINA RESULT:    -2.383     13.802     15.840
REMARK INTER + INTRA:          -2.453
REMARK INTER:                  -2.453
REMARK INTRA:                   0.000
REMARK UNBOUND:                 0.000
REMARK SMILES CC1(C)[C@H]2CC[C@]1(C)[C@@H](O)C2
REMARK SMILES IDX 1 1 2 2 4 3 5 4 6 5 7 6 9 7 11 8 8 9 3 10 10 11
REMARK H PARENT 10 12
REMARK Flexibility Score: inf
ROOT
ATOM      1  C   UNL     1     127.176 127.491 117.348  1.00  0.00     0.012 C 
ATOM      2  C   UNL     1     126.924 127.703 118.874  1.00  0.00    -0.025 C 
ATOM      3  C   UNL     1     127.899 128.692 119.533  1.00  0.00    -0.002 C 
ATOM      4  C   UNL     1     127.591 130.028 118.815  1.00  0.00     0.005 C 
ATOM      5  C   UNL     1     126.067 129.954 118.592  1.00  0.00     0.010 C 
ATOM      6  C   UNL     1     125.699 128.582 119.225  1.00  0.00    -0.001 C 
ATOM      7  C   UNL     1     125.813 128.790 120.765  1.00  0.00     0.121 C 
ATOM      8  C   UNL     1     127.346 128.838 120.975  1.00  0.00     0.036 C 
ATOM      9  C   UNL     1     124.334 128.056 118.756  1.00  0.00     0.015 C 
ATOM     10  C   UNL     1     126.950 126.278 119.506  1.00  0.00     0.012 C 
ENDROOT
BRANCH   7  11
ATOM     11  O   UNL     1     125.221 127.738 121.483  1.00  0.00    -0.393 OA
ATOM     12  H   UNL     1     124.244 127.912 121.486  1.00  0.00     0.210 HD
ENDBRANCH   7  11
TORSDOF 1
ENDMDL
MODEL 8
REMARK VINA RESULT:    -2.378      1.005      2.660
REMARK INTER + INTRA:          -2.447
REMARK INTER:                  -2.447
REMARK INTRA:                   0.000
REMARK UNBOUND:                 0.000
REMARK SMILES CC1(C)[C@H]2CC[C@]1(C)[C@@H](O)C2
REMARK SMILES IDX 1 1 2 2 4 3 5 4 6 5 7 6 9 7 11 8 8 9 3 10 10 11
REMARK H PARENT 10 12
REMARK Flexibility Score: inf
ROOT
ATOM      1  C   UNL     1     130.125 112.842 118.569  1.00  0.00     0.012 C 
ATOM      2  C   UNL     1     128.690 112.677 119.161  1.00  0.00    -0.025 C 
ATOM      3  C   UNL     1     128.662 111.997 120.540  1.00  0.00    -0.002 C 
ATOM      4  C   UNL     1     129.431 112.993 121.443  1.00  0.00     0.005 C 
ATOM      5  C   UNL     1     129.017 114.364 120.872  1.00  0.00     0.010 C 
ATOM      6  C   UNL     1     128.052 113.972 119.717  1.00  0.00    -0.001 C 
ATOM      7  C   UNL     1     126.748 113.480 120.415  1.00  0.00     0.121 C 
ATOM      8  C   UNL     1     127.172 112.095 120.961  1.00  0.00     0.036 C 
ATOM      9  C   UNL     1     127.841 115.109 118.706  1.00  0.00     0.015 C 
ATOM     10  C   UNL     1     127.871 111.921 118.071  1.00  0.00     0.012 C 
ENDROOT
BRANCH   7  11
ATOM     11  O   UNL     1     125.676 113.380 119.513  1.00  0.00    -0.393 OA
ATOM     12  H   UNL     1     125.922 113.923 118.720  1.00  0.00     0.210 HD
ENDBRANCH   7  11
TORSDOF 1
ENDMDL
MODEL 9
REMARK VINA RESULT:    -2.352     14.106     15.587
REMARK INTER + INTRA:          -2.421
REMARK INTER:                  -2.421
REMARK INTRA:                   0.000
REMARK UNBOUND:                 0.000
REMARK SMILES CC1(C)[C@H]2CC[C@]1(C)[C@@H](O)C2
REMARK SMILES IDX 1 1 2 2 4 3 5 4 6 5 7 6 9 7 11 8 8 9 3 10 10 11
REMARK H PARENT 10 12
REMARK Flexibility Score: inf
ROOT
ATOM      1  C   UNL     1     126.364 130.124 118.641  1.00  0.00     0.012 C 
ATOM      2  C   UNL     1     126.482 128.675 119.207  1.00  0.00    -0.025 C 
ATOM      3  C   UNL     1     127.143 128.600 120.593  1.00  0.00    -0.002 C 
ATOM      4  C   UNL     1     126.158 129.380 121.498  1.00  0.00     0.005 C 
ATOM      5  C   UNL     1     124.783 129.015 120.902  1.00  0.00     0.010 C 
ATOM      6  C   UNL     1     125.163 128.061 119.734  1.00  0.00    -0.001 C 
ATOM      7  C   UNL     1     125.610 126.731 120.412  1.00  0.00     0.121 C 
ATOM      8  C   UNL     1     126.999 127.107 120.982  1.00  0.00     0.036 C 
ATOM      9  C   UNL     1     124.034 127.901 118.705  1.00  0.00     0.015 C 
ATOM     10  C   UNL     1     127.229 127.856 118.109  1.00  0.00     0.012 C 
ENDROOT
BRANCH   7  11
ATOM     11  O   UNL     1     125.693 125.674 119.490  1.00  0.00    -0.393 OA
ATOM     12  H   UNL     1     124.895 125.103 119.643  1.00  0.00     0.210 HD
ENDBRANCH   7  11
TORSDOF 1
ENDMDL
