MODEL 1
REMARK VINA RESULT:    -3.290      0.000      0.000
REMARK INTER + INTRA:          -5.130
REMARK INTER:                  -5.021
REMARK INTRA:                  -0.108
REMARK UNBOUND:                -0.108
REMARK SMILES CC1=CCC[C@@H](C)C(=O)C[C@H](C(C)C)C(=O)C1
REMARK SMILES IDX 8 1 9 2 6 3 7 4 5 5 4 6 3 7 2 8 1 9 10 11 11 12 15 13 16 14
REMARK SMILES IDX 17 15 12 17 13 18 14 19
REMARK H PARENT
REMARK Flexibility Score: 70.00
ROOT
ATOM      1  C   UNL     1     151.774 159.598 202.419  1.00  0.00     0.136 C 
ATOM      2  O   UNL     1     150.607 159.703 202.768  1.00  0.00    -0.299 OA
ENDROOT
BRANCH   1   3
ATOM      3  C   UNL     1     152.424 160.772 201.704  1.00  0.00     0.053 C 
ATOM      4  C   UNL     1     152.163 162.082 202.462  1.00  0.00     0.016 C 
BRANCH   3   5
ATOM      5  C   UNL     1     151.977 160.886 200.226  1.00  0.00     0.015 C 
BRANCH   5   6
ATOM      6  C   UNL     1     153.065 160.561 199.181  1.00  0.00     0.028 C 
BRANCH   6   7
ATOM      7  C   UNL     1     154.499 160.789 199.605  1.00  0.00    -0.028 C 
ATOM      8  C   UNL     1     155.422 159.833 199.857  1.00  0.00    -0.070 CG0
ATOM      9  C   UNL     1     156.840 160.275 200.122  1.00  0.00     0.039 C 
ATOM     10  G   UNL     1     155.100 158.355 199.952  1.00  0.00     0.000 G0
ENDBRANCH   6   7
ENDBRANCH   5   6
ENDBRANCH   3   5
ENDBRANCH   1   3
BRANCH   1  11
ATOM     11  C   UNL     1     152.492 158.286 202.696  1.00  0.00     0.087 C 
BRANCH  11  12
ATOM     12  C   UNL     1     153.092 157.593 201.440  1.00  0.00     0.066 C 
BRANCH  12  13
ATOM     13  C   UNL     1     154.556 157.957 201.275  1.00  0.00     0.140 C 
ATOM     14  O   UNL     1     155.287 157.968 202.256  1.00  0.00    -0.299 OA
BRANCH  13  15
ATOM     15  C   UNL     1     155.121 158.332 199.925  1.00  0.00     0.106 CG0
ATOM     16  G   UNL     1     155.411 159.820 199.879  1.00  0.00     0.000 G0
ENDBRANCH  13  15
ENDBRANCH  12  13
BRANCH  12  17
ATOM     17  C   UNL     1     152.901 156.044 201.475  1.00  0.00    -0.006 C 
ATOM     18  C   UNL     1     151.515 155.637 200.939  1.00  0.00     0.008 C 
ATOM     19  C   UNL     1     153.072 155.475 202.895  1.00  0.00     0.008 C 
ENDBRANCH  12  17
ENDBRANCH  11  12
ENDBRANCH   1  11
TORSDOF 1
ENDMDL
MODEL 2
REMARK VINA RESULT:    -3.151      2.670      4.902
REMARK INTER + INTRA:          -4.918
REMARK INTER:                  -4.820
REMARK INTRA:                  -0.097
REMARK UNBOUND:                -0.108
REMARK SMILES CC1=CCC[C@@H](C)C(=O)C[C@H](C(C)C)C(=O)C1
REMARK SMILES IDX 8 1 9 2 6 3 7 4 5 5 4 6 3 7 2 8 1 9 10 11 11 12 15 13 16 14
REMARK SMILES IDX 17 15 12 17 13 18 14 19
REMARK H PARENT
REMARK Flexibility Score: 70.00
ROOT
ATOM      1  C   UNL     1     154.515 160.041 200.035  1.00  0.00     0.136 C 
ATOM      2  O   UNL     1     155.132 160.495 200.988  1.00  0.00    -0.299 OA
ENDROOT
BRANCH   1   3
ATOM      3  C   UNL     1     155.157 160.114 198.658  1.00  0.00     0.053 C 
ATOM      4  C   UNL     1     156.491 160.871 198.719  1.00  0.00     0.016 C 
BRANCH   3   5
ATOM      5  C   UNL     1     154.213 160.733 197.598  1.00  0.00     0.015 C 
BRANCH   5   6
ATOM      6  C   UNL     1     153.619 159.736 196.580  1.00  0.00     0.028 C 
BRANCH   6   7
ATOM      7  C   UNL     1     152.189 159.981 196.151  1.00  0.00    -0.028 C 
ATOM      8  C   UNL     1     151.081 159.784 196.902  1.00  0.00    -0.070 CG0
ATOM      9  C   UNL     1     149.757 160.232 196.336  1.00  0.00     0.039 C 
ATOM     10  G   UNL     1     151.089 159.082 198.246  1.00  0.00     0.000 G0
ENDBRANCH   6   7
ENDBRANCH   5   6
ENDBRANCH   3   5
ENDBRANCH   1   3
BRANCH   1  11
ATOM     11  C   UNL     1     153.131 159.460 200.283  1.00  0.00     0.087 C 
BRANCH  11  12
ATOM     12  C   UNL     1     151.979 160.503 200.296  1.00  0.00     0.066 C 
BRANCH  12  13
ATOM     13  C   UNL     1     150.846 160.060 199.389  1.00  0.00     0.140 C 
ATOM     14  O   UNL     1     149.718 160.494 199.580  1.00  0.00    -0.299 OA
BRANCH  13  15
ATOM     15  C   UNL     1     151.080 159.072 198.270  1.00  0.00     0.106 CG0
ATOM     16  G   UNL     1     151.056 159.786 196.933  1.00  0.00     0.000 G0
ENDBRANCH  13  15
ENDBRANCH  12  13
BRANCH  12  17
ATOM     17  C   UNL     1     151.459 160.788 201.741  1.00  0.00    -0.006 C 
ATOM     18  C   UNL     1     152.217 161.963 202.387  1.00  0.00     0.008 C 
ATOM     19  C   UNL     1     151.585 159.553 202.651  1.00  0.00     0.008 C 
ENDBRANCH  12  17
ENDBRANCH  11  12
ENDBRANCH   1  11
TORSDOF 1
ENDMDL
MODEL 3
REMARK VINA RESULT:    -3.088      2.255      2.514
REMARK INTER + INTRA:          -4.821
REMARK INTER:                  -4.734
REMARK INTRA:                  -0.087
REMARK UNBOUND:                -0.108
REMARK SMILES CC1=CCC[C@@H](C)C(=O)C[C@H](C(C)C)C(=O)C1
REMARK SMILES IDX 8 1 9 2 6 3 7 4 5 5 4 6 3 7 2 8 1 9 10 11 11 12 15 13 16 14
REMARK SMILES IDX 17 15 12 17 13 18 14 19
REMARK H PARENT
REMARK Flexibility Score: 70.00
ROOT
ATOM      1  C   UNL     1     152.254 159.372 202.293  1.00  0.00     0.136 C 
ATOM      2  O   UNL     1     151.709 159.209 203.375  1.00  0.00    -0.299 OA
ENDROOT
BRANCH   1   3
ATOM      3  C   UNL     1     151.966 160.650 201.522  1.00  0.00     0.053 C 
ATOM      4  C   UNL     1     152.272 161.885 202.382  1.00  0.00     0.016 C 
BRANCH   3   5
ATOM      5  C   UNL     1     150.518 160.697 200.976  1.00  0.00     0.015 C 
BRANCH   5   6
ATOM      6  C   UNL     1     150.354 160.275 199.501  1.00  0.00     0.028 C 
BRANCH   6   7
ATOM      7  C   UNL     1     151.548 160.497 198.598  1.00  0.00    -0.028 C 
ATOM      8  C   UNL     1     152.270 159.539 197.973  1.00  0.00    -0.070 CG0
ATOM      9  C   UNL     1     153.330 159.981 196.996  1.00  0.00     0.039 C 
ATOM     10  G   UNL     1     152.117 158.056 198.248  1.00  0.00     0.000 G0
ENDBRANCH   6   7
ENDBRANCH   5   6
ENDBRANCH   3   5
ENDBRANCH   1   3
BRANCH   1  11
ATOM     11  C   UNL     1     153.165 158.269 201.774  1.00  0.00     0.087 C 
BRANCH  11  12
ATOM     12  C   UNL     1     152.508 157.315 200.736  1.00  0.00     0.066 C 
BRANCH  12  13
ATOM     13  C   UNL     1     153.046 157.586 199.344  1.00  0.00     0.140 C 
ATOM     14  O   UNL     1     154.245 157.466 199.128  1.00  0.00    -0.299 OA
BRANCH  13  15
ATOM     15  C   UNL     1     152.133 158.029 198.224  1.00  0.00     0.106 CG0
ATOM     16  G   UNL     1     152.291 159.517 197.982  1.00  0.00     0.000 G0
ENDBRANCH  13  15
ENDBRANCH  12  13
BRANCH  12  17
ATOM     17  C   UNL     1     152.686 155.813 201.122  1.00  0.00    -0.006 C 
ATOM     18  C   UNL     1     152.484 154.894 199.903  1.00  0.00     0.008 C 
ATOM     19  C   UNL     1     151.711 155.385 202.235  1.00  0.00     0.008 C 
ENDBRANCH  12  17
ENDBRANCH  11  12
ENDBRANCH   1  11
TORSDOF 1
ENDMDL
MODEL 4
REMARK VINA RESULT:    -2.980      1.834      4.454
REMARK INTER + INTRA:          -4.656
REMARK INTER:                  -4.454
REMARK INTRA:                  -0.202
REMARK UNBOUND:                -0.108
REMARK SMILES CC1=CCC[C@@H](C)C(=O)C[C@H](C(C)C)C(=O)C1
REMARK SMILES IDX 8 1 9 2 6 3 7 4 5 5 4 6 3 7 2 8 1 9 10 11 11 12 15 13 16 14
REMARK SMILES IDX 17 15 12 17 13 18 14 19
REMARK H PARENT
REMARK Flexibility Score: 70.00
ROOT
ATOM      1  C   UNL     1     155.332 160.618 199.792  1.00  0.00     0.136 C 
ATOM      2  O   UNL     1     154.806 161.049 198.776  1.00  0.00    -0.299 OA
ENDROOT
BRANCH   1   3
ATOM      3  C   UNL     1     156.740 160.052 199.695  1.00  0.00     0.053 C 
ATOM      4  C   UNL     1     157.670 161.033 198.966  1.00  0.00     0.016 C 
BRANCH   3   5
ATOM      5  C   UNL     1     156.772 158.655 199.029  1.00  0.00     0.015 C 
BRANCH   5   6
ATOM      6  C   UNL     1     157.035 157.473 199.986  1.00  0.00     0.028 C 
BRANCH   6   7
ATOM      7  C   UNL     1     155.875 156.535 200.236  1.00  0.00    -0.028 C 
ATOM      8  C   UNL     1     154.872 156.720 201.125  1.00  0.00    -0.070 CG0
ATOM      9  C   UNL     1     153.730 155.734 201.113  1.00  0.00     0.039 C 
ATOM     10  G   UNL     1     154.865 157.817 202.171  1.00  0.00     0.000 G0
ENDBRANCH   6   7
ENDBRANCH   5   6
ENDBRANCH   3   5
ENDBRANCH   1   3
BRANCH   1  11
ATOM     11  C   UNL     1     154.529 160.647 201.085  1.00  0.00     0.087 C 
BRANCH  11  12
ATOM     12  C   UNL     1     153.320 159.671 201.124  1.00  0.00     0.066 C 
BRANCH  12  13
ATOM     13  C   UNL     1     153.548 158.577 202.151  1.00  0.00     0.140 C 
ATOM     14  O   UNL     1     152.671 158.326 202.967  1.00  0.00    -0.299 OA
BRANCH  13  15
ATOM     15  C   UNL     1     154.849 157.811 202.202  1.00  0.00     0.106 CG0
ATOM     16  G   UNL     1     154.857 156.730 201.139  1.00  0.00     0.000 G0
ENDBRANCH  13  15
ENDBRANCH  12  13
BRANCH  12  17
ATOM     17  C   UNL     1     151.972 160.413 201.388  1.00  0.00    -0.006 C 
ATOM     18  C   UNL     1     151.163 160.584 200.088  1.00  0.00     0.008 C 
ATOM     19  C   UNL     1     152.194 161.799 202.022  1.00  0.00     0.008 C 
ENDBRANCH  12  17
ENDBRANCH  11  12
ENDBRANCH   1  11
TORSDOF 1
ENDMDL
MODEL 5
REMARK VINA RESULT:    -2.919      2.351      3.683
REMARK INTER + INTRA:          -4.563
REMARK INTER:                  -4.513
REMARK INTRA:                  -0.050
REMARK UNBOUND:                -0.108
REMARK SMILES CC1=CCC[C@@H](C)C(=O)C[C@H](C(C)C)C(=O)C1
REMARK SMILES IDX 8 1 9 2 6 3 7 4 5 5 4 6 3 7 2 8 1 9 10 11 11 12 15 13 16 14
REMARK SMILES IDX 17 15 12 17 13 18 14 19
REMARK H PARENT
REMARK Flexibility Score: 70.00
ROOT
ATOM      1  C   UNL     1     151.198 160.727 198.916  1.00  0.00     0.136 C 
ATOM      2  O   UNL     1     150.266 160.232 199.532  1.00  0.00    -0.299 OA
ENDROOT
BRANCH   1   3
ATOM      3  C   UNL     1     151.133 160.747 197.397  1.00  0.00     0.053 C 
ATOM      4  C   UNL     1     149.684 160.593 196.913  1.00  0.00     0.016 C 
BRANCH   3   5
ATOM      5  C   UNL     1     152.051 159.680 196.751  1.00  0.00     0.015 C 
BRANCH   5   6
ATOM      6  C   UNL     1     153.542 160.067 196.650  1.00  0.00     0.028 C 
BRANCH   6   7
ATOM      7  C   UNL     1     154.535 159.087 197.234  1.00  0.00    -0.028 C 
ATOM      8  C   UNL     1     155.184 159.211 198.415  1.00  0.00    -0.070 CG0
ATOM      9  C   UNL     1     156.021 158.048 198.884  1.00  0.00     0.039 C 
ATOM     10  G   UNL     1     155.170 160.473 199.255  1.00  0.00     0.000 G0
ENDBRANCH   6   7
ENDBRANCH   5   6
ENDBRANCH   3   5
ENDBRANCH   1   3
BRANCH   1  11
ATOM     11  C   UNL     1     152.380 161.263 199.710  1.00  0.00     0.087 C 
BRANCH  11  12
ATOM     12  C   UNL     1     152.979 160.268 200.743  1.00  0.00     0.066 C 
BRANCH  12  13
ATOM     13  C   UNL     1     154.486 160.176 200.587  1.00  0.00     0.140 C 
ATOM     14  O   UNL     1     155.173 159.873 201.553  1.00  0.00    -0.299 OA
BRANCH  13  15
ATOM     15  C   UNL     1     155.155 160.478 199.267  1.00  0.00     0.106 CG0
ATOM     16  G   UNL     1     155.203 159.229 198.410  1.00  0.00     0.000 G0
ENDBRANCH  13  15
ENDBRANCH  12  13
BRANCH  12  17
ATOM     17  C   UNL     1     152.589 160.636 202.209  1.00  0.00    -0.006 C 
ATOM     18  C   UNL     1     151.390 159.802 202.697  1.00  0.00     0.008 C 
ATOM     19  C   UNL     1     152.250 162.131 202.356  1.00  0.00     0.008 C 
ENDBRANCH  12  17
ENDBRANCH  11  12
ENDBRANCH   1  11
TORSDOF 1
ENDMDL
MODEL 6
REMARK VINA RESULT:    -2.883      1.779      3.979
REMARK INTER + INTRA:          -4.508
REMARK INTER:                  -4.361
REMARK INTRA:                  -0.147
REMARK UNBOUND:                -0.108
REMARK SMILES CC1=CCC[C@@H](C)C(=O)C[C@H](C(C)C)C(=O)C1
REMARK SMILES IDX 8 1 9 2 6 3 7 4 5 5 4 6 3 7 2 8 1 9 10 11 11 12 15 13 16 14
REMARK SMILES IDX 17 15 12 17 13 18 14 19
REMARK H PARENT
REMARK Flexibility Score: 70.00
ROOT
ATOM      1  C   UNL     1     153.181 157.094 201.342  1.00  0.00     0.136 C 
ATOM      2  O   UNL     1     152.391 156.435 202.002  1.00  0.00    -0.299 OA
ENDROOT
BRANCH   1   3
ATOM      3  C   UNL     1     154.658 156.737 201.413  1.00  0.00     0.053 C 
ATOM      4  C   UNL     1     154.845 155.283 201.870  1.00  0.00     0.016 C 
BRANCH   3   5
ATOM      5  C   UNL     1     155.459 157.711 202.312  1.00  0.00     0.015 C 
BRANCH   5   6
ATOM      6  C   UNL     1     156.606 158.466 201.609  1.00  0.00     0.028 C 
BRANCH   6   7
ATOM      7  C   UNL     1     156.528 158.561 200.101  1.00  0.00    -0.028 C 
ATOM      8  C   UNL     1     156.002 159.584 199.388  1.00  0.00    -0.070 CG0
ATOM      9  C   UNL     1     156.158 159.550 197.889  1.00  0.00     0.039 C 
ATOM     10  G   UNL     1     155.211 160.721 200.004  1.00  0.00     0.000 G0
ENDBRANCH   6   7
ENDBRANCH   5   6
ENDBRANCH   3   5
ENDBRANCH   1   3
BRANCH   1  11
ATOM     11  C   UNL     1     152.639 158.250 200.516  1.00  0.00     0.087 C 
BRANCH  11  12
ATOM     12  C   UNL     1     153.043 159.662 201.024  1.00  0.00     0.066 C 
BRANCH  12  13
ATOM     13  C   UNL     1     153.736 160.448 199.926  1.00  0.00     0.140 C 
ATOM     14  O   UNL     1     153.089 160.836 198.964  1.00  0.00    -0.299 OA
BRANCH  13  15
ATOM     15  C   UNL     1     155.218 160.737 199.988  1.00  0.00     0.106 CG0
ATOM     16  G   UNL     1     155.997 159.588 199.381  1.00  0.00     0.000 G0
ENDBRANCH  13  15
ENDBRANCH  12  13
BRANCH  12  17
ATOM     17  C   UNL     1     151.825 160.454 201.595  1.00  0.00    -0.006 C 
ATOM     18  C   UNL     1     152.252 161.837 202.122  1.00  0.00     0.008 C 
ATOM     19  C   UNL     1     151.118 159.686 202.727  1.00  0.00     0.008 C 
ENDBRANCH  12  17
ENDBRANCH  11  12
ENDBRANCH   1  11
TORSDOF 1
ENDMDL
MODEL 7
REMARK VINA RESULT:    -2.877      1.471      2.187
REMARK INTER + INTRA:          -4.499
REMARK INTER:                  -5.015
REMARK INTRA:                   0.515
REMARK UNBOUND:                -0.108
REMARK SMILES CC1=CCC[C@@H](C)C(=O)C[C@H](C(C)C)C(=O)C1
REMARK SMILES IDX 8 1 9 2 6 3 7 4 5 5 4 6 3 7 2 8 1 9 10 11 11 12 15 13 16 14
REMARK SMILES IDX 17 15 12 17 13 18 14 19
REMARK H PARENT
REMARK Flexibility Score: 70.00
ROOT
ATOM      1  C   UNL     1     151.399 160.000 202.479  1.00  0.00     0.136 C 
ATOM      2  O   UNL     1     150.186 160.154 202.470  1.00  0.00    -0.299 OA
ENDROOT
BRANCH   1   3
ATOM      3  C   UNL     1     152.272 161.093 201.883  1.00  0.00     0.053 C 
ATOM      4  C   UNL     1     151.983 162.445 202.552  1.00  0.00     0.016 C 
BRANCH   3   5
ATOM      5  C   UNL     1     152.128 161.192 200.345  1.00  0.00     0.015 C 
BRANCH   5   6
ATOM      6  C   UNL     1     153.144 160.363 199.532  1.00  0.00     0.028 C 
BRANCH   6   7
ATOM      7  C   UNL     1     152.595 159.172 198.778  1.00  0.00    -0.028 C 
ATOM      8  C   UNL     1     152.866 157.870 199.028  1.00  0.00    -0.070 CG0
ATOM      9  C   UNL     1     152.098 156.829 198.254  1.00  0.00     0.039 C 
ATOM     10  G   UNL     1     153.941 157.403 199.990  1.00  0.00     0.000 G0
ENDBRANCH   6   7
ENDBRANCH   5   6
ENDBRANCH   3   5
ENDBRANCH   1   3
BRANCH   1  11
ATOM     11  C   UNL     1     151.956 158.709 203.060  1.00  0.00     0.087 C 
BRANCH  11  12
ATOM     12  C   UNL     1     152.266 157.603 202.012  1.00  0.00     0.066 C 
BRANCH  12  13
ATOM     13  C   UNL     1     153.640 157.812 201.404  1.00  0.00     0.140 C 
ATOM     14  O   UNL     1     154.513 158.359 202.064  1.00  0.00    -0.299 OA
BRANCH  13  15
ATOM     15  C   UNL     1     153.943 157.380 199.988  1.00  0.00     0.106 CG0
ATOM     16  G   UNL     1     152.861 157.880 199.050  1.00  0.00     0.000 G0
ENDBRANCH  13  15
ENDBRANCH  12  13
BRANCH  12  17
ATOM     17  C   UNL     1     152.133 156.168 202.614  1.00  0.00    -0.006 C 
ATOM     18  C   UNL     1     153.443 155.720 203.288  1.00  0.00     0.008 C 
ATOM     19  C   UNL     1     151.742 155.130 201.546  1.00  0.00     0.008 C 
ENDBRANCH  12  17
ENDBRANCH  11  12
ENDBRANCH   1  11
TORSDOF 1
ENDMDL
MODEL 8
REMARK VINA RESULT:    -2.821      2.319      3.732
REMARK INTER + INTRA:          -4.413
REMARK INTER:                  -4.422
REMARK INTRA:                   0.009
REMARK UNBOUND:                -0.108
REMARK SMILES CC1=CCC[C@@H](C)C(=O)C[C@H](C(C)C)C(=O)C1
REMARK SMILES IDX 8 1 9 2 6 3 7 4 5 5 4 6 3 7 2 8 1 9 10 11 11 12 15 13 16 14
REMARK SMILES IDX 17 15 12 17 13 18 14 19
REMARK H PARENT
REMARK Flexibility Score: 70.00
ROOT
ATOM      1  C   UNL     1     154.941 158.505 200.832  1.00  0.00     0.136 C 
ATOM      2  O   UNL     1     155.684 158.122 201.724  1.00  0.00    -0.299 OA
ENDROOT
BRANCH   1   3
ATOM      3  C   UNL     1     154.924 159.987 200.490  1.00  0.00     0.053 C 
ATOM      4  C   UNL     1     156.347 160.562 200.497  1.00  0.00     0.016 C 
BRANCH   3   5
ATOM      5  C   UNL     1     153.992 160.798 201.423  1.00  0.00     0.015 C 
BRANCH   5   6
ATOM      6  C   UNL     1     152.524 160.907 200.958  1.00  0.00     0.028 C 
BRANCH   6   7
ATOM      7  C   UNL     1     152.299 161.112 199.475  1.00  0.00    -0.028 C 
ATOM      8  C   UNL     1     151.469 160.395 198.684  1.00  0.00    -0.070 CG0
ATOM      9  C   UNL     1     151.278 160.858 197.261  1.00  0.00     0.039 C 
ATOM     10  G   UNL     1     150.775 159.122 199.126  1.00  0.00     0.000 G0
ENDBRANCH   6   7
ENDBRANCH   5   6
ENDBRANCH   3   5
ENDBRANCH   1   3
BRANCH   1  11
ATOM     11  C   UNL     1     154.057 157.477 200.141  1.00  0.00     0.087 C 
BRANCH  11  12
ATOM     12  C   UNL     1     152.535 157.632 200.420  1.00  0.00     0.066 C 
BRANCH  12  13
ATOM     13  C   UNL     1     151.788 157.971 199.143  1.00  0.00     0.140 C 
ATOM     14  O   UNL     1     152.021 157.335 198.124  1.00  0.00    -0.299 OA
BRANCH  13  15
ATOM     15  C   UNL     1     150.782 159.096 199.101  1.00  0.00     0.106 CG0
ATOM     16  G   UNL     1     151.461 160.386 198.683  1.00  0.00     0.000 G0
ENDBRANCH  13  15
ENDBRANCH  12  13
BRANCH  12  17
ATOM     17  C   UNL     1     151.930 156.365 201.103  1.00  0.00    -0.006 C 
ATOM     18  C   UNL     1     151.905 156.513 202.636  1.00  0.00     0.008 C 
ATOM     19  C   UNL     1     152.709 155.088 200.738  1.00  0.00     0.008 C 
ENDBRANCH  12  17
ENDBRANCH  11  12
ENDBRANCH   1  11
TORSDOF 1
ENDMDL
MODEL 9
REMARK VINA RESULT:    -2.819      2.558      4.059
REMARK INTER + INTRA:          -4.411
REMARK INTER:                  -4.351
REMARK INTRA:                  -0.060
REMARK UNBOUND:                -0.108
REMARK SMILES CC1=CCC[C@@H](C)C(=O)C[C@H](C(C)C)C(=O)C1
REMARK SMILES IDX 8 1 9 2 6 3 7 4 5 5 4 6 3 7 2 8 1 9 10 11 11 12 15 13 16 14
REMARK SMILES IDX 17 15 12 17 13 18 14 19
REMARK H PARENT
REMARK Flexibility Score: 70.00
ROOT
ATOM      1  C   UNL     1     150.384 160.055 199.865  1.00  0.00     0.136 C 
ATOM      2  O   UNL     1     149.384 160.756 199.818  1.00  0.00    -0.299 OA
ENDROOT
BRANCH   1   3
ATOM      3  C   UNL     1     151.282 160.155 201.089  1.00  0.00     0.053 C 
ATOM      4  C   UNL     1     150.445 160.346 202.362  1.00  0.00     0.016 C 
BRANCH   3   5
ATOM      5  C   UNL     1     152.347 161.270 200.951  1.00  0.00     0.015 C 
BRANCH   5   6
ATOM      6  C   UNL     1     153.767 160.785 200.590  1.00  0.00     0.028 C 
BRANCH   6   7
ATOM      7  C   UNL     1     154.062 159.320 200.829  1.00  0.00    -0.028 C 
ATOM      8  C   UNL     1     154.400 158.407 199.890  1.00  0.00    -0.070 CG0
ATOM      9  C   UNL     1     154.799 157.030 200.358  1.00  0.00     0.039 C 
ATOM     10  G   UNL     1     154.336 158.669 198.398  1.00  0.00     0.000 G0
ENDBRANCH   6   7
ENDBRANCH   5   6
ENDBRANCH   3   5
ENDBRANCH   1   3
BRANCH   1  11
ATOM     11  C   UNL     1     150.684 159.148 198.680  1.00  0.00     0.087 C 
BRANCH  11  12
ATOM     12  C   UNL     1     151.934 159.552 197.849  1.00  0.00     0.066 C 
BRANCH  12  13
ATOM     13  C   UNL     1     152.961 158.435 197.850  1.00  0.00     0.140 C 
ATOM     14  O   UNL     1     152.647 157.329 197.434  1.00  0.00    -0.299 OA
BRANCH  13  15
ATOM     15  C   UNL     1     154.358 158.658 198.382  1.00  0.00     0.106 CG0
ATOM     16  G   UNL     1     154.387 158.426 199.880  1.00  0.00     0.000 G0
ENDBRANCH  13  15
ENDBRANCH  12  13
BRANCH  12  17
ATOM     17  C   UNL     1     151.562 159.969 196.391  1.00  0.00    -0.006 C 
ATOM     18  C   UNL     1     151.005 161.404 196.343  1.00  0.00     0.008 C 
ATOM     19  C   UNL     1     150.530 159.013 195.765  1.00  0.00     0.008 C 
ENDBRANCH  12  17
ENDBRANCH  11  12
ENDBRANCH   1  11
TORSDOF 1
ENDMDL
