MODEL 1
REMARK VINA RESULT:    -3.975      0.000      0.000
REMARK INTER + INTRA:          -8.188
REMARK INTER:                  -6.764
REMARK INTRA:                  -1.424
REMARK UNBOUND:                -1.424
REMARK SMILES CCCCCCCCCCCCCC(=O)[O-]
REMARK SMILES IDX 8 1 9 2 10 3 11 4 12 5 13 6 14 7 15 8 16 9 7 10 6 11 5 12
REMARK SMILES IDX 4 13 3 14 2 15 1 16
REMARK H PARENT
REMARK Flexibility Score: inf
ROOT
ATOM      1  C   UNL     1      -9.760   4.866   4.908  1.00  0.00     0.000 C 
ENDROOT
BRANCH   1   2
ATOM      2  C   UNL     1      -8.440   4.594   5.645  1.00  0.00     0.000 C 
BRANCH   2   3
ATOM      3  C   UNL     1      -7.527   3.680   4.816  1.00  0.00     0.000 C 
BRANCH   3   4
ATOM      4  C   UNL     1      -7.004   2.477   5.618  1.00  0.00     0.000 C 
BRANCH   4   5
ATOM      5  C   UNL     1      -7.306   2.563   7.132  1.00  0.00     0.006 C 
BRANCH   5   6
ATOM      6  C   UNL     1      -6.163   2.028   8.008  1.00  0.00     0.053 C 
BRANCH   6   7
ATOM      7  C   UNL     1      -4.825   2.264   7.376  1.00  0.00     0.041 C 
ATOM      8  O   UNL     1      -4.203   1.311   6.836  1.00  0.00    -0.550 OA
ATOM      9  O   UNL     1      -4.252   3.529   7.405  1.00  0.00    -0.550 OA
ENDBRANCH   6   7
ENDBRANCH   5   6
ENDBRANCH   4   5
ENDBRANCH   3   4
ENDBRANCH   2   3
ENDBRANCH   1   2
BRANCH   1  10
ATOM     10  C   UNL     1     -10.681   3.635   4.854  1.00  0.00     0.000 C 
BRANCH  10  11
ATOM     11  C   UNL     1     -10.875   2.901   6.198  1.00  0.00    -0.000 C 
BRANCH  11  12
ATOM     12  C   UNL     1     -11.288   1.423   6.078  1.00  0.00    -0.000 C 
BRANCH  12  13
ATOM     13  C   UNL     1     -10.656   0.725   4.861  1.00  0.00    -0.000 C 
BRANCH  13  14
ATOM     14  C   UNL     1      -9.926  -0.577   5.233  1.00  0.00    -0.000 C 
BRANCH  14  15
ATOM     15  C   UNL     1      -9.188  -1.258   4.066  1.00  0.00    -0.003 C 
ATOM     16  C   UNL     1      -8.211  -0.326   3.352  1.00  0.00     0.004 C 
ENDBRANCH  14  15
ENDBRANCH  13  14
ENDBRANCH  12  13
ENDBRANCH  11  12
ENDBRANCH  10  11
ENDBRANCH   1  10
TORSDOF 12
ENDMDL
MODEL 2
REMARK VINA RESULT:    -3.819     13.851     16.090
REMARK INTER + INTRA:          -7.923
REMARK INTER:                  -6.046
REMARK INTRA:                  -1.877
REMARK UNBOUND:                -1.424
REMARK SMILES CCCCCCCCCCCCCC(=O)[O-]
REMARK SMILES IDX 8 1 9 2 10 3 11 4 12 5 13 6 14 7 15 8 16 9 7 10 6 11 5 12
REMARK SMILES IDX 4 13 3 14 2 15 1 16
REMARK H PARENT
REMARK Flexibility Score: inf
ROOT
ATOM      1  C   UNL     1      -2.437 -11.811   7.407  1.00  0.00     0.000 C 
ENDROOT
BRANCH   1   2
ATOM      2  C   UNL     1      -2.565 -11.813   5.877  1.00  0.00     0.000 C 
BRANCH   2   3
ATOM      3  C   UNL     1      -1.481 -12.690   5.236  1.00  0.00     0.000 C 
BRANCH   3   4
ATOM      4  C   UNL     1      -0.065 -12.123   5.429  1.00  0.00     0.000 C 
BRANCH   4   5
ATOM      5  C   UNL     1       0.902 -13.099   6.139  1.00  0.00     0.006 C 
BRANCH   5   6
ATOM      6  C   UNL     1       1.986 -12.385   6.961  1.00  0.00     0.053 C 
BRANCH   6   7
ATOM      7  C   UNL     1       3.347 -12.950   6.689  1.00  0.00     0.041 C 
ATOM      8  O   UNL     1       3.507 -13.806   5.779  1.00  0.00    -0.550 OA
ATOM      9  O   UNL     1       4.435 -12.552   7.456  1.00  0.00    -0.550 OA
ENDBRANCH   6   7
ENDBRANCH   5   6
ENDBRANCH   4   5
ENDBRANCH   3   4
ENDBRANCH   2   3
ENDBRANCH   1   2
BRANCH   1  10
ATOM     10  C   UNL     1      -2.798 -10.454   8.037  1.00  0.00     0.000 C 
BRANCH  10  11
ATOM     11  C   UNL     1      -2.919  -9.280   7.042  1.00  0.00    -0.000 C 
BRANCH  11  12
ATOM     12  C   UNL     1      -1.805  -8.223   7.146  1.00  0.00    -0.000 C 
BRANCH  12  13
ATOM     13  C   UNL     1      -0.550  -8.599   6.341  1.00  0.00    -0.000 C 
BRANCH  13  14
ATOM     14  C   UNL     1       0.675  -8.864   7.235  1.00  0.00    -0.000 C 
BRANCH  14  15
ATOM     15  C   UNL     1       0.410  -8.736   8.746  1.00  0.00    -0.003 C 
ATOM     16  C   UNL     1       0.602 -10.052   9.499  1.00  0.00     0.004 C 
ENDBRANCH  14  15
ENDBRANCH  13  14
ENDBRANCH  12  13
ENDBRANCH  11  12
ENDBRANCH  10  11
ENDBRANCH   1  10
TORSDOF 12
ENDMDL
MODEL 3
REMARK VINA RESULT:    -3.797      2.354      3.626
REMARK INTER + INTRA:          -7.885
REMARK INTER:                  -5.892
REMARK INTRA:                  -1.993
REMARK UNBOUND:                -1.424
REMARK SMILES CCCCCCCCCCCCCC(=O)[O-]
REMARK SMILES IDX 8 1 9 2 10 3 11 4 12 5 13 6 14 7 15 8 16 9 7 10 6 11 5 12
REMARK SMILES IDX 4 13 3 14 2 15 1 16
REMARK H PARENT
REMARK Flexibility Score: inf
ROOT
ATOM      1  C   UNL     1     -11.886   1.326   9.016  1.00  0.00     0.000 C 
ENDROOT
BRANCH   1   2
ATOM      2  C   UNL     1     -10.860   0.254   9.411  1.00  0.00     0.000 C 
BRANCH   2   3
ATOM      3  C   UNL     1      -9.439   0.684   9.021  1.00  0.00     0.000 C 
BRANCH   3   4
ATOM      4  C   UNL     1      -9.412   2.004   8.233  1.00  0.00     0.000 C 
BRANCH   4   5
ATOM      5  C   UNL     1      -8.172   2.157   7.322  1.00  0.00     0.006 C 
BRANCH   5   6
ATOM      6  C   UNL     1      -8.403   3.111   6.140  1.00  0.00     0.053 C 
BRANCH   6   7
ATOM      7  C   UNL     1      -7.412   2.880   5.041  1.00  0.00     0.041 C 
ATOM      8  O   UNL     1      -7.085   1.706   4.720  1.00  0.00    -0.550 OA
ATOM      9  O   UNL     1      -6.830   3.958   4.387  1.00  0.00    -0.550 OA
ENDBRANCH   6   7
ENDBRANCH   5   6
ENDBRANCH   4   5
ENDBRANCH   3   4
ENDBRANCH   2   3
ENDBRANCH   1   2
BRANCH   1  10
ATOM     10  C   UNL     1     -13.140   0.737   8.345  1.00  0.00     0.000 C 
BRANCH  10  11
ATOM     11  C   UNL     1     -12.978   0.379   6.852  1.00  0.00    -0.000 C 
BRANCH  11  12
ATOM     12  C   UNL     1     -12.225   1.424   6.010  1.00  0.00    -0.000 C 
BRANCH  12  13
ATOM     13  C   UNL     1     -11.096   0.807   5.167  1.00  0.00    -0.000 C 
BRANCH  13  14
ATOM     14  C   UNL     1     -10.604  -0.541   5.722  1.00  0.00    -0.000 C 
BRANCH  14  15
ATOM     15  C   UNL     1      -9.266  -1.029   5.137  1.00  0.00    -0.003 C 
ATOM     16  C   UNL     1      -9.208  -0.926   3.614  1.00  0.00     0.004 C 
ENDBRANCH  14  15
ENDBRANCH  13  14
ENDBRANCH  12  13
ENDBRANCH  11  12
ENDBRANCH  10  11
ENDBRANCH   1  10
TORSDOF 12
ENDMDL
MODEL 4
REMARK VINA RESULT:    -3.781     14.460     16.724
REMARK INTER + INTRA:          -7.858
REMARK INTER:                  -6.506
REMARK INTRA:                  -1.351
REMARK UNBOUND:                -1.424
REMARK SMILES CCCCCCCCCCCCCC(=O)[O-]
REMARK SMILES IDX 8 1 9 2 10 3 11 4 12 5 13 6 14 7 15 8 16 9 7 10 6 11 5 12
REMARK SMILES IDX 4 13 3 14 2 15 1 16
REMARK H PARENT
REMARK Flexibility Score: inf
ROOT
ATOM      1  C   UNL     1      -0.958 -12.694   7.061  1.00  0.00     0.000 C 
ENDROOT
BRANCH   1   2
ATOM      2  C   UNL     1      -2.257 -11.876   7.092  1.00  0.00     0.000 C 
BRANCH   2   3
ATOM      3  C   UNL     1      -2.159 -10.655   6.168  1.00  0.00     0.000 C 
BRANCH   3   4
ATOM      4  C   UNL     1      -2.176  -9.324   6.937  1.00  0.00     0.000 C 
BRANCH   4   5
ATOM      5  C   UNL     1      -1.051  -8.350   6.516  1.00  0.00     0.006 C 
BRANCH   5   6
ATOM      6  C   UNL     1       0.353  -8.963   6.630  1.00  0.00     0.053 C 
BRANCH   6   7
ATOM      7  C   UNL     1       0.745  -9.186   8.059  1.00  0.00     0.041 C 
ATOM      8  O   UNL     1       1.270 -10.276   8.408  1.00  0.00    -0.550 OA
ATOM      9  O   UNL     1       0.507  -8.202   9.010  1.00  0.00    -0.550 OA
ENDBRANCH   6   7
ENDBRANCH   5   6
ENDBRANCH   4   5
ENDBRANCH   3   4
ENDBRANCH   2   3
ENDBRANCH   1   2
BRANCH   1  10
ATOM     10  C   UNL     1      -0.252 -12.648   5.694  1.00  0.00     0.000 C 
BRANCH  10  11
ATOM     11  C   UNL     1      -0.677 -13.749   4.699  1.00  0.00    -0.000 C 
BRANCH  11  12
ATOM     12  C   UNL     1       0.389 -14.824   4.424  1.00  0.00    -0.000 C 
BRANCH  12  13
ATOM     13  C   UNL     1       1.423 -14.941   5.558  1.00  0.00    -0.000 C 
BRANCH  13  14
ATOM     14  C   UNL     1       2.870 -14.770   5.065  1.00  0.00    -0.000 C 
BRANCH  14  15
ATOM     15  C   UNL     1       3.828 -14.131   6.087  1.00  0.00    -0.003 C 
ATOM     16  C   UNL     1       3.309 -12.806   6.644  1.00  0.00     0.004 C 
ENDBRANCH  14  15
ENDBRANCH  13  14
ENDBRANCH  12  13
ENDBRANCH  11  12
ENDBRANCH  10  11
ENDBRANCH   1  10
TORSDOF 12
ENDMDL
MODEL 5
REMARK VINA RESULT:    -3.750     14.759     16.968
REMARK INTER + INTRA:          -7.804
REMARK INTER:                  -6.365
REMARK INTRA:                  -1.439
REMARK UNBOUND:                -1.424
REMARK SMILES CCCCCCCCCCCCCC(=O)[O-]
REMARK SMILES IDX 8 1 9 2 10 3 11 4 12 5 13 6 14 7 15 8 16 9 7 10 6 11 5 12
REMARK SMILES IDX 4 13 3 14 2 15 1 16
REMARK H PARENT
REMARK Flexibility Score: inf
ROOT
ATOM      1  C   UNL     1      -0.047 -12.301   8.604  1.00  0.00     0.000 C 
ENDROOT
BRANCH   1   2
ATOM      2  C   UNL     1      -0.439 -12.377   7.121  1.00  0.00     0.000 C 
BRANCH   2   3
ATOM      3  C   UNL     1       0.804 -12.326   6.222  1.00  0.00     0.000 C 
BRANCH   3   4
ATOM      4  C   UNL     1       1.271 -13.722   5.774  1.00  0.00     0.000 C 
BRANCH   4   5
ATOM      5  C   UNL     1       2.805 -13.907   5.827  1.00  0.00     0.006 C 
BRANCH   5   6
ATOM      6  C   UNL     1       3.485 -13.021   6.882  1.00  0.00     0.053 C 
BRANCH   6   7
ATOM      7  C   UNL     1       4.864 -12.615   6.458  1.00  0.00     0.041 C 
ATOM      8  O   UNL     1       5.200 -11.401   6.478  1.00  0.00    -0.550 OA
ATOM      9  O   UNL     1       5.769 -13.571   6.016  1.00  0.00    -0.550 OA
ENDBRANCH   6   7
ENDBRANCH   5   6
ENDBRANCH   4   5
ENDBRANCH   3   4
ENDBRANCH   2   3
ENDBRANCH   1   2
BRANCH   1  10
ATOM     10  C   UNL     1       1.067 -11.276   8.878  1.00  0.00     0.000 C 
BRANCH  10  11
ATOM     11  C   UNL     1       0.662 -10.092   9.782  1.00  0.00    -0.000 C 
BRANCH  11  12
ATOM     12  C   UNL     1       0.184  -8.836   9.033  1.00  0.00    -0.000 C 
BRANCH  12  13
ATOM     13  C   UNL     1       0.802  -8.707   7.630  1.00  0.00    -0.000 C 
BRANCH  13  14
ATOM     14  C   UNL     1      -0.253  -8.706   6.510  1.00  0.00    -0.000 C 
BRANCH  14  15
ATOM     15  C   UNL     1      -1.684  -8.376   6.974  1.00  0.00    -0.003 C 
ATOM     16  C   UNL     1      -2.496  -7.628   5.918  1.00  0.00     0.004 C 
ENDBRANCH  14  15
ENDBRANCH  13  14
ENDBRANCH  12  13
ENDBRANCH  11  12
ENDBRANCH  10  11
ENDBRANCH   1  10
TORSDOF 12
ENDMDL
MODEL 6
REMARK VINA RESULT:    -3.745      1.477      2.253
REMARK INTER + INTRA:          -7.797
REMARK INTER:                  -5.907
REMARK INTRA:                  -1.890
REMARK UNBOUND:                -1.424
REMARK SMILES CCCCCCCCCCCCCC(=O)[O-]
REMARK SMILES IDX 8 1 9 2 10 3 11 4 12 5 13 6 14 7 15 8 16 9 7 10 6 11 5 12
REMARK SMILES IDX 4 13 3 14 2 15 1 16
REMARK H PARENT
REMARK Flexibility Score: inf
ROOT
ATOM      1  C   UNL     1     -11.193   2.830   5.750  1.00  0.00     0.000 C 
ENDROOT
BRANCH   1   2
ATOM      2  C   UNL     1     -10.298   3.607   4.773  1.00  0.00     0.000 C 
BRANCH   2   3
ATOM      3  C   UNL     1      -9.231   4.412   5.526  1.00  0.00     0.000 C 
BRANCH   3   4
ATOM      4  C   UNL     1      -7.804   4.108   5.041  1.00  0.00     0.000 C 
BRANCH   4   5
ATOM      5  C   UNL     1      -7.339   2.666   5.349  1.00  0.00     0.006 C 
BRANCH   5   6
ATOM      6  C   UNL     1      -6.273   2.597   6.454  1.00  0.00     0.053 C 
BRANCH   6   7
ATOM      7  C   UNL     1      -6.885   2.344   7.798  1.00  0.00     0.041 C 
ATOM      8  O   UNL     1      -7.273   3.310   8.508  1.00  0.00    -0.550 OA
ATOM      9  O   UNL     1      -7.004   1.047   8.278  1.00  0.00    -0.550 OA
ENDBRANCH   6   7
ENDBRANCH   5   6
ENDBRANCH   4   5
ENDBRANCH   3   4
ENDBRANCH   2   3
ENDBRANCH   1   2
BRANCH   1  10
ATOM     10  C   UNL     1     -10.686   2.889   7.202  1.00  0.00     0.000 C 
BRANCH  10  11
ATOM     11  C   UNL     1     -10.499   1.519   7.888  1.00  0.00    -0.000 C 
BRANCH  11  12
ATOM     12  C   UNL     1     -10.951   0.308   7.054  1.00  0.00    -0.000 C 
BRANCH  12  13
ATOM     13  C   UNL     1      -9.771  -0.544   6.554  1.00  0.00    -0.000 C 
BRANCH  13  14
ATOM     14  C   UNL     1      -9.948  -1.013   5.099  1.00  0.00    -0.000 C 
BRANCH  14  15
ATOM     15  C   UNL     1      -9.494   0.003   4.035  1.00  0.00    -0.003 C 
ATOM     16  C   UNL     1      -8.220  -0.425   3.307  1.00  0.00     0.004 C 
ENDBRANCH  14  15
ENDBRANCH  13  14
ENDBRANCH  12  13
ENDBRANCH  11  12
ENDBRANCH  10  11
ENDBRANCH   1  10
TORSDOF 12
ENDMDL
MODEL 7
REMARK VINA RESULT:    -3.665     13.848     16.027
REMARK INTER + INTRA:          -7.661
REMARK INTER:                  -5.966
REMARK INTRA:                  -1.694
REMARK UNBOUND:                -1.424
REMARK SMILES CCCCCCCCCCCCCC(=O)[O-]
REMARK SMILES IDX 8 1 9 2 10 3 11 4 12 5 13 6 14 7 15 8 16 9 7 10 6 11 5 12
REMARK SMILES IDX 4 13 3 14 2 15 1 16
REMARK H PARENT
REMARK Flexibility Score: inf
ROOT
ATOM      1  C   UNL     1       0.782  -9.916   8.453  1.00  0.00     0.000 C 
ENDROOT
BRANCH   1   2
ATOM      2  C   UNL     1      -0.030  -8.650   8.144  1.00  0.00     0.000 C 
BRANCH   2   3
ATOM      3  C   UNL     1      -0.226  -8.478   6.632  1.00  0.00     0.000 C 
BRANCH   3   4
ATOM      4  C   UNL     1      -1.705  -8.320   6.238  1.00  0.00     0.000 C 
BRANCH   4   5
ATOM      5  C   UNL     1      -2.691  -8.765   7.343  1.00  0.00     0.006 C 
BRANCH   5   6
ATOM      6  C   UNL     1      -3.275 -10.166   7.103  1.00  0.00     0.053 C 
BRANCH   6   7
ATOM      7  C   UNL     1      -3.143 -11.035   8.317  1.00  0.00     0.041 C 
ATOM      8  O   UNL     1      -2.784 -10.537   9.416  1.00  0.00    -0.550 OA
ATOM      9  O   UNL     1      -3.391 -12.399   8.229  1.00  0.00    -0.550 OA
ENDBRANCH   6   7
ENDBRANCH   5   6
ENDBRANCH   4   5
ENDBRANCH   3   4
ENDBRANCH   2   3
ENDBRANCH   1   2
BRANCH   1  10
ATOM     10  C   UNL     1       1.002 -10.804   7.215  1.00  0.00     0.000 C 
BRANCH  10  11
ATOM     11  C   UNL     1       0.101 -12.055   7.136  1.00  0.00    -0.000 C 
BRANCH  11  12
ATOM     12  C   UNL     1      -0.477 -12.353   5.741  1.00  0.00    -0.000 C 
BRANCH  12  13
ATOM     13  C   UNL     1       0.071 -13.657   5.136  1.00  0.00    -0.000 C 
BRANCH  13  14
ATOM     14  C   UNL     1       1.138 -14.324   6.023  1.00  0.00    -0.000 C 
BRANCH  14  15
ATOM     15  C   UNL     1       2.540 -14.406   5.393  1.00  0.00    -0.003 C 
ATOM     16  C   UNL     1       3.598 -13.643   6.189  1.00  0.00     0.004 C 
ENDBRANCH  14  15
ENDBRANCH  13  14
ENDBRANCH  12  13
ENDBRANCH  11  12
ENDBRANCH  10  11
ENDBRANCH   1  10
TORSDOF 12
ENDMDL
MODEL 8
REMARK VINA RESULT:    -3.653     13.119     15.202
REMARK INTER + INTRA:          -7.639
REMARK INTER:                  -5.807
REMARK INTRA:                  -1.833
REMARK UNBOUND:                -1.424
REMARK SMILES CCCCCCCCCCCCCC(=O)[O-]
REMARK SMILES IDX 8 1 9 2 10 3 11 4 12 5 13 6 14 7 15 8 16 9 7 10 6 11 5 12
REMARK SMILES IDX 4 13 3 14 2 15 1 16
REMARK H PARENT
REMARK Flexibility Score: inf
ROOT
ATOM      1  C   UNL     1      -3.876 -12.145   7.903  1.00  0.00     0.000 C 
ENDROOT
BRANCH   1   2
ATOM      2  C   UNL     1      -2.623 -11.256   7.887  1.00  0.00     0.000 C 
BRANCH   2   3
ATOM      3  C   UNL     1      -2.961  -9.841   7.398  1.00  0.00     0.000 C 
BRANCH   3   4
ATOM      4  C   UNL     1      -2.098  -9.404   6.202  1.00  0.00     0.000 C 
BRANCH   4   5
ATOM      5  C   UNL     1      -1.016  -8.361   6.568  1.00  0.00     0.006 C 
BRANCH   5   6
ATOM      6  C   UNL     1       0.384  -8.973   6.730  1.00  0.00     0.053 C 
BRANCH   6   7
ATOM      7  C   UNL     1       0.725  -9.198   8.171  1.00  0.00     0.041 C 
ATOM      8  O   UNL     1       1.261 -10.279   8.533  1.00  0.00    -0.550 OA
ATOM      9  O   UNL     1       0.429  -8.228   9.119  1.00  0.00    -0.550 OA
ENDBRANCH   6   7
ENDBRANCH   5   6
ENDBRANCH   4   5
ENDBRANCH   3   4
ENDBRANCH   2   3
ENDBRANCH   1   2
BRANCH   1  10
ATOM     10  C   UNL     1      -4.645 -12.121   6.571  1.00  0.00     0.000 C 
BRANCH  10  11
ATOM     11  C   UNL     1      -4.041 -12.990   5.448  1.00  0.00    -0.000 C 
BRANCH  11  12
ATOM     12  C   UNL     1      -3.412 -14.313   5.917  1.00  0.00    -0.000 C 
BRANCH  12  13
ATOM     13  C   UNL     1      -1.880 -14.326   5.779  1.00  0.00    -0.000 C 
BRANCH  13  14
ATOM     14  C   UNL     1      -1.375 -13.420   4.643  1.00  0.00    -0.000 C 
BRANCH  14  15
ATOM     15  C   UNL     1      -0.389 -12.323   5.084  1.00  0.00    -0.003 C 
ATOM     16  C   UNL     1       0.566 -12.784   6.184  1.00  0.00     0.004 C 
ENDBRANCH  14  15
ENDBRANCH  13  14
ENDBRANCH  12  13
ENDBRANCH  11  12
ENDBRANCH  10  11
ENDBRANCH   1  10
TORSDOF 12
ENDMDL
MODEL 9
REMARK VINA RESULT:    -3.640     13.497     15.423
REMARK INTER + INTRA:          -7.617
REMARK INTER:                  -5.638
REMARK INTRA:                  -1.979
REMARK UNBOUND:                -1.424
REMARK SMILES CCCCCCCCCCCCCC(=O)[O-]
REMARK SMILES IDX 8 1 9 2 10 3 11 4 12 5 13 6 14 7 15 8 16 9 7 10 6 11 5 12
REMARK SMILES IDX 4 13 3 14 2 15 1 16
REMARK H PARENT
REMARK Flexibility Score: inf
ROOT
ATOM      1  C   UNL     1      -2.877  -8.903   7.872  1.00  0.00     0.000 C 
ENDROOT
BRANCH   1   2
ATOM      2  C   UNL     1      -2.297  -7.985   6.786  1.00  0.00     0.000 C 
BRANCH   2   3
ATOM      3  C   UNL     1      -0.929  -8.493   6.310  1.00  0.00     0.000 C 
BRANCH   3   4
ATOM      4  C   UNL     1       0.079  -8.654   7.460  1.00  0.00     0.000 C 
BRANCH   4   5
ATOM      5  C   UNL     1       0.958  -9.921   7.340  1.00  0.00     0.006 C 
BRANCH   5   6
ATOM      6  C   UNL     1       0.848 -10.851   8.559  1.00  0.00     0.053 C 
BRANCH   6   7
ATOM      7  C   UNL     1       1.458 -12.192   8.288  1.00  0.00     0.041 C 
ATOM      8  O   UNL     1       0.838 -13.244   8.599  1.00  0.00    -0.550 OA
ATOM      9  O   UNL     1       2.720 -12.283   7.716  1.00  0.00    -0.550 OA
ENDBRANCH   6   7
ENDBRANCH   5   6
ENDBRANCH   4   5
ENDBRANCH   3   4
ENDBRANCH   2   3
ENDBRANCH   1   2
BRANCH   1  10
ATOM     10  C   UNL     1      -3.359 -10.255   7.318  1.00  0.00     0.000 C 
BRANCH  10  11
ATOM     11  C   UNL     1      -2.795 -11.499   8.039  1.00  0.00    -0.000 C 
BRANCH  11  12
ATOM     12  C   UNL     1      -2.173 -12.560   7.114  1.00  0.00    -0.000 C 
BRANCH  12  13
ATOM     13  C   UNL     1      -2.037 -12.076   5.660  1.00  0.00    -0.000 C 
BRANCH  13  14
ATOM     14  C   UNL     1      -0.587 -12.125   5.148  1.00  0.00    -0.000 C 
BRANCH  14  15
ATOM     15  C   UNL     1       0.051 -13.526   5.150  1.00  0.00    -0.003 C 
ATOM     16  C   UNL     1      -0.647 -14.501   4.203  1.00  0.00     0.004 C 
ENDBRANCH  14  15
ENDBRANCH  13  14
ENDBRANCH  12  13
ENDBRANCH  11  12
ENDBRANCH  10  11
ENDBRANCH   1  10
TORSDOF 12
ENDMDL
