MODEL 1
REMARK VINA RESULT:    -3.623      0.000      0.000
REMARK INTER + INTRA:          -7.265
REMARK INTER:                  -5.741
REMARK INTRA:                  -1.524
REMARK UNBOUND:                -1.524
REMARK SMILES CCCCCCCCCCCC(=O)[O-]
REMARK SMILES IDX 7 1 8 2 9 3 10 4 11 5 12 6 13 7 14 8 6 9 5 10 4 11 3 12 2 13
REMARK SMILES IDX 1 14
REMARK H PARENT
REMARK Flexibility Score: inf
ROOT
ATOM      1  C   UNL     1       6.410 -23.001  46.935  1.00  0.00     0.000 C 
ENDROOT
BRANCH   1   2
ATOM      2  C   UNL     1       4.924 -22.777  46.606  1.00  0.00     0.000 C 
BRANCH   2   3
ATOM      3  C   UNL     1       4.014 -22.955  47.832  1.00  0.00     0.000 C 
BRANCH   3   4
ATOM      4  C   UNL     1       2.961 -21.844  47.957  1.00  0.00     0.006 C 
BRANCH   4   5
ATOM      5  C   UNL     1       3.254 -20.699  46.984  1.00  0.00     0.053 C 
BRANCH   5   6
ATOM      6  C   UNL     1       2.163 -20.582  45.968  1.00  0.00     0.041 C 
ATOM      7  O   UNL     1       2.267 -19.763  45.017  1.00  0.00    -0.550 OA
ATOM      8  O   UNL     1       1.007 -21.341  46.097  1.00  0.00    -0.550 OA
ENDBRANCH   5   6
ENDBRANCH   4   5
ENDBRANCH   3   4
ENDBRANCH   2   3
ENDBRANCH   1   2
BRANCH   1   9
ATOM      9  C   UNL     1       6.748 -22.670  48.398  1.00  0.00     0.000 C 
BRANCH   9  10
ATOM     10  C   UNL     1       7.330 -21.255  48.566  1.00  0.00    -0.000 C 
BRANCH  10  11
ATOM     11  C   UNL     1       6.299 -20.252  49.107  1.00  0.00    -0.000 C 
BRANCH  11  12
ATOM     12  C   UNL     1       6.257 -18.949  48.290  1.00  0.00    -0.000 C 
BRANCH  12  13
ATOM     13  C   UNL     1       7.001 -19.071  46.950  1.00  0.00    -0.003 C 
ATOM     14  C   UNL     1       6.111 -18.756  45.747  1.00  0.00     0.004 C 
ENDBRANCH  12  13
ENDBRANCH  11  12
ENDBRANCH  10  11
ENDBRANCH   9  10
ENDBRANCH   1   9
TORSDOF 10
ENDMDL
MODEL 2
REMARK VINA RESULT:    -3.594     14.547     16.485
REMARK INTER + INTRA:          -7.219
REMARK INTER:                  -6.461
REMARK INTRA:                  -0.758
REMARK UNBOUND:                -1.524
REMARK SMILES CCCCCCCCCCCC(=O)[O-]
REMARK SMILES IDX 7 1 8 2 9 3 10 4 11 5 12 6 13 7 14 8 6 9 5 10 4 11 3 12 2 13
REMARK SMILES IDX 1 14
REMARK H PARENT
REMARK Flexibility Score: inf
ROOT
ATOM      1  C   UNL     1      -3.312 -36.578  45.417  1.00  0.00     0.000 C 
ENDROOT
BRANCH   1   2
ATOM      2  C   UNL     1      -4.792 -36.349  45.067  1.00  0.00     0.000 C 
BRANCH   2   3
ATOM      3  C   UNL     1      -5.064 -34.927  44.549  1.00  0.00     0.000 C 
BRANCH   3   4
ATOM      4  C   UNL     1      -6.475 -34.427  44.896  1.00  0.00     0.006 C 
BRANCH   4   5
ATOM      5  C   UNL     1      -6.814 -34.718  46.360  1.00  0.00     0.053 C 
BRANCH   5   6
ATOM      6  C   UNL     1      -6.223 -33.675  47.253  1.00  0.00     0.041 C 
ATOM      7  O   UNL     1      -5.143 -33.898  47.860  1.00  0.00    -0.550 OA
ATOM      8  O   UNL     1      -6.890 -32.473  47.456  1.00  0.00    -0.550 OA
ENDBRANCH   5   6
ENDBRANCH   4   5
ENDBRANCH   3   4
ENDBRANCH   2   3
ENDBRANCH   1   2
BRANCH   1   9
ATOM      9  C   UNL     1      -2.612 -35.295  45.896  1.00  0.00     0.000 C 
BRANCH   9  10
ATOM     10  C   UNL     1      -1.085 -35.350  45.710  1.00  0.00    -0.000 C 
BRANCH  10  11
ATOM     11  C   UNL     1      -0.655 -36.387  44.660  1.00  0.00    -0.000 C 
BRANCH  11  12
ATOM     12  C   UNL     1       0.840 -36.285  44.307  1.00  0.00    -0.000 C 
BRANCH  12  13
ATOM     13  C   UNL     1       1.336 -34.830  44.264  1.00  0.00    -0.003 C 
ATOM     14  C   UNL     1       2.532 -34.584  45.184  1.00  0.00     0.004 C 
ENDBRANCH  12  13
ENDBRANCH  11  12
ENDBRANCH  10  11
ENDBRANCH   9  10
ENDBRANCH   1   9
TORSDOF 10
ENDMDL
MODEL 3
REMARK VINA RESULT:    -3.580     13.665     15.504
REMARK INTER + INTRA:          -7.196
REMARK INTER:                  -6.378
REMARK INTRA:                  -0.818
REMARK UNBOUND:                -1.524
REMARK SMILES CCCCCCCCCCCC(=O)[O-]
REMARK SMILES IDX 7 1 8 2 9 3 10 4 11 5 12 6 13 7 14 8 6 9 5 10 4 11 3 12 2 13
REMARK SMILES IDX 1 14
REMARK H PARENT
REMARK Flexibility Score: inf
ROOT
ATOM      1  C   UNL     1      -1.250 -35.980  45.800  1.00  0.00     0.000 C 
ENDROOT
BRANCH   1   2
ATOM      2  C   UNL     1      -1.771 -34.583  46.178  1.00  0.00     0.000 C 
BRANCH   2   3
ATOM      3  C   UNL     1      -3.266 -34.405  45.865  1.00  0.00     0.000 C 
BRANCH   3   4
ATOM      4  C   UNL     1      -4.022 -35.740  45.795  1.00  0.00     0.006 C 
BRANCH   4   5
ATOM      5  C   UNL     1      -4.998 -35.756  44.616  1.00  0.00     0.053 C 
BRANCH   5   6
ATOM      6  C   UNL     1      -6.069 -34.729  44.807  1.00  0.00     0.041 C 
ATOM      7  O   UNL     1      -6.220 -33.806  43.965  1.00  0.00    -0.550 OA
ATOM      8  O   UNL     1      -6.868 -34.762  45.943  1.00  0.00    -0.550 OA
ENDBRANCH   5   6
ENDBRANCH   4   5
ENDBRANCH   3   4
ENDBRANCH   2   3
ENDBRANCH   1   2
BRANCH   1   9
ATOM      9  C   UNL     1      -0.102 -35.926  44.777  1.00  0.00     0.000 C 
BRANCH   9  10
ATOM     10  C   UNL     1       0.476 -34.509  44.612  1.00  0.00    -0.000 C 
BRANCH  10  11
ATOM     11  C   UNL     1       2.009 -34.506  44.501  1.00  0.00    -0.000 C 
BRANCH  11  12
ATOM     12  C   UNL     1       2.701 -34.572  45.874  1.00  0.00    -0.000 C 
BRANCH  12  13
ATOM     13  C   UNL     1       1.931 -33.800  46.958  1.00  0.00    -0.003 C 
ATOM     14  C   UNL     1       2.824 -32.852  47.759  1.00  0.00     0.004 C 
ENDBRANCH  12  13
ENDBRANCH  11  12
ENDBRANCH  10  11
ENDBRANCH   9  10
ENDBRANCH   1   9
TORSDOF 10
ENDMDL
MODEL 4
REMARK VINA RESULT:    -3.563     14.478     16.802
REMARK INTER + INTRA:          -7.169
REMARK INTER:                  -6.559
REMARK INTRA:                  -0.610
REMARK UNBOUND:                -1.524
REMARK SMILES CCCCCCCCCCCC(=O)[O-]
REMARK SMILES IDX 7 1 8 2 9 3 10 4 11 5 12 6 13 7 14 8 6 9 5 10 4 11 3 12 2 13
REMARK SMILES IDX 1 14
REMARK H PARENT
REMARK Flexibility Score: inf
ROOT
ATOM      1  C   UNL     1      -2.616 -35.511  45.774  1.00  0.00     0.000 C 
ENDROOT
BRANCH   1   2
ATOM      2  C   UNL     1      -1.145 -35.937  45.921  1.00  0.00     0.000 C 
BRANCH   2   3
ATOM      3  C   UNL     1      -0.586 -36.584  44.643  1.00  0.00     0.000 C 
BRANCH   3   4
ATOM      4  C   UNL     1       0.854 -36.147  44.336  1.00  0.00     0.006 C 
BRANCH   4   5
ATOM      5  C   UNL     1       1.009 -34.631  44.483  1.00  0.00     0.053 C 
BRANCH   5   6
ATOM      6  C   UNL     1       2.085 -34.307  45.469  1.00  0.00     0.041 C 
ATOM      7  O   UNL     1       3.269 -34.684  45.263  1.00  0.00    -0.550 OA
ATOM      8  O   UNL     1       1.774 -33.630  46.642  1.00  0.00    -0.550 OA
ENDBRANCH   5   6
ENDBRANCH   4   5
ENDBRANCH   3   4
ENDBRANCH   2   3
ENDBRANCH   1   2
BRANCH   1   9
ATOM      9  C   UNL     1      -3.510 -36.645  45.246  1.00  0.00     0.000 C 
BRANCH   9  10
ATOM     10  C   UNL     1      -5.009 -36.305  45.330  1.00  0.00    -0.000 C 
BRANCH  10  11
ATOM     11  C   UNL     1      -5.455 -35.326  44.232  1.00  0.00    -0.000 C 
BRANCH  11  12
ATOM     12  C   UNL     1      -6.215 -34.113  44.797  1.00  0.00    -0.000 C 
BRANCH  12  13
ATOM     13  C   UNL     1      -6.898 -34.419  46.140  1.00  0.00    -0.003 C 
ATOM     14  C   UNL     1      -6.691 -33.315  47.176  1.00  0.00     0.004 C 
ENDBRANCH  12  13
ENDBRANCH  11  12
ENDBRANCH  10  11
ENDBRANCH   9  10
ENDBRANCH   1   9
TORSDOF 10
ENDMDL
MODEL 5
REMARK VINA RESULT:    -3.494     14.268     15.960
REMARK INTER + INTRA:          -7.060
REMARK INTER:                  -6.233
REMARK INTRA:                  -0.827
REMARK UNBOUND:                -1.524
REMARK SMILES CCCCCCCCCCCC(=O)[O-]
REMARK SMILES IDX 7 1 8 2 9 3 10 4 11 5 12 6 13 7 14 8 6 9 5 10 4 11 3 12 2 13
REMARK SMILES IDX 1 14
REMARK H PARENT
REMARK Flexibility Score: inf
ROOT
ATOM      1  C   UNL     1      -2.746 -33.872  46.971  1.00  0.00     0.000 C 
ENDROOT
BRANCH   1   2
ATOM      2  C   UNL     1      -3.472 -35.137  47.460  1.00  0.00     0.000 C 
BRANCH   2   3
ATOM      3  C   UNL     1      -4.897 -34.845  47.958  1.00  0.00     0.000 C 
BRANCH   3   4
ATOM      4  C   UNL     1      -5.668 -33.894  47.030  1.00  0.00     0.006 C 
BRANCH   4   5
ATOM      5  C   UNL     1      -6.529 -34.678  46.036  1.00  0.00     0.053 C 
BRANCH   5   6
ATOM      6  C   UNL     1      -5.927 -34.629  44.668  1.00  0.00     0.041 C 
ATOM      7  O   UNL     1      -6.280 -33.738  43.851  1.00  0.00    -0.550 OA
ATOM      8  O   UNL     1      -5.012 -35.598  44.275  1.00  0.00    -0.550 OA
ENDBRANCH   5   6
ENDBRANCH   4   5
ENDBRANCH   3   4
ENDBRANCH   2   3
ENDBRANCH   1   2
BRANCH   1   9
ATOM      9  C   UNL     1      -1.831 -34.144  45.766  1.00  0.00     0.000 C 
BRANCH   9  10
ATOM     10  C   UNL     1      -1.463 -35.632  45.627  1.00  0.00    -0.000 C 
BRANCH  10  11
ATOM     11  C   UNL     1      -0.127 -35.845  44.897  1.00  0.00    -0.000 C 
BRANCH  11  12
ATOM     12  C   UNL     1       0.570 -34.520  44.542  1.00  0.00    -0.000 C 
BRANCH  12  13
ATOM     13  C   UNL     1       2.101 -34.654  44.500  1.00  0.00    -0.003 C 
ATOM     14  C   UNL     1       2.743 -34.566  45.885  1.00  0.00     0.004 C 
ENDBRANCH  12  13
ENDBRANCH  11  12
ENDBRANCH  10  11
ENDBRANCH   9  10
ENDBRANCH   1   9
TORSDOF 10
ENDMDL
MODEL 6
REMARK VINA RESULT:    -3.472     13.749     16.112
REMARK INTER + INTRA:          -7.025
REMARK INTER:                  -6.359
REMARK INTRA:                  -0.666
REMARK UNBOUND:                -1.524
REMARK SMILES CCCCCCCCCCCC(=O)[O-]
REMARK SMILES IDX 7 1 8 2 9 3 10 4 11 5 12 6 13 7 14 8 6 9 5 10 4 11 3 12 2 13
REMARK SMILES IDX 1 14
REMARK H PARENT
REMARK Flexibility Score: inf
ROOT
ATOM      1  C   UNL     1      -0.775 -34.188  45.721  1.00  0.00     0.000 C 
ENDROOT
BRANCH   1   2
ATOM      2  C   UNL     1      -0.243 -35.564  45.285  1.00  0.00     0.000 C 
BRANCH   2   3
ATOM      3  C   UNL     1       0.953 -35.458  44.324  1.00  0.00     0.000 C 
BRANCH   3   4
ATOM      4  C   UNL     1       2.030 -34.481  44.820  1.00  0.00     0.006 C 
BRANCH   4   5
ATOM      5  C   UNL     1       3.047 -35.195  45.714  1.00  0.00     0.053 C 
BRANCH   5   6
ATOM      6  C   UNL     1       3.228 -34.453  47.000  1.00  0.00     0.041 C 
ATOM      7  O   UNL     1       4.048 -34.868  47.861  1.00  0.00    -0.550 OA
ATOM      8  O   UNL     1       2.456 -33.331  47.270  1.00  0.00    -0.550 OA
ENDBRANCH   5   6
ENDBRANCH   4   5
ENDBRANCH   3   4
ENDBRANCH   2   3
ENDBRANCH   1   2
BRANCH   1   9
ATOM      9  C   UNL     1      -2.278 -34.211  46.044  1.00  0.00     0.000 C 
BRANCH   9  10
ATOM     10  C   UNL     1      -2.862 -35.634  46.039  1.00  0.00    -0.000 C 
BRANCH  10  11
ATOM     11  C   UNL     1      -4.092 -35.765  45.125  1.00  0.00    -0.000 C 
BRANCH  11  12
ATOM     12  C   UNL     1      -5.417 -35.681  45.903  1.00  0.00    -0.000 C 
BRANCH  12  13
ATOM     13  C   UNL     1      -6.244 -34.441  45.523  1.00  0.00    -0.003 C 
ATOM     14  C   UNL     1      -6.085 -34.049  44.054  1.00  0.00     0.004 C 
ENDBRANCH  12  13
ENDBRANCH  11  12
ENDBRANCH  10  11
ENDBRANCH   9  10
ENDBRANCH   1   9
TORSDOF 10
ENDMDL
MODEL 7
REMARK VINA RESULT:    -3.436      1.909      4.193
REMARK INTER + INTRA:          -6.968
REMARK INTER:                  -5.869
REMARK INTRA:                  -1.099
REMARK UNBOUND:                -1.524
REMARK SMILES CCCCCCCCCCCC(=O)[O-]
REMARK SMILES IDX 7 1 8 2 9 3 10 4 11 5 12 6 13 7 14 8 6 9 5 10 4 11 3 12 2 13
REMARK SMILES IDX 1 14
REMARK H PARENT
REMARK Flexibility Score: inf
ROOT
ATOM      1  C   UNL     1       6.308 -22.879  46.963  1.00  0.00     0.000 C 
ENDROOT
BRANCH   1   2
ATOM      2  C   UNL     1       6.724 -22.453  48.382  1.00  0.00     0.000 C 
BRANCH   2   3
ATOM      3  C   UNL     1       7.357 -21.052  48.417  1.00  0.00     0.000 C 
BRANCH   3   4
ATOM      4  C   UNL     1       6.314 -19.932  48.546  1.00  0.00     0.006 C 
BRANCH   4   5
ATOM      5  C   UNL     1       6.851 -18.615  47.979  1.00  0.00     0.053 C 
BRANCH   5   6
ATOM      6  C   UNL     1       6.756 -18.609  46.486  1.00  0.00     0.041 C 
ATOM      7  O   UNL     1       5.857 -19.273  45.906  1.00  0.00    -0.550 OA
ATOM      8  O   UNL     1       7.689 -17.910  45.732  1.00  0.00    -0.550 OA
ENDBRANCH   5   6
ENDBRANCH   4   5
ENDBRANCH   3   4
ENDBRANCH   2   3
ENDBRANCH   1   2
BRANCH   1   9
ATOM      9  C   UNL     1       4.783 -22.872  46.766  1.00  0.00     0.000 C 
BRANCH   9  10
ATOM     10  C   UNL     1       4.016 -23.023  48.092  1.00  0.00    -0.000 C 
BRANCH  10  11
ATOM     11  C   UNL     1       2.798 -22.089  48.179  1.00  0.00    -0.000 C 
BRANCH  11  12
ATOM     12  C   UNL     1       2.988 -20.794  47.368  1.00  0.00    -0.000 C 
BRANCH  12  13
ATOM     13  C   UNL     1       1.984 -20.674  46.209  1.00  0.00    -0.003 C 
ATOM     14  C   UNL     1       2.512 -19.825  45.053  1.00  0.00     0.004 C 
ENDBRANCH  12  13
ENDBRANCH  11  12
ENDBRANCH  10  11
ENDBRANCH   9  10
ENDBRANCH   1   9
TORSDOF 10
ENDMDL
MODEL 8
REMARK VINA RESULT:    -3.364     14.396     16.557
REMARK INTER + INTRA:          -6.854
REMARK INTER:                  -5.803
REMARK INTRA:                  -1.051
REMARK UNBOUND:                -1.524
REMARK SMILES CCCCCCCCCCCC(=O)[O-]
REMARK SMILES IDX 7 1 8 2 9 3 10 4 11 5 12 6 13 7 14 8 6 9 5 10 4 11 3 12 2 13
REMARK SMILES IDX 1 14
REMARK H PARENT
REMARK Flexibility Score: inf
ROOT
ATOM      1  C   UNL     1      -2.979 -33.909  47.053  1.00  0.00     0.000 C 
ENDROOT
BRANCH   1   2
ATOM      2  C   UNL     1      -2.055 -34.145  45.846  1.00  0.00     0.000 C 
BRANCH   2   3
ATOM      3  C   UNL     1      -1.700 -35.629  45.654  1.00  0.00     0.000 C 
BRANCH   3   4
ATOM      4  C   UNL     1      -0.273 -35.835  45.124  1.00  0.00     0.006 C 
BRANCH   4   5
ATOM      5  C   UNL     1       0.438 -34.493  44.930  1.00  0.00     0.053 C 
BRANCH   5   6
ATOM      6  C   UNL     1       1.910 -34.699  44.759  1.00  0.00     0.041 C 
ATOM      7  O   UNL     1       2.530 -34.106  43.838  1.00  0.00    -0.550 OA
ATOM      8  O   UNL     1       2.589 -35.586  45.585  1.00  0.00    -0.550 OA
ENDBRANCH   5   6
ENDBRANCH   4   5
ENDBRANCH   3   4
ENDBRANCH   2   3
ENDBRANCH   1   2
BRANCH   1   9
ATOM      9  C   UNL     1      -3.622 -35.208  47.568  1.00  0.00     0.000 C 
BRANCH   9  10
ATOM     10  C   UNL     1      -5.093 -35.016  47.980  1.00  0.00    -0.000 C 
BRANCH  10  11
ATOM     11  C   UNL     1      -6.076 -35.510  46.907  1.00  0.00    -0.000 C 
BRANCH  11  12
ATOM     12  C   UNL     1      -6.745 -34.354  46.142  1.00  0.00    -0.000 C 
BRANCH  12  13
ATOM     13  C   UNL     1      -6.109 -34.115  44.763  1.00  0.00    -0.003 C 
ATOM     14  C   UNL     1      -5.386 -35.349  44.222  1.00  0.00     0.004 C 
ENDBRANCH  12  13
ENDBRANCH  11  12
ENDBRANCH  10  11
ENDBRANCH   9  10
ENDBRANCH   1   9
TORSDOF 10
ENDMDL
MODEL 9
REMARK VINA RESULT:    -3.322      2.666      4.823
REMARK INTER + INTRA:          -6.787
REMARK INTER:                  -5.257
REMARK INTRA:                  -1.531
REMARK UNBOUND:                -1.524
REMARK SMILES CCCCCCCCCCCC(=O)[O-]
REMARK SMILES IDX 7 1 8 2 9 3 10 4 11 5 12 6 13 7 14 8 6 9 5 10 4 11 3 12 2 13
REMARK SMILES IDX 1 14
REMARK H PARENT
REMARK Flexibility Score: inf
ROOT
ATOM      1  C   UNL     1       2.253 -21.044  46.723  1.00  0.00     0.000 C 
ENDROOT
BRANCH   1   2
ATOM      2  C   UNL     1       3.284 -20.234  45.919  1.00  0.00     0.000 C 
BRANCH   2   3
ATOM      3  C   UNL     1       4.359 -19.594  46.813  1.00  0.00     0.000 C 
BRANCH   3   4
ATOM      4  C   UNL     1       5.747 -19.579  46.155  1.00  0.00     0.006 C 
BRANCH   4   5
ATOM      5  C   UNL     1       6.824 -19.156  47.157  1.00  0.00     0.053 C 
BRANCH   5   6
ATOM      6  C   UNL     1       7.280 -17.759  46.880  1.00  0.00     0.041 C 
ATOM      7  O   UNL     1       8.076 -17.183  47.668  1.00  0.00    -0.550 OA
ATOM      8  O   UNL     1       6.788 -17.073  45.777  1.00  0.00    -0.550 OA
ENDBRANCH   5   6
ENDBRANCH   4   5
ENDBRANCH   3   4
ENDBRANCH   2   3
ENDBRANCH   1   2
BRANCH   1   9
ATOM      9  C   UNL     1       2.316 -20.751  48.231  1.00  0.00     0.000 C 
BRANCH   9  10
ATOM     10  C   UNL     1       2.558 -22.018  49.070  1.00  0.00    -0.000 C 
BRANCH  10  11
ATOM     11  C   UNL     1       3.538 -22.993  48.399  1.00  0.00    -0.000 C 
BRANCH  11  12
ATOM     12  C   UNL     1       4.987 -22.800  48.882  1.00  0.00    -0.000 C 
BRANCH  12  13
ATOM     13  C   UNL     1       6.010 -22.931  47.741  1.00  0.00    -0.003 C 
ATOM     14  C   UNL     1       5.358 -23.239  46.393  1.00  0.00     0.004 C 
ENDBRANCH  12  13
ENDBRANCH  11  12
ENDBRANCH  10  11
ENDBRANCH   9  10
ENDBRANCH   1   9
TORSDOF 10
ENDMDL
