MODEL 1
REMARK VINA RESULT:    -5.226      0.000      0.000
REMARK INTER + INTRA:          -9.689
REMARK INTER:                  -7.975
REMARK INTRA:                  -1.714
REMARK UNBOUND:                -1.714
REMARK SMILES COc1cc(C=CCOC(=O)C=Cc2ccc(O)c(OC)c2)ccc1O
REMARK SMILES IDX 9 1 8 2 7 3 6 4 5 5 3 6 25 7 4 8 24 9 23 10 2 11 1 12 26 13
REMARK SMILES IDX 10 15 11 16 12 17 13 18 14 19 22 20 15 21 19 22 16 23 17 24
REMARK SMILES IDX 20 25 21 26 18 27
REMARK H PARENT 26 14 18 28
REMARK Flexibility Score: inf
ROOT
ATOM      1  O   UNL     1     -13.435 -19.015 176.900  1.00  0.00    -0.458 OA
ENDROOT
BRANCH   1   2
ATOM      2  C   UNL     1     -12.536 -20.095 177.152  1.00  0.00     0.261 C 
BRANCH   2   3
ATOM      3  C   UNL     1     -13.302 -21.373 177.306  1.00  0.00     0.015 C 
ATOM      4  C   UNL     1     -13.178 -22.130 178.404  1.00  0.00     0.007 C 
BRANCH   4   5
ATOM      5  C   UNL     1     -13.870 -23.427 178.614  1.00  0.00    -0.022 A 
ATOM      6  C   UNL     1     -14.771 -25.482 177.633  1.00  0.00     0.161 A 
ATOM      7  C   UNL     1     -15.213 -25.889 178.904  1.00  0.00     0.157 A 
ATOM      8  C   UNL     1     -14.101 -24.251 177.499  1.00  0.00     0.058 A 
ATOM      9  C   UNL     1     -14.991 -25.073 180.016  1.00  0.00     0.051 A 
ATOM     10  C   UNL     1     -14.329 -23.853 179.878  1.00  0.00     0.012 A 
BRANCH   6  11
ATOM     11  O   UNL     1     -15.017 -26.320 176.534  1.00  0.00    -0.493 OA
ATOM     12  C   UNL     1     -14.142 -27.353 176.093  1.00  0.00     0.278 C 
ENDBRANCH   6  11
BRANCH   7  13
ATOM     13  O   UNL     1     -15.878 -27.103 179.084  1.00  0.00    -0.504 OA
ATOM     14  H   UNL     1     -15.442 -27.890 179.554  1.00  0.00     0.293 HD
ENDBRANCH   7  13
ENDBRANCH   4   5
ENDBRANCH   2   3
ENDBRANCH   1   2
BRANCH   1  15
ATOM     15  C   UNL     1     -14.106 -18.826 175.683  1.00  0.00     0.331 C 
ATOM     16  O   UNL     1     -15.366 -18.786 175.646  1.00  0.00    -0.247 OA
BRANCH  15  17
ATOM     17  C   UNL     1     -13.355 -18.756 174.415  1.00  0.00     0.094 C 
ATOM     18  C   UNL     1     -13.347 -19.710 173.476  1.00  0.00     0.016 C 
BRANCH  18  19
ATOM     19  C   UNL     1     -13.935 -21.056 173.636  1.00  0.00    -0.021 A 
ATOM     20  C   UNL     1     -13.095 -22.158 173.844  1.00  0.00     0.058 A 
ATOM     21  C   UNL     1     -15.326 -21.236 173.664  1.00  0.00     0.012 A 
ATOM     22  C   UNL     1     -13.636 -23.449 174.019  1.00  0.00     0.161 A 
ATOM     23  C   UNL     1     -15.868 -22.509 173.848  1.00  0.00     0.051 A 
ATOM     24  C   UNL     1     -15.027 -23.618 174.018  1.00  0.00     0.157 A 
BRANCH  22  25
ATOM     25  O   UNL     1     -12.825 -24.582 174.194  1.00  0.00    -0.493 OA
ATOM     26  C   UNL     1     -12.205 -25.299 173.130  1.00  0.00     0.278 C 
ENDBRANCH  22  25
BRANCH  24  27
ATOM     27  O   UNL     1     -15.569 -24.892 174.186  1.00  0.00    -0.504 OA
ATOM     28  H   UNL     1     -15.524 -25.376 175.074  1.00  0.00     0.293 HD
ENDBRANCH  24  27
ENDBRANCH  18  19
ENDBRANCH  15  17
ENDBRANCH   1  15
TORSDOF 10
ENDMDL
MODEL 2
REMARK VINA RESULT:    -4.931      1.503      2.039
REMARK INTER + INTRA:          -9.240
REMARK INTER:                  -7.336
REMARK INTRA:                  -1.904
REMARK UNBOUND:                -1.714
REMARK SMILES COc1cc(C=CCOC(=O)C=Cc2ccc(O)c(OC)c2)ccc1O
REMARK SMILES IDX 9 1 8 2 7 3 6 4 5 5 3 6 25 7 4 8 24 9 23 10 2 11 1 12 26 13
REMARK SMILES IDX 10 15 11 16 12 17 13 18 14 19 22 20 15 21 19 22 16 23 17 24
REMARK SMILES IDX 20 25 21 26 18 27
REMARK H PARENT 26 14 18 28
REMARK Flexibility Score: inf
ROOT
ATOM      1  O   UNL     1     -13.800 -19.062 176.573  1.00  0.00    -0.458 OA
ENDROOT
BRANCH   1   2
ATOM      2  C   UNL     1     -12.401 -19.326 176.665  1.00  0.00     0.261 C 
BRANCH   2   3
ATOM      3  C   UNL     1     -12.163 -20.531 177.522  1.00  0.00     0.015 C 
ATOM      4  C   UNL     1     -13.180 -21.279 177.969  1.00  0.00     0.007 C 
BRANCH   4   5
ATOM      5  C   UNL     1     -13.030 -22.462 178.854  1.00  0.00    -0.022 A 
ATOM      6  C   UNL     1     -14.038 -24.477 179.816  1.00  0.00     0.161 A 
ATOM      7  C   UNL     1     -12.858 -24.714 180.542  1.00  0.00     0.157 A 
ATOM      8  C   UNL     1     -14.114 -23.349 178.976  1.00  0.00     0.058 A 
ATOM      9  C   UNL     1     -11.779 -23.834 180.430  1.00  0.00     0.051 A 
ATOM     10  C   UNL     1     -11.860 -22.718 179.598  1.00  0.00     0.012 A 
BRANCH   6  11
ATOM     11  O   UNL     1     -15.108 -25.374 179.958  1.00  0.00    -0.493 OA
ATOM     12  C   UNL     1     -15.451 -26.379 179.008  1.00  0.00     0.278 C 
ENDBRANCH   6  11
BRANCH   7  13
ATOM     13  O   UNL     1     -12.738 -25.820 181.384  1.00  0.00    -0.504 OA
ATOM     14  H   UNL     1     -11.834 -26.207 181.638  1.00  0.00     0.293 HD
ENDBRANCH   7  13
ENDBRANCH   4   5
ENDBRANCH   2   3
ENDBRANCH   1   2
BRANCH   1  15
ATOM     15  C   UNL     1     -14.509 -19.026 175.362  1.00  0.00     0.331 C 
ATOM     16  O   UNL     1     -15.760 -18.865 175.357  1.00  0.00    -0.247 OA
BRANCH  15  17
ATOM     17  C   UNL     1     -13.817 -19.261 174.080  1.00  0.00     0.094 C 
ATOM     18  C   UNL     1     -13.794 -20.429 173.425  1.00  0.00     0.016 C 
BRANCH  18  19
ATOM     19  C   UNL     1     -14.298 -21.709 173.965  1.00  0.00    -0.021 A 
ATOM     20  C   UNL     1     -13.433 -22.544 174.684  1.00  0.00     0.058 A 
ATOM     21  C   UNL     1     -15.649 -22.063 173.836  1.00  0.00     0.012 A 
ATOM     22  C   UNL     1     -13.898 -23.761 175.226  1.00  0.00     0.161 A 
ATOM     23  C   UNL     1     -16.118 -23.261 174.379  1.00  0.00     0.051 A 
ATOM     24  C   UNL     1     -15.245 -24.115 175.066  1.00  0.00     0.157 A 
BRANCH  22  25
ATOM     25  O   UNL     1     -13.053 -24.640 175.922  1.00  0.00    -0.493 OA
ATOM     26  C   UNL     1     -11.655 -24.435 176.105  1.00  0.00     0.278 C 
ENDBRANCH  22  25
BRANCH  24  27
ATOM     27  O   UNL     1     -15.710 -25.319 175.594  1.00  0.00    -0.504 OA
ATOM     28  H   UNL     1     -15.080 -26.003 175.996  1.00  0.00     0.293 HD
ENDBRANCH  24  27
ENDBRANCH  18  19
ENDBRANCH  15  17
ENDBRANCH   1  15
TORSDOF 10
ENDMDL
MODEL 3
REMARK VINA RESULT:    -4.923      1.373      1.967
REMARK INTER + INTRA:          -9.227
REMARK INTER:                  -7.649
REMARK INTRA:                  -1.578
REMARK UNBOUND:                -1.714
REMARK SMILES COc1cc(C=CCOC(=O)C=Cc2ccc(O)c(OC)c2)ccc1O
REMARK SMILES IDX 9 1 8 2 7 3 6 4 5 5 3 6 25 7 4 8 24 9 23 10 2 11 1 12 26 13
REMARK SMILES IDX 10 15 11 16 12 17 13 18 14 19 22 20 15 21 19 22 16 23 17 24
REMARK SMILES IDX 20 25 21 26 18 27
REMARK H PARENT 26 14 18 28
REMARK Flexibility Score: inf
ROOT
ATOM      1  O   UNL     1     -12.867 -19.369 177.138  1.00  0.00    -0.458 OA
ENDROOT
BRANCH   1   2
ATOM      2  C   UNL     1     -11.922 -20.383 176.795  1.00  0.00     0.261 C 
BRANCH   2   3
ATOM      3  C   UNL     1     -12.530 -21.737 176.993  1.00  0.00     0.015 C 
ATOM      4  C   UNL     1     -13.313 -22.002 178.047  1.00  0.00     0.007 C 
BRANCH   4   5
ATOM      5  C   UNL     1     -13.919 -23.326 178.335  1.00  0.00    -0.022 A 
ATOM      6  C   UNL     1     -14.894 -25.397 177.463  1.00  0.00     0.161 A 
ATOM      7  C   UNL     1     -15.116 -25.840 178.778  1.00  0.00     0.157 A 
ATOM      8  C   UNL     1     -14.296 -24.139 177.252  1.00  0.00     0.058 A 
ATOM      9  C   UNL     1     -14.748 -25.036 179.859  1.00  0.00     0.051 A 
ATOM     10  C   UNL     1     -14.157 -23.790 179.645  1.00  0.00     0.012 A 
BRANCH   6  11
ATOM     11  O   UNL     1     -15.283 -26.224 176.398  1.00  0.00    -0.493 OA
ATOM     12  C   UNL     1     -15.149 -25.886 175.021  1.00  0.00     0.278 C 
ENDBRANCH   6  11
BRANCH   7  13
ATOM     13  O   UNL     1     -15.702 -27.080 179.034  1.00  0.00    -0.504 OA
ATOM     14  H   UNL     1     -16.327 -27.527 178.370  1.00  0.00     0.293 HD
ENDBRANCH   7  13
ENDBRANCH   4   5
ENDBRANCH   2   3
ENDBRANCH   1   2
BRANCH   1  15
ATOM     15  C   UNL     1     -13.428 -18.480 176.209  1.00  0.00     0.331 C 
ATOM     16  O   UNL     1     -12.717 -17.591 175.665  1.00  0.00    -0.247 OA
BRANCH  15  17
ATOM     17  C   UNL     1     -14.873 -18.512 175.917  1.00  0.00     0.094 C 
ATOM     18  C   UNL     1     -15.442 -19.234 174.942  1.00  0.00     0.016 C 
BRANCH  18  19
ATOM     19  C   UNL     1     -14.702 -19.964 173.892  1.00  0.00    -0.021 A 
ATOM     20  C   UNL     1     -14.431 -21.328 174.059  1.00  0.00     0.058 A 
ATOM     21  C   UNL     1     -14.337 -19.330 172.695  1.00  0.00     0.012 A 
ATOM     22  C   UNL     1     -13.743 -22.050 173.060  1.00  0.00     0.161 A 
ATOM     23  C   UNL     1     -13.667 -20.041 171.698  1.00  0.00     0.051 A 
ATOM     24  C   UNL     1     -13.361 -21.396 171.880  1.00  0.00     0.157 A 
BRANCH  22  25
ATOM     25  O   UNL     1     -13.422 -23.409 173.207  1.00  0.00    -0.493 OA
ATOM     26  C   UNL     1     -12.285 -23.893 173.916  1.00  0.00     0.278 C 
ENDBRANCH  22  25
BRANCH  24  27
ATOM     27  O   UNL     1     -12.676 -22.102 170.890  1.00  0.00    -0.504 OA
ATOM     28  H   UNL     1     -12.917 -23.057 170.656  1.00  0.00     0.293 HD
ENDBRANCH  24  27
ENDBRANCH  18  19
ENDBRANCH  15  17
ENDBRANCH   1  15
TORSDOF 10
ENDMDL
MODEL 4
REMARK VINA RESULT:    -4.914      4.065      6.179
REMARK INTER + INTRA:          -9.213
REMARK INTER:                  -8.001
REMARK INTRA:                  -1.211
REMARK UNBOUND:                -1.714
REMARK SMILES COc1cc(C=CCOC(=O)C=Cc2ccc(O)c(OC)c2)ccc1O
REMARK SMILES IDX 9 1 8 2 7 3 6 4 5 5 3 6 25 7 4 8 24 9 23 10 2 11 1 12 26 13
REMARK SMILES IDX 10 15 11 16 12 17 13 18 14 19 22 20 15 21 19 22 16 23 17 24
REMARK SMILES IDX 20 25 21 26 18 27
REMARK H PARENT 26 14 18 28
REMARK Flexibility Score: inf
ROOT
ATOM      1  O   UNL     1     -10.785 -23.071 180.645  1.00  0.00    -0.458 OA
ENDROOT
BRANCH   1   2
ATOM      2  C   UNL     1     -10.431 -24.314 181.251  1.00  0.00     0.261 C 
BRANCH   2   3
ATOM      3  C   UNL     1     -11.546 -24.792 182.129  1.00  0.00     0.015 C 
ATOM      4  C   UNL     1     -11.329 -25.676 183.111  1.00  0.00     0.007 C 
BRANCH   4   5
ATOM      5  C   UNL     1     -12.386 -26.228 183.996  1.00  0.00    -0.022 A 
ATOM      6  C   UNL     1     -14.278 -27.759 184.265  1.00  0.00     0.161 A 
ATOM      7  C   UNL     1     -14.451 -27.307 185.584  1.00  0.00     0.157 A 
ATOM      8  C   UNL     1     -13.244 -27.214 183.480  1.00  0.00     0.058 A 
ATOM      9  C   UNL     1     -13.604 -26.324 186.102  1.00  0.00     0.051 A 
ATOM     10  C   UNL     1     -12.582 -25.785 185.320  1.00  0.00     0.012 A 
BRANCH   6  11
ATOM     11  O   UNL     1     -15.151 -28.741 183.770  1.00  0.00    -0.493 OA
ATOM     12  C   UNL     1     -14.878 -30.139 183.771  1.00  0.00     0.278 C 
ENDBRANCH   6  11
BRANCH   7  13
ATOM     13  O   UNL     1     -15.460 -27.821 186.399  1.00  0.00    -0.504 OA
ATOM     14  H   UNL     1     -15.809 -27.315 187.207  1.00  0.00     0.293 HD
ENDBRANCH   7  13
ENDBRANCH   4   5
ENDBRANCH   2   3
ENDBRANCH   1   2
BRANCH   1  15
ATOM     15  C   UNL     1     -10.955 -22.898 179.263  1.00  0.00     0.331 C 
ATOM     16  O   UNL     1     -10.257 -23.555 178.445  1.00  0.00    -0.247 OA
BRANCH  15  17
ATOM     17  C   UNL     1     -11.892 -21.883 178.744  1.00  0.00     0.094 C 
ATOM     18  C   UNL     1     -13.206 -22.074 178.567  1.00  0.00     0.016 C 
BRANCH  18  19
ATOM     19  C   UNL     1     -13.893 -23.376 178.686  1.00  0.00    -0.021 A 
ATOM     20  C   UNL     1     -14.109 -24.152 177.540  1.00  0.00     0.058 A 
ATOM     21  C   UNL     1     -14.261 -23.884 179.941  1.00  0.00     0.012 A 
ATOM     22  C   UNL     1     -14.746 -25.408 177.634  1.00  0.00     0.161 A 
ATOM     23  C   UNL     1     -14.881 -25.131 180.042  1.00  0.00     0.051 A 
ATOM     24  C   UNL     1     -15.132 -25.891 178.892  1.00  0.00     0.157 A 
BRANCH  22  25
ATOM     25  O   UNL     1     -15.011 -26.198 176.504  1.00  0.00    -0.493 OA
ATOM     26  C   UNL     1     -15.120 -25.690 175.177  1.00  0.00     0.278 C 
ENDBRANCH  22  25
BRANCH  24  27
ATOM     27  O   UNL     1     -15.766 -27.129 178.992  1.00  0.00    -0.504 OA
ATOM     28  H   UNL     1     -15.298 -27.936 179.387  1.00  0.00     0.293 HD
ENDBRANCH  24  27
ENDBRANCH  18  19
ENDBRANCH  15  17
ENDBRANCH   1  15
TORSDOF 10
ENDMDL
MODEL 5
REMARK VINA RESULT:    -4.823      2.079      5.885
REMARK INTER + INTRA:          -9.075
REMARK INTER:                  -7.302
REMARK INTRA:                  -1.773
REMARK UNBOUND:                -1.714
REMARK SMILES COc1cc(C=CCOC(=O)C=Cc2ccc(O)c(OC)c2)ccc1O
REMARK SMILES IDX 9 1 8 2 7 3 6 4 5 5 3 6 25 7 4 8 24 9 23 10 2 11 1 12 26 13
REMARK SMILES IDX 10 15 11 16 12 17 13 18 14 19 22 20 15 21 19 22 16 23 17 24
REMARK SMILES IDX 20 25 21 26 18 27
REMARK H PARENT 26 14 18 28
REMARK Flexibility Score: inf
ROOT
ATOM      1  O   UNL     1     -11.052 -23.640 179.290  1.00  0.00    -0.458 OA
ENDROOT
BRANCH   1   2
ATOM      2  C   UNL     1     -10.846 -22.227 179.287  1.00  0.00     0.261 C 
BRANCH   2   3
ATOM      3  C   UNL     1     -11.492 -21.618 178.080  1.00  0.00     0.015 C 
ATOM      4  C   UNL     1     -12.699 -21.040 178.153  1.00  0.00     0.007 C 
BRANCH   4   5
ATOM      5  C   UNL     1     -13.422 -20.452 176.998  1.00  0.00    -0.022 A 
ATOM      6  C   UNL     1     -14.248 -20.726 174.708  1.00  0.00     0.161 A 
ATOM      7  C   UNL     1     -14.743 -19.411 174.735  1.00  0.00     0.157 A 
ATOM      8  C   UNL     1     -13.589 -21.237 175.843  1.00  0.00     0.058 A 
ATOM      9  C   UNL     1     -14.577 -18.624 175.877  1.00  0.00     0.051 A 
ATOM     10  C   UNL     1     -13.922 -19.134 176.999  1.00  0.00     0.012 A 
BRANCH   6  11
ATOM     11  O   UNL     1     -14.423 -21.488 173.543  1.00  0.00    -0.493 OA
ATOM     12  C   UNL     1     -13.528 -21.486 172.434  1.00  0.00     0.278 C 
ENDBRANCH   6  11
BRANCH   7  13
ATOM     13  O   UNL     1     -15.405 -18.865 173.635  1.00  0.00    -0.504 OA
ATOM     14  H   UNL     1     -14.903 -18.490 172.836  1.00  0.00     0.293 HD
ENDBRANCH   7  13
ENDBRANCH   4   5
ENDBRANCH   2   3
ENDBRANCH   1   2
BRANCH   1  15
ATOM     15  C   UNL     1     -11.875 -24.306 180.211  1.00  0.00     0.331 C 
ATOM     16  O   UNL     1     -11.569 -25.458 180.624  1.00  0.00    -0.247 OA
BRANCH  15  17
ATOM     17  C   UNL     1     -13.152 -23.710 180.645  1.00  0.00     0.094 C 
ATOM     18  C   UNL     1     -14.354 -24.031 180.150  1.00  0.00     0.016 C 
BRANCH  18  19
ATOM     19  C   UNL     1     -14.579 -24.892 178.970  1.00  0.00    -0.021 A 
ATOM     20  C   UNL     1     -14.435 -24.354 177.684  1.00  0.00     0.058 A 
ATOM     21  C   UNL     1     -14.854 -26.259 179.118  1.00  0.00     0.012 A 
ATOM     22  C   UNL     1     -14.625 -25.163 176.544  1.00  0.00     0.161 A 
ATOM     23  C   UNL     1     -15.032 -27.067 177.994  1.00  0.00     0.051 A 
ATOM     24  C   UNL     1     -14.927 -26.522 176.707  1.00  0.00     0.157 A 
BRANCH  22  25
ATOM     25  O   UNL     1     -14.525 -24.651 175.240  1.00  0.00    -0.493 OA
ATOM     26  C   UNL     1     -13.321 -24.625 174.478  1.00  0.00     0.278 C 
ENDBRANCH  22  25
BRANCH  24  27
ATOM     27  O   UNL     1     -15.121 -27.326 175.584  1.00  0.00    -0.504 OA
ATOM     28  H   UNL     1     -14.364 -27.539 174.945  1.00  0.00     0.293 HD
ENDBRANCH  24  27
ENDBRANCH  18  19
ENDBRANCH  15  17
ENDBRANCH   1  15
TORSDOF 10
ENDMDL
MODEL 6
REMARK VINA RESULT:    -4.781      1.746      2.879
REMARK INTER + INTRA:          -9.011
REMARK INTER:                  -6.713
REMARK INTRA:                  -2.298
REMARK UNBOUND:                -1.714
REMARK SMILES COc1cc(C=CCOC(=O)C=Cc2ccc(O)c(OC)c2)ccc1O
REMARK SMILES IDX 9 1 8 2 7 3 6 4 5 5 3 6 25 7 4 8 24 9 23 10 2 11 1 12 26 13
REMARK SMILES IDX 10 15 11 16 12 17 13 18 14 19 22 20 15 21 19 22 16 23 17 24
REMARK SMILES IDX 20 25 21 26 18 27
REMARK H PARENT 26 14 18 28
REMARK Flexibility Score: inf
ROOT
ATOM      1  O   UNL     1     -13.530 -19.009 175.134  1.00  0.00    -0.458 OA
ENDROOT
BRANCH   1   2
ATOM      2  C   UNL     1     -13.267 -18.701 176.502  1.00  0.00     0.261 C 
BRANCH   2   3
ATOM      3  C   UNL     1     -12.676 -19.893 177.191  1.00  0.00     0.015 C 
ATOM      4  C   UNL     1     -13.453 -20.823 177.762  1.00  0.00     0.007 C 
BRANCH   4   5
ATOM      5  C   UNL     1     -12.944 -22.008 178.497  1.00  0.00    -0.022 A 
ATOM      6  C   UNL     1     -13.453 -24.063 179.728  1.00  0.00     0.161 A 
ATOM      7  C   UNL     1     -12.080 -24.269 179.942  1.00  0.00     0.157 A 
ATOM      8  C   UNL     1     -13.875 -22.930 179.005  1.00  0.00     0.058 A 
ATOM      9  C   UNL     1     -11.149 -23.355 179.443  1.00  0.00     0.051 A 
ATOM     10  C   UNL     1     -11.572 -22.233 178.729  1.00  0.00     0.012 A 
BRANCH   6  11
ATOM     11  O   UNL     1     -14.364 -24.995 180.250  1.00  0.00    -0.493 OA
ATOM     12  C   UNL     1     -15.282 -25.754 179.468  1.00  0.00     0.278 C 
ENDBRANCH   6  11
BRANCH   7  13
ATOM     13  O   UNL     1     -11.617 -25.379 180.650  1.00  0.00    -0.504 OA
ATOM     14  H   UNL     1     -10.726 -25.374 181.137  1.00  0.00     0.293 HD
ENDBRANCH   7  13
ENDBRANCH   4   5
ENDBRANCH   2   3
ENDBRANCH   1   2
BRANCH   1  15
ATOM     15  C   UNL     1     -14.817 -19.216 174.614  1.00  0.00     0.331 C 
ATOM     16  O   UNL     1     -15.837 -18.951 175.308  1.00  0.00    -0.247 OA
BRANCH  15  17
ATOM     17  C   UNL     1     -15.000 -19.825 173.283  1.00  0.00     0.094 C 
ATOM     18  C   UNL     1     -14.769 -21.112 172.992  1.00  0.00     0.016 C 
BRANCH  18  19
ATOM     19  C   UNL     1     -14.123 -22.080 173.902  1.00  0.00    -0.021 A 
ATOM     20  C   UNL     1     -14.905 -23.039 174.559  1.00  0.00     0.058 A 
ATOM     21  C   UNL     1     -12.729 -22.106 174.054  1.00  0.00     0.012 A 
ATOM     22  C   UNL     1     -14.307 -23.986 175.417  1.00  0.00     0.161 A 
ATOM     23  C   UNL     1     -12.130 -23.047 174.893  1.00  0.00     0.051 A 
ATOM     24  C   UNL     1     -12.914 -23.982 175.582  1.00  0.00     0.157 A 
BRANCH  22  25
ATOM     25  O   UNL     1     -15.060 -24.939 176.121  1.00  0.00    -0.493 OA
ATOM     26  C   UNL     1     -15.375 -26.238 175.627  1.00  0.00     0.278 C 
ENDBRANCH  22  25
BRANCH  24  27
ATOM     27  O   UNL     1     -12.316 -24.912 176.432  1.00  0.00    -0.504 OA
ATOM     28  H   UNL     1     -11.313 -24.940 176.568  1.00  0.00     0.293 HD
ENDBRANCH  24  27
ENDBRANCH  18  19
ENDBRANCH  15  17
ENDBRANCH   1  15
TORSDOF 10
ENDMDL
MODEL 7
REMARK VINA RESULT:    -4.731      2.340      7.376
REMARK INTER + INTRA:          -8.935
REMARK INTER:                  -7.354
REMARK INTRA:                  -1.581
REMARK UNBOUND:                -1.714
REMARK SMILES COc1cc(C=CCOC(=O)C=Cc2ccc(O)c(OC)c2)ccc1O
REMARK SMILES IDX 9 1 8 2 7 3 6 4 5 5 3 6 25 7 4 8 24 9 23 10 2 11 1 12 26 13
REMARK SMILES IDX 10 15 11 16 12 17 13 18 14 19 22 20 15 21 19 22 16 23 17 24
REMARK SMILES IDX 20 25 21 26 18 27
REMARK H PARENT 26 14 18 28
REMARK Flexibility Score: inf
ROOT
ATOM      1  O   UNL     1     -15.006 -26.554 177.104  1.00  0.00    -0.458 OA
ENDROOT
BRANCH   1   2
ATOM      2  C   UNL     1     -13.957 -25.980 176.326  1.00  0.00     0.261 C 
BRANCH   2   3
ATOM      3  C   UNL     1     -14.447 -24.743 175.637  1.00  0.00     0.015 C 
ATOM      4  C   UNL     1     -13.626 -23.717 175.381  1.00  0.00     0.007 C 
BRANCH   4   5
ATOM      5  C   UNL     1     -14.044 -22.444 174.740  1.00  0.00    -0.022 A 
ATOM      6  C   UNL     1     -14.281 -20.012 174.914  1.00  0.00     0.161 A 
ATOM      7  C   UNL     1     -14.846 -19.981 173.628  1.00  0.00     0.157 A 
ATOM      8  C   UNL     1     -13.884 -21.248 175.461  1.00  0.00     0.058 A 
ATOM      9  C   UNL     1     -15.012 -21.166 172.907  1.00  0.00     0.051 A 
ATOM     10  C   UNL     1     -14.618 -22.387 173.454  1.00  0.00     0.012 A 
BRANCH   6  11
ATOM     11  O   UNL     1     -14.136 -18.806 175.616  1.00  0.00    -0.493 OA
ATOM     12  C   UNL     1     -12.909 -18.330 176.161  1.00  0.00     0.278 C 
ENDBRANCH   6  11
BRANCH   7  13
ATOM     13  O   UNL     1     -15.251 -18.779 173.045  1.00  0.00    -0.504 OA
ATOM     14  H   UNL     1     -16.024 -18.235 173.415  1.00  0.00     0.293 HD
ENDBRANCH   7  13
ENDBRANCH   4   5
ENDBRANCH   2   3
ENDBRANCH   1   2
BRANCH   1  15
ATOM     15  C   UNL     1     -14.917 -26.783 178.485  1.00  0.00     0.331 C 
ATOM     16  O   UNL     1     -14.160 -27.685 178.937  1.00  0.00    -0.247 OA
BRANCH  15  17
ATOM     17  C   UNL     1     -15.769 -26.032 179.427  1.00  0.00     0.094 C 
ATOM     18  C   UNL     1     -15.444 -24.859 179.986  1.00  0.00     0.016 C 
BRANCH  18  19
ATOM     19  C   UNL     1     -14.114 -24.222 179.896  1.00  0.00    -0.021 A 
ATOM     20  C   UNL     1     -13.077 -24.664 180.729  1.00  0.00     0.058 A 
ATOM     21  C   UNL     1     -13.851 -23.236 178.934  1.00  0.00     0.012 A 
ATOM     22  C   UNL     1     -11.794 -24.084 180.646  1.00  0.00     0.161 A 
ATOM     23  C   UNL     1     -12.581 -22.665 178.839  1.00  0.00     0.051 A 
ATOM     24  C   UNL     1     -11.553 -23.079 179.698  1.00  0.00     0.157 A 
BRANCH  22  25
ATOM     25  O   UNL     1     -10.740 -24.476 181.487  1.00  0.00    -0.493 OA
ATOM     26  C   UNL     1     -10.609 -24.077 182.849  1.00  0.00     0.278 C 
ENDBRANCH  22  25
BRANCH  24  27
ATOM     27  O   UNL     1     -10.289 -22.497 179.613  1.00  0.00    -0.504 OA
ATOM     28  H   UNL     1      -9.464 -22.961 179.975  1.00  0.00     0.293 HD
ENDBRANCH  24  27
ENDBRANCH  18  19
ENDBRANCH  15  17
ENDBRANCH   1  15
TORSDOF 10
ENDMDL
MODEL 8
REMARK VINA RESULT:    -4.629      2.286      6.124
REMARK INTER + INTRA:          -8.778
REMARK INTER:                  -7.280
REMARK INTRA:                  -1.498
REMARK UNBOUND:                -1.714
REMARK SMILES COc1cc(C=CCOC(=O)C=Cc2ccc(O)c(OC)c2)ccc1O
REMARK SMILES IDX 9 1 8 2 7 3 6 4 5 5 3 6 25 7 4 8 24 9 23 10 2 11 1 12 26 13
REMARK SMILES IDX 10 15 11 16 12 17 13 18 14 19 22 20 15 21 19 22 16 23 17 24
REMARK SMILES IDX 20 25 21 26 18 27
REMARK H PARENT 26 14 18 28
REMARK Flexibility Score: inf
ROOT
ATOM      1  O   UNL     1     -11.098 -23.319 179.277  1.00  0.00    -0.458 OA
ENDROOT
BRANCH   1   2
ATOM      2  C   UNL     1     -10.889 -21.922 179.481  1.00  0.00     0.261 C 
BRANCH   2   3
ATOM      3  C   UNL     1     -11.545 -21.141 178.383  1.00  0.00     0.015 C 
ATOM      4  C   UNL     1     -12.807 -21.392 178.010  1.00  0.00     0.007 C 
BRANCH   4   5
ATOM      5  C   UNL     1     -13.513 -20.692 176.907  1.00  0.00    -0.022 A 
ATOM      6  C   UNL     1     -14.370 -20.766 174.614  1.00  0.00     0.161 A 
ATOM      7  C   UNL     1     -14.805 -19.435 174.739  1.00  0.00     0.157 A 
ATOM      8  C   UNL     1     -13.725 -21.384 175.702  1.00  0.00     0.058 A 
ATOM      9  C   UNL     1     -14.593 -18.739 175.931  1.00  0.00     0.051 A 
ATOM     10  C   UNL     1     -13.952 -19.355 177.006  1.00  0.00     0.012 A 
BRANCH   6  11
ATOM     11  O   UNL     1     -14.590 -21.435 173.400  1.00  0.00    -0.493 OA
ATOM     12  C   UNL     1     -13.596 -22.166 172.688  1.00  0.00     0.278 C 
ENDBRANCH   6  11
BRANCH   7  13
ATOM     13  O   UNL     1     -15.451 -18.784 173.687  1.00  0.00    -0.504 OA
ATOM     14  H   UNL     1     -15.771 -19.281 172.862  1.00  0.00     0.293 HD
ENDBRANCH   7  13
ENDBRANCH   4   5
ENDBRANCH   2   3
ENDBRANCH   1   2
BRANCH   1  15
ATOM     15  C   UNL     1     -11.767 -24.149 180.190  1.00  0.00     0.331 C 
ATOM     16  O   UNL     1     -11.255 -25.243 180.554  1.00  0.00    -0.247 OA
BRANCH  15  17
ATOM     17  C   UNL     1     -13.116 -23.800 180.673  1.00  0.00     0.094 C 
ATOM     18  C   UNL     1     -14.257 -24.312 180.194  1.00  0.00     0.016 C 
BRANCH  18  19
ATOM     19  C   UNL     1     -14.361 -25.163 178.991  1.00  0.00    -0.021 A 
ATOM     20  C   UNL     1     -14.246 -26.553 179.116  1.00  0.00     0.058 A 
ATOM     21  C   UNL     1     -14.653 -24.606 177.737  1.00  0.00     0.012 A 
ATOM     22  C   UNL     1     -14.362 -27.387 177.983  1.00  0.00     0.161 A 
ATOM     23  C   UNL     1     -14.779 -25.426 176.614  1.00  0.00     0.051 A 
ATOM     24  C   UNL     1     -14.627 -26.814 176.732  1.00  0.00     0.157 A 
BRANCH  22  25
ATOM     25  O   UNL     1     -14.218 -28.782 178.063  1.00  0.00    -0.493 OA
ATOM     26  C   UNL     1     -13.722 -29.473 179.206  1.00  0.00     0.278 C 
ENDBRANCH  22  25
BRANCH  24  27
ATOM     27  O   UNL     1     -14.737 -27.631 175.607  1.00  0.00    -0.504 OA
ATOM     28  H   UNL     1     -14.188 -28.476 175.507  1.00  0.00     0.293 HD
ENDBRANCH  24  27
ENDBRANCH  18  19
ENDBRANCH  15  17
ENDBRANCH   1  15
TORSDOF 10
ENDMDL
MODEL 9
REMARK VINA RESULT:    -4.612      2.384      7.214
REMARK INTER + INTRA:          -8.753
REMARK INTER:                  -7.200
REMARK INTRA:                  -1.553
REMARK UNBOUND:                -1.714
REMARK SMILES COc1cc(C=CCOC(=O)C=Cc2ccc(O)c(OC)c2)ccc1O
REMARK SMILES IDX 9 1 8 2 7 3 6 4 5 5 3 6 25 7 4 8 24 9 23 10 2 11 1 12 26 13
REMARK SMILES IDX 10 15 11 16 12 17 13 18 14 19 22 20 15 21 19 22 16 23 17 24
REMARK SMILES IDX 20 25 21 26 18 27
REMARK H PARENT 26 14 18 28
REMARK Flexibility Score: inf
ROOT
ATOM      1  O   UNL     1     -14.850 -26.322 176.808  1.00  0.00    -0.458 OA
ENDROOT
BRANCH   1   2
ATOM      2  C   UNL     1     -13.807 -25.523 176.251  1.00  0.00     0.261 C 
BRANCH   2   3
ATOM      3  C   UNL     1     -14.256 -24.097 176.145  1.00  0.00     0.015 C 
ATOM      4  C   UNL     1     -13.373 -23.092 176.089  1.00  0.00     0.007 C 
BRANCH   4   5
ATOM      5  C   UNL     1     -13.737 -21.654 176.025  1.00  0.00    -0.022 A 
ATOM      6  C   UNL     1     -14.658 -19.802 174.713  1.00  0.00     0.161 A 
ATOM      7  C   UNL     1     -14.425 -18.930 175.790  1.00  0.00     0.157 A 
ATOM      8  C   UNL     1     -14.310 -21.161 174.840  1.00  0.00     0.058 A 
ATOM      9  C   UNL     1     -13.851 -19.412 176.969  1.00  0.00     0.051 A 
ATOM     10  C   UNL     1     -13.507 -20.758 177.090  1.00  0.00     0.012 A 
BRANCH   6  11
ATOM     11  O   UNL     1     -15.227 -19.285 173.539  1.00  0.00    -0.493 OA
ATOM     12  C   UNL     1     -14.491 -18.933 172.371  1.00  0.00     0.278 C 
ENDBRANCH   6  11
BRANCH   7  13
ATOM     13  O   UNL     1     -14.756 -17.576 175.710  1.00  0.00    -0.504 OA
ATOM     14  H   UNL     1     -15.256 -17.100 176.453  1.00  0.00     0.293 HD
ENDBRANCH   7  13
ENDBRANCH   4   5
ENDBRANCH   2   3
ENDBRANCH   1   2
BRANCH   1  15
ATOM     15  C   UNL     1     -14.922 -26.676 178.165  1.00  0.00     0.331 C 
ATOM     16  O   UNL     1     -14.347 -27.717 178.585  1.00  0.00    -0.247 OA
BRANCH  15  17
ATOM     17  C   UNL     1     -15.739 -25.885 179.104  1.00  0.00     0.094 C 
ATOM     18  C   UNL     1     -15.256 -24.973 179.958  1.00  0.00     0.016 C 
BRANCH  18  19
ATOM     19  C   UNL     1     -13.821 -24.744 180.227  1.00  0.00    -0.021 A 
ATOM     20  C   UNL     1     -13.181 -23.631 179.667  1.00  0.00     0.058 A 
ATOM     21  C   UNL     1     -13.110 -25.581 181.100  1.00  0.00     0.012 A 
ATOM     22  C   UNL     1     -11.816 -23.383 179.926  1.00  0.00     0.161 A 
ATOM     23  C   UNL     1     -11.762 -25.335 181.369  1.00  0.00     0.051 A 
ATOM     24  C   UNL     1     -11.111 -24.243 180.779  1.00  0.00     0.157 A 
BRANCH  22  25
ATOM     25  O   UNL     1     -11.132 -22.298 179.354  1.00  0.00    -0.493 OA
ATOM     26  C   UNL     1     -10.386 -22.368 178.142  1.00  0.00     0.278 C 
ENDBRANCH  22  25
BRANCH  24  27
ATOM     27  O   UNL     1      -9.761 -24.007 181.036  1.00  0.00    -0.504 OA
ATOM     28  H   UNL     1      -9.431 -23.755 181.960  1.00  0.00     0.293 HD
ENDBRANCH  24  27
ENDBRANCH  18  19
ENDBRANCH  15  17
ENDBRANCH   1  15
TORSDOF 10
ENDMDL
