MODEL 1
REMARK VINA RESULT:    -7.312      0.000      0.000
REMARK INTER + INTRA:         -10.647
REMARK INTER:                  -9.663
REMARK INTRA:                  -0.984
REMARK UNBOUND:                -0.984
REMARK SMILES CC[C@@H](C=C[C@@H](C)[C@H]1CC[C@@H]2C3=CC[C@@H]4C[C@@H](O)CC[C@]4(C)[C@H]3CC[C@@]21C)C(C)C
REMARK SMILES IDX 6 1 7 2 5 3 4 4 3 5 2 6 1 7 28 8 29 9 30 10 8 11 9 12 26 13
REMARK SMILES IDX 10 14 11 15 25 16 27 17 12 18 24 19 23 20 13 21 21 22 14 23
REMARK SMILES IDX 15 24 20 25 22 26 16 27 19 28 17 29 18 30
REMARK H PARENT 18 31
REMARK Flexibility Score: inf
ROOT
ATOM      1  C   UNL     1     142.532 133.796 149.099  1.00  0.00     0.012 C 
ATOM      2  C   UNL     1     142.746 132.291 149.433  1.00  0.00     0.012 C 
ENDROOT
BRANCH   1   3
ATOM      3  C   UNL     1     141.070 134.179 149.265  1.00  0.00    -0.028 C 
ATOM      4  C   UNL     1     140.070 133.283 149.371  1.00  0.00    -0.027 C 
BRANCH   4   5
ATOM      5  C   UNL     1     138.709 133.643 149.981  1.00  0.00     0.014 C 
BRANCH   5   6
ATOM      6  C   UNL     1     138.571 132.992 151.376  1.00  0.00     0.004 C 
ATOM      7  C   UNL     1     139.764 133.302 152.290  1.00  0.00     0.004 C 
ENDBRANCH   5   6
BRANCH   5   8
ATOM      8  C   UNL     1     137.505 133.353 148.996  1.00  0.00    -0.011 C 
ATOM      9  C   UNL     1     136.693 132.127 149.482  1.00  0.00     0.008 C 
ATOM     10  C   UNL     1     137.877 133.085 147.534  1.00  0.00     0.008 C 
ENDBRANCH   5   8
ENDBRANCH   4   5
ENDBRANCH   1   3
BRANCH   1  11
ATOM     11  C   UNL     1     143.186 134.281 147.759  1.00  0.00     0.002 C 
ATOM     12  C   UNL     1     142.245 135.216 146.987  1.00  0.00     0.005 C 
ATOM     13  C   UNL     1     144.536 135.099 147.892  1.00  0.00    -0.023 C 
ATOM     14  C   UNL     1     143.150 136.074 146.139  1.00  0.00     0.009 C 
ATOM     15  C   UNL     1     144.301 136.396 147.072  1.00  0.00     0.021 C 
ATOM     16  C   UNL     1     145.690 134.270 147.262  1.00  0.00     0.008 C 
ATOM     17  C   UNL     1     144.923 135.513 149.336  1.00  0.00     0.012 C 
ATOM     18  C   UNL     1     145.505 136.975 146.347  1.00  0.00    -0.067 C 
ATOM     19  C   UNL     1     147.014 135.035 147.199  1.00  0.00     0.009 C 
ATOM     20  C   UNL     1     146.906 136.401 146.471  1.00  0.00     0.021 C 
ATOM     21  C   UNL     1     145.371 138.080 145.596  1.00  0.00    -0.027 C 
ATOM     22  C   UNL     1     147.938 137.520 146.942  1.00  0.00    -0.023 C 
ATOM     23  C   UNL     1     146.588 138.765 145.045  1.00  0.00     0.031 C 
ATOM     24  C   UNL     1     147.602 138.912 146.209  1.00  0.00     0.002 C 
ATOM     25  C   UNL     1     149.394 136.967 146.715  1.00  0.00     0.010 C 
ATOM     26  C   UNL     1     147.791 137.830 148.468  1.00  0.00     0.012 C 
ATOM     27  C   UNL     1     148.820 139.779 145.825  1.00  0.00     0.036 C 
ATOM     28  C   UNL     1     150.454 138.021 146.373  1.00  0.00     0.032 C 
ATOM     29  C   UNL     1     149.965 138.939 145.275  1.00  0.00     0.114 C 
BRANCH  29  30
ATOM     30  O   UNL     1     151.000 139.767 144.804  1.00  0.00    -0.393 OA
ATOM     31  H   UNL     1     151.835 139.218 144.812  1.00  0.00     0.210 HD
ENDBRANCH  29  30
ENDBRANCH   1  11
TORSDOF 6
ENDMDL
MODEL 2
REMARK VINA RESULT:    -6.860      2.325      3.995
REMARK INTER + INTRA:         -10.049
REMARK INTER:                  -9.024
REMARK INTRA:                  -1.026
REMARK UNBOUND:                -0.984
REMARK SMILES CC[C@@H](C=C[C@@H](C)[C@H]1CC[C@@H]2C3=CC[C@@H]4C[C@@H](O)CC[C@]4(C)[C@H]3CC[C@@]21C)C(C)C
REMARK SMILES IDX 6 1 7 2 5 3 4 4 3 5 2 6 1 7 28 8 29 9 30 10 8 11 9 12 26 13
REMARK SMILES IDX 10 14 11 15 25 16 27 17 12 18 24 19 23 20 13 21 21 22 14 23
REMARK SMILES IDX 15 24 20 25 22 26 16 27 19 28 17 29 18 30
REMARK H PARENT 18 31
REMARK Flexibility Score: inf
ROOT
ATOM      1  C   UNL     1     141.743 133.835 147.385  1.00  0.00     0.012 C 
ATOM      2  C   UNL     1     141.134 135.033 146.601  1.00  0.00     0.012 C 
ENDROOT
BRANCH   1   3
ATOM      3  C   UNL     1     140.672 132.805 147.706  1.00  0.00    -0.028 C 
ATOM      4  C   UNL     1     139.444 133.120 148.161  1.00  0.00    -0.027 C 
BRANCH   4   5
ATOM      5  C   UNL     1     138.255 132.156 148.046  1.00  0.00     0.014 C 
BRANCH   5   6
ATOM      6  C   UNL     1     137.755 132.113 146.584  1.00  0.00     0.004 C 
ATOM      7  C   UNL     1     137.470 133.511 146.018  1.00  0.00     0.004 C 
ENDBRANCH   5   6
BRANCH   5   8
ATOM      8  C   UNL     1     137.130 132.447 149.119  1.00  0.00    -0.011 C 
ATOM      9  C   UNL     1     137.697 133.304 150.277  1.00  0.00     0.008 C 
ATOM     10  C   UNL     1     136.472 131.220 149.759  1.00  0.00     0.008 C 
ENDBRANCH   5   8
ENDBRANCH   4   5
ENDBRANCH   1   3
BRANCH   1  11
ATOM     11  C   UNL     1     142.656 134.228 148.599  1.00  0.00     0.002 C 
ATOM     12  C   UNL     1     142.832 133.049 149.566  1.00  0.00     0.005 C 
ATOM     13  C   UNL     1     144.134 134.677 148.249  1.00  0.00    -0.023 C 
ATOM     14  C   UNL     1     144.145 133.304 150.264  1.00  0.00     0.009 C 
ATOM     15  C   UNL     1     145.043 133.797 149.147  1.00  0.00     0.021 C 
ATOM     16  C   UNL     1     144.305 136.176 148.622  1.00  0.00     0.008 C 
ATOM     17  C   UNL     1     144.564 134.457 146.775  1.00  0.00     0.012 C 
ATOM     18  C   UNL     1     146.325 134.435 149.658  1.00  0.00    -0.067 C 
ATOM     19  C   UNL     1     145.743 136.674 148.468  1.00  0.00     0.009 C 
ATOM     20  C   UNL     1     146.779 135.827 149.255  1.00  0.00     0.021 C 
ATOM     21  C   UNL     1     147.148 133.743 150.462  1.00  0.00    -0.027 C 
ATOM     22  C   UNL     1     148.251 135.790 148.643  1.00  0.00    -0.023 C 
ATOM     23  C   UNL     1     148.502 134.293 150.803  1.00  0.00     0.031 C 
ATOM     24  C   UNL     1     149.159 134.758 149.478  1.00  0.00     0.002 C 
ATOM     25  C   UNL     1     148.787 137.268 148.575  1.00  0.00     0.010 C 
ATOM     26  C   UNL     1     148.251 135.227 147.184  1.00  0.00     0.012 C 
ATOM     27  C   UNL     1     150.637 135.164 149.662  1.00  0.00     0.036 C 
ATOM     28  C   UNL     1     150.301 137.428 148.755  1.00  0.00     0.032 C 
ATOM     29  C   UNL     1     150.786 136.651 149.958  1.00  0.00     0.114 C 
BRANCH  29  30
ATOM     30  O   UNL     1     152.124 136.960 150.260  1.00  0.00    -0.393 OA
ATOM     31  H   UNL     1     152.576 137.167 149.392  1.00  0.00     0.210 HD
ENDBRANCH  29  30
ENDBRANCH   1  11
TORSDOF 6
ENDMDL
MODEL 3
REMARK VINA RESULT:    -6.785      1.902      3.263
REMARK INTER + INTRA:          -9.950
REMARK INTER:                  -9.156
REMARK INTRA:                  -0.794
REMARK UNBOUND:                -0.984
REMARK SMILES CC[C@@H](C=C[C@@H](C)[C@H]1CC[C@@H]2C3=CC[C@@H]4C[C@@H](O)CC[C@]4(C)[C@H]3CC[C@@]21C)C(C)C
REMARK SMILES IDX 6 1 7 2 5 3 4 4 3 5 2 6 1 7 28 8 29 9 30 10 8 11 9 12 26 13
REMARK SMILES IDX 10 14 11 15 25 16 27 17 12 18 24 19 23 20 13 21 21 22 14 23
REMARK SMILES IDX 15 24 20 25 22 26 16 27 19 28 17 29 18 30
REMARK H PARENT 18 31
REMARK Flexibility Score: inf
ROOT
ATOM      1  C   UNL     1     141.728 133.255 148.546  1.00  0.00     0.012 C 
ATOM      2  C   UNL     1     140.823 134.333 147.880  1.00  0.00     0.012 C 
ENDROOT
BRANCH   1   3
ATOM      3  C   UNL     1     140.881 132.174 149.198  1.00  0.00    -0.028 C 
ATOM      4  C   UNL     1     140.049 132.398 150.233  1.00  0.00    -0.027 C 
BRANCH   4   5
ATOM      5  C   UNL     1     138.894 131.448 150.577  1.00  0.00     0.014 C 
BRANCH   5   6
ATOM      6  C   UNL     1     139.051 130.127 149.791  1.00  0.00     0.004 C 
ATOM      7  C   UNL     1     139.654 129.003 150.645  1.00  0.00     0.004 C 
ENDBRANCH   5   6
BRANCH   5   8
ATOM      8  C   UNL     1     137.477 132.136 150.433  1.00  0.00    -0.011 C 
ATOM      9  C   UNL     1     136.426 131.112 149.938  1.00  0.00     0.008 C 
ATOM     10  C   UNL     1     137.401 133.339 149.485  1.00  0.00     0.008 C 
ENDBRANCH   5   8
ENDBRANCH   4   5
ENDBRANCH   1   3
BRANCH   1  11
ATOM     11  C   UNL     1     142.878 133.818 149.451  1.00  0.00     0.002 C 
ATOM     12  C   UNL     1     143.665 132.682 150.120  1.00  0.00     0.005 C 
ATOM     13  C   UNL     1     143.983 134.689 148.721  1.00  0.00    -0.023 C 
ATOM     14  C   UNL     1     145.032 133.258 150.394  1.00  0.00     0.009 C 
ATOM     15  C   UNL     1     145.335 134.050 149.138  1.00  0.00     0.021 C 
ATOM     16  C   UNL     1     143.898 136.150 149.245  1.00  0.00     0.008 C 
ATOM     17  C   UNL     1     143.914 134.687 147.172  1.00  0.00     0.012 C 
ATOM     18  C   UNL     1     146.514 134.994 149.305  1.00  0.00    -0.067 C 
ATOM     19  C   UNL     1     145.023 137.043 148.718  1.00  0.00     0.009 C 
ATOM     20  C   UNL     1     146.442 136.480 148.995  1.00  0.00     0.021 C 
ATOM     21  C   UNL     1     147.710 134.518 149.689  1.00  0.00    -0.027 C 
ATOM     22  C   UNL     1     147.569 136.898 147.949  1.00  0.00    -0.023 C 
ATOM     23  C   UNL     1     148.917 135.408 149.662  1.00  0.00     0.031 C 
ATOM     24  C   UNL     1     148.936 136.118 148.283  1.00  0.00     0.002 C 
ATOM     25  C   UNL     1     147.667 138.468 147.939  1.00  0.00     0.010 C 
ATOM     26  C   UNL     1     147.200 136.446 146.498  1.00  0.00     0.012 C 
ATOM     27  C   UNL     1     150.237 136.915 148.047  1.00  0.00     0.036 C 
ATOM     28  C   UNL     1     149.060 139.041 147.650  1.00  0.00     0.032 C 
ATOM     29  C   UNL     1     150.108 138.363 148.503  1.00  0.00     0.114 C 
BRANCH  29  30
ATOM     30  O   UNL     1     151.347 139.020 148.406  1.00  0.00    -0.393 OA
ATOM     31  H   UNL     1     151.368 139.707 149.133  1.00  0.00     0.210 HD
ENDBRANCH  29  30
ENDBRANCH   1  11
TORSDOF 6
ENDMDL
MODEL 4
REMARK VINA RESULT:    -6.708      3.885     10.185
REMARK INTER + INTRA:          -9.849
REMARK INTER:                  -8.683
REMARK INTRA:                  -1.167
REMARK UNBOUND:                -0.984
REMARK SMILES CC[C@@H](C=C[C@@H](C)[C@H]1CC[C@@H]2C3=CC[C@@H]4C[C@@H](O)CC[C@]4(C)[C@H]3CC[C@@]21C)C(C)C
REMARK SMILES IDX 6 1 7 2 5 3 4 4 3 5 2 6 1 7 28 8 29 9 30 10 8 11 9 12 26 13
REMARK SMILES IDX 10 14 11 15 25 16 27 17 12 18 24 19 23 20 13 21 21 22 14 23
REMARK SMILES IDX 15 24 20 25 22 26 16 27 19 28 17 29 18 30
REMARK H PARENT 18 31
REMARK Flexibility Score: inf
ROOT
ATOM      1  C   UNL     1     144.114 135.683 148.779  1.00  0.00     0.012 C 
ATOM      2  C   UNL     1     144.418 136.770 149.850  1.00  0.00     0.012 C 
ENDROOT
BRANCH   1   3
ATOM      3  C   UNL     1     145.129 135.745 147.649  1.00  0.00    -0.028 C 
ATOM      4  C   UNL     1     145.798 136.863 147.306  1.00  0.00    -0.027 C 
BRANCH   4   5
ATOM      5  C   UNL     1     147.108 136.821 146.508  1.00  0.00     0.014 C 
BRANCH   5   6
ATOM      6  C   UNL     1     147.742 135.416 146.613  1.00  0.00     0.004 C 
ATOM      7  C   UNL     1     148.914 135.371 147.602  1.00  0.00     0.004 C 
ENDBRANCH   5   6
BRANCH   5   8
ATOM      8  C   UNL     1     148.082 138.012 146.875  1.00  0.00    -0.011 C 
ATOM      9  C   UNL     1     147.547 138.790 148.102  1.00  0.00     0.008 C 
ATOM     10  C   UNL     1     148.332 139.047 145.772  1.00  0.00     0.008 C 
ENDBRANCH   5   8
ENDBRANCH   4   5
ENDBRANCH   1   3
BRANCH   1  11
ATOM     11  C   UNL     1     142.619 135.609 148.310  1.00  0.00     0.002 C 
ATOM     12  C   UNL     1     142.521 135.502 146.782  1.00  0.00     0.005 C 
ATOM     13  C   UNL     1     141.774 134.382 148.848  1.00  0.00    -0.023 C 
ATOM     14  C   UNL     1     141.201 134.819 146.519  1.00  0.00     0.009 C 
ATOM     15  C   UNL     1     141.151 133.738 147.581  1.00  0.00     0.021 C 
ATOM     16  C   UNL     1     140.653 134.915 149.784  1.00  0.00     0.008 C 
ATOM     17  C   UNL     1     142.588 133.287 149.586  1.00  0.00     0.012 C 
ATOM     18  C   UNL     1     139.768 133.126 147.735  1.00  0.00    -0.067 C 
ATOM     19  C   UNL     1     139.680 133.825 150.238  1.00  0.00     0.009 C 
ATOM     20  C   UNL     1     139.039 133.038 149.064  1.00  0.00     0.021 C 
ATOM     21  C   UNL     1     139.154 132.575 146.675  1.00  0.00    -0.027 C 
ATOM     22  C   UNL     1     138.620 131.535 149.386  1.00  0.00    -0.023 C 
ATOM     23  C   UNL     1     137.885 131.796 146.863  1.00  0.00     0.031 C 
ATOM     24  C   UNL     1     138.117 130.812 148.039  1.00  0.00     0.002 C 
ATOM     25  C   UNL     1     137.587 131.560 150.572  1.00  0.00     0.010 C 
ATOM     26  C   UNL     1     139.847 130.686 149.856  1.00  0.00     0.012 C 
ATOM     27  C   UNL     1     136.954 129.812 148.210  1.00  0.00     0.036 C 
ATOM     28  C   UNL     1     136.535 130.444 150.553  1.00  0.00     0.032 C 
ATOM     29  C   UNL     1     135.902 130.324 149.185  1.00  0.00     0.114 C 
BRANCH  29  30
ATOM     30  O   UNL     1     134.793 129.459 149.210  1.00  0.00    -0.393 OA
ATOM     31  H   UNL     1     134.004 130.007 149.486  1.00  0.00     0.210 HD
ENDBRANCH  29  30
ENDBRANCH   1  11
TORSDOF 6
ENDMDL
MODEL 5
REMARK VINA RESULT:    -6.706      4.107     10.242
REMARK INTER + INTRA:          -9.845
REMARK INTER:                  -8.643
REMARK INTRA:                  -1.202
REMARK UNBOUND:                -0.984
REMARK SMILES CC[C@@H](C=C[C@@H](C)[C@H]1CC[C@@H]2C3=CC[C@@H]4C[C@@H](O)CC[C@]4(C)[C@H]3CC[C@@]21C)C(C)C
REMARK SMILES IDX 6 1 7 2 5 3 4 4 3 5 2 6 1 7 28 8 29 9 30 10 8 11 9 12 26 13
REMARK SMILES IDX 10 14 11 15 25 16 27 17 12 18 24 19 23 20 13 21 21 22 14 23
REMARK SMILES IDX 15 24 20 25 22 26 16 27 19 28 17 29 18 30
REMARK H PARENT 18 31
REMARK Flexibility Score: inf
ROOT
ATOM      1  C   UNL     1     144.856 133.812 149.021  1.00  0.00     0.012 C 
ATOM      2  C   UNL     1     146.014 133.728 150.057  1.00  0.00     0.012 C 
ENDROOT
BRANCH   1   3
ATOM      3  C   UNL     1     145.229 134.738 147.875  1.00  0.00    -0.028 C 
ATOM      4  C   UNL     1     146.341 135.497 147.858  1.00  0.00    -0.027 C 
BRANCH   4   5
ATOM      5  C   UNL     1     146.933 136.055 146.557  1.00  0.00     0.014 C 
BRANCH   5   6
ATOM      6  C   UNL     1     148.468 135.871 146.559  1.00  0.00     0.004 C 
ATOM      7  C   UNL     1     148.990 135.298 147.883  1.00  0.00     0.004 C 
ENDBRANCH   5   6
BRANCH   5   8
ATOM      8  C   UNL     1     146.446 137.528 146.250  1.00  0.00    -0.011 C 
ATOM      9  C   UNL     1     146.437 138.376 147.545  1.00  0.00     0.008 C 
ATOM     10  C   UNL     1     145.054 137.664 145.623  1.00  0.00     0.008 C 
ENDBRANCH   5   8
ENDBRANCH   4   5
ENDBRANCH   1   3
BRANCH   1  11
ATOM     11  C   UNL     1     143.434 134.067 149.631  1.00  0.00     0.002 C 
ATOM     12  C   UNL     1     142.719 135.220 148.912  1.00  0.00     0.005 C 
ATOM     13  C   UNL     1     142.411 132.859 149.558  1.00  0.00    -0.023 C 
ATOM     14  C   UNL     1     141.247 134.954 149.108  1.00  0.00     0.009 C 
ATOM     15  C   UNL     1     141.133 133.456 148.910  1.00  0.00     0.021 C 
ATOM     16  C   UNL     1     142.101 132.375 151.002  1.00  0.00     0.008 C 
ATOM     17  C   UNL     1     142.865 131.655 148.693  1.00  0.00     0.012 C 
ATOM     18  C   UNL     1     139.801 132.897 149.383  1.00  0.00    -0.067 C 
ATOM     19  C   UNL     1     141.004 131.310 151.057  1.00  0.00     0.009 C 
ATOM     20  C   UNL     1     139.684 131.745 150.366  1.00  0.00     0.021 C 
ATOM     21  C   UNL     1     138.652 133.383 148.886  1.00  0.00    -0.027 C 
ATOM     22  C   UNL     1     138.799 130.567 149.759  1.00  0.00    -0.023 C 
ATOM     23  C   UNL     1     137.352 132.702 149.199  1.00  0.00     0.031 C 
ATOM     24  C   UNL     1     137.553 131.184 148.951  1.00  0.00     0.002 C 
ATOM     25  C   UNL     1     138.431 129.582 150.929  1.00  0.00     0.010 C 
ATOM     26  C   UNL     1     139.595 129.744 148.692  1.00  0.00     0.012 C 
ATOM     27  C   UNL     1     136.234 130.390 149.045  1.00  0.00     0.036 C 
ATOM     28  C   UNL     1     137.076 128.876 150.794  1.00  0.00     0.032 C 
ATOM     29  C   UNL     1     135.985 129.865 150.454  1.00  0.00     0.114 C 
BRANCH  29  30
ATOM     30  O   UNL     1     134.713 129.272 150.539  1.00  0.00    -0.393 OA
ATOM     31  H   UNL     1     134.850 128.340 150.873  1.00  0.00     0.210 HD
ENDBRANCH  29  30
ENDBRANCH   1  11
TORSDOF 6
ENDMDL
MODEL 6
REMARK VINA RESULT:    -6.659      4.013      9.634
REMARK INTER + INTRA:          -9.784
REMARK INTER:                  -8.190
REMARK INTRA:                  -1.594
REMARK UNBOUND:                -0.984
REMARK SMILES CC[C@@H](C=C[C@@H](C)[C@H]1CC[C@@H]2C3=CC[C@@H]4C[C@@H](O)CC[C@]4(C)[C@H]3CC[C@@]21C)C(C)C
REMARK SMILES IDX 6 1 7 2 5 3 4 4 3 5 2 6 1 7 28 8 29 9 30 10 8 11 9 12 26 13
REMARK SMILES IDX 10 14 11 15 25 16 27 17 12 18 24 19 23 20 13 21 21 22 14 23
REMARK SMILES IDX 15 24 20 25 22 26 16 27 19 28 17 29 18 30
REMARK H PARENT 18 31
REMARK Flexibility Score: inf
ROOT
ATOM      1  C   UNL     1     144.823 135.914 147.038  1.00  0.00     0.012 C 
ATOM      2  C   UNL     1     145.025 137.008 145.949  1.00  0.00     0.012 C 
ENDROOT
BRANCH   1   3
ATOM      3  C   UNL     1     146.163 135.443 147.578  1.00  0.00    -0.028 C 
ATOM      4  C   UNL     1     146.492 135.464 148.884  1.00  0.00    -0.027 C 
BRANCH   4   5
ATOM      5  C   UNL     1     147.617 134.593 149.460  1.00  0.00     0.014 C 
BRANCH   5   6
ATOM      6  C   UNL     1     147.085 133.775 150.658  1.00  0.00     0.004 C 
ATOM      7  C   UNL     1     145.635 133.314 150.458  1.00  0.00     0.004 C 
ENDBRANCH   5   6
BRANCH   5   8
ATOM      8  C   UNL     1     148.934 135.417 149.757  1.00  0.00    -0.011 C 
ATOM      9  C   UNL     1     149.832 135.474 148.497  1.00  0.00     0.008 C 
ATOM     10  C   UNL     1     149.812 134.901 150.902  1.00  0.00     0.008 C 
ENDBRANCH   5   8
ENDBRANCH   4   5
ENDBRANCH   1   3
BRANCH   1  11
ATOM     11  C   UNL     1     143.833 134.761 146.648  1.00  0.00     0.002 C 
ATOM     12  C   UNL     1     144.560 133.413 146.557  1.00  0.00     0.005 C 
ATOM     13  C   UNL     1     142.634 134.498 147.649  1.00  0.00    -0.023 C 
ATOM     14  C   UNL     1     143.499 132.374 146.821  1.00  0.00     0.009 C 
ATOM     15  C   UNL     1     142.695 132.978 147.955  1.00  0.00     0.021 C 
ATOM     16  C   UNL     1     141.298 134.846 146.935  1.00  0.00     0.008 C 
ATOM     17  C   UNL     1     142.715 135.258 148.999  1.00  0.00     0.012 C 
ATOM     18  C   UNL     1     141.367 132.271 148.180  1.00  0.00    -0.067 C 
ATOM     19  C   UNL     1     140.062 134.482 147.761  1.00  0.00     0.009 C 
ATOM     20  C   UNL     1     140.033 132.997 148.209  1.00  0.00     0.021 C 
ATOM     21  C   UNL     1     141.340 130.951 148.423  1.00  0.00    -0.027 C 
ATOM     22  C   UNL     1     139.254 132.699 149.567  1.00  0.00    -0.023 C 
ATOM     23  C   UNL     1     140.058 130.291 148.841  1.00  0.00     0.031 C 
ATOM     24  C   UNL     1     139.442 131.154 149.973  1.00  0.00     0.002 C 
ATOM     25  C   UNL     1     137.766 133.179 149.391  1.00  0.00     0.010 C 
ATOM     26  C   UNL     1     139.862 133.500 150.765  1.00  0.00     0.012 C 
ATOM     27  C   UNL     1     138.220 130.480 150.630  1.00  0.00     0.036 C 
ATOM     28  C   UNL     1     136.717 132.374 150.167  1.00  0.00     0.032 C 
ATOM     29  C   UNL     1     136.915 130.890 149.959  1.00  0.00     0.114 C 
BRANCH  29  30
ATOM     30  O   UNL     1     135.839 130.153 150.486  1.00  0.00    -0.393 OA
ATOM     31  H   UNL     1     135.572 129.491 149.786  1.00  0.00     0.210 HD
ENDBRANCH  29  30
ENDBRANCH   1  11
TORSDOF 6
ENDMDL
MODEL 7
REMARK VINA RESULT:    -6.608      1.261      2.556
REMARK INTER + INTRA:          -9.717
REMARK INTER:                  -8.632
REMARK INTRA:                  -1.084
REMARK UNBOUND:                -0.984
REMARK SMILES CC[C@@H](C=C[C@@H](C)[C@H]1CC[C@@H]2C3=CC[C@@H]4C[C@@H](O)CC[C@]4(C)[C@H]3CC[C@@]21C)C(C)C
REMARK SMILES IDX 6 1 7 2 5 3 4 4 3 5 2 6 1 7 28 8 29 9 30 10 8 11 9 12 26 13
REMARK SMILES IDX 10 14 11 15 25 16 27 17 12 18 24 19 23 20 13 21 21 22 14 23
REMARK SMILES IDX 15 24 20 25 22 26 16 27 19 28 17 29 18 30
REMARK H PARENT 18 31
REMARK Flexibility Score: inf
ROOT
ATOM      1  C   UNL     1     143.161 134.446 148.080  1.00  0.00     0.012 C 
ATOM      2  C   UNL     1     142.483 134.077 146.728  1.00  0.00     0.012 C 
ENDROOT
BRANCH   1   3
ATOM      3  C   UNL     1     142.279 134.038 149.250  1.00  0.00    -0.028 C 
ATOM      4  C   UNL     1     140.965 134.324 149.331  1.00  0.00    -0.027 C 
BRANCH   4   5
ATOM      5  C   UNL     1     140.012 133.544 150.247  1.00  0.00     0.014 C 
BRANCH   5   6
ATOM      6  C   UNL     1     140.812 132.531 151.095  1.00  0.00     0.004 C 
ATOM      7  C   UNL     1     140.586 131.080 150.649  1.00  0.00     0.004 C 
ENDBRANCH   5   6
BRANCH   5   8
ATOM      8  C   UNL     1     138.786 132.925 149.463  1.00  0.00    -0.011 C 
ATOM      9  C   UNL     1     138.865 133.289 147.960  1.00  0.00     0.008 C 
ATOM     10  C   UNL     1     137.393 133.343 149.946  1.00  0.00     0.008 C 
ENDBRANCH   5   8
ENDBRANCH   4   5
ENDBRANCH   1   3
BRANCH   1  11
ATOM     11  C   UNL     1     143.725 135.907 148.166  1.00  0.00     0.002 C 
ATOM     12  C   UNL     1     143.953 136.330 149.624  1.00  0.00     0.005 C 
ATOM     13  C   UNL     1     145.118 136.164 147.455  1.00  0.00    -0.023 C 
ATOM     14  C   UNL     1     145.028 137.387 149.563  1.00  0.00     0.009 C 
ATOM     15  C   UNL     1     146.001 136.837 148.539  1.00  0.00     0.021 C 
ATOM     16  C   UNL     1     144.900 137.138 146.263  1.00  0.00     0.008 C 
ATOM     17  C   UNL     1     145.856 134.894 146.961  1.00  0.00     0.012 C 
ATOM     18  C   UNL     1     147.002 137.875 148.059  1.00  0.00    -0.067 C 
ATOM     19  C   UNL     1     146.208 137.576 145.600  1.00  0.00     0.009 C 
ATOM     20  C   UNL     1     147.228 138.197 146.591  1.00  0.00     0.021 C 
ATOM     21  C   UNL     1     147.783 138.518 148.942  1.00  0.00    -0.027 C 
ATOM     22  C   UNL     1     148.764 138.028 146.201  1.00  0.00    -0.023 C 
ATOM     23  C   UNL     1     148.903 139.390 148.458  1.00  0.00     0.031 C 
ATOM     24  C   UNL     1     149.691 138.584 147.393  1.00  0.00     0.002 C 
ATOM     25  C   UNL     1     148.986 138.699 144.796  1.00  0.00     0.010 C 
ATOM     26  C   UNL     1     149.157 136.520 146.064  1.00  0.00     0.012 C 
ATOM     27  C   UNL     1     150.989 139.293 146.956  1.00  0.00     0.036 C 
ATOM     28  C   UNL     1     150.372 139.316 144.572  1.00  0.00     0.032 C 
ATOM     29  C   UNL     1     150.769 140.187 145.743  1.00  0.00     0.114 C 
BRANCH  29  30
ATOM     30  O   UNL     1     151.933 140.924 145.458  1.00  0.00    -0.393 OA
ATOM     31  H   UNL     1     152.611 140.274 145.117  1.00  0.00     0.210 HD
ENDBRANCH  29  30
ENDBRANCH   1  11
TORSDOF 6
ENDMDL
MODEL 8
REMARK VINA RESULT:    -6.579      3.627      9.833
REMARK INTER + INTRA:          -9.678
REMARK INTER:                  -8.491
REMARK INTRA:                  -1.186
REMARK UNBOUND:                -0.984
REMARK SMILES CC[C@@H](C=C[C@@H](C)[C@H]1CC[C@@H]2C3=CC[C@@H]4C[C@@H](O)CC[C@]4(C)[C@H]3CC[C@@]21C)C(C)C
REMARK SMILES IDX 6 1 7 2 5 3 4 4 3 5 2 6 1 7 28 8 29 9 30 10 8 11 9 12 26 13
REMARK SMILES IDX 10 14 11 15 25 16 27 17 12 18 24 19 23 20 13 21 21 22 14 23
REMARK SMILES IDX 15 24 20 25 22 26 16 27 19 28 17 29 18 30
REMARK H PARENT 18 31
REMARK Flexibility Score: inf
ROOT
ATOM      1  C   UNL     1     147.633 137.027 148.377  1.00  0.00     0.012 C 
ATOM      2  C   UNL     1     147.701 137.643 146.949  1.00  0.00     0.012 C 
ENDROOT
BRANCH   1   3
ATOM      3  C   UNL     1     148.943 137.248 149.117  1.00  0.00    -0.028 C 
ATOM      4  C   UNL     1     150.150 137.236 148.521  1.00  0.00    -0.027 C 
BRANCH   4   5
ATOM      5  C   UNL     1     151.384 137.893 149.154  1.00  0.00     0.014 C 
BRANCH   5   6
ATOM      6  C   UNL     1     151.362 137.684 150.685  1.00  0.00     0.004 C 
ATOM      7  C   UNL     1     151.928 136.319 151.100  1.00  0.00     0.004 C 
ENDBRANCH   5   6
BRANCH   5   8
ATOM      8  C   UNL     1     151.576 139.396 148.697  1.00  0.00    -0.011 C 
ATOM      9  C   UNL     1     150.951 140.360 149.736  1.00  0.00     0.008 C 
ATOM     10  C   UNL     1     150.982 139.770 147.335  1.00  0.00     0.008 C 
ENDBRANCH   5   8
ENDBRANCH   4   5
ENDBRANCH   1   3
BRANCH   1  11
ATOM     11  C   UNL     1     147.084 135.560 148.445  1.00  0.00     0.002 C 
ATOM     12  C   UNL     1     147.629 134.819 149.674  1.00  0.00     0.005 C 
ATOM     13  C   UNL     1     145.511 135.404 148.553  1.00  0.00    -0.023 C 
ATOM     14  C   UNL     1     146.603 133.755 149.979  1.00  0.00     0.009 C 
ATOM     15  C   UNL     1     145.284 134.473 149.774  1.00  0.00     0.021 C 
ATOM     16  C   UNL     1     144.983 134.725 147.258  1.00  0.00     0.008 C 
ATOM     17  C   UNL     1     144.728 136.719 148.806  1.00  0.00     0.012 C 
ATOM     18  C   UNL     1     144.100 133.523 149.700  1.00  0.00    -0.067 C 
ATOM     19  C   UNL     1     143.493 134.386 147.322  1.00  0.00     0.009 C 
ATOM     20  C   UNL     1     143.106 133.520 148.550  1.00  0.00     0.021 C 
ATOM     21  C   UNL     1     143.857 132.669 150.707  1.00  0.00    -0.027 C 
ATOM     22  C   UNL     1     141.617 133.703 149.087  1.00  0.00    -0.023 C 
ATOM     23  C   UNL     1     142.584 131.876 150.728  1.00  0.00     0.031 C 
ATOM     24  C   UNL     1     141.420 132.861 150.443  1.00  0.00     0.002 C 
ATOM     25  C   UNL     1     140.630 133.346 147.914  1.00  0.00     0.010 C 
ATOM     26  C   UNL     1     141.334 135.186 149.497  1.00  0.00     0.012 C 
ATOM     27  C   UNL     1     140.035 132.209 150.631  1.00  0.00     0.036 C 
ATOM     28  C   UNL     1     139.291 132.734 148.344  1.00  0.00     0.032 C 
ATOM     29  C   UNL     1     139.505 131.611 149.334  1.00  0.00     0.114 C 
BRANCH  29  30
ATOM     30  O   UNL     1     138.313 130.905 149.569  1.00  0.00    -0.393 OA
ATOM     31  H   UNL     1     138.544 130.139 150.169  1.00  0.00     0.210 HD
ENDBRANCH  29  30
ENDBRANCH   1  11
TORSDOF 6
ENDMDL
MODEL 9
REMARK VINA RESULT:    -6.512      3.854      9.917
REMARK INTER + INTRA:          -9.590
REMARK INTER:                  -8.444
REMARK INTRA:                  -1.145
REMARK UNBOUND:                -0.984
REMARK SMILES CC[C@@H](C=C[C@@H](C)[C@H]1CC[C@@H]2C3=CC[C@@H]4C[C@@H](O)CC[C@]4(C)[C@H]3CC[C@@]21C)C(C)C
REMARK SMILES IDX 6 1 7 2 5 3 4 4 3 5 2 6 1 7 28 8 29 9 30 10 8 11 9 12 26 13
REMARK SMILES IDX 10 14 11 15 25 16 27 17 12 18 24 19 23 20 13 21 21 22 14 23
REMARK SMILES IDX 15 24 20 25 22 26 16 27 19 28 17 29 18 30
REMARK H PARENT 18 31
REMARK Flexibility Score: inf
ROOT
ATOM      1  C   UNL     1     146.958 135.835 148.426  1.00  0.00     0.012 C 
ATOM      2  C   UNL     1     147.440 136.099 146.970  1.00  0.00     0.012 C 
ENDROOT
BRANCH   1   3
ATOM      3  C   UNL     1     148.091 136.059 149.415  1.00  0.00    -0.028 C 
ATOM      4  C   UNL     1     149.373 136.252 149.050  1.00  0.00    -0.027 C 
BRANCH   4   5
ATOM      5  C   UNL     1     150.398 136.915 149.981  1.00  0.00     0.014 C 
BRANCH   5   6
ATOM      6  C   UNL     1     151.381 137.771 149.151  1.00  0.00     0.004 C 
ATOM      7  C   UNL     1     150.730 138.364 147.894  1.00  0.00     0.004 C 
ENDBRANCH   5   6
BRANCH   5   8
ATOM      8  C   UNL     1     151.088 135.882 150.960  1.00  0.00    -0.011 C 
ATOM      9  C   UNL     1     151.278 134.516 150.258  1.00  0.00     0.008 C 
ATOM     10  C   UNL     1     150.354 135.604 152.276  1.00  0.00     0.008 C 
ENDBRANCH   5   8
ENDBRANCH   4   5
ENDBRANCH   1   3
BRANCH   1  11
ATOM     11  C   UNL     1     146.165 134.497 148.633  1.00  0.00     0.002 C 
ATOM     12  C   UNL     1     146.629 133.767 149.901  1.00  0.00     0.005 C 
ATOM     13  C   UNL     1     144.596 134.630 148.804  1.00  0.00    -0.023 C 
ATOM     14  C   UNL     1     145.450 132.927 150.326  1.00  0.00     0.009 C 
ATOM     15  C   UNL     1     144.268 133.849 150.105  1.00  0.00     0.021 C 
ATOM     16  C   UNL     1     143.900 133.959 147.587  1.00  0.00     0.008 C 
ATOM     17  C   UNL     1     144.066 136.078 148.972  1.00  0.00     0.012 C 
ATOM     18  C   UNL     1     142.934 133.120 150.147  1.00  0.00    -0.067 C 
ATOM     19  C   UNL     1     142.377 133.894 147.727  1.00  0.00     0.009 C 
ATOM     20  C   UNL     1     141.903 133.206 149.034  1.00  0.00     0.021 C 
ATOM     21  C   UNL     1     142.593 132.402 151.229  1.00  0.00    -0.027 C 
ATOM     22  C   UNL     1     140.494 133.689 149.601  1.00  0.00    -0.023 C 
ATOM     23  C   UNL     1     141.204 131.850 151.356  1.00  0.00     0.031 C 
ATOM     24  C   UNL     1     140.217 133.000 151.027  1.00  0.00     0.002 C 
ATOM     25  C   UNL     1     139.408 133.424 148.494  1.00  0.00     0.010 C 
ATOM     26  C   UNL     1     140.492 135.226 149.896  1.00  0.00     0.012 C 
ATOM     27  C   UNL     1     138.750 132.619 151.313  1.00  0.00     0.036 C 
ATOM     28  C   UNL     1     138.004 133.093 149.015  1.00  0.00     0.032 C 
ATOM     29  C   UNL     1     138.065 132.028 150.088  1.00  0.00     0.114 C 
BRANCH  29  30
ATOM     30  O   UNL     1     136.780 131.563 150.419  1.00  0.00    -0.393 OA
ATOM     31  H   UNL     1     136.147 132.317 150.248  1.00  0.00     0.210 HD
ENDBRANCH  29  30
ENDBRANCH   1  11
TORSDOF 6
ENDMDL
