MODEL 1
REMARK VINA RESULT:    -1.314      0.000      0.000
REMARK INTER + INTRA:         -10.247
REMARK INTER:                  -3.466
REMARK INTRA:                  -6.782
REMARK UNBOUND:                -6.782
REMARK SMILES CCCCCCCCCCCCCCCCCCCCCCCCCCCCCC(=O)[O-]
REMARK SMILES IDX 16 1 17 2 18 3 19 4 20 5 21 6 22 7 23 8 24 9 25 10 26 11
REMARK SMILES IDX 27 12 28 13 29 14 30 15 31 16 32 17 15 18 14 19 13 20 12 21
REMARK SMILES IDX 11 22 10 23 9 24 8 25 7 26 6 27 5 28 4 29 3 30 2 31 1 32
REMARK H PARENT
REMARK Flexibility Score: inf
ROOT
ATOM      1  C   UNL     1     -19.879 -22.969  31.409  1.00  0.00     0.000 C 
ENDROOT
BRANCH   1   2
ATOM      2  C   UNL     1     -19.481 -24.455  31.409  1.00  0.00     0.000 C 
BRANCH   2   3
ATOM      3  C   UNL     1     -20.630 -25.382  31.836  1.00  0.00     0.000 C 
BRANCH   3   4
ATOM      4  C   UNL     1     -20.210 -26.862  31.883  1.00  0.00     0.000 C 
BRANCH   4   5
ATOM      5  C   UNL     1     -19.122 -27.198  30.847  1.00  0.00     0.000 C 
BRANCH   5   6
ATOM      6  C   UNL     1     -19.624 -28.172  29.759  1.00  0.00     0.000 C 
BRANCH   6   7
ATOM      7  C   UNL     1     -19.817 -27.513  28.381  1.00  0.00     0.000 C 
BRANCH   7   8
ATOM      8  C   UNL     1     -21.002 -26.534  28.297  1.00  0.00     0.000 C 
BRANCH   8   9
ATOM      9  C   UNL     1     -20.770 -25.297  27.403  1.00  0.00     0.000 C 
BRANCH   9  10
ATOM     10  C   UNL     1     -20.963 -23.938  28.099  1.00  0.00     0.000 C 
BRANCH  10  11
ATOM     11  C   UNL     1     -22.424 -23.463  28.098  1.00  0.00     0.000 C 
BRANCH  11  12
ATOM     12  C   UNL     1     -23.042 -23.598  29.498  1.00  0.00     0.000 C 
BRANCH  12  13
ATOM     13  C   UNL     1     -23.846 -22.355  29.926  1.00  0.00     0.006 C 
BRANCH  13  14
ATOM     14  C   UNL     1     -23.066 -21.394  30.839  1.00  0.00     0.053 C 
BRANCH  14  15
ATOM     15  C   UNL     1     -22.587 -20.175  30.110  1.00  0.00     0.041 C 
ATOM     16  O   UNL     1     -21.574 -20.242  29.365  1.00  0.00    -0.550 OA
ATOM     17  O   UNL     1     -23.274 -18.975  30.226  1.00  0.00    -0.550 OA
ENDBRANCH  14  15
ENDBRANCH  13  14
ENDBRANCH  12  13
ENDBRANCH  11  12
ENDBRANCH  10  11
ENDBRANCH   9  10
ENDBRANCH   8   9
ENDBRANCH   7   8
ENDBRANCH   6   7
ENDBRANCH   5   6
ENDBRANCH   4   5
ENDBRANCH   3   4
ENDBRANCH   2   3
ENDBRANCH   1   2
BRANCH   1  18
ATOM     18  C   UNL     1     -18.862 -22.050  30.700  1.00  0.00     0.000 C 
BRANCH  18  19
ATOM     19  C   UNL     1     -18.241 -21.019  31.658  1.00  0.00     0.000 C 
BRANCH  19  20
ATOM     20  C   UNL     1     -16.707 -21.130  31.748  1.00  0.00     0.000 C 
BRANCH  20  21
ATOM     21  C   UNL     1     -16.019 -21.654  30.473  1.00  0.00     0.000 C 
BRANCH  21  22
ATOM     22  C   UNL     1     -15.117 -22.870  30.736  1.00  0.00     0.000 C 
BRANCH  22  23
ATOM     23  C   UNL     1     -15.711 -23.768  31.827  1.00  0.00     0.000 C 
BRANCH  23  24
ATOM     24  C   UNL     1     -15.940 -25.192  31.304  1.00  0.00    -0.000 C 
BRANCH  24  25
ATOM     25  C   UNL     1     -15.334 -25.423  29.908  1.00  0.00    -0.000 C 
BRANCH  25  26
ATOM     26  C   UNL     1     -16.366 -25.886  28.859  1.00  0.00    -0.000 C 
BRANCH  26  27
ATOM     27  C   UNL     1     -17.325 -24.754  28.445  1.00  0.00    -0.000 C 
BRANCH  27  28
ATOM     28  C   UNL     1     -16.692 -23.771  27.449  1.00  0.00    -0.000 C 
BRANCH  28  29
ATOM     29  C   UNL     1     -17.742 -22.991  26.637  1.00  0.00    -0.000 C 
BRANCH  29  30
ATOM     30  C   UNL     1     -18.023 -21.598  27.225  1.00  0.00    -0.000 C 
BRANCH  30  31
ATOM     31  C   UNL     1     -19.289 -20.954  26.639  1.00  0.00    -0.003 C 
ATOM     32  C   UNL     1     -19.732 -21.676  25.371  1.00  0.00     0.004 C 
ENDBRANCH  30  31
ENDBRANCH  29  30
ENDBRANCH  28  29
ENDBRANCH  27  28
ENDBRANCH  26  27
ENDBRANCH  25  26
ENDBRANCH  24  25
ENDBRANCH  23  24
ENDBRANCH  22  23
ENDBRANCH  21  22
ENDBRANCH  20  21
ENDBRANCH  19  20
ENDBRANCH  18  19
ENDBRANCH   1  18
TORSDOF 28
ENDMDL
MODEL 2
REMARK VINA RESULT:    -1.071      2.403      5.825
REMARK INTER + INTRA:          -9.606
REMARK INTER:                  -2.641
REMARK INTRA:                  -6.964
REMARK UNBOUND:                -6.782
REMARK SMILES CCCCCCCCCCCCCCCCCCCCCCCCCCCCCC(=O)[O-]
REMARK SMILES IDX 16 1 17 2 18 3 19 4 20 5 21 6 22 7 23 8 24 9 25 10 26 11
REMARK SMILES IDX 27 12 28 13 29 14 30 15 31 16 32 17 15 18 14 19 13 20 12 21
REMARK SMILES IDX 11 22 10 23 9 24 8 25 7 26 6 27 5 28 4 29 3 30 2 31 1 32
REMARK H PARENT
REMARK Flexibility Score: inf
ROOT
ATOM      1  C   UNL     1     -19.110 -24.232  26.416  1.00  0.00     0.000 C 
ENDROOT
BRANCH   1   2
ATOM      2  C   UNL     1     -20.502 -24.585  26.968  1.00  0.00     0.000 C 
BRANCH   2   3
ATOM      3  C   UNL     1     -21.646 -24.049  26.092  1.00  0.00     0.000 C 
BRANCH   3   4
ATOM      4  C   UNL     1     -22.757 -23.376  26.918  1.00  0.00     0.000 C 
BRANCH   4   5
ATOM      5  C   UNL     1     -22.275 -22.950  28.316  1.00  0.00     0.000 C 
BRANCH   5   6
ATOM      6  C   UNL     1     -22.049 -21.426  28.422  1.00  0.00     0.000 C 
BRANCH   6   7
ATOM      7  C   UNL     1     -20.777 -20.940  27.702  1.00  0.00     0.000 C 
BRANCH   7   8
ATOM      8  C   UNL     1     -20.996 -19.762  26.736  1.00  0.00     0.000 C 
BRANCH   8   9
ATOM      9  C   UNL     1     -21.493 -20.152  25.327  1.00  0.00     0.000 C 
BRANCH   9  10
ATOM     10  C   UNL     1     -20.542 -21.056  24.521  1.00  0.00     0.000 C 
BRANCH  10  11
ATOM     11  C   UNL     1     -19.238 -20.350  24.120  1.00  0.00     0.000 C 
BRANCH  11  12
ATOM     12  C   UNL     1     -18.053 -21.327  24.164  1.00  0.00     0.000 C 
BRANCH  12  13
ATOM     13  C   UNL     1     -16.993 -20.943  25.215  1.00  0.00     0.006 C 
BRANCH  13  14
ATOM     14  C   UNL     1     -17.373 -19.715  26.061  1.00  0.00     0.053 C 
BRANCH  14  15
ATOM     15  C   UNL     1     -16.291 -18.678  26.080  1.00  0.00     0.041 C 
ATOM     16  O   UNL     1     -16.525 -17.529  26.541  1.00  0.00    -0.550 OA
ATOM     17  O   UNL     1     -15.018 -18.985  25.620  1.00  0.00    -0.550 OA
ENDBRANCH  14  15
ENDBRANCH  13  14
ENDBRANCH  12  13
ENDBRANCH  11  12
ENDBRANCH  10  11
ENDBRANCH   9  10
ENDBRANCH   8   9
ENDBRANCH   7   8
ENDBRANCH   6   7
ENDBRANCH   5   6
ENDBRANCH   4   5
ENDBRANCH   3   4
ENDBRANCH   2   3
ENDBRANCH   1   2
BRANCH   1  18
ATOM     18  C   UNL     1     -18.113 -23.754  27.493  1.00  0.00     0.000 C 
BRANCH  18  19
ATOM     19  C   UNL     1     -16.651 -23.994  27.082  1.00  0.00     0.000 C 
BRANCH  19  20
ATOM     20  C   UNL     1     -15.643 -23.544  28.158  1.00  0.00     0.000 C 
BRANCH  20  21
ATOM     21  C   UNL     1     -15.611 -22.027  28.422  1.00  0.00     0.000 C 
BRANCH  21  22
ATOM     22  C   UNL     1     -15.539 -21.682  29.918  1.00  0.00     0.000 C 
BRANCH  22  23
ATOM     23  C   UNL     1     -15.837 -22.914  30.781  1.00  0.00     0.000 C 
BRANCH  23  24
ATOM     24  C   UNL     1     -17.031 -22.660  31.709  1.00  0.00    -0.000 C 
BRANCH  24  25
ATOM     25  C   UNL     1     -18.148 -21.839  31.039  1.00  0.00    -0.000 C 
BRANCH  25  26
ATOM     26  C   UNL     1     -19.434 -22.651  30.778  1.00  0.00    -0.000 C 
BRANCH  26  27
ATOM     27  C   UNL     1     -19.356 -24.072  31.367  1.00  0.00    -0.000 C 
BRANCH  27  28
ATOM     28  C   UNL     1     -20.144 -25.102  30.543  1.00  0.00    -0.000 C 
BRANCH  28  29
ATOM     29  C   UNL     1     -19.262 -26.260  30.041  1.00  0.00    -0.000 C 
BRANCH  29  30
ATOM     30  C   UNL     1     -17.798 -26.119  30.488  1.00  0.00    -0.000 C 
BRANCH  30  31
ATOM     31  C   UNL     1     -16.814 -26.764  29.499  1.00  0.00    -0.003 C 
ATOM     32  C   UNL     1     -17.555 -27.387  28.320  1.00  0.00     0.004 C 
ENDBRANCH  30  31
ENDBRANCH  29  30
ENDBRANCH  28  29
ENDBRANCH  27  28
ENDBRANCH  26  27
ENDBRANCH  25  26
ENDBRANCH  24  25
ENDBRANCH  23  24
ENDBRANCH  22  23
ENDBRANCH  21  22
ENDBRANCH  20  21
ENDBRANCH  19  20
ENDBRANCH  18  19
ENDBRANCH   1  18
TORSDOF 28
ENDMDL
MODEL 3
REMARK VINA RESULT:    -1.052      1.993      4.776
REMARK INTER + INTRA:          -9.555
REMARK INTER:                  -2.721
REMARK INTRA:                  -6.834
REMARK UNBOUND:                -6.782
REMARK SMILES CCCCCCCCCCCCCCCCCCCCCCCCCCCCCC(=O)[O-]
REMARK SMILES IDX 16 1 17 2 18 3 19 4 20 5 21 6 22 7 23 8 24 9 25 10 26 11
REMARK SMILES IDX 27 12 28 13 29 14 30 15 31 16 32 17 15 18 14 19 13 20 12 21
REMARK SMILES IDX 11 22 10 23 9 24 8 25 7 26 6 27 5 28 4 29 3 30 2 31 1 32
REMARK H PARENT
REMARK Flexibility Score: inf
ROOT
ATOM      1  C   UNL     1     -16.198 -22.676  27.347  1.00  0.00     0.000 C 
ENDROOT
BRANCH   1   2
ATOM      2  C   UNL     1     -15.206 -23.728  27.874  1.00  0.00     0.000 C 
BRANCH   2   3
ATOM      3  C   UNL     1     -15.889 -25.048  28.268  1.00  0.00     0.000 C 
BRANCH   3   4
ATOM      4  C   UNL     1     -15.029 -25.897  29.222  1.00  0.00     0.000 C 
BRANCH   4   5
ATOM      5  C   UNL     1     -15.671 -27.260  29.536  1.00  0.00     0.000 C 
BRANCH   5   6
ATOM      6  C   UNL     1     -16.416 -27.263  30.889  1.00  0.00     0.000 C 
BRANCH   6   7
ATOM      7  C   UNL     1     -17.892 -27.686  30.779  1.00  0.00     0.000 C 
BRANCH   7   8
ATOM      8  C   UNL     1     -18.382 -27.941  29.343  1.00  0.00     0.000 C 
BRANCH   8   9
ATOM      9  C   UNL     1     -19.114 -26.756  28.677  1.00  0.00     0.000 C 
BRANCH   9  10
ATOM     10  C   UNL     1     -18.932 -26.643  27.153  1.00  0.00     0.000 C 
BRANCH  10  11
ATOM     11  C   UNL     1     -19.283 -25.251  26.606  1.00  0.00     0.000 C 
BRANCH  11  12
ATOM     12  C   UNL     1     -19.563 -24.268  27.754  1.00  0.00     0.000 C 
BRANCH  12  13
ATOM     13  C   UNL     1     -20.537 -23.142  27.360  1.00  0.00     0.006 C 
BRANCH  13  14
ATOM     14  C   UNL     1     -19.935 -21.731  27.474  1.00  0.00     0.053 C 
BRANCH  14  15
ATOM     15  C   UNL     1     -20.688 -20.720  26.664  1.00  0.00     0.041 C 
ATOM     16  O   UNL     1     -20.127 -19.651  26.305  1.00  0.00    -0.550 OA
ATOM     17  O   UNL     1     -21.997 -20.970  26.276  1.00  0.00    -0.550 OA
ENDBRANCH  14  15
ENDBRANCH  13  14
ENDBRANCH  12  13
ENDBRANCH  11  12
ENDBRANCH  10  11
ENDBRANCH   9  10
ENDBRANCH   8   9
ENDBRANCH   7   8
ENDBRANCH   6   7
ENDBRANCH   5   6
ENDBRANCH   4   5
ENDBRANCH   3   4
ENDBRANCH   2   3
ENDBRANCH   1   2
BRANCH   1  18
ATOM     18  C   UNL     1     -16.316 -21.426  28.245  1.00  0.00     0.000 C 
BRANCH  18  19
ATOM     19  C   UNL     1     -15.377 -21.490  29.461  1.00  0.00     0.000 C 
BRANCH  19  20
ATOM     20  C   UNL     1     -16.133 -21.616  30.798  1.00  0.00     0.000 C 
BRANCH  20  21
ATOM     21  C   UNL     1     -15.732 -22.831  31.656  1.00  0.00     0.000 C 
BRANCH  21  22
ATOM     22  C   UNL     1     -16.844 -23.889  31.750  1.00  0.00     0.000 C 
BRANCH  22  23
ATOM     23  C   UNL     1     -18.046 -23.501  30.881  1.00  0.00     0.000 C 
BRANCH  23  24
ATOM     24  C   UNL     1     -19.318 -24.221  31.348  1.00  0.00    -0.000 C 
BRANCH  24  25
ATOM     25  C   UNL     1     -20.557 -23.309  31.350  1.00  0.00    -0.000 C 
BRANCH  25  26
ATOM     26  C   UNL     1     -21.885 -24.077  31.516  1.00  0.00    -0.000 C 
BRANCH  26  27
ATOM     27  C   UNL     1     -21.882 -25.418  30.758  1.00  0.00    -0.000 C 
BRANCH  27  28
ATOM     28  C   UNL     1     -22.666 -25.358  29.439  1.00  0.00    -0.000 C 
BRANCH  28  29
ATOM     29  C   UNL     1     -22.848 -26.744  28.794  1.00  0.00    -0.000 C 
BRANCH  29  30
ATOM     30  C   UNL     1     -22.682 -26.707  27.265  1.00  0.00    -0.000 C 
BRANCH  30  31
ATOM     31  C   UNL     1     -22.395 -28.094  26.669  1.00  0.00    -0.003 C 
ATOM     32  C   UNL     1     -21.811 -29.031  27.722  1.00  0.00     0.004 C 
ENDBRANCH  30  31
ENDBRANCH  29  30
ENDBRANCH  28  29
ENDBRANCH  27  28
ENDBRANCH  26  27
ENDBRANCH  25  26
ENDBRANCH  24  25
ENDBRANCH  23  24
ENDBRANCH  22  23
ENDBRANCH  21  22
ENDBRANCH  20  21
ENDBRANCH  19  20
ENDBRANCH  18  19
ENDBRANCH   1  18
TORSDOF 28
ENDMDL
MODEL 4
REMARK VINA RESULT:    -1.030      1.797      4.790
REMARK INTER + INTRA:          -9.498
REMARK INTER:                  -2.819
REMARK INTRA:                  -6.680
REMARK UNBOUND:                -6.782
REMARK SMILES CCCCCCCCCCCCCCCCCCCCCCCCCCCCCC(=O)[O-]
REMARK SMILES IDX 16 1 17 2 18 3 19 4 20 5 21 6 22 7 23 8 24 9 25 10 26 11
REMARK SMILES IDX 27 12 28 13 29 14 30 15 31 16 32 17 15 18 14 19 13 20 12 21
REMARK SMILES IDX 11 22 10 23 9 24 8 25 7 26 6 27 5 28 4 29 3 30 2 31 1 32
REMARK H PARENT
REMARK Flexibility Score: inf
ROOT
ATOM      1  C   UNL     1     -18.231 -25.825  26.057  1.00  0.00     0.000 C 
ENDROOT
BRANCH   1   2
ATOM      2  C   UNL     1     -19.623 -26.152  26.624  1.00  0.00     0.000 C 
BRANCH   2   3
ATOM      3  C   UNL     1     -20.345 -24.917  27.187  1.00  0.00     0.000 C 
BRANCH   3   4
ATOM      4  C   UNL     1     -20.262 -24.831  28.721  1.00  0.00     0.000 C 
BRANCH   4   5
ATOM      5  C   UNL     1     -21.407 -25.590  29.415  1.00  0.00     0.000 C 
BRANCH   5   6
ATOM      6  C   UNL     1     -21.517 -25.248  30.917  1.00  0.00     0.000 C 
BRANCH   6   7
ATOM      7  C   UNL     1     -20.443 -24.257  31.404  1.00  0.00     0.000 C 
BRANCH   7   8
ATOM      8  C   UNL     1     -20.997 -22.990  32.079  1.00  0.00     0.000 C 
BRANCH   8   9
ATOM      9  C   UNL     1     -22.197 -22.334  31.362  1.00  0.00     0.000 C 
BRANCH   9  10
ATOM     10  C   UNL     1     -21.892 -21.751  29.970  1.00  0.00     0.000 C 
BRANCH  10  11
ATOM     11  C   UNL     1     -22.963 -22.100  28.925  1.00  0.00     0.000 C 
BRANCH  11  12
ATOM     12  C   UNL     1     -22.488 -21.727  27.512  1.00  0.00     0.000 C 
BRANCH  12  13
ATOM     13  C   UNL     1     -21.202 -20.879  27.511  1.00  0.00     0.006 C 
BRANCH  13  14
ATOM     14  C   UNL     1     -20.125 -21.386  26.537  1.00  0.00     0.053 C 
BRANCH  14  15
ATOM     15  C   UNL     1     -19.498 -20.275  25.749  1.00  0.00     0.041 C 
ATOM     16  O   UNL     1     -19.764 -19.075  26.025  1.00  0.00    -0.550 OA
ATOM     17  O   UNL     1     -18.596 -20.560  24.733  1.00  0.00    -0.550 OA
ENDBRANCH  14  15
ENDBRANCH  13  14
ENDBRANCH  12  13
ENDBRANCH  11  12
ENDBRANCH  10  11
ENDBRANCH   9  10
ENDBRANCH   8   9
ENDBRANCH   7   8
ENDBRANCH   6   7
ENDBRANCH   5   6
ENDBRANCH   4   5
ENDBRANCH   3   4
ENDBRANCH   2   3
ENDBRANCH   1   2
BRANCH   1  18
ATOM     18  C   UNL     1     -17.902 -24.317  26.039  1.00  0.00     0.000 C 
BRANCH  18  19
ATOM     19  C   UNL     1     -16.844 -23.939  27.089  1.00  0.00     0.000 C 
BRANCH  19  20
ATOM     20  C   UNL     1     -16.621 -22.418  27.197  1.00  0.00     0.000 C 
BRANCH  20  21
ATOM     21  C   UNL     1     -16.621 -21.863  28.634  1.00  0.00     0.000 C 
BRANCH  21  22
ATOM     22  C   UNL     1     -17.938 -22.136  29.379  1.00  0.00     0.000 C 
BRANCH  22  23
ATOM     23  C   UNL     1     -17.777 -21.892  30.885  1.00  0.00     0.000 C 
BRANCH  23  24
ATOM     24  C   UNL     1     -16.297 -21.769  31.267  1.00  0.00    -0.000 C 
BRANCH  24  25
ATOM     25  C   UNL     1     -15.798 -22.946  32.125  1.00  0.00    -0.000 C 
BRANCH  25  26
ATOM     26  C   UNL     1     -15.199 -24.100  31.295  1.00  0.00    -0.000 C 
BRANCH  26  27
ATOM     27  C   UNL     1     -16.043 -25.384  31.385  1.00  0.00    -0.000 C 
BRANCH  27  28
ATOM     28  C   UNL     1     -16.961 -25.581  30.169  1.00  0.00    -0.000 C 
BRANCH  28  29
ATOM     29  C   UNL     1     -17.433 -27.038  30.012  1.00  0.00    -0.000 C 
BRANCH  29  30
ATOM     30  C   UNL     1     -18.459 -27.442  31.085  1.00  0.00    -0.000 C 
BRANCH  30  31
ATOM     31  C   UNL     1     -19.335 -28.625  30.647  1.00  0.00    -0.003 C 
ATOM     32  C   UNL     1     -19.415 -28.714  29.126  1.00  0.00     0.004 C 
ENDBRANCH  30  31
ENDBRANCH  29  30
ENDBRANCH  28  29
ENDBRANCH  27  28
ENDBRANCH  26  27
ENDBRANCH  25  26
ENDBRANCH  24  25
ENDBRANCH  23  24
ENDBRANCH  22  23
ENDBRANCH  21  22
ENDBRANCH  20  21
ENDBRANCH  19  20
ENDBRANCH  18  19
ENDBRANCH   1  18
TORSDOF 28
ENDMDL
MODEL 5
REMARK VINA RESULT:    -0.990      2.429      5.873
REMARK INTER + INTRA:          -9.392
REMARK INTER:                  -2.594
REMARK INTRA:                  -6.798
REMARK UNBOUND:                -6.782
REMARK SMILES CCCCCCCCCCCCCCCCCCCCCCCCCCCCCC(=O)[O-]
REMARK SMILES IDX 16 1 17 2 18 3 19 4 20 5 21 6 22 7 23 8 24 9 25 10 26 11
REMARK SMILES IDX 27 12 28 13 29 14 30 15 31 16 32 17 15 18 14 19 13 20 12 21
REMARK SMILES IDX 11 22 10 23 9 24 8 25 7 26 6 27 5 28 4 29 3 30 2 31 1 32
REMARK H PARENT
REMARK Flexibility Score: inf
ROOT
ATOM      1  C   UNL     1     -19.121 -24.573  29.492  1.00  0.00     0.000 C 
ENDROOT
BRANCH   1   2
ATOM      2  C   UNL     1     -18.001 -25.621  29.610  1.00  0.00     0.000 C 
BRANCH   2   3
ATOM      3  C   UNL     1     -16.776 -25.289  28.743  1.00  0.00     0.000 C 
BRANCH   3   4
ATOM      4  C   UNL     1     -15.469 -25.248  29.555  1.00  0.00     0.000 C 
BRANCH   4   5
ATOM      5  C   UNL     1     -15.719 -25.285  31.073  1.00  0.00     0.000 C 
BRANCH   5   6
ATOM      6  C   UNL     1     -15.457 -23.921  31.747  1.00  0.00     0.000 C 
BRANCH   6   7
ATOM      7  C   UNL     1     -16.737 -23.104  32.005  1.00  0.00     0.000 C 
BRANCH   7   8
ATOM      8  C   UNL     1     -16.912 -21.878  31.091  1.00  0.00     0.000 C 
BRANCH   8   9
ATOM      9  C   UNL     1     -15.721 -21.582  30.153  1.00  0.00     0.000 C 
BRANCH   9  10
ATOM     10  C   UNL     1     -16.037 -21.651  28.648  1.00  0.00     0.000 C 
BRANCH  10  11
ATOM     11  C   UNL     1     -17.542 -21.589  28.346  1.00  0.00     0.000 C 
BRANCH  11  12
ATOM     12  C   UNL     1     -17.849 -22.200  26.970  1.00  0.00     0.000 C 
BRANCH  12  13
ATOM     13  C   UNL     1     -18.399 -21.173  25.962  1.00  0.00     0.006 C 
BRANCH  13  14
ATOM     14  C   UNL     1     -17.306 -20.386  25.218  1.00  0.00     0.053 C 
BRANCH  14  15
ATOM     15  C   UNL     1     -17.244 -18.950  25.645  1.00  0.00     0.041 C 
ATOM     16  O   UNL     1     -18.084 -18.122  25.203  1.00  0.00    -0.550 OA
ATOM     17  O   UNL     1     -16.282 -18.532  26.554  1.00  0.00    -0.550 OA
ENDBRANCH  14  15
ENDBRANCH  13  14
ENDBRANCH  12  13
ENDBRANCH  11  12
ENDBRANCH  10  11
ENDBRANCH   9  10
ENDBRANCH   8   9
ENDBRANCH   7   8
ENDBRANCH   6   7
ENDBRANCH   5   6
ENDBRANCH   4   5
ENDBRANCH   3   4
ENDBRANCH   2   3
ENDBRANCH   1   2
BRANCH   1  18
ATOM     18  C   UNL     1     -20.483 -25.050  30.038  1.00  0.00     0.000 C 
BRANCH  18  19
ATOM     19  C   UNL     1     -21.462 -23.885  30.264  1.00  0.00     0.000 C 
BRANCH  19  20
ATOM     20  C   UNL     1     -20.839 -22.509  29.958  1.00  0.00     0.000 C 
BRANCH  20  21
ATOM     21  C   UNL     1     -21.820 -21.466  29.391  1.00  0.00     0.000 C 
BRANCH  21  22
ATOM     22  C   UNL     1     -21.182 -20.566  28.320  1.00  0.00     0.000 C 
BRANCH  22  23
ATOM     23  C   UNL     1     -22.024 -20.556  27.038  1.00  0.00     0.000 C 
BRANCH  23  24
ATOM     24  C   UNL     1     -22.682 -21.921  26.801  1.00  0.00    -0.000 C 
BRANCH  24  25
ATOM     25  C   UNL     1     -21.889 -22.808  25.825  1.00  0.00    -0.000 C 
BRANCH  25  26
ATOM     26  C   UNL     1     -20.963 -23.822  26.530  1.00  0.00    -0.000 C 
BRANCH  26  27
ATOM     27  C   UNL     1     -21.193 -25.262  26.036  1.00  0.00    -0.000 C 
BRANCH  27  28
ATOM     28  C   UNL     1     -19.967 -26.165  26.241  1.00  0.00    -0.000 C 
BRANCH  28  29
ATOM     29  C   UNL     1     -18.702 -25.609  25.562  1.00  0.00    -0.000 C 
BRANCH  29  30
ATOM     30  C   UNL     1     -18.895 -25.385  24.053  1.00  0.00    -0.000 C 
BRANCH  30  31
ATOM     31  C   UNL     1     -18.248 -24.081  23.562  1.00  0.00    -0.003 C 
ATOM     32  C   UNL     1     -16.789 -23.995  24.000  1.00  0.00     0.004 C 
ENDBRANCH  30  31
ENDBRANCH  29  30
ENDBRANCH  28  29
ENDBRANCH  27  28
ENDBRANCH  26  27
ENDBRANCH  25  26
ENDBRANCH  24  25
ENDBRANCH  23  24
ENDBRANCH  22  23
ENDBRANCH  21  22
ENDBRANCH  20  21
ENDBRANCH  19  20
ENDBRANCH  18  19
ENDBRANCH   1  18
TORSDOF 28
ENDMDL
MODEL 6
REMARK VINA RESULT:    -0.989      2.892      7.396
REMARK INTER + INTRA:          -9.390
REMARK INTER:                  -2.706
REMARK INTRA:                  -6.685
REMARK UNBOUND:                -6.782
REMARK SMILES CCCCCCCCCCCCCCCCCCCCCCCCCCCCCC(=O)[O-]
REMARK SMILES IDX 16 1 17 2 18 3 19 4 20 5 21 6 22 7 23 8 24 9 25 10 26 11
REMARK SMILES IDX 27 12 28 13 29 14 30 15 31 16 32 17 15 18 14 19 13 20 12 21
REMARK SMILES IDX 11 22 10 23 9 24 8 25 7 26 6 27 5 28 4 29 3 30 2 31 1 32
REMARK H PARENT
REMARK Flexibility Score: inf
ROOT
ATOM      1  C   UNL     1     -17.539 -27.520  27.662  1.00  0.00     0.000 C 
ENDROOT
BRANCH   1   2
ATOM      2  C   UNL     1     -16.188 -28.257  27.684  1.00  0.00     0.000 C 
BRANCH   2   3
ATOM      3  C   UNL     1     -15.169 -27.609  28.635  1.00  0.00     0.000 C 
BRANCH   3   4
ATOM      4  C   UNL     1     -15.584 -26.193  29.072  1.00  0.00     0.000 C 
BRANCH   4   5
ATOM      5  C   UNL     1     -15.762 -26.076  30.596  1.00  0.00     0.000 C 
BRANCH   5   6
ATOM      6  C   UNL     1     -16.845 -25.045  30.985  1.00  0.00     0.000 C 
BRANCH   6   7
ATOM      7  C   UNL     1     -18.279 -25.601  30.916  1.00  0.00     0.000 C 
BRANCH   7   8
ATOM      8  C   UNL     1     -19.377 -24.596  31.306  1.00  0.00     0.000 C 
BRANCH   8   9
ATOM      9  C   UNL     1     -20.376 -24.244  30.182  1.00  0.00     0.000 C 
BRANCH   9  10
ATOM     10  C   UNL     1     -20.033 -24.817  28.795  1.00  0.00     0.000 C 
BRANCH  10  11
ATOM     11  C   UNL     1     -19.520 -23.751  27.814  1.00  0.00     0.000 C 
BRANCH  11  12
ATOM     12  C   UNL     1     -18.030 -23.965  27.507  1.00  0.00     0.000 C 
BRANCH  12  13
ATOM     13  C   UNL     1     -17.128 -22.865  28.099  1.00  0.00     0.006 C 
BRANCH  13  14
ATOM     14  C   UNL     1     -17.899 -21.767  28.852  1.00  0.00     0.053 C 
BRANCH  14  15
ATOM     15  C   UNL     1     -17.345 -21.516  30.222  1.00  0.00     0.041 C 
ATOM     16  O   UNL     1     -18.120 -21.252  31.179  1.00  0.00    -0.550 OA
ATOM     17  O   UNL     1     -15.979 -21.605  30.451  1.00  0.00    -0.550 OA
ENDBRANCH  14  15
ENDBRANCH  13  14
ENDBRANCH  12  13
ENDBRANCH  11  12
ENDBRANCH  10  11
ENDBRANCH   9  10
ENDBRANCH   8   9
ENDBRANCH   7   8
ENDBRANCH   6   7
ENDBRANCH   5   6
ENDBRANCH   4   5
ENDBRANCH   3   4
ENDBRANCH   2   3
ENDBRANCH   1   2
BRANCH   1  18
ATOM     18  C   UNL     1     -18.565 -28.128  26.682  1.00  0.00     0.000 C 
BRANCH  18  19
ATOM     19  C   UNL     1     -19.984 -28.167  27.275  1.00  0.00     0.000 C 
BRANCH  19  20
ATOM     20  C   UNL     1     -20.482 -29.599  27.549  1.00  0.00     0.000 C 
BRANCH  20  21
ATOM     21  C   UNL     1     -19.369 -30.645  27.748  1.00  0.00     0.000 C 
BRANCH  21  22
ATOM     22  C   UNL     1     -19.266 -31.140  29.199  1.00  0.00     0.000 C 
BRANCH  22  23
ATOM     23  C   UNL     1     -17.991 -30.615  29.869  1.00  0.00     0.000 C 
BRANCH  23  24
ATOM     24  C   UNL     1     -18.286 -29.371  30.718  1.00  0.00    -0.000 C 
BRANCH  24  25
ATOM     25  C   UNL     1     -19.598 -29.487  31.515  1.00  0.00    -0.000 C 
BRANCH  25  26
ATOM     26  C   UNL     1     -20.585 -28.333  31.243  1.00  0.00    -0.000 C 
BRANCH  26  27
ATOM     27  C   UNL     1     -21.920 -28.833  30.660  1.00  0.00    -0.000 C 
BRANCH  27  28
ATOM     28  C   UNL     1     -22.401 -30.140  31.306  1.00  0.00    -0.000 C 
BRANCH  28  29
ATOM     29  C   UNL     1     -22.673 -31.248  30.272  1.00  0.00    -0.000 C 
BRANCH  29  30
ATOM     30  C   UNL     1     -22.329 -32.648  30.807  1.00  0.00    -0.000 C 
BRANCH  30  31
ATOM     31  C   UNL     1     -21.537 -32.599  32.123  1.00  0.00    -0.003 C 
ATOM     32  C   UNL     1     -20.182 -33.283  31.971  1.00  0.00     0.004 C 
ENDBRANCH  30  31
ENDBRANCH  29  30
ENDBRANCH  28  29
ENDBRANCH  27  28
ENDBRANCH  26  27
ENDBRANCH  25  26
ENDBRANCH  24  25
ENDBRANCH  23  24
ENDBRANCH  22  23
ENDBRANCH  21  22
ENDBRANCH  20  21
ENDBRANCH  19  20
ENDBRANCH  18  19
ENDBRANCH   1  18
TORSDOF 28
ENDMDL
MODEL 7
REMARK VINA RESULT:    -0.966      2.776      6.040
REMARK INTER + INTRA:          -9.330
REMARK INTER:                  -2.339
REMARK INTRA:                  -6.991
REMARK UNBOUND:                -6.782
REMARK SMILES CCCCCCCCCCCCCCCCCCCCCCCCCCCCCC(=O)[O-]
REMARK SMILES IDX 16 1 17 2 18 3 19 4 20 5 21 6 22 7 23 8 24 9 25 10 26 11
REMARK SMILES IDX 27 12 28 13 29 14 30 15 31 16 32 17 15 18 14 19 13 20 12 21
REMARK SMILES IDX 11 22 10 23 9 24 8 25 7 26 6 27 5 28 4 29 3 30 2 31 1 32
REMARK H PARENT
REMARK Flexibility Score: inf
ROOT
ATOM      1  C   UNL     1     -18.635 -24.601  30.331  1.00  0.00     0.000 C 
ENDROOT
BRANCH   1   2
ATOM      2  C   UNL     1     -17.226 -25.044  30.759  1.00  0.00     0.000 C 
BRANCH   2   3
ATOM      3  C   UNL     1     -16.493 -23.984  31.597  1.00  0.00     0.000 C 
BRANCH   3   4
ATOM      4  C   UNL     1     -15.533 -23.124  30.756  1.00  0.00     0.000 C 
BRANCH   4   5
ATOM      5  C   UNL     1     -16.050 -21.688  30.558  1.00  0.00     0.000 C 
BRANCH   5   6
ATOM      6  C   UNL     1     -16.712 -21.485  29.177  1.00  0.00     0.000 C 
BRANCH   6   7
ATOM      7  C   UNL     1     -16.280 -22.525  28.127  1.00  0.00     0.000 C 
BRANCH   7   8
ATOM      8  C   UNL     1     -17.422 -23.057  27.243  1.00  0.00     0.000 C 
BRANCH   8   9
ATOM      9  C   UNL     1     -18.776 -22.334  27.411  1.00  0.00     0.000 C 
BRANCH   9  10
ATOM     10  C   UNL     1     -20.012 -23.146  26.987  1.00  0.00     0.000 C 
BRANCH  10  11
ATOM     11  C   UNL     1     -19.706 -24.634  26.760  1.00  0.00     0.000 C 
BRANCH  11  12
ATOM     12  C   UNL     1     -20.754 -25.519  27.452  1.00  0.00     0.000 C 
BRANCH  12  13
ATOM     13  C   UNL     1     -21.950 -24.719  28.004  1.00  0.00     0.006 C 
BRANCH  13  14
ATOM     14  C   UNL     1     -22.564 -25.321  29.280  1.00  0.00     0.053 C 
BRANCH  14  15
ATOM     15  C   UNL     1     -22.811 -26.794  29.156  1.00  0.00     0.041 C 
ATOM     16  O   UNL     1     -22.197 -27.603  29.900  1.00  0.00    -0.550 OA
ATOM     17  O   UNL     1     -23.742 -27.272  28.244  1.00  0.00    -0.550 OA
ENDBRANCH  14  15
ENDBRANCH  13  14
ENDBRANCH  12  13
ENDBRANCH  11  12
ENDBRANCH  10  11
ENDBRANCH   9  10
ENDBRANCH   8   9
ENDBRANCH   7   8
ENDBRANCH   6   7
ENDBRANCH   5   6
ENDBRANCH   4   5
ENDBRANCH   3   4
ENDBRANCH   2   3
ENDBRANCH   1   2
BRANCH   1  18
ATOM     18  C   UNL     1     -19.699 -24.748  31.440  1.00  0.00     0.000 C 
BRANCH  18  19
ATOM     19  C   UNL     1     -20.454 -23.433  31.702  1.00  0.00     0.000 C 
BRANCH  19  20
ATOM     20  C   UNL     1     -19.772 -22.210  31.059  1.00  0.00     0.000 C 
BRANCH  20  21
ATOM     21  C   UNL     1     -20.722 -21.259  30.307  1.00  0.00     0.000 C 
BRANCH  21  22
ATOM     22  C   UNL     1     -22.164 -21.786  30.239  1.00  0.00     0.000 C 
BRANCH  22  23
ATOM     23  C   UNL     1     -22.867 -21.302  28.965  1.00  0.00     0.000 C 
BRANCH  23  24
ATOM     24  C   UNL     1     -22.019 -20.253  28.234  1.00  0.00    -0.000 C 
BRANCH  24  25
ATOM     25  C   UNL     1     -22.269 -20.232  26.715  1.00  0.00    -0.000 C 
BRANCH  25  26
ATOM     26  C   UNL     1     -23.220 -21.348  26.234  1.00  0.00    -0.000 C 
BRANCH  26  27
ATOM     27  C   UNL     1     -22.732 -22.010  24.933  1.00  0.00    -0.000 C 
BRANCH  27  28
ATOM     28  C   UNL     1     -23.753 -22.997  24.347  1.00  0.00    -0.000 C 
BRANCH  28  29
ATOM     29  C   UNL     1     -23.372 -24.466  24.603  1.00  0.00    -0.000 C 
BRANCH  29  30
ATOM     30  C   UNL     1     -24.440 -25.216  25.418  1.00  0.00    -0.000 C 
BRANCH  30  31
ATOM     31  C   UNL     1     -25.577 -24.296  25.888  1.00  0.00    -0.003 C 
ATOM     32  C   UNL     1     -25.578 -24.162  27.407  1.00  0.00     0.004 C 
ENDBRANCH  30  31
ENDBRANCH  29  30
ENDBRANCH  28  29
ENDBRANCH  27  28
ENDBRANCH  26  27
ENDBRANCH  25  26
ENDBRANCH  24  25
ENDBRANCH  23  24
ENDBRANCH  22  23
ENDBRANCH  21  22
ENDBRANCH  20  21
ENDBRANCH  19  20
ENDBRANCH  18  19
ENDBRANCH   1  18
TORSDOF 28
ENDMDL
MODEL 8
REMARK VINA RESULT:    -0.946      2.748      4.004
REMARK INTER + INTRA:          -9.276
REMARK INTER:                  -3.026
REMARK INTRA:                  -6.250
REMARK UNBOUND:                -6.782
REMARK SMILES CCCCCCCCCCCCCCCCCCCCCCCCCCCCCC(=O)[O-]
REMARK SMILES IDX 16 1 17 2 18 3 19 4 20 5 21 6 22 7 23 8 24 9 25 10 26 11
REMARK SMILES IDX 27 12 28 13 29 14 30 15 31 16 32 17 15 18 14 19 13 20 12 21
REMARK SMILES IDX 11 22 10 23 9 24 8 25 7 26 6 27 5 28 4 29 3 30 2 31 1 32
REMARK H PARENT
REMARK Flexibility Score: inf
ROOT
ATOM      1  C   UNL     1     -19.832 -22.648  31.320  1.00  0.00     0.000 C 
ENDROOT
BRANCH   1   2
ATOM      2  C   UNL     1     -19.119 -24.010  31.369  1.00  0.00     0.000 C 
BRANCH   2   3
ATOM      3  C   UNL     1     -20.020 -25.174  30.925  1.00  0.00     0.000 C 
BRANCH   3   4
ATOM      4  C   UNL     1     -19.462 -26.547  31.342  1.00  0.00     0.000 C 
BRANCH   4   5
ATOM      5  C   UNL     1     -19.222 -27.474  30.137  1.00  0.00     0.000 C 
BRANCH   5   6
ATOM      6  C   UNL     1     -18.870 -28.916  30.564  1.00  0.00     0.000 C 
BRANCH   6   7
ATOM      7  C   UNL     1     -20.056 -29.894  30.467  1.00  0.00     0.000 C 
BRANCH   7   8
ATOM      8  C   UNL     1     -20.546 -30.168  29.034  1.00  0.00     0.000 C 
BRANCH   8   9
ATOM      9  C   UNL     1     -22.004 -29.746  28.747  1.00  0.00     0.000 C 
BRANCH   9  10
ATOM     10  C   UNL     1     -22.170 -28.374  28.069  1.00  0.00     0.000 C 
BRANCH  10  11
ATOM     11  C   UNL     1     -21.145 -28.128  26.951  1.00  0.00     0.000 C 
BRANCH  11  12
ATOM     12  C   UNL     1     -20.701 -26.657  26.932  1.00  0.00     0.000 C 
BRANCH  12  13
ATOM     13  C   UNL     1     -20.358 -26.148  25.520  1.00  0.00     0.006 C 
BRANCH  13  14
ATOM     14  C   UNL     1     -18.894 -26.385  25.112  1.00  0.00     0.053 C 
BRANCH  14  15
ATOM     15  C   UNL     1     -18.373 -25.316  24.199  1.00  0.00     0.041 C 
ATOM     16  O   UNL     1     -19.042 -24.964  23.191  1.00  0.00    -0.550 OA
ATOM     17  O   UNL     1     -17.168 -24.686  24.476  1.00  0.00    -0.550 OA
ENDBRANCH  14  15
ENDBRANCH  13  14
ENDBRANCH  12  13
ENDBRANCH  11  12
ENDBRANCH  10  11
ENDBRANCH   9  10
ENDBRANCH   8   9
ENDBRANCH   7   8
ENDBRANCH   6   7
ENDBRANCH   5   6
ENDBRANCH   4   5
ENDBRANCH   3   4
ENDBRANCH   2   3
ENDBRANCH   1   2
BRANCH   1  18
ATOM     18  C   UNL     1     -18.921 -21.482  30.882  1.00  0.00     0.000 C 
BRANCH  18  19
ATOM     19  C   UNL     1     -18.120 -20.895  32.057  1.00  0.00     0.000 C 
BRANCH  19  20
ATOM     20  C   UNL     1     -16.618 -21.234  31.989  1.00  0.00     0.000 C 
BRANCH  20  21
ATOM     21  C   UNL     1     -16.097 -21.583  30.582  1.00  0.00     0.000 C 
BRANCH  21  22
ATOM     22  C   UNL     1     -15.278 -22.884  30.554  1.00  0.00     0.000 C 
BRANCH  22  23
ATOM     23  C   UNL     1     -15.600 -23.761  31.770  1.00  0.00     0.000 C 
BRANCH  23  24
ATOM     24  C   UNL     1     -15.627 -25.246  31.385  1.00  0.00    -0.000 C 
BRANCH  24  25
ATOM     25  C   UNL     1     -15.058 -25.513  29.980  1.00  0.00    -0.000 C 
BRANCH  25  26
ATOM     26  C   UNL     1     -15.993 -26.357  29.089  1.00  0.00    -0.000 C 
BRANCH  26  27
ATOM     27  C   UNL     1     -16.496 -25.572  27.864  1.00  0.00    -0.000 C 
BRANCH  27  28
ATOM     28  C   UNL     1     -17.738 -24.722  28.170  1.00  0.00    -0.000 C 
BRANCH  28  29
ATOM     29  C   UNL     1     -17.594 -23.267  27.689  1.00  0.00    -0.000 C 
BRANCH  29  30
ATOM     30  C   UNL     1     -18.852 -22.759  26.966  1.00  0.00    -0.000 C 
BRANCH  30  31
ATOM     31  C   UNL     1     -20.148 -23.144  27.696  1.00  0.00    -0.003 C 
ATOM     32  C   UNL     1     -21.067 -21.936  27.852  1.00  0.00     0.004 C 
ENDBRANCH  30  31
ENDBRANCH  29  30
ENDBRANCH  28  29
ENDBRANCH  27  28
ENDBRANCH  26  27
ENDBRANCH  25  26
ENDBRANCH  24  25
ENDBRANCH  23  24
ENDBRANCH  22  23
ENDBRANCH  21  22
ENDBRANCH  20  21
ENDBRANCH  19  20
ENDBRANCH  18  19
ENDBRANCH   1  18
TORSDOF 28
ENDMDL
