MODEL 1
REMARK VINA RESULT:    -4.190      0.000      0.000
REMARK INTER + INTRA:          -4.595
REMARK INTER:                  -4.435
REMARK INTRA:                  -0.160
REMARK UNBOUND:                -0.160
REMARK SMILES C=C(C)[C@H]1CC=C(C)C(=O)C1
REMARK SMILES IDX 8 1 7 2 6 3 5 4 4 5 11 6 9 7 10 8 2 9 1 10 3 11
REMARK H PARENT
REMARK Flexibility Score: inf
ROOT
ATOM      1  C   UNL     1      12.129  22.346  16.232  1.00  0.00     0.048 C 
ATOM      2  C   UNL     1      12.385  20.869  16.358  1.00  0.00    -0.012 C 
ATOM      3  C   UNL     1      12.259  20.272  17.552  1.00  0.00    -0.019 C 
ATOM      4  C   UNL     1      12.469  18.794  17.744  1.00  0.00     0.036 C 
ATOM      5  C   UNL     1      13.471  18.179  16.744  1.00  0.00     0.025 C 
ATOM      6  C   UNL     1      13.193  18.639  15.298  1.00  0.00     0.089 C 
ATOM      7  C   UNL     1      12.918  20.113  15.199  1.00  0.00     0.158 C 
ATOM      8  O   UNL     1      13.112  20.698  14.100  1.00  0.00    -0.295 OA
ENDROOT
BRANCH   5   9
ATOM      9  C   UNL     1      14.926  18.371  17.165  1.00  0.00    -0.077 C 
ATOM     10  C   UNL     1      15.272  18.784  18.397  1.00  0.00     0.008 C 
ATOM     11  C   UNL     1      16.004  18.088  16.150  1.00  0.00     0.039 C 
ENDBRANCH   5   9
TORSDOF 1
ENDMDL
MODEL 2
REMARK VINA RESULT:    -4.142      1.612      3.749
REMARK INTER + INTRA:          -4.543
REMARK INTER:                  -4.376
REMARK INTRA:                  -0.168
REMARK UNBOUND:                -0.160
REMARK SMILES C=C(C)[C@H]1CC=C(C)C(=O)C1
REMARK SMILES IDX 8 1 7 2 6 3 5 4 4 5 11 6 9 7 10 8 2 9 1 10 3 11
REMARK H PARENT
REMARK Flexibility Score: inf
ROOT
ATOM      1  C   UNL     1      14.676  15.840  16.201  1.00  0.00     0.048 C 
ATOM      2  C   UNL     1      14.546  17.334  16.307  1.00  0.00    -0.012 C 
ATOM      3  C   UNL     1      14.775  17.939  17.482  1.00  0.00    -0.019 C 
ATOM      4  C   UNL     1      14.695  19.432  17.652  1.00  0.00     0.036 C 
ATOM      5  C   UNL     1      13.698  20.110  16.687  1.00  0.00     0.025 C 
ATOM      6  C   UNL     1      13.870  19.604  15.240  1.00  0.00     0.089 C 
ATOM      7  C   UNL     1      14.020  18.111  15.159  1.00  0.00     0.158 C 
ATOM      8  O   UNL     1      13.728  17.525  14.082  1.00  0.00    -0.295 OA
ENDROOT
BRANCH   5   9
ATOM      9  C   UNL     1      12.255  20.044  17.179  1.00  0.00    -0.077 C 
ATOM     10  C   UNL     1      11.937  19.705  18.440  1.00  0.00     0.008 C 
ATOM     11  C   UNL     1      11.154  20.368  16.200  1.00  0.00     0.039 C 
ENDBRANCH   5   9
TORSDOF 1
ENDMDL
MODEL 3
REMARK VINA RESULT:    -4.030      1.900      2.755
REMARK INTER + INTRA:          -4.425
REMARK INTER:                  -4.514
REMARK INTRA:                   0.089
REMARK UNBOUND:                -0.160
REMARK SMILES C=C(C)[C@H]1CC=C(C)C(=O)C1
REMARK SMILES IDX 8 1 7 2 6 3 5 4 4 5 11 6 9 7 10 8 2 9 1 10 3 11
REMARK H PARENT
REMARK Flexibility Score: inf
ROOT
ATOM      1  C   UNL     1      10.618  19.525  14.215  1.00  0.00     0.048 C 
ATOM      2  C   UNL     1      11.403  19.824  15.462  1.00  0.00    -0.012 C 
ATOM      3  C   UNL     1      12.557  20.502  15.375  1.00  0.00    -0.019 C 
ATOM      4  C   UNL     1      13.377  20.864  16.585  1.00  0.00     0.036 C 
ATOM      5  C   UNL     1      13.226  19.865  17.752  1.00  0.00     0.025 C 
ATOM      6  C   UNL     1      11.748  19.514  18.019  1.00  0.00     0.089 C 
ATOM      7  C   UNL     1      10.978  19.241  16.757  1.00  0.00     0.158 C 
ATOM      8  O   UNL     1       9.935  18.535  16.819  1.00  0.00    -0.295 OA
ENDROOT
BRANCH   5   9
ATOM      9  C   UNL     1      14.117  18.634  17.601  1.00  0.00    -0.077 C 
ATOM     10  C   UNL     1      13.700  17.513  16.986  1.00  0.00     0.008 C 
ATOM     11  C   UNL     1      15.511  18.690  18.173  1.00  0.00     0.039 C 
ENDBRANCH   5   9
TORSDOF 1
ENDMDL
MODEL 4
REMARK VINA RESULT:    -3.993      1.895      3.668
REMARK INTER + INTRA:          -4.386
REMARK INTER:                  -4.234
REMARK INTRA:                  -0.151
REMARK UNBOUND:                -0.160
REMARK SMILES C=C(C)[C@H]1CC=C(C)C(=O)C1
REMARK SMILES IDX 8 1 7 2 6 3 5 4 4 5 11 6 9 7 10 8 2 9 1 10 3 11
REMARK H PARENT
REMARK Flexibility Score: inf
ROOT
ATOM      1  C   UNL     1      14.791  18.318  17.821  1.00  0.00     0.048 C 
ATOM      2  C   UNL     1      13.652  19.084  17.207  1.00  0.00    -0.012 C 
ATOM      3  C   UNL     1      12.600  19.431  17.964  1.00  0.00    -0.019 C 
ATOM      4  C   UNL     1      11.442  20.225  17.424  1.00  0.00     0.036 C 
ATOM      5  C   UNL     1      11.189  19.999  15.918  1.00  0.00     0.025 C 
ATOM      6  C   UNL     1      12.496  20.071  15.100  1.00  0.00     0.089 C 
ATOM      7  C   UNL     1      13.626  19.317  15.744  1.00  0.00     0.158 C 
ATOM      8  O   UNL     1      14.580  18.916  15.024  1.00  0.00    -0.295 OA
ENDROOT
BRANCH   5   9
ATOM      9  C   UNL     1      10.372  18.741  15.633  1.00  0.00    -0.077 C 
ATOM     10  C   UNL     1       9.280  18.413  16.346  1.00  0.00     0.008 C 
ATOM     11  C   UNL     1      10.822  17.839  14.511  1.00  0.00     0.039 C 
ENDBRANCH   5   9
TORSDOF 1
ENDMDL
MODEL 5
REMARK VINA RESULT:    -3.902      1.810      4.049
REMARK INTER + INTRA:          -4.290
REMARK INTER:                  -4.077
REMARK INTRA:                  -0.213
REMARK UNBOUND:                -0.160
REMARK SMILES C=C(C)[C@H]1CC=C(C)C(=O)C1
REMARK SMILES IDX 8 1 7 2 6 3 5 4 4 5 11 6 9 7 10 8 2 9 1 10 3 11
REMARK H PARENT
REMARK Flexibility Score: inf
ROOT
ATOM      1  C   UNL     1      15.091  17.764  15.948  1.00  0.00     0.048 C 
ATOM      2  C   UNL     1      13.751  18.336  16.320  1.00  0.00    -0.012 C 
ATOM      3  C   UNL     1      12.698  18.145  15.511  1.00  0.00    -0.019 C 
ATOM      4  C   UNL     1      11.323  18.661  15.837  1.00  0.00     0.036 C 
ATOM      5  C   UNL     1      11.333  19.942  16.698  1.00  0.00     0.025 C 
ATOM      6  C   UNL     1      12.310  19.825  17.887  1.00  0.00     0.089 C 
ATOM      7  C   UNL     1      13.634  19.231  17.496  1.00  0.00     0.158 C 
ATOM      8  O   UNL     1      14.645  19.473  18.208  1.00  0.00    -0.295 OA
ENDROOT
BRANCH   5   9
ATOM      9  C   UNL     1      11.540  21.211  15.875  1.00  0.00    -0.077 C 
ATOM     10  C   UNL     1      12.079  22.328  16.394  1.00  0.00     0.008 C 
ATOM     11  C   UNL     1      11.113  21.199  14.429  1.00  0.00     0.039 C 
ENDBRANCH   5   9
TORSDOF 1
ENDMDL
MODEL 6
REMARK VINA RESULT:    -3.877      2.557      3.601
REMARK INTER + INTRA:          -4.263
REMARK INTER:                  -4.069
REMARK INTRA:                  -0.194
REMARK UNBOUND:                -0.160
REMARK SMILES C=C(C)[C@H]1CC=C(C)C(=O)C1
REMARK SMILES IDX 8 1 7 2 6 3 5 4 4 5 11 6 9 7 10 8 2 9 1 10 3 11
REMARK H PARENT
REMARK Flexibility Score: inf
ROOT
ATOM      1  C   UNL     1      12.346  19.180  18.051  1.00  0.00     0.048 C 
ATOM      2  C   UNL     1      13.137  18.616  16.904  1.00  0.00    -0.012 C 
ATOM      3  C   UNL     1      12.529  18.374  15.733  1.00  0.00    -0.019 C 
ATOM      4  C   UNL     1      13.266  17.841  14.533  1.00  0.00     0.036 C 
ATOM      5  C   UNL     1      14.481  16.962  14.898  1.00  0.00     0.025 C 
ATOM      6  C   UNL     1      15.354  17.615  15.990  1.00  0.00     0.089 C 
ATOM      7  C   UNL     1      14.541  18.191  17.116  1.00  0.00     0.158 C 
ATOM      8  O   UNL     1      15.084  18.346  18.243  1.00  0.00    -0.295 OA
ENDROOT
BRANCH   5   9
ATOM      9  C   UNL     1      14.099  15.520  15.218  1.00  0.00    -0.077 C 
ATOM     10  C   UNL     1      14.682  14.822  16.209  1.00  0.00     0.008 C 
ATOM     11  C   UNL     1      13.030  14.864  14.382  1.00  0.00     0.039 C 
ENDBRANCH   5   9
TORSDOF 1
ENDMDL
MODEL 7
REMARK VINA RESULT:    -3.849      6.784      8.415
REMARK INTER + INTRA:          -4.234
REMARK INTER:                  -4.018
REMARK INTRA:                  -0.215
REMARK UNBOUND:                -0.160
REMARK SMILES C=C(C)[C@H]1CC=C(C)C(=O)C1
REMARK SMILES IDX 8 1 7 2 6 3 5 4 4 5 11 6 9 7 10 8 2 9 1 10 3 11
REMARK H PARENT
REMARK Flexibility Score: inf
ROOT
ATOM      1  C   UNL     1      17.284  26.257  15.300  1.00  0.00     0.048 C 
ATOM      2  C   UNL     1      15.884  26.713  15.605  1.00  0.00    -0.012 C 
ATOM      3  C   UNL     1      15.038  25.887  16.240  1.00  0.00    -0.019 C 
ATOM      4  C   UNL     1      13.635  26.290  16.605  1.00  0.00     0.036 C 
ATOM      5  C   UNL     1      13.023  27.331  15.643  1.00  0.00     0.025 C 
ATOM      6  C   UNL     1      14.002  28.487  15.351  1.00  0.00     0.089 C 
ATOM      7  C   UNL     1      15.399  28.009  15.072  1.00  0.00     0.158 C 
ATOM      8  O   UNL     1      16.174  28.746  14.405  1.00  0.00    -0.295 OA
ENDROOT
BRANCH   5   9
ATOM      9  C   UNL     1      12.441  26.704  14.378  1.00  0.00    -0.077 C 
ATOM     10  C   UNL     1      12.402  27.355  13.203  1.00  0.00     0.008 C 
ATOM     11  C   UNL     1      11.889  25.304  14.467  1.00  0.00     0.039 C 
ENDBRANCH   5   9
TORSDOF 1
ENDMDL
MODEL 8
REMARK VINA RESULT:    -3.843     10.770     12.101
REMARK INTER + INTRA:          -4.227
REMARK INTER:                  -4.098
REMARK INTRA:                  -0.129
REMARK UNBOUND:                -0.160
REMARK SMILES C=C(C)[C@H]1CC=C(C)C(=O)C1
REMARK SMILES IDX 8 1 7 2 6 3 5 4 4 5 11 6 9 7 10 8 2 9 1 10 3 11
REMARK H PARENT
REMARK Flexibility Score: inf
ROOT
ATOM      1  C   UNL     1       3.220  28.502  15.035  1.00  0.00     0.048 C 
ATOM      2  C   UNL     1       4.389  28.574  15.978  1.00  0.00    -0.012 C 
ATOM      3  C   UNL     1       4.626  29.707  16.657  1.00  0.00    -0.019 C 
ATOM      4  C   UNL     1       5.758  29.840  17.640  1.00  0.00     0.036 C 
ATOM      5  C   UNL     1       6.970  28.943  17.309  1.00  0.00     0.025 C 
ATOM      6  C   UNL     1       6.539  27.502  16.966  1.00  0.00     0.089 C 
ATOM      7  C   UNL     1       5.356  27.453  16.040  1.00  0.00     0.158 C 
ATOM      8  O   UNL     1       5.173  26.422  15.338  1.00  0.00    -0.295 OA
ENDROOT
BRANCH   5   9
ATOM      9  C   UNL     1       7.897  29.557  16.263  1.00  0.00    -0.077 C 
ATOM     10  C   UNL     1       8.265  28.899  15.150  1.00  0.00     0.008 C 
ATOM     11  C   UNL     1       8.417  30.951  16.504  1.00  0.00     0.039 C 
ENDBRANCH   5   9
TORSDOF 1
ENDMDL
MODEL 9
REMARK VINA RESULT:    -3.842      6.038      7.804
REMARK INTER + INTRA:          -4.227
REMARK INTER:                  -4.028
REMARK INTRA:                  -0.199
REMARK UNBOUND:                -0.160
REMARK SMILES C=C(C)[C@H]1CC=C(C)C(=O)C1
REMARK SMILES IDX 8 1 7 2 6 3 5 4 4 5 11 6 9 7 10 8 2 9 1 10 3 11
REMARK H PARENT
REMARK Flexibility Score: inf
ROOT
ATOM      1  C   UNL     1      16.251  29.251  14.371  1.00  0.00     0.048 C 
ATOM      2  C   UNL     1      15.741  28.064  15.140  1.00  0.00    -0.012 C 
ATOM      3  C   UNL     1      16.571  27.048  15.423  1.00  0.00    -0.019 C 
ATOM      4  C   UNL     1      16.136  25.845  16.216  1.00  0.00     0.036 C 
ATOM      5  C   UNL     1      14.636  25.514  16.061  1.00  0.00     0.025 C 
ATOM      6  C   UNL     1      13.754  26.772  16.205  1.00  0.00     0.089 C 
ATOM      7  C   UNL     1      14.295  27.952  15.447  1.00  0.00     0.158 C 
ATOM      8  O   UNL     1      13.504  28.872  15.106  1.00  0.00    -0.295 OA
ENDROOT
BRANCH   5   9
ATOM      9  C   UNL     1      14.331  24.709  14.800  1.00  0.00    -0.077 C 
ATOM     10  C   UNL     1      15.269  23.992  14.157  1.00  0.00     0.008 C 
ATOM     11  C   UNL     1      12.922  24.733  14.264  1.00  0.00     0.039 C 
ENDBRANCH   5   9
TORSDOF 1
ENDMDL
