MODEL 1
REMARK VINA RESULT:    -3.049      0.000      0.000
REMARK INTER + INTRA:          -4.917
REMARK INTER:                  -4.297
REMARK INTRA:                  -0.619
REMARK UNBOUND:                -0.619
REMARK SMILES CCCCCCCCC(=O)[O-]
REMARK SMILES IDX 6 1 7 2 8 3 9 4 10 5 11 6 5 7 4 8 3 9 2 10 1 11
REMARK H PARENT
REMARK Flexibility Score: inf
ROOT
ATOM      1  C   UNL     1      13.875  12.771   8.182  1.00  0.00     0.000 C 
ENDROOT
BRANCH   1   2
ATOM      2  C   UNL     1      14.350  13.155   9.588  1.00  0.00     0.006 C 
BRANCH   2   3
ATOM      3  C   UNL     1      13.983  12.073  10.608  1.00  0.00     0.053 C 
BRANCH   3   4
ATOM      4  C   UNL     1      15.182  11.684  11.413  1.00  0.00     0.041 C 
ATOM      5  O   UNL     1      16.327  11.695  10.890  1.00  0.00    -0.550 OA
ATOM      6  O   UNL     1      15.041  11.355  12.756  1.00  0.00    -0.550 OA
ENDBRANCH   3   4
ENDBRANCH   2   3
ENDBRANCH   1   2
BRANCH   1   7
ATOM      7  C   UNL     1      14.865  13.251   7.115  1.00  0.00     0.000 C 
BRANCH   7   8
ATOM      8  C   UNL     1      16.249  13.516   7.727  1.00  0.00    -0.000 C 
BRANCH   8   9
ATOM      9  C   UNL     1      16.868  14.845   7.257  1.00  0.00    -0.000 C 
BRANCH   9  10
ATOM     10  C   UNL     1      15.894  16.036   7.225  1.00  0.00    -0.003 C 
ATOM     11  C   UNL     1      15.576  16.585   8.615  1.00  0.00     0.004 C 
ENDBRANCH   9  10
ENDBRANCH   8   9
ENDBRANCH   7   8
ENDBRANCH   1   7
TORSDOF 7
ENDMDL
MODEL 2
REMARK VINA RESULT:    -3.043      1.116      1.638
REMARK INTER + INTRA:          -4.908
REMARK INTER:                  -4.372
REMARK INTRA:                  -0.536
REMARK UNBOUND:                -0.619
REMARK SMILES CCCCCCCCC(=O)[O-]
REMARK SMILES IDX 6 1 7 2 8 3 9 4 10 5 11 6 5 7 4 8 3 9 2 10 1 11
REMARK H PARENT
REMARK Flexibility Score: inf
ROOT
ATOM      1  C   UNL     1      14.792  13.412   7.147  1.00  0.00     0.000 C 
ENDROOT
BRANCH   1   2
ATOM      2  C   UNL     1      13.963  12.813   8.289  1.00  0.00     0.006 C 
BRANCH   2   3
ATOM      3  C   UNL     1      14.476  13.292   9.650  1.00  0.00     0.053 C 
BRANCH   3   4
ATOM      4  C   UNL     1      14.137  12.299  10.716  1.00  0.00     0.041 C 
ATOM      5  O   UNL     1      14.697  11.171  10.734  1.00  0.00    -0.550 OA
ATOM      6  O   UNL     1      13.238  12.637  11.720  1.00  0.00    -0.550 OA
ENDBRANCH   3   4
ENDBRANCH   2   3
ENDBRANCH   1   2
BRANCH   1   7
ATOM      7  C   UNL     1      16.269  13.533   7.541  1.00  0.00     0.000 C 
BRANCH   7   8
ATOM      8  C   UNL     1      16.823  14.919   7.180  1.00  0.00    -0.000 C 
BRANCH   8   9
ATOM      9  C   UNL     1      16.800  15.902   8.365  1.00  0.00    -0.000 C 
BRANCH   9  10
ATOM     10  C   UNL     1      15.594  16.858   8.388  1.00  0.00    -0.003 C 
ATOM     11  C   UNL     1      15.577  17.770   9.614  1.00  0.00     0.004 C 
ENDBRANCH   9  10
ENDBRANCH   8   9
ENDBRANCH   7   8
ENDBRANCH   1   7
TORSDOF 7
ENDMDL
MODEL 3
REMARK VINA RESULT:    -2.898      2.805      5.080
REMARK INTER + INTRA:          -4.703
REMARK INTER:                  -4.345
REMARK INTRA:                  -0.358
REMARK UNBOUND:                -0.619
REMARK SMILES CCCCCCCCC(=O)[O-]
REMARK SMILES IDX 6 1 7 2 8 3 9 4 10 5 11 6 5 7 4 8 3 9 2 10 1 11
REMARK H PARENT
REMARK Flexibility Score: inf
ROOT
ATOM      1  C   UNL     1      14.266  13.124   7.915  1.00  0.00     0.000 C 
ENDROOT
BRANCH   1   2
ATOM      2  C   UNL     1      15.529  13.490   7.127  1.00  0.00     0.006 C 
BRANCH   2   3
ATOM      3  C   UNL     1      16.489  14.322   7.982  1.00  0.00     0.053 C 
BRANCH   3   4
ATOM      4  C   UNL     1      16.437  15.762   7.577  1.00  0.00     0.041 C 
ATOM      5  O   UNL     1      17.121  16.171   6.602  1.00  0.00    -0.550 OA
ATOM      6  O   UNL     1      15.595  16.642   8.245  1.00  0.00    -0.550 OA
ENDBRANCH   3   4
ENDBRANCH   2   3
ENDBRANCH   1   2
BRANCH   1   7
ATOM      7  C   UNL     1      14.489  13.294   9.423  1.00  0.00     0.000 C 
BRANCH   7   8
ATOM      8  C   UNL     1      13.890  12.115  10.204  1.00  0.00    -0.000 C 
BRANCH   8   9
ATOM      9  C   UNL     1      14.846  11.558  11.274  1.00  0.00    -0.000 C 
BRANCH   9  10
ATOM     10  C   UNL     1      14.517  11.980  12.718  1.00  0.00    -0.003 C 
ATOM     11  C   UNL     1      13.185  12.721  12.835  1.00  0.00     0.004 C 
ENDBRANCH   9  10
ENDBRANCH   8   9
ENDBRANCH   7   8
ENDBRANCH   1   7
TORSDOF 7
ENDMDL
MODEL 4
REMARK VINA RESULT:    -2.828     11.108     12.918
REMARK INTER + INTRA:          -4.604
REMARK INTER:                  -4.423
REMARK INTRA:                  -0.181
REMARK UNBOUND:                -0.619
REMARK SMILES CCCCCCCCC(=O)[O-]
REMARK SMILES IDX 6 1 7 2 8 3 9 4 10 5 11 6 5 7 4 8 3 9 2 10 1 11
REMARK H PARENT
REMARK Flexibility Score: inf
ROOT
ATOM      1  C   UNL     1      16.734  19.692  -0.084  1.00  0.00     0.000 C 
ENDROOT
BRANCH   1   2
ATOM      2  C   UNL     1      16.586  21.187   0.223  1.00  0.00     0.006 C 
BRANCH   2   3
ATOM      3  C   UNL     1      16.795  22.031  -1.038  1.00  0.00     0.053 C 
BRANCH   3   4
ATOM      4  C   UNL     1      15.573  21.993  -1.901  1.00  0.00     0.041 C 
ATOM      5  O   UNL     1      15.675  22.125  -3.150  1.00  0.00    -0.550 OA
ATOM      6  O   UNL     1      14.327  21.765  -1.332  1.00  0.00    -0.550 OA
ENDBRANCH   3   4
ENDBRANCH   2   3
ENDBRANCH   1   2
BRANCH   1   7
ATOM      7  C   UNL     1      15.761  18.858   0.758  1.00  0.00     0.000 C 
BRANCH   7   8
ATOM      8  C   UNL     1      14.304  19.163   0.380  1.00  0.00    -0.000 C 
BRANCH   8   9
ATOM      9  C   UNL     1      13.337  18.025   0.754  1.00  0.00    -0.000 C 
BRANCH   9  10
ATOM     10  C   UNL     1      12.235  17.747  -0.285  1.00  0.00    -0.003 C 
ATOM     11  C   UNL     1      11.871  18.976  -1.115  1.00  0.00     0.004 C 
ENDBRANCH   9  10
ENDBRANCH   8   9
ENDBRANCH   7   8
ENDBRANCH   1   7
TORSDOF 7
ENDMDL
MODEL 5
REMARK VINA RESULT:    -2.753      3.076      4.772
REMARK INTER + INTRA:          -4.500
REMARK INTER:                  -4.187
REMARK INTRA:                  -0.313
REMARK UNBOUND:                -0.619
REMARK SMILES CCCCCCCCC(=O)[O-]
REMARK SMILES IDX 6 1 7 2 8 3 9 4 10 5 11 6 5 7 4 8 3 9 2 10 1 11
REMARK H PARENT
REMARK Flexibility Score: inf
ROOT
ATOM      1  C   UNL     1      15.591  17.041   8.580  1.00  0.00     0.000 C 
ENDROOT
BRANCH   1   2
ATOM      2  C   UNL     1      16.131  15.612   8.455  1.00  0.00     0.006 C 
BRANCH   2   3
ATOM      3  C   UNL     1      15.163  14.602   9.080  1.00  0.00     0.053 C 
BRANCH   3   4
ATOM      4  C   UNL     1      14.843  13.513   8.105  1.00  0.00     0.041 C 
ATOM      5  O   UNL     1      15.599  13.300   7.121  1.00  0.00    -0.550 OA
ATOM      6  O   UNL     1      13.735  12.700   8.310  1.00  0.00    -0.550 OA
ENDBRANCH   3   4
ENDBRANCH   2   3
ENDBRANCH   1   2
BRANCH   1   7
ATOM      7  C   UNL     1      16.735  18.060   8.639  1.00  0.00     0.000 C 
BRANCH   7   8
ATOM      8  C   UNL     1      16.506  19.080   9.764  1.00  0.00    -0.000 C 
BRANCH   8   9
ATOM      9  C   UNL     1      15.271  18.756  10.625  1.00  0.00    -0.000 C 
BRANCH   9  10
ATOM     10  C   UNL     1      14.613  19.976  11.295  1.00  0.00    -0.003 C 
ATOM     11  C   UNL     1      13.428  19.602  12.185  1.00  0.00     0.004 C 
ENDBRANCH   9  10
ENDBRANCH   8   9
ENDBRANCH   7   8
ENDBRANCH   1   7
TORSDOF 7
ENDMDL
MODEL 6
REMARK VINA RESULT:    -2.570      2.379      3.601
REMARK INTER + INTRA:          -4.241
REMARK INTER:                  -3.849
REMARK INTRA:                  -0.392
REMARK UNBOUND:                -0.619
REMARK SMILES CCCCCCCCC(=O)[O-]
REMARK SMILES IDX 6 1 7 2 8 3 9 4 10 5 11 6 5 7 4 8 3 9 2 10 1 11
REMARK H PARENT
REMARK Flexibility Score: inf
ROOT
ATOM      1  C   UNL     1      16.844  15.225   8.508  1.00  0.00     0.000 C 
ENDROOT
BRANCH   1   2
ATOM      2  C   UNL     1      16.412  13.827   8.967  1.00  0.00     0.006 C 
BRANCH   2   3
ATOM      3  C   UNL     1      15.074  13.883   9.711  1.00  0.00     0.053 C 
BRANCH   3   4
ATOM      4  C   UNL     1      14.164  12.795   9.235  1.00  0.00     0.041 C 
ATOM      5  O   UNL     1      13.745  12.794   8.047  1.00  0.00    -0.550 OA
ATOM      6  O   UNL     1      13.817  11.755  10.088  1.00  0.00    -0.550 OA
ENDBRANCH   3   4
ENDBRANCH   2   3
ENDBRANCH   1   2
BRANCH   1   7
ATOM      7  C   UNL     1      15.627  16.115   8.230  1.00  0.00     0.000 C 
BRANCH   7   8
ATOM      8  C   UNL     1      15.904  17.569   8.639  1.00  0.00    -0.000 C 
BRANCH   8   9
ATOM      9  C   UNL     1      15.786  17.798  10.157  1.00  0.00    -0.000 C 
BRANCH   9  10
ATOM     10  C   UNL     1      15.822  19.274  10.592  1.00  0.00    -0.003 C 
ATOM     11  C   UNL     1      14.535  19.727  11.281  1.00  0.00     0.004 C 
ENDBRANCH   9  10
ENDBRANCH   8   9
ENDBRANCH   7   8
ENDBRANCH   1   7
TORSDOF 7
ENDMDL
MODEL 7
REMARK VINA RESULT:    -2.475      3.906      5.620
REMARK INTER + INTRA:          -4.107
REMARK INTER:                  -3.803
REMARK INTRA:                  -0.305
REMARK UNBOUND:                -0.619
REMARK SMILES CCCCCCCCC(=O)[O-]
REMARK SMILES IDX 6 1 7 2 8 3 9 4 10 5 11 6 5 7 4 8 3 9 2 10 1 11
REMARK H PARENT
REMARK Flexibility Score: inf
ROOT
ATOM      1  C   UNL     1      16.546  16.618   8.825  1.00  0.00     0.000 C 
ENDROOT
BRANCH   1   2
ATOM      2  C   UNL     1      15.534  17.554   9.494  1.00  0.00     0.006 C 
BRANCH   2   3
ATOM      3  C   UNL     1      16.137  18.944   9.721  1.00  0.00     0.053 C 
BRANCH   3   4
ATOM      4  C   UNL     1      15.407  19.660  10.813  1.00  0.00     0.041 C 
ATOM      5  O   UNL     1      15.803  20.789  11.206  1.00  0.00    -0.550 OA
ATOM      6  O   UNL     1      14.261  19.102  11.365  1.00  0.00    -0.550 OA
ENDBRANCH   3   4
ENDBRANCH   2   3
ENDBRANCH   1   2
BRANCH   1   7
ATOM      7  C   UNL     1      15.912  15.877   7.641  1.00  0.00     0.000 C 
BRANCH   7   8
ATOM      8  C   UNL     1      16.244  14.378   7.690  1.00  0.00    -0.000 C 
BRANCH   8   9
ATOM      9  C   UNL     1      15.154  13.502   7.045  1.00  0.00    -0.000 C 
BRANCH   9  10
ATOM     10  C   UNL     1      14.071  12.998   8.016  1.00  0.00    -0.003 C 
ATOM     11  C   UNL     1      14.548  12.940   9.466  1.00  0.00     0.004 C 
ENDBRANCH   9  10
ENDBRANCH   8   9
ENDBRANCH   7   8
ENDBRANCH   1   7
TORSDOF 7
ENDMDL
MODEL 8
REMARK VINA RESULT:    -2.473      1.753      2.819
REMARK INTER + INTRA:          -4.105
REMARK INTER:                  -3.396
REMARK INTRA:                  -0.709
REMARK UNBOUND:                -0.619
REMARK SMILES CCCCCCCCC(=O)[O-]
REMARK SMILES IDX 6 1 7 2 8 3 9 4 10 5 11 6 5 7 4 8 3 9 2 10 1 11
REMARK H PARENT
REMARK Flexibility Score: inf
ROOT
ATOM      1  C   UNL     1      16.898  14.888  10.504  1.00  0.00     0.000 C 
ENDROOT
BRANCH   1   2
ATOM      2  C   UNL     1      15.893  14.113  11.364  1.00  0.00     0.006 C 
BRANCH   2   3
ATOM      3  C   UNL     1      15.646  12.713  10.794  1.00  0.00     0.053 C 
BRANCH   3   4
ATOM      4  C   UNL     1      14.182  12.404  10.782  1.00  0.00     0.041 C 
ATOM      5  O   UNL     1      13.659  11.850   9.778  1.00  0.00    -0.550 OA
ATOM      6  O   UNL     1      13.403  12.683  11.898  1.00  0.00    -0.550 OA
ENDBRANCH   3   4
ENDBRANCH   2   3
ENDBRANCH   1   2
BRANCH   1   7
ATOM      7  C   UNL     1      16.209  16.023   9.738  1.00  0.00     0.000 C 
BRANCH   7   8
ATOM      8  C   UNL     1      15.789  15.564   8.334  1.00  0.00    -0.000 C 
BRANCH   8   9
ATOM      9  C   UNL     1      16.893  14.774   7.606  1.00  0.00    -0.000 C 
BRANCH   9  10
ATOM     10  C   UNL     1      16.475  13.373   7.126  1.00  0.00    -0.003 C 
ATOM     11  C   UNL     1      14.978  13.261   6.838  1.00  0.00     0.004 C 
ENDBRANCH   9  10
ENDBRANCH   8   9
ENDBRANCH   7   8
ENDBRANCH   1   7
TORSDOF 7
ENDMDL
