MODEL 1
REMARK VINA RESULT:    -3.923      0.000      0.000
REMARK INTER + INTRA:          -5.433
REMARK INTER:                  -5.069
REMARK INTRA:                  -0.364
REMARK UNBOUND:                -0.364
REMARK SMILES CCO[C@@H]1O[C@@H](CO)[C@H](O)[C@H](O)[C@H]1O
REMARK SMILES IDX 4 1 13 2 11 3 9 4 6 5 5 6 3 7 2 8 1 9 14 10 12 12 7 14 8 15
REMARK SMILES IDX 10 17
REMARK H PARENT 14 11 12 13 8 16 10 18
REMARK Flexibility Score: inf
ROOT
ATOM      1  C   UNL     1       6.631  -4.530  -2.961  1.00  0.00     0.281 C 
ATOM      2  C   UNL     1       6.265  -3.168  -2.339  1.00  0.00     0.202 C 
ATOM      3  C   UNL     1       6.792  -3.065  -0.895  1.00  0.00     0.179 C 
ATOM      4  C   UNL     1       8.280  -3.464  -0.843  1.00  0.00     0.177 C 
ATOM      5  C   UNL     1       8.486  -4.826  -1.545  1.00  0.00     0.178 C 
ATOM      6  O   UNL     1       8.031  -4.764  -2.888  1.00  0.00    -0.341 OA
ENDROOT
BRANCH   1   7
ATOM      7  O   UNL     1       5.894  -5.570  -2.336  1.00  0.00    -0.350 OA
BRANCH   7   8
ATOM      8  C   UNL     1       5.905  -6.747  -3.122  1.00  0.00     0.160 C 
ATOM      9  C   UNL     1       6.390  -7.928  -2.291  1.00  0.00     0.035 C 
ENDBRANCH   7   8
ENDBRANCH   1   7
BRANCH   2  10
ATOM     10  O   UNL     1       6.816  -2.143  -3.125  1.00  0.00    -0.385 OA
ATOM     11  H   UNL     1       7.787  -2.332  -3.207  1.00  0.00     0.211 HD
ENDBRANCH   2  10
BRANCH   3  12
ATOM     12  O   UNL     1       6.027  -3.899  -0.059  1.00  0.00    -0.387 OA
ATOM     13  H   UNL     1       6.656  -4.534   0.372  1.00  0.00     0.211 HD
ENDBRANCH   3  12
BRANCH   5  14
ATOM     14  C   UNL     1       9.973  -5.211  -1.556  1.00  0.00     0.191 C 
BRANCH  14  15
ATOM     15  O   UNL     1      10.348  -5.741  -0.312  1.00  0.00    -0.394 OA
ATOM     16  H   UNL     1       9.659  -6.412  -0.066  1.00  0.00     0.210 HD
ENDBRANCH  14  15
ENDBRANCH   5  14
BRANCH   4  17
ATOM     17  O   UNL     1       8.714  -3.540   0.491  1.00  0.00    -0.387 OA
ATOM     18  H   UNL     1       9.232  -2.712   0.670  1.00  0.00     0.211 HD
ENDBRANCH   4  17
TORSDOF 7
ENDMDL
MODEL 2
REMARK VINA RESULT:    -3.896      1.885      4.155
REMARK INTER + INTRA:          -5.399
REMARK INTER:                  -5.311
REMARK INTRA:                  -0.088
REMARK UNBOUND:                -0.364
REMARK SMILES CCO[C@@H]1O[C@@H](CO)[C@H](O)[C@H](O)[C@H]1O
REMARK SMILES IDX 4 1 13 2 11 3 9 4 6 5 5 6 3 7 2 8 1 9 14 10 12 12 7 14 8 15
REMARK SMILES IDX 10 17
REMARK H PARENT 14 11 12 13 8 16 10 18
REMARK Flexibility Score: inf
ROOT
ATOM      1  C   UNL     1       7.786  -3.800  -2.784  1.00  0.00     0.281 C 
ATOM      2  C   UNL     1       7.409  -4.944  -1.822  1.00  0.00     0.202 C 
ATOM      3  C   UNL     1       6.695  -4.398  -0.572  1.00  0.00     0.179 C 
ATOM      4  C   UNL     1       5.554  -3.447  -0.985  1.00  0.00     0.177 C 
ATOM      5  C   UNL     1       6.083  -2.389  -1.981  1.00  0.00     0.178 C 
ATOM      6  O   UNL     1       6.646  -3.020  -3.121  1.00  0.00    -0.341 OA
ENDROOT
BRANCH   1   7
ATOM      7  O   UNL     1       8.815  -3.002  -2.219  1.00  0.00    -0.350 OA
BRANCH   7   8
ATOM      8  C   UNL     1       9.973  -3.009  -3.033  1.00  0.00     0.160 C 
ATOM      9  C   UNL     1      10.636  -4.379  -2.992  1.00  0.00     0.035 C 
ENDBRANCH   7   8
ENDBRANCH   1   7
BRANCH   2  10
ATOM     10  O   UNL     1       6.573  -5.850  -2.495  1.00  0.00    -0.385 OA
ATOM     11  H   UNL     1       5.675  -5.778  -2.079  1.00  0.00     0.211 HD
ENDBRANCH   2  10
BRANCH   3  12
ATOM     12  O   UNL     1       7.626  -3.728   0.242  1.00  0.00    -0.387 OA
ATOM     13  H   UNL     1       7.319  -2.787   0.322  1.00  0.00     0.211 HD
ENDBRANCH   3  12
BRANCH   5  14
ATOM     14  C   UNL     1       4.945  -1.469  -2.449  1.00  0.00     0.191 C 
BRANCH  14  15
ATOM     15  O   UNL     1       5.434  -0.177  -2.695  1.00  0.00    -0.394 OA
ATOM     16  H   UNL     1       4.736   0.300  -3.214  1.00  0.00     0.210 HD
ENDBRANCH  14  15
ENDBRANCH   5  14
BRANCH   4  17
ATOM     17  O   UNL     1       5.017  -2.814   0.149  1.00  0.00    -0.387 OA
ATOM     18  H   UNL     1       5.755  -2.739   0.810  1.00  0.00     0.211 HD
ENDBRANCH   4  17
TORSDOF 7
ENDMDL
MODEL 3
REMARK VINA RESULT:    -3.734      1.643      3.944
REMARK INTER + INTRA:          -5.190
REMARK INTER:                  -4.772
REMARK INTRA:                  -0.418
REMARK UNBOUND:                -0.364
REMARK SMILES CCO[C@@H]1O[C@@H](CO)[C@H](O)[C@H](O)[C@H]1O
REMARK SMILES IDX 4 1 13 2 11 3 9 4 6 5 5 6 3 7 2 8 1 9 14 10 12 12 7 14 8 15
REMARK SMILES IDX 10 17
REMARK H PARENT 14 11 12 13 8 16 10 18
REMARK Flexibility Score: inf
ROOT
ATOM      1  C   UNL     1       8.063  -5.034  -1.268  1.00  0.00     0.281 C 
ATOM      2  C   UNL     1       8.457  -3.673  -0.662  1.00  0.00     0.202 C 
ATOM      3  C   UNL     1       8.107  -2.521  -1.624  1.00  0.00     0.179 C 
ATOM      4  C   UNL     1       6.650  -2.660  -2.109  1.00  0.00     0.177 C 
ATOM      5  C   UNL     1       6.406  -4.088  -2.645  1.00  0.00     0.178 C 
ATOM      6  O   UNL     1       6.691  -5.049  -1.640  1.00  0.00    -0.341 OA
ENDROOT
BRANCH   1   7
ATOM      7  O   UNL     1       8.905  -5.343  -2.369  1.00  0.00    -0.350 OA
BRANCH   7   8
ATOM      8  C   UNL     1       9.855  -6.334  -2.023  1.00  0.00     0.160 C 
ATOM      9  C   UNL     1      11.257  -5.737  -2.015  1.00  0.00     0.035 C 
ENDBRANCH   7   8
ENDBRANCH   1   7
BRANCH   2  10
ATOM     10  O   UNL     1       7.780  -3.502   0.557  1.00  0.00    -0.385 OA
ATOM     11  H   UNL     1       7.459  -4.399   0.836  1.00  0.00     0.211 HD
ENDBRANCH   2  10
BRANCH   3  12
ATOM     12  O   UNL     1       8.995  -2.538  -2.714  1.00  0.00    -0.387 OA
ATOM     13  H   UNL     1       9.896  -2.316  -2.359  1.00  0.00     0.211 HD
ENDBRANCH   3  12
BRANCH   5  14
ATOM     14  C   UNL     1       4.942  -4.262  -3.078  1.00  0.00     0.191 C 
BRANCH  14  15
ATOM     15  O   UNL     1       4.118  -3.365  -2.382  1.00  0.00    -0.394 OA
ATOM     16  H   UNL     1       4.045  -3.704  -1.452  1.00  0.00     0.210 HD
ENDBRANCH  14  15
ENDBRANCH   5  14
BRANCH   4  17
ATOM     17  O   UNL     1       6.385  -1.716  -3.117  1.00  0.00    -0.387 OA
ATOM     18  H   UNL     1       6.520  -0.820  -2.711  1.00  0.00     0.211 HD
ENDBRANCH   4  17
TORSDOF 7
ENDMDL
MODEL 4
REMARK VINA RESULT:    -3.663      1.727      3.369
REMARK INTER + INTRA:          -5.098
REMARK INTER:                  -4.698
REMARK INTRA:                  -0.400
REMARK UNBOUND:                -0.364
REMARK SMILES CCO[C@@H]1O[C@@H](CO)[C@H](O)[C@H](O)[C@H]1O
REMARK SMILES IDX 4 1 13 2 11 3 9 4 6 5 5 6 3 7 2 8 1 9 14 10 12 12 7 14 8 15
REMARK SMILES IDX 10 17
REMARK H PARENT 14 11 12 13 8 16 10 18
REMARK Flexibility Score: inf
ROOT
ATOM      1  C   UNL     1       7.484  -2.691  -1.705  1.00  0.00     0.281 C 
ATOM      2  C   UNL     1       7.112  -3.805  -0.707  1.00  0.00     0.202 C 
ATOM      3  C   UNL     1       7.520  -5.188  -1.250  1.00  0.00     0.179 C 
ATOM      4  C   UNL     1       8.985  -5.158  -1.730  1.00  0.00     0.177 C 
ATOM      5  C   UNL     1       9.205  -3.963  -2.684  1.00  0.00     0.178 C 
ATOM      6  O   UNL     1       8.865  -2.745  -2.038  1.00  0.00    -0.341 OA
ENDROOT
BRANCH   1   7
ATOM      7  O   UNL     1       6.665  -2.774  -2.861  1.00  0.00    -0.350 OA
BRANCH   7   8
ATOM      8  C   UNL     1       5.343  -2.353  -2.582  1.00  0.00     0.160 C 
ATOM      9  C   UNL     1       5.178  -0.877  -2.920  1.00  0.00     0.035 C 
ENDBRANCH   7   8
ENDBRANCH   1   7
BRANCH   2  10
ATOM     10  O   UNL     1       7.759  -3.560   0.515  1.00  0.00    -0.385 OA
ATOM     11  H   UNL     1       8.518  -2.949   0.322  1.00  0.00     0.211 HD
ENDBRANCH   2  10
BRANCH   3  12
ATOM     12  O   UNL     1       6.662  -5.546  -2.305  1.00  0.00    -0.387 OA
ATOM     13  H   UNL     1       6.608  -6.538  -2.312  1.00  0.00     0.211 HD
ENDBRANCH   3  12
BRANCH   5  14
ATOM     14  C   UNL     1      10.674  -3.883  -3.124  1.00  0.00     0.191 C 
BRANCH  14  15
ATOM     15  O   UNL     1      11.484  -4.630  -2.256  1.00  0.00    -0.394 OA
ATOM     16  H   UNL     1      11.222  -5.581  -2.364  1.00  0.00     0.210 HD
ENDBRANCH  14  15
ENDBRANCH   5  14
BRANCH   4  17
ATOM     17  O   UNL     1       9.304  -6.361  -2.383  1.00  0.00    -0.387 OA
ATOM     18  H   UNL     1       8.491  -6.640  -2.880  1.00  0.00     0.211 HD
ENDBRANCH   4  17
TORSDOF 7
ENDMDL
MODEL 5
REMARK VINA RESULT:    -3.489      1.388      3.730
REMARK INTER + INTRA:          -4.872
REMARK INTER:                  -4.698
REMARK INTRA:                  -0.174
REMARK UNBOUND:                -0.364
REMARK SMILES CCO[C@@H]1O[C@@H](CO)[C@H](O)[C@H](O)[C@H]1O
REMARK SMILES IDX 4 1 13 2 11 3 9 4 6 5 5 6 3 7 2 8 1 9 14 10 12 12 7 14 8 15
REMARK SMILES IDX 10 17
REMARK H PARENT 14 11 12 13 8 16 10 18
REMARK Flexibility Score: inf
ROOT
ATOM      1  C   UNL     1       9.180  -4.566  -1.714  1.00  0.00     0.281 C 
ATOM      2  C   UNL     1       8.535  -3.299  -1.119  1.00  0.00     0.202 C 
ATOM      3  C   UNL     1       7.210  -2.971  -1.832  1.00  0.00     0.179 C 
ATOM      4  C   UNL     1       6.318  -4.227  -1.897  1.00  0.00     0.177 C 
ATOM      5  C   UNL     1       7.121  -5.415  -2.472  1.00  0.00     0.178 C 
ATOM      6  O   UNL     1       8.275  -5.662  -1.683  1.00  0.00    -0.341 OA
ENDROOT
BRANCH   1   7
ATOM      7  O   UNL     1       9.644  -4.309  -3.031  1.00  0.00    -0.350 OA
BRANCH   7   8
ATOM      8  C   UNL     1      11.058  -4.333  -3.089  1.00  0.00     0.160 C 
ATOM      9  C   UNL     1      11.596  -5.524  -2.305  1.00  0.00     0.035 C 
ENDBRANCH   7   8
ENDBRANCH   1   7
BRANCH   2  10
ATOM     10  O   UNL     1       8.306  -3.502   0.252  1.00  0.00    -0.385 OA
ATOM     11  H   UNL     1       7.344  -3.320   0.413  1.00  0.00     0.211 HD
ENDBRANCH   2  10
BRANCH   3  12
ATOM     12  O   UNL     1       7.481  -2.489  -3.125  1.00  0.00    -0.387 OA
ATOM     13  H   UNL     1       7.595  -1.506  -3.051  1.00  0.00     0.211 HD
ENDBRANCH   3  12
BRANCH   5  14
ATOM     14  C   UNL     1       6.265  -6.691  -2.490  1.00  0.00     0.191 C 
BRANCH  14  15
ATOM     15  O   UNL     1       6.688  -7.574  -1.485  1.00  0.00    -0.394 OA
ATOM     16  H   UNL     1       5.997  -7.551  -0.772  1.00  0.00     0.210 HD
ENDBRANCH  14  15
ENDBRANCH   5  14
BRANCH   4  17
ATOM     17  O   UNL     1       5.189  -3.977  -2.697  1.00  0.00    -0.387 OA
ATOM     18  H   UNL     1       5.189  -3.004  -2.894  1.00  0.00     0.211 HD
ENDBRANCH   4  17
TORSDOF 7
ENDMDL
MODEL 6
REMARK VINA RESULT:    -3.083      1.499      3.187
REMARK INTER + INTRA:          -4.348
REMARK INTER:                  -3.951
REMARK INTRA:                  -0.396
REMARK UNBOUND:                -0.364
REMARK SMILES CCO[C@@H]1O[C@@H](CO)[C@H](O)[C@H](O)[C@H]1O
REMARK SMILES IDX 4 1 13 2 11 3 9 4 6 5 5 6 3 7 2 8 1 9 14 10 12 12 7 14 8 15
REMARK SMILES IDX 10 17
REMARK H PARENT 14 11 12 13 8 16 10 18
REMARK Flexibility Score: inf
ROOT
ATOM      1  C   UNL     1       6.683  -3.200  -2.174  1.00  0.00     0.281 C 
ATOM      2  C   UNL     1       8.136  -2.767  -1.900  1.00  0.00     0.202 C 
ATOM      3  C   UNL     1       8.878  -3.828  -1.065  1.00  0.00     0.179 C 
ATOM      4  C   UNL     1       8.685  -5.224  -1.691  1.00  0.00     0.177 C 
ATOM      5  C   UNL     1       7.183  -5.487  -1.944  1.00  0.00     0.178 C 
ATOM      6  O   UNL     1       6.640  -4.482  -2.786  1.00  0.00    -0.341 OA
ENDROOT
BRANCH   1   7
ATOM      7  O   UNL     1       5.926  -3.168  -0.974  1.00  0.00    -0.350 OA
BRANCH   7   8
ATOM      8  C   UNL     1       4.598  -2.743  -1.217  1.00  0.00     0.160 C 
ATOM      9  C   UNL     1       4.584  -1.639  -2.267  1.00  0.00     0.035 C 
ENDBRANCH   7   8
ENDBRANCH   1   7
BRANCH   2  10
ATOM     10  O   UNL     1       8.795  -2.573  -3.125  1.00  0.00    -0.385 OA
ATOM     11  H   UNL     1       8.203  -2.006  -3.684  1.00  0.00     0.211 HD
ENDBRANCH   2  10
BRANCH   3  12
ATOM     12  O   UNL     1       8.392  -3.807   0.255  1.00  0.00    -0.387 OA
ATOM     13  H   UNL     1       8.942  -4.448   0.777  1.00  0.00     0.211 HD
ENDBRANCH   3  12
BRANCH   5  14
ATOM     14  C   UNL     1       6.978  -6.850  -2.622  1.00  0.00     0.191 C 
BRANCH  14  15
ATOM     15  O   UNL     1       6.754  -7.845  -1.658  1.00  0.00    -0.394 OA
ATOM     16  H   UNL     1       6.476  -7.381  -0.826  1.00  0.00     0.210 HD
ENDBRANCH  14  15
ENDBRANCH   5  14
BRANCH   4  17
ATOM     17  O   UNL     1       9.210  -6.212  -0.840  1.00  0.00    -0.387 OA
ATOM     18  H   UNL     1       8.908  -5.986   0.079  1.00  0.00     0.211 HD
ENDBRANCH   4  17
TORSDOF 7
ENDMDL
MODEL 7
REMARK VINA RESULT:    -2.353      2.428      4.736
REMARK INTER + INTRA:          -3.404
REMARK INTER:                  -3.025
REMARK INTRA:                  -0.379
REMARK UNBOUND:                -0.364
REMARK SMILES CCO[C@@H]1O[C@@H](CO)[C@H](O)[C@H](O)[C@H]1O
REMARK SMILES IDX 4 1 13 2 11 3 9 4 6 5 5 6 3 7 2 8 1 9 14 10 12 12 7 14 8 15
REMARK SMILES IDX 10 17
REMARK H PARENT 14 11 12 13 8 16 10 18
REMARK Flexibility Score: inf
ROOT
ATOM      1  C   UNL     1      10.849  -5.787  -2.734  1.00  0.00     0.281 C 
ATOM      2  C   UNL     1       9.968  -6.703  -1.862  1.00  0.00     0.202 C 
ATOM      3  C   UNL     1       9.410  -5.935  -0.649  1.00  0.00     0.179 C 
ATOM      4  C   UNL     1       8.774  -4.608  -1.108  1.00  0.00     0.177 C 
ATOM      5  C   UNL     1       9.764  -3.831  -2.005  1.00  0.00     0.178 C 
ATOM      6  O   UNL     1      10.140  -4.619  -3.125  1.00  0.00    -0.341 OA
ENDROOT
BRANCH   1   7
ATOM      7  O   UNL     1      12.050  -5.465  -2.049  1.00  0.00    -0.350 OA
BRANCH   7   8
ATOM      8  C   UNL     1      13.133  -5.333  -2.951  1.00  0.00     0.160 C 
ATOM      9  C   UNL     1      13.574  -3.877  -3.034  1.00  0.00     0.035 C 
ENDBRANCH   7   8
ENDBRANCH   1   7
BRANCH   2  10
ATOM     10  O   UNL     1       8.912  -7.200  -2.643  1.00  0.00    -0.385 OA
ATOM     11  H   UNL     1       8.590  -8.028  -2.199  1.00  0.00     0.211 HD
ENDBRANCH   2  10
BRANCH   3  12
ATOM     12  O   UNL     1      10.448  -5.695   0.269  1.00  0.00    -0.387 OA
ATOM     13  H   UNL     1      10.089  -5.076   0.958  1.00  0.00     0.211 HD
ENDBRANCH   3  12
BRANCH   5  14
ATOM     14  C   UNL     1       9.125  -2.533  -2.521  1.00  0.00     0.191 C 
BRANCH  14  15
ATOM     15  O   UNL     1       7.739  -2.550  -2.297  1.00  0.00    -0.394 OA
ATOM     16  H   UNL     1       7.319  -2.901  -3.125  1.00  0.00     0.210 HD
ENDBRANCH  14  15
ENDBRANCH   5  14
BRANCH   4  17
ATOM     17  O   UNL     1       8.423  -3.828   0.008  1.00  0.00    -0.387 OA
ATOM     18  H   UNL     1       7.436  -3.720  -0.019  1.00  0.00     0.211 HD
ENDBRANCH   4  17
TORSDOF 7
ENDMDL
MODEL 8
REMARK VINA RESULT:    -2.297      1.915      3.323
REMARK INTER + INTRA:          -3.332
REMARK INTER:                  -3.528
REMARK INTRA:                   0.196
REMARK UNBOUND:                -0.364
REMARK SMILES CCO[C@@H]1O[C@@H](CO)[C@H](O)[C@H](O)[C@H]1O
REMARK SMILES IDX 4 1 13 2 11 3 9 4 6 5 5 6 3 7 2 8 1 9 14 10 12 12 7 14 8 15
REMARK SMILES IDX 10 17
REMARK H PARENT 14 11 12 13 8 16 10 18
REMARK Flexibility Score: inf
ROOT
ATOM      1  C   UNL     1       5.653  -3.747  -1.222  1.00  0.00     0.281 C 
ATOM      2  C   UNL     1       5.996  -3.999  -2.703  1.00  0.00     0.202 C 
ATOM      3  C   UNL     1       7.353  -3.369  -3.067  1.00  0.00     0.179 C 
ATOM      4  C   UNL     1       8.423  -3.782  -2.037  1.00  0.00     0.177 C 
ATOM      5  C   UNL     1       7.911  -3.508  -0.605  1.00  0.00     0.178 C 
ATOM      6  O   UNL     1       6.696  -4.205  -0.372  1.00  0.00    -0.341 OA
ENDROOT
BRANCH   1   7
ATOM      7  O   UNL     1       5.372  -2.372  -1.009  1.00  0.00    -0.350 OA
BRANCH   7   8
ATOM      8  C   UNL     1       4.343  -1.921  -1.869  1.00  0.00     0.160 C 
ATOM      9  C   UNL     1       3.080  -2.747  -1.655  1.00  0.00     0.035 C 
ENDBRANCH   7   8
ENDBRANCH   1   7
BRANCH   2  10
ATOM     10  O   UNL     1       6.031  -5.383  -2.936  1.00  0.00    -0.385 OA
ATOM     11  H   UNL     1       5.160  -5.629  -3.345  1.00  0.00     0.211 HD
ENDBRANCH   2  10
BRANCH   3  12
ATOM     12  O   UNL     1       7.222  -1.969  -3.110  1.00  0.00    -0.387 OA
ATOM     13  H   UNL     1       7.163  -1.712  -4.067  1.00  0.00     0.211 HD
ENDBRANCH   3  12
BRANCH   5  14
ATOM     14  C   UNL     1       8.941  -3.969   0.437  1.00  0.00     0.191 C 
BRANCH  14  15
ATOM     15  O   UNL     1       8.874  -3.157   1.580  1.00  0.00    -0.394 OA
ATOM     16  H   UNL     1       9.455  -3.579   2.266  1.00  0.00     0.210 HD
ENDBRANCH  14  15
ENDBRANCH   5  14
BRANCH   4  17
ATOM     17  O   UNL     1       9.614  -3.072  -2.266  1.00  0.00    -0.387 OA
ATOM     18  H   UNL     1      10.289  -3.736  -2.565  1.00  0.00     0.211 HD
ENDBRANCH   4  17
TORSDOF 7
ENDMDL
