MODEL 1
REMARK VINA RESULT:    -5.877      0.000      0.000
REMARK INTER + INTRA:          -7.205
REMARK INTER:                  -6.908
REMARK INTRA:                  -0.297
REMARK UNBOUND:                -0.297
REMARK SMILES O=c1c(O)c(-c2ccc(O)cc2)oc2cc(O)cc(O)c12
REMARK SMILES IDX 5 1 3 2 2 3 1 4 21 5 19 6 18 7 16 8 15 9 14 10 13 11 6 12
REMARK SMILES IDX 7 13 8 14 9 15 12 16 11 17 10 18 4 20 20 22 17 24
REMARK H PARENT 10 19 4 21 20 23 17 25
REMARK Flexibility Score: inf
ROOT
ATOM      1  C   UNL     1      -3.228  14.064 -26.986  1.00  0.00     0.180 A 
ATOM      2  C   UNL     1      -4.092  13.086 -26.458  1.00  0.00     0.208 A 
ATOM      3  C   UNL     1      -4.567  12.072 -27.306  1.00  0.00     0.238 A 
ATOM      4  O   UNL     1      -5.332  11.184 -26.842  1.00  0.00    -0.285 OA
ATOM      5  C   UNL     1      -4.189  12.066 -28.664  1.00  0.00     0.111 A 
ATOM      6  C   UNL     1      -4.626  11.082 -29.584  1.00  0.00     0.134 A 
ATOM      7  C   UNL     1      -4.212  11.150 -30.923  1.00  0.00     0.093 A 
ATOM      8  C   UNL     1      -3.371  12.181 -31.358  1.00  0.00     0.123 A 
ATOM      9  C   UNL     1      -2.937  13.152 -30.454  1.00  0.00     0.094 A 
ATOM     10  C   UNL     1      -3.337  13.101 -29.115  1.00  0.00     0.146 A 
ATOM     11  O   UNL     1      -2.905  14.035 -28.276  1.00  0.00    -0.452 OA
ENDROOT
BRANCH   1  12
ATOM     12  C   UNL     1      -2.670  15.154 -26.152  1.00  0.00     0.021 A 
ATOM     13  C   UNL     1      -1.494  14.974 -25.402  1.00  0.00     0.016 A 
ATOM     14  C   UNL     1      -0.974  16.026 -24.641  1.00  0.00     0.047 A 
ATOM     15  C   UNL     1      -1.613  17.272 -24.632  1.00  0.00     0.115 A 
ATOM     16  C   UNL     1      -3.293  16.414 -26.154  1.00  0.00     0.016 A 
ATOM     17  C   UNL     1      -2.771  17.462 -25.392  1.00  0.00     0.047 A 
BRANCH  15  18
ATOM     18  O   UNL     1      -1.104  18.326 -23.877  1.00  0.00    -0.508 OA
ATOM     19  H   UNL     1      -0.965  19.246 -24.278  1.00  0.00     0.293 HD
ENDBRANCH  15  18
ENDBRANCH   1  12
BRANCH   2  20
ATOM     20  O   UNL     1      -4.491  13.144 -25.120  1.00  0.00    -0.502 OA
ATOM     21  H   UNL     1      -5.161  12.495 -24.726  1.00  0.00     0.293 HD
ENDBRANCH   2  20
BRANCH   6  22
ATOM     22  O   UNL     1      -5.466  10.044 -29.181  1.00  0.00    -0.507 OA
ATOM     23  H   UNL     1      -6.473  10.105 -29.274  1.00  0.00     0.293 HD
ENDBRANCH   6  22
BRANCH   8  24
ATOM     24  O   UNL     1      -2.962  12.249 -32.688  1.00  0.00    -0.508 OA
ATOM     25  H   UNL     1      -3.627  12.369 -33.442  1.00  0.00     0.293 HD
ENDBRANCH   8  24
TORSDOF 5
ENDMDL
MODEL 2
REMARK VINA RESULT:    -5.750      2.706      6.708
REMARK INTER + INTRA:          -7.056
REMARK INTER:                  -6.761
REMARK INTRA:                  -0.294
REMARK UNBOUND:                -0.297
REMARK SMILES O=c1c(O)c(-c2ccc(O)cc2)oc2cc(O)cc(O)c12
REMARK SMILES IDX 5 1 3 2 2 3 1 4 21 5 19 6 18 7 16 8 15 9 14 10 13 11 6 12
REMARK SMILES IDX 7 13 8 14 9 15 12 16 11 17 10 18 4 20 20 22 17 24
REMARK H PARENT 10 19 4 21 20 23 17 25
REMARK Flexibility Score: inf
ROOT
ATOM      1  C   UNL     1      -3.861  14.867 -26.586  1.00  0.00     0.180 A 
ATOM      2  C   UNL     1      -4.177  15.605 -27.743  1.00  0.00     0.208 A 
ATOM      3  C   UNL     1      -3.529  16.831 -27.963  1.00  0.00     0.238 A 
ATOM      4  O   UNL     1      -3.794  17.495 -29.001  1.00  0.00    -0.285 OA
ATOM      5  C   UNL     1      -2.597  17.306 -27.018  1.00  0.00     0.111 A 
ATOM      6  C   UNL     1      -1.904  18.532 -27.162  1.00  0.00     0.134 A 
ATOM      7  C   UNL     1      -0.998  18.941 -26.172  1.00  0.00     0.093 A 
ATOM      8  C   UNL     1      -0.773  18.147 -25.041  1.00  0.00     0.123 A 
ATOM      9  C   UNL     1      -1.454  16.937 -24.894  1.00  0.00     0.094 A 
ATOM     10  C   UNL     1      -2.359  16.511 -25.871  1.00  0.00     0.146 A 
ATOM     11  O   UNL     1      -2.989  15.354 -25.708  1.00  0.00    -0.452 OA
ENDROOT
BRANCH   1  12
ATOM     12  C   UNL     1      -4.488  13.557 -26.293  1.00  0.00     0.021 A 
ATOM     13  C   UNL     1      -3.885  12.350 -26.693  1.00  0.00     0.016 A 
ATOM     14  C   UNL     1      -4.484  11.125 -26.384  1.00  0.00     0.047 A 
ATOM     15  C   UNL     1      -5.683  11.090 -25.661  1.00  0.00     0.115 A 
ATOM     16  C   UNL     1      -5.680  13.512 -25.550  1.00  0.00     0.016 A 
ATOM     17  C   UNL     1      -6.276  12.285 -25.243  1.00  0.00     0.047 A 
BRANCH  15  18
ATOM     18  O   UNL     1      -6.289   9.875 -25.347  1.00  0.00    -0.508 OA
ATOM     19  H   UNL     1      -6.733   9.720 -24.450  1.00  0.00     0.293 HD
ENDBRANCH  15  18
ENDBRANCH   1  12
BRANCH   2  20
ATOM     20  O   UNL     1      -5.140  15.135 -28.640  1.00  0.00    -0.502 OA
ATOM     21  H   UNL     1      -5.461  15.685 -29.427  1.00  0.00     0.293 HD
ENDBRANCH   2  20
BRANCH   6  22
ATOM     22  O   UNL     1      -2.108  19.345 -28.277  1.00  0.00    -0.507 OA
ATOM     23  H   UNL     1      -1.654  19.159 -29.163  1.00  0.00     0.293 HD
ENDBRANCH   6  22
BRANCH   8  24
ATOM     24  O   UNL     1       0.125  18.553 -24.056  1.00  0.00    -0.508 OA
ATOM     25  H   UNL     1       1.045  18.906 -24.290  1.00  0.00     0.293 HD
ENDBRANCH   8  24
TORSDOF 5
ENDMDL
MODEL 3
REMARK VINA RESULT:    -5.461      2.259      2.823
REMARK INTER + INTRA:          -6.715
REMARK INTER:                  -6.435
REMARK INTRA:                  -0.281
REMARK UNBOUND:                -0.297
REMARK SMILES O=c1c(O)c(-c2ccc(O)cc2)oc2cc(O)cc(O)c12
REMARK SMILES IDX 5 1 3 2 2 3 1 4 21 5 19 6 18 7 16 8 15 9 14 10 13 11 6 12
REMARK SMILES IDX 7 13 8 14 9 15 12 16 11 17 10 18 4 20 20 22 17 24
REMARK H PARENT 10 19 4 21 20 23 17 25
REMARK Flexibility Score: inf
ROOT
ATOM      1  C   UNL     1      -3.071  15.471 -26.923  1.00  0.00     0.180 A 
ATOM      2  C   UNL     1      -4.291  15.287 -26.242  1.00  0.00     0.208 A 
ATOM      3  C   UNL     1      -4.858  14.002 -26.204  1.00  0.00     0.238 A 
ATOM      4  O   UNL     1      -5.943  13.822 -25.588  1.00  0.00    -0.285 OA
ATOM      5  C   UNL     1      -4.211  12.936 -26.860  1.00  0.00     0.111 A 
ATOM      6  C   UNL     1      -4.718  11.613 -26.872  1.00  0.00     0.134 A 
ATOM      7  C   UNL     1      -4.020  10.607 -27.557  1.00  0.00     0.093 A 
ATOM      8  C   UNL     1      -2.827  10.897 -28.228  1.00  0.00     0.123 A 
ATOM      9  C   UNL     1      -2.323  12.200 -28.218  1.00  0.00     0.094 A 
ATOM     10  C   UNL     1      -3.003  13.216 -27.541  1.00  0.00     0.146 A 
ATOM     11  O   UNL     1      -2.499  14.444 -27.544  1.00  0.00    -0.452 OA
ENDROOT
BRANCH   1  12
ATOM     12  C   UNL     1      -2.401  16.791 -26.992  1.00  0.00     0.021 A 
ATOM     13  C   UNL     1      -1.359  17.130 -26.110  1.00  0.00     0.016 A 
ATOM     14  C   UNL     1      -0.726  18.373 -26.210  1.00  0.00     0.047 A 
ATOM     15  C   UNL     1      -1.115  19.283 -27.201  1.00  0.00     0.115 A 
ATOM     16  C   UNL     1      -2.770  17.702 -27.996  1.00  0.00     0.016 A 
ATOM     17  C   UNL     1      -2.135  18.943 -28.093  1.00  0.00     0.047 A 
BRANCH  15  18
ATOM     18  O   UNL     1      -0.490  20.524 -27.310  1.00  0.00    -0.508 OA
ATOM     19  H   UNL     1      -0.365  21.127 -26.505  1.00  0.00     0.293 HD
ENDBRANCH  15  18
ENDBRANCH   1  12
BRANCH   2  20
ATOM     20  O   UNL     1      -4.936  16.371 -25.642  1.00  0.00    -0.502 OA
ATOM     21  H   UNL     1      -4.595  16.801 -24.791  1.00  0.00     0.293 HD
ENDBRANCH   2  20
BRANCH   6  22
ATOM     22  O   UNL     1      -5.905  11.293 -26.214  1.00  0.00    -0.507 OA
ATOM     23  H   UNL     1      -6.415  10.441 -26.416  1.00  0.00     0.293 HD
ENDBRANCH   6  22
BRANCH   8  24
ATOM     24  O   UNL     1      -2.134   9.899 -28.909  1.00  0.00    -0.508 OA
ATOM     25  H   UNL     1      -1.351   9.415 -28.487  1.00  0.00     0.293 HD
ENDBRANCH   8  24
TORSDOF 5
ENDMDL
MODEL 4
REMARK VINA RESULT:    -5.453      3.698      6.138
REMARK INTER + INTRA:          -6.707
REMARK INTER:                  -6.409
REMARK INTRA:                  -0.298
REMARK UNBOUND:                -0.297
REMARK SMILES O=c1c(O)c(-c2ccc(O)cc2)oc2cc(O)cc(O)c12
REMARK SMILES IDX 5 1 3 2 2 3 1 4 21 5 19 6 18 7 16 8 15 9 14 10 13 11 6 12
REMARK SMILES IDX 7 13 8 14 9 15 12 16 11 17 10 18 4 20 20 22 17 24
REMARK H PARENT 10 19 4 21 20 23 17 25
REMARK Flexibility Score: inf
ROOT
ATOM      1  C   UNL     1      -4.605  15.062 -27.803  1.00  0.00     0.180 A 
ATOM      2  C   UNL     1      -3.481  15.904 -27.699  1.00  0.00     0.208 A 
ATOM      3  C   UNL     1      -3.514  17.160 -28.326  1.00  0.00     0.238 A 
ATOM      4  O   UNL     1      -2.519  17.927 -28.231  1.00  0.00    -0.285 OA
ATOM      5  C   UNL     1      -4.656  17.541 -29.060  1.00  0.00     0.111 A 
ATOM      6  C   UNL     1      -4.768  18.786 -29.725  1.00  0.00     0.134 A 
ATOM      7  C   UNL     1      -5.935  19.089 -30.444  1.00  0.00     0.093 A 
ATOM      8  C   UNL     1      -6.989  18.170 -30.510  1.00  0.00     0.123 A 
ATOM      9  C   UNL     1      -6.883  16.941 -29.856  1.00  0.00     0.094 A 
ATOM     10  C   UNL     1      -5.730  16.622 -29.133  1.00  0.00     0.146 A 
ATOM     11  O   UNL     1      -5.657  15.448 -28.517  1.00  0.00    -0.452 OA
ENDROOT
BRANCH   1  12
ATOM     12  C   UNL     1      -4.653  13.731 -27.153  1.00  0.00     0.021 A 
ATOM     13  C   UNL     1      -5.073  13.581 -25.819  1.00  0.00     0.016 A 
ATOM     14  C   UNL     1      -5.133  12.312 -25.235  1.00  0.00     0.047 A 
ATOM     15  C   UNL     1      -4.789  11.177 -25.981  1.00  0.00     0.115 A 
ATOM     16  C   UNL     1      -4.330  12.585 -27.900  1.00  0.00     0.016 A 
ATOM     17  C   UNL     1      -4.390  11.318 -27.313  1.00  0.00     0.047 A 
BRANCH  15  18
ATOM     18  O   UNL     1      -4.845   9.908 -25.409  1.00  0.00    -0.508 OA
ATOM     19  H   UNL     1      -5.720   9.406 -25.318  1.00  0.00     0.293 HD
ENDBRANCH  15  18
ENDBRANCH   1  12
BRANCH   2  20
ATOM     20  O   UNL     1      -2.343  15.482 -27.006  1.00  0.00    -0.502 OA
ATOM     21  H   UNL     1      -1.693  16.133 -26.583  1.00  0.00     0.293 HD
ENDBRANCH   2  20
BRANCH   6  22
ATOM     22  O   UNL     1      -3.734  19.721 -29.678  1.00  0.00    -0.507 OA
ATOM     23  H   UNL     1      -3.445  20.154 -28.809  1.00  0.00     0.293 HD
ENDBRANCH   6  22
BRANCH   8  24
ATOM     24  O   UNL     1      -8.147  18.470 -31.225  1.00  0.00    -0.508 OA
ATOM     25  H   UNL     1      -9.043  18.575 -30.764  1.00  0.00     0.293 HD
ENDBRANCH   8  24
TORSDOF 5
ENDMDL
MODEL 5
REMARK VINA RESULT:    -5.373      3.546      6.621
REMARK INTER + INTRA:          -6.613
REMARK INTER:                  -6.452
REMARK INTRA:                  -0.160
REMARK UNBOUND:                -0.297
REMARK SMILES O=c1c(O)c(-c2ccc(O)cc2)oc2cc(O)cc(O)c12
REMARK SMILES IDX 5 1 3 2 2 3 1 4 21 5 19 6 18 7 16 8 15 9 14 10 13 11 6 12
REMARK SMILES IDX 7 13 8 14 9 15 12 16 11 17 10 18 4 20 20 22 17 24
REMARK H PARENT 10 19 4 21 20 23 17 25
REMARK Flexibility Score: inf
ROOT
ATOM      1  C   UNL     1      -4.106  16.623 -28.301  1.00  0.00     0.180 A 
ATOM      2  C   UNL     1      -3.586  15.333 -28.519  1.00  0.00     0.208 A 
ATOM      3  C   UNL     1      -2.561  14.865 -27.680  1.00  0.00     0.238 A 
ATOM      4  O   UNL     1      -2.095  13.708 -27.858  1.00  0.00    -0.285 OA
ATOM      5  C   UNL     1      -2.063  15.698 -26.658  1.00  0.00     0.111 A 
ATOM      6  C   UNL     1      -1.029  15.304 -25.774  1.00  0.00     0.134 A 
ATOM      7  C   UNL     1      -0.581  16.195 -24.786  1.00  0.00     0.093 A 
ATOM      8  C   UNL     1      -1.146  17.470 -24.668  1.00  0.00     0.123 A 
ATOM      9  C   UNL     1      -2.165  17.863 -25.538  1.00  0.00     0.094 A 
ATOM     10  C   UNL     1      -2.627  16.989 -26.526  1.00  0.00     0.146 A 
ATOM     11  O   UNL     1      -3.601  17.387 -27.337  1.00  0.00    -0.452 OA
ENDROOT
BRANCH   1  12
ATOM     12  C   UNL     1      -5.201  17.181 -29.130  1.00  0.00     0.021 A 
ATOM     13  C   UNL     1      -6.486  16.609 -29.127  1.00  0.00     0.016 A 
ATOM     14  C   UNL     1      -7.509  17.167 -29.900  1.00  0.00     0.047 A 
ATOM     15  C   UNL     1      -7.264  18.310 -30.673  1.00  0.00     0.115 A 
ATOM     16  C   UNL     1      -4.969  18.338 -29.892  1.00  0.00     0.016 A 
ATOM     17  C   UNL     1      -5.994  18.894 -30.664  1.00  0.00     0.047 A 
BRANCH  15  18
ATOM     18  O   UNL     1      -8.276  18.874 -31.447  1.00  0.00    -0.508 OA
ATOM     19  H   UNL     1      -8.583  18.445 -32.311  1.00  0.00     0.293 HD
ENDBRANCH  15  18
ENDBRANCH   1  12
BRANCH   2  20
ATOM     20  O   UNL     1      -4.064  14.546 -29.570  1.00  0.00    -0.502 OA
ATOM     21  H   UNL     1      -4.801  13.864 -29.444  1.00  0.00     0.293 HD
ENDBRANCH   2  20
BRANCH   6  22
ATOM     22  O   UNL     1      -0.446  14.041 -25.868  1.00  0.00    -0.507 OA
ATOM     23  H   UNL     1      -0.802  13.249 -25.346  1.00  0.00     0.293 HD
ENDBRANCH   6  22
BRANCH   8  24
ATOM     24  O   UNL     1      -0.700  18.356 -23.689  1.00  0.00    -0.508 OA
ATOM     25  H   UNL     1      -1.083  18.347 -22.751  1.00  0.00     0.293 HD
ENDBRANCH   8  24
TORSDOF 5
ENDMDL
MODEL 6
REMARK VINA RESULT:    -5.165      3.517      4.389
REMARK INTER + INTRA:          -6.368
REMARK INTER:                  -6.142
REMARK INTRA:                  -0.226
REMARK UNBOUND:                -0.297
REMARK SMILES O=c1c(O)c(-c2ccc(O)cc2)oc2cc(O)cc(O)c12
REMARK SMILES IDX 5 1 3 2 2 3 1 4 21 5 19 6 18 7 16 8 15 9 14 10 13 11 6 12
REMARK SMILES IDX 7 13 8 14 9 15 12 16 11 17 10 18 4 20 20 22 17 24
REMARK H PARENT 10 19 4 21 20 23 17 25
REMARK Flexibility Score: inf
ROOT
ATOM      1  C   UNL     1      -5.051  15.646 -28.712  1.00  0.00     0.180 A 
ATOM      2  C   UNL     1      -5.413  15.310 -27.393  1.00  0.00     0.208 A 
ATOM      3  C   UNL     1      -5.110  14.025 -26.914  1.00  0.00     0.238 A 
ATOM      4  O   UNL     1      -5.418  13.716 -25.732  1.00  0.00    -0.285 OA
ATOM      5  C   UNL     1      -4.473  13.097 -27.763  1.00  0.00     0.111 A 
ATOM      6  C   UNL     1      -4.136  11.782 -27.359  1.00  0.00     0.134 A 
ATOM      7  C   UNL     1      -3.511  10.914 -28.267  1.00  0.00     0.093 A 
ATOM      8  C   UNL     1      -3.216  11.335 -29.569  1.00  0.00     0.123 A 
ATOM      9  C   UNL     1      -3.546  12.631 -29.971  1.00  0.00     0.094 A 
ATOM     10  C   UNL     1      -4.167  13.512 -29.081  1.00  0.00     0.146 A 
ATOM     11  O   UNL     1      -4.465  14.740 -29.489  1.00  0.00    -0.452 OA
ENDROOT
BRANCH   1  12
ATOM     12  C   UNL     1      -5.319  16.986 -29.284  1.00  0.00     0.021 A 
ATOM     13  C   UNL     1      -6.617  17.375 -29.664  1.00  0.00     0.016 A 
ATOM     14  C   UNL     1      -6.849  18.654 -30.179  1.00  0.00     0.047 A 
ATOM     15  C   UNL     1      -5.791  19.564 -30.307  1.00  0.00     0.115 A 
ATOM     16  C   UNL     1      -4.268  17.912 -29.396  1.00  0.00     0.016 A 
ATOM     17  C   UNL     1      -4.504  19.190 -29.912  1.00  0.00     0.047 A 
BRANCH  15  18
ATOM     18  O   UNL     1      -6.011  20.841 -30.819  1.00  0.00    -0.508 OA
ATOM     19  H   UNL     1      -5.748  21.671 -30.302  1.00  0.00     0.293 HD
ENDBRANCH  15  18
ENDBRANCH   1  12
BRANCH   2  20
ATOM     20  O   UNL     1      -6.088  16.231 -26.589  1.00  0.00    -0.502 OA
ATOM     21  H   UNL     1      -6.716  15.946 -25.848  1.00  0.00     0.293 HD
ENDBRANCH   2  20
BRANCH   6  22
ATOM     22  O   UNL     1      -4.418  11.333 -26.069  1.00  0.00    -0.507 OA
ATOM     23  H   UNL     1      -5.318  11.494 -25.633  1.00  0.00     0.293 HD
ENDBRANCH   6  22
BRANCH   8  24
ATOM     24  O   UNL     1      -2.597  10.473 -30.471  1.00  0.00    -0.508 OA
ATOM     25  H   UNL     1      -3.096   9.699 -30.893  1.00  0.00     0.293 HD
ENDBRANCH   8  24
TORSDOF 5
ENDMDL
MODEL 7
REMARK VINA RESULT:    -5.020      1.667      3.655
REMARK INTER + INTRA:          -6.198
REMARK INTER:                  -5.958
REMARK INTRA:                  -0.240
REMARK UNBOUND:                -0.297
REMARK SMILES O=c1c(O)c(-c2ccc(O)cc2)oc2cc(O)cc(O)c12
REMARK SMILES IDX 5 1 3 2 2 3 1 4 21 5 19 6 18 7 16 8 15 9 14 10 13 11 6 12
REMARK SMILES IDX 7 13 8 14 9 15 12 16 11 17 10 18 4 20 20 22 17 24
REMARK H PARENT 10 19 4 21 20 23 17 25
REMARK Flexibility Score: inf
ROOT
ATOM      1  C   UNL     1      -3.195  14.413 -27.218  1.00  0.00     0.180 A 
ATOM      2  C   UNL     1      -3.331  13.980 -28.551  1.00  0.00     0.208 A 
ATOM      3  C   UNL     1      -3.997  12.770 -28.806  1.00  0.00     0.238 A 
ATOM      4  O   UNL     1      -4.135  12.377 -29.996  1.00  0.00    -0.285 OA
ATOM      5  C   UNL     1      -4.494  12.008 -27.729  1.00  0.00     0.111 A 
ATOM      6  C   UNL     1      -5.173  10.777 -27.900  1.00  0.00     0.134 A 
ATOM      7  C   UNL     1      -5.630  10.073 -26.776  1.00  0.00     0.093 A 
ATOM      8  C   UNL     1      -5.421  10.575 -25.486  1.00  0.00     0.123 A 
ATOM      9  C   UNL     1      -4.752  11.789 -25.313  1.00  0.00     0.094 A 
ATOM     10  C   UNL     1      -4.291  12.507 -26.421  1.00  0.00     0.146 A 
ATOM     11  O   UNL     1      -3.663  13.660 -26.227  1.00  0.00    -0.452 OA
ENDROOT
BRANCH   1  12
ATOM     12  C   UNL     1      -2.523  15.687 -26.870  1.00  0.00     0.021 A 
ATOM     13  C   UNL     1      -3.145  16.929 -27.093  1.00  0.00     0.016 A 
ATOM     14  C   UNL     1      -2.500  18.116 -26.733  1.00  0.00     0.047 A 
ATOM     15  C   UNL     1      -1.234  18.077 -26.135  1.00  0.00     0.115 A 
ATOM     16  C   UNL     1      -1.262  15.655 -26.250  1.00  0.00     0.016 A 
ATOM     17  C   UNL     1      -0.620  16.844 -25.892  1.00  0.00     0.047 A 
BRANCH  15  18
ATOM     18  O   UNL     1      -0.583  19.254 -25.773  1.00  0.00    -0.508 OA
ATOM     19  H   UNL     1      -0.369  19.465 -24.806  1.00  0.00     0.293 HD
ENDBRANCH  15  18
ENDBRANCH   1  12
BRANCH   2  20
ATOM     20  O   UNL     1      -2.786  14.729 -29.597  1.00  0.00    -0.502 OA
ATOM     21  H   UNL     1      -1.831  14.609 -29.909  1.00  0.00     0.293 HD
ENDBRANCH   2  20
BRANCH   6  22
ATOM     22  O   UNL     1      -5.395  10.250 -29.172  1.00  0.00    -0.507 OA
ATOM     23  H   UNL     1      -6.329  10.056 -29.514  1.00  0.00     0.293 HD
ENDBRANCH   6  22
BRANCH   8  24
ATOM     24  O   UNL     1      -5.873   9.875 -24.370  1.00  0.00    -0.508 OA
ATOM     25  H   UNL     1      -6.859   9.812 -24.147  1.00  0.00     0.293 HD
ENDBRANCH   8  24
TORSDOF 5
ENDMDL
MODEL 8
REMARK VINA RESULT:    -5.020      2.491      6.889
REMARK INTER + INTRA:          -6.197
REMARK INTER:                  -5.901
REMARK INTRA:                  -0.297
REMARK UNBOUND:                -0.297
REMARK SMILES O=c1c(O)c(-c2ccc(O)cc2)oc2cc(O)cc(O)c12
REMARK SMILES IDX 5 1 3 2 2 3 1 4 21 5 19 6 18 7 16 8 15 9 14 10 13 11 6 12
REMARK SMILES IDX 7 13 8 14 9 15 12 16 11 17 10 18 4 20 20 22 17 24
REMARK H PARENT 10 19 4 21 20 23 17 25
REMARK Flexibility Score: inf
ROOT
ATOM      1  C   UNL     1      -2.363  15.589 -26.628  1.00  0.00     0.180 A 
ATOM      2  C   UNL     1      -1.439  15.824 -25.591  1.00  0.00     0.208 A 
ATOM      3  C   UNL     1      -0.901  17.112 -25.441  1.00  0.00     0.238 A 
ATOM      4  O   UNL     1      -0.082  17.337 -24.510  1.00  0.00    -0.285 OA
ATOM      5  C   UNL     1      -1.277  18.132 -26.338  1.00  0.00     0.111 A 
ATOM      6  C   UNL     1      -0.778  19.455 -26.258  1.00  0.00     0.134 A 
ATOM      7  C   UNL     1      -1.194  20.414 -27.195  1.00  0.00     0.093 A 
ATOM      8  C   UNL     1      -2.098  20.074 -28.208  1.00  0.00     0.123 A 
ATOM      9  C   UNL     1      -2.593  18.771 -28.290  1.00  0.00     0.094 A 
ATOM     10  C   UNL     1      -2.192  17.802 -27.366  1.00  0.00     0.146 A 
ATOM     11  O   UNL     1      -2.682  16.572 -27.464  1.00  0.00    -0.452 OA
ENDROOT
BRANCH   1  12
ATOM     12  C   UNL     1      -2.989  14.263 -26.839  1.00  0.00     0.021 A 
ATOM     13  C   UNL     1      -4.149  13.880 -26.141  1.00  0.00     0.016 A 
ATOM     14  C   UNL     1      -4.735  12.633 -26.374  1.00  0.00     0.047 A 
ATOM     15  C   UNL     1      -4.178  11.759 -27.318  1.00  0.00     0.115 A 
ATOM     16  C   UNL     1      -2.450  13.389 -27.798  1.00  0.00     0.016 A 
ATOM     17  C   UNL     1      -3.038  12.142 -28.029  1.00  0.00     0.047 A 
BRANCH  15  18
ATOM     18  O   UNL     1      -4.754  10.514 -27.559  1.00  0.00    -0.508 OA
ATOM     19  H   UNL     1      -5.739  10.345 -27.395  1.00  0.00     0.293 HD
ENDBRANCH  15  18
ENDBRANCH   1  12
BRANCH   2  20
ATOM     20  O   UNL     1      -1.046  14.782 -24.746  1.00  0.00    -0.502 OA
ATOM     21  H   UNL     1      -1.458  14.641 -23.833  1.00  0.00     0.293 HD
ENDBRANCH   2  20
BRANCH   6  22
ATOM     22  O   UNL     1       0.125  19.824 -25.261  1.00  0.00    -0.507 OA
ATOM     23  H   UNL     1       1.076  20.096 -25.477  1.00  0.00     0.293 HD
ENDBRANCH   6  22
BRANCH   8  24
ATOM     24  O   UNL     1      -2.510  21.025 -29.140  1.00  0.00    -0.508 OA
ATOM     25  H   UNL     1      -2.088  21.945 -29.181  1.00  0.00     0.293 HD
ENDBRANCH   8  24
TORSDOF 5
ENDMDL
MODEL 9
REMARK VINA RESULT:    -4.681      2.263      3.496
REMARK INTER + INTRA:          -5.799
REMARK INTER:                  -5.509
REMARK INTRA:                  -0.290
REMARK UNBOUND:                -0.297
REMARK SMILES O=c1c(O)c(-c2ccc(O)cc2)oc2cc(O)cc(O)c12
REMARK SMILES IDX 5 1 3 2 2 3 1 4 21 5 19 6 18 7 16 8 15 9 14 10 13 11 6 12
REMARK SMILES IDX 7 13 8 14 9 15 12 16 11 17 10 18 4 20 20 22 17 24
REMARK H PARENT 10 19 4 21 20 23 17 25
REMARK Flexibility Score: inf
ROOT
ATOM      1  C   UNL     1      -1.929  14.437 -26.468  1.00  0.00     0.180 A 
ATOM      2  C   UNL     1      -1.194  13.641 -27.368  1.00  0.00     0.208 A 
ATOM      3  C   UNL     1      -1.730  12.409 -27.777  1.00  0.00     0.238 A 
ATOM      4  O   UNL     1      -1.088  11.693 -28.591  1.00  0.00    -0.285 OA
ATOM      5  C   UNL     1      -2.974  11.987 -27.265  1.00  0.00     0.111 A 
ATOM      6  C   UNL     1      -3.581  10.758 -27.622  1.00  0.00     0.134 A 
ATOM      7  C   UNL     1      -4.818  10.404 -27.062  1.00  0.00     0.093 A 
ATOM      8  C   UNL     1      -5.457  11.254 -26.152  1.00  0.00     0.123 A 
ATOM      9  C   UNL     1      -4.862  12.466 -25.796  1.00  0.00     0.094 A 
ATOM     10  C   UNL     1      -3.632  12.838 -26.345  1.00  0.00     0.146 A 
ATOM     11  O   UNL     1      -3.091  13.998 -25.994  1.00  0.00    -0.452 OA
ENDROOT
BRANCH   1  12
ATOM     12  C   UNL     1      -1.440  15.757 -26.005  1.00  0.00     0.021 A 
ATOM     13  C   UNL     1      -0.600  15.874 -24.882  1.00  0.00     0.016 A 
ATOM     14  C   UNL     1      -0.132  17.129 -24.479  1.00  0.00     0.047 A 
ATOM     15  C   UNL     1      -0.485  18.277 -25.199  1.00  0.00     0.115 A 
ATOM     16  C   UNL     1      -1.772  16.911 -26.733  1.00  0.00     0.016 A 
ATOM     17  C   UNL     1      -1.302  18.163 -26.327  1.00  0.00     0.047 A 
BRANCH  15  18
ATOM     18  O   UNL     1      -0.024  19.532 -24.806  1.00  0.00    -0.508 OA
ATOM     19  H   UNL     1       0.587  20.081 -25.398  1.00  0.00     0.293 HD
ENDBRANCH  15  18
ENDBRANCH   1  12
BRANCH   2  20
ATOM     20  O   UNL     1       0.059  14.061 -27.823  1.00  0.00    -0.502 OA
ATOM     21  H   UNL     1       0.904  13.926 -27.282  1.00  0.00     0.293 HD
ENDBRANCH   2  20
BRANCH   6  22
ATOM     22  O   UNL     1      -2.968   9.890 -28.526  1.00  0.00    -0.507 OA
ATOM     23  H   UNL     1      -2.826   8.910 -28.311  1.00  0.00     0.293 HD
ENDBRANCH   6  22
BRANCH   8  24
ATOM     24  O   UNL     1      -6.684  10.901 -25.593  1.00  0.00    -0.508 OA
ATOM     25  H   UNL     1      -7.103  11.445 -24.848  1.00  0.00     0.293 HD
ENDBRANCH   8  24
TORSDOF 5
ENDMDL
