MODEL 1
REMARK VINA RESULT:    -3.461      0.000      0.000
REMARK INTER + INTRA:          -4.257
REMARK INTER:                  -4.169
REMARK INTRA:                  -0.088
REMARK UNBOUND:                -0.088
REMARK SMILES CC[C@H](C)[C@H]([NH3+])C(=O)[O-]
REMARK SMILES IDX 3 1 4 2 5 3 6 4 7 8 8 9 9 10 2 11 1 12
REMARK H PARENT 6 5 6 6 6 7
REMARK Flexibility Score: inf
ROOT
ATOM      1  C   UNL     1       1.350  12.478  -5.101  1.00  0.00     0.050 C 
ATOM      2  C   UNL     1       1.031  13.938  -5.476  1.00  0.00     0.014 C 
ENDROOT
BRANCH   1   3
ATOM      3  C   UNL     1       0.384  11.906  -4.015  1.00  0.00     0.230 C 
BRANCH   3   4
ATOM      4  N   UNL     1       0.181  12.851  -2.907  1.00  0.00    -0.350 N 
ATOM      5  H   UNL     1       0.663  13.753  -3.126  1.00  0.00     0.345 HD
ATOM      6  H   UNL     1       0.598  12.467  -2.027  1.00  0.00     0.345 HD
ATOM      7  H   UNL     1      -0.833  13.049  -2.750  1.00  0.00     0.345 HD
ENDBRANCH   3   4
BRANCH   3   8
ATOM      8  C   UNL     1       0.820  10.556  -3.494  1.00  0.00     0.099 C 
ATOM      9  O   UNL     1       0.747   9.530  -4.220  1.00  0.00    -0.544 OA
ATOM     10  O   UNL     1       1.280  10.437  -2.189  1.00  0.00    -0.544 OA
ENDBRANCH   3   8
ENDBRANCH   1   3
BRANCH   1  11
ATOM     11  C   UNL     1       2.844  12.365  -4.701  1.00  0.00     0.006 C 
ATOM     12  C   UNL     1       3.800  12.887  -5.776  1.00  0.00     0.004 C 
ENDBRANCH   1  11
TORSDOF 4
ENDMDL
MODEL 2
REMARK VINA RESULT:    -3.374      1.694      2.060
REMARK INTER + INTRA:          -4.153
REMARK INTER:                  -4.062
REMARK INTRA:                  -0.091
REMARK UNBOUND:                -0.088
REMARK SMILES CC[C@H](C)[C@H]([NH3+])C(=O)[O-]
REMARK SMILES IDX 3 1 4 2 5 3 6 4 7 8 8 9 9 10 2 11 1 12
REMARK H PARENT 6 5 6 6 6 7
REMARK Flexibility Score: inf
ROOT
ATOM      1  C   UNL     1       0.563  12.132  -3.841  1.00  0.00     0.050 C 
ATOM      2  C   UNL     1       0.230  13.391  -3.017  1.00  0.00     0.014 C 
ENDROOT
BRANCH   1   3
ATOM      3  C   UNL     1       1.594  11.197  -3.132  1.00  0.00     0.230 C 
BRANCH   3   4
ATOM      4  N   UNL     1       2.944  11.339  -3.698  1.00  0.00    -0.350 N 
ATOM      5  H   UNL     1       3.222  12.348  -3.688  1.00  0.00     0.345 HD
ATOM      6  H   UNL     1       2.954  11.011  -4.691  1.00  0.00     0.345 HD
ATOM      7  H   UNL     1       3.651  10.799  -3.149  1.00  0.00     0.345 HD
ENDBRANCH   3   4
BRANCH   3   8
ATOM      8  C   UNL     1       1.167   9.749  -3.126  1.00  0.00     0.099 C 
ATOM      9  O   UNL     1       0.954   9.134  -4.205  1.00  0.00    -0.544 OA
ATOM     10  O   UNL     1       0.977   9.090  -1.918  1.00  0.00    -0.544 OA
ENDBRANCH   3   8
ENDBRANCH   1   3
BRANCH   1  11
ATOM     11  C   UNL     1       1.007  12.553  -5.265  1.00  0.00     0.006 C 
ATOM     12  C   UNL     1       1.104  14.070  -5.446  1.00  0.00     0.004 C 
ENDBRANCH   1  11
TORSDOF 4
ENDMDL
MODEL 3
REMARK VINA RESULT:    -3.348      1.484      2.207
REMARK INTER + INTRA:          -4.121
REMARK INTER:                  -4.042
REMARK INTRA:                  -0.079
REMARK UNBOUND:                -0.088
REMARK SMILES CC[C@H](C)[C@H]([NH3+])C(=O)[O-]
REMARK SMILES IDX 3 1 4 2 5 3 6 4 7 8 8 9 9 10 2 11 1 12
REMARK H PARENT 6 5 6 6 6 7
REMARK Flexibility Score: inf
ROOT
ATOM      1  C   UNL     1       1.808  12.146  -4.223  1.00  0.00     0.050 C 
ATOM      2  C   UNL     1       3.315  12.185  -4.537  1.00  0.00     0.014 C 
ENDROOT
BRANCH   1   3
ATOM      3  C   UNL     1       1.253  10.692  -4.089  1.00  0.00     0.230 C 
BRANCH   3   4
ATOM      4  N   UNL     1      -0.031  10.527  -4.788  1.00  0.00    -0.350 N 
ATOM      5  H   UNL     1      -0.715  11.234  -4.432  1.00  0.00     0.345 HD
ATOM      6  H   UNL     1      -0.422   9.575  -4.602  1.00  0.00     0.345 HD
ATOM      7  H   UNL     1       0.072  10.662  -5.820  1.00  0.00     0.345 HD
ENDBRANCH   3   4
BRANCH   3   8
ATOM      8  C   UNL     1       1.142  10.236  -2.654  1.00  0.00     0.099 C 
ATOM      9  O   UNL     1       1.226  11.060  -1.706  1.00  0.00    -0.544 OA
ATOM     10  O   UNL     1       0.972   8.886  -2.370  1.00  0.00    -0.544 OA
ENDBRANCH   3   8
ENDBRANCH   1   3
BRANCH   1  11
ATOM     11  C   UNL     1       1.042  12.992  -5.273  1.00  0.00     0.006 C 
ATOM     12  C   UNL     1       1.771  14.279  -5.662  1.00  0.00     0.004 C 
ENDBRANCH   1  11
TORSDOF 4
ENDMDL
MODEL 4
REMARK VINA RESULT:    -3.335      2.036      3.331
REMARK INTER + INTRA:          -4.106
REMARK INTER:                  -3.959
REMARK INTRA:                  -0.147
REMARK UNBOUND:                -0.088
REMARK SMILES CC[C@H](C)[C@H]([NH3+])C(=O)[O-]
REMARK SMILES IDX 3 1 4 2 5 3 6 4 7 8 8 9 9 10 2 11 1 12
REMARK H PARENT 6 5 6 6 6 7
REMARK Flexibility Score: inf
ROOT
ATOM      1  C   UNL     1       2.746  10.665  -3.457  1.00  0.00     0.050 C 
ATOM      2  C   UNL     1       4.149  11.304  -3.446  1.00  0.00     0.014 C 
ENDROOT
BRANCH   1   3
ATOM      3  C   UNL     1       1.598  11.723  -3.419  1.00  0.00     0.230 C 
BRANCH   3   4
ATOM      4  N   UNL     1       0.943  11.776  -2.103  1.00  0.00    -0.350 N 
ATOM      5  H   UNL     1       0.906  10.814  -1.694  1.00  0.00     0.345 HD
ATOM      6  H   UNL     1      -0.038  12.124  -2.203  1.00  0.00     0.345 HD
ATOM      7  H   UNL     1       1.462  12.395  -1.439  1.00  0.00     0.345 HD
ENDBRANCH   3   4
BRANCH   3   8
ATOM      8  C   UNL     1       0.578  11.522  -4.515  1.00  0.00     0.099 C 
ATOM      9  O   UNL     1      -0.245  10.570  -4.465  1.00  0.00    -0.544 OA
ATOM     10  O   UNL     1       0.561  12.381  -5.608  1.00  0.00    -0.544 OA
ENDBRANCH   3   8
ENDBRANCH   1   3
BRANCH   1  11
ATOM     11  C   UNL     1       2.647   9.623  -2.315  1.00  0.00     0.006 C 
ATOM     12  C   UNL     1       1.914   8.343  -2.724  1.00  0.00     0.004 C 
ENDBRANCH   1  11
TORSDOF 4
ENDMDL
MODEL 5
REMARK VINA RESULT:    -3.307      2.185      2.428
REMARK INTER + INTRA:          -4.072
REMARK INTER:                  -3.994
REMARK INTRA:                  -0.078
REMARK UNBOUND:                -0.088
REMARK SMILES CC[C@H](C)[C@H]([NH3+])C(=O)[O-]
REMARK SMILES IDX 3 1 4 2 5 3 6 4 7 8 8 9 9 10 2 11 1 12
REMARK H PARENT 6 5 6 6 6 7
REMARK Flexibility Score: inf
ROOT
ATOM      1  C   UNL     1       2.629  11.738  -4.099  1.00  0.00     0.050 C 
ATOM      2  C   UNL     1       2.154  12.986  -3.331  1.00  0.00     0.014 C 
ENDROOT
BRANCH   1   3
ATOM      3  C   UNL     1       2.599  10.441  -3.229  1.00  0.00     0.230 C 
BRANCH   3   4
ATOM      4  N   UNL     1       3.611   9.465  -3.662  1.00  0.00    -0.350 N 
ATOM      5  H   UNL     1       4.549   9.751  -3.296  1.00  0.00     0.345 HD
ATOM      6  H   UNL     1       3.664   9.441  -4.706  1.00  0.00     0.345 HD
ATOM      7  H   UNL     1       3.399   8.506  -3.305  1.00  0.00     0.345 HD
ENDBRANCH   3   4
BRANCH   3   8
ATOM      8  C   UNL     1       1.231   9.803  -3.173  1.00  0.00     0.099 C 
ATOM      9  O   UNL     1       0.931   8.998  -2.252  1.00  0.00    -0.544 OA
ATOM     10  O   UNL     1       0.299  10.083  -4.164  1.00  0.00    -0.544 OA
ENDBRANCH   3   8
ENDBRANCH   1   3
BRANCH   1  11
ATOM     11  C   UNL     1       4.022  12.017  -4.721  1.00  0.00     0.006 C 
ATOM     12  C   UNL     1       3.956  12.850  -6.004  1.00  0.00     0.004 C 
ENDBRANCH   1  11
TORSDOF 4
ENDMDL
MODEL 6
REMARK VINA RESULT:    -3.304     14.788     15.518
REMARK INTER + INTRA:          -4.068
REMARK INTER:                  -4.000
REMARK INTRA:                  -0.068
REMARK UNBOUND:                -0.088
REMARK SMILES CC[C@H](C)[C@H]([NH3+])C(=O)[O-]
REMARK SMILES IDX 3 1 4 2 5 3 6 4 7 8 8 9 9 10 2 11 1 12
REMARK H PARENT 6 5 6 6 6 7
REMARK Flexibility Score: inf
ROOT
ATOM      1  C   UNL     1       5.634   6.513 -18.091  1.00  0.00     0.050 C 
ATOM      2  C   UNL     1       6.657   6.002 -19.125  1.00  0.00     0.014 C 
ENDROOT
BRANCH   1   3
ATOM      3  C   UNL     1       4.686   7.612 -18.668  1.00  0.00     0.230 C 
BRANCH   3   4
ATOM      4  N   UNL     1       4.642   8.805 -17.809  1.00  0.00    -0.350 N 
ATOM      5  H   UNL     1       5.180   8.622 -16.931  1.00  0.00     0.345 HD
ATOM      6  H   UNL     1       3.653   9.021 -17.545  1.00  0.00     0.345 HD
ATOM      7  H   UNL     1       5.062   9.637 -18.283  1.00  0.00     0.345 HD
ENDBRANCH   3   4
BRANCH   3   8
ATOM      8  C   UNL     1       3.292   7.099 -18.943  1.00  0.00     0.099 C 
ATOM      9  O   UNL     1       2.314   7.890 -19.007  1.00  0.00    -0.544 OA
ATOM     10  O   UNL     1       3.077   5.736 -19.099  1.00  0.00    -0.544 OA
ENDBRANCH   3   8
ENDBRANCH   1   3
BRANCH   1  11
ATOM     11  C   UNL     1       6.381   6.968 -16.812  1.00  0.00     0.006 C 
ATOM     12  C   UNL     1       7.813   7.436 -17.080  1.00  0.00     0.004 C 
ENDBRANCH   1  11
TORSDOF 4
ENDMDL
MODEL 7
REMARK VINA RESULT:    -3.187      2.393      3.059
REMARK INTER + INTRA:          -3.927
REMARK INTER:                  -3.814
REMARK INTRA:                  -0.113
REMARK UNBOUND:                -0.088
REMARK SMILES CC[C@H](C)[C@H]([NH3+])C(=O)[O-]
REMARK SMILES IDX 3 1 4 2 5 3 6 4 7 8 8 9 9 10 2 11 1 12
REMARK H PARENT 6 5 6 6 6 7
REMARK Flexibility Score: inf
ROOT
ATOM      1  C   UNL     1       1.739  11.258  -4.062  1.00  0.00     0.050 C 
ATOM      2  C   UNL     1       0.319  10.795  -4.440  1.00  0.00     0.014 C 
ENDROOT
BRANCH   1   3
ATOM      3  C   UNL     1       2.417  10.331  -3.003  1.00  0.00     0.230 C 
BRANCH   3   4
ATOM      4  N   UNL     1       3.196   9.255  -3.634  1.00  0.00    -0.350 N 
ATOM      5  H   UNL     1       3.991   9.670  -4.173  1.00  0.00     0.345 HD
ATOM      6  H   UNL     1       2.595   8.721  -4.304  1.00  0.00     0.345 HD
ATOM      7  H   UNL     1       3.589   8.597  -2.924  1.00  0.00     0.345 HD
ENDBRANCH   3   4
BRANCH   3   8
ATOM      8  C   UNL     1       1.436   9.765  -2.004  1.00  0.00     0.099 C 
ATOM      9  O   UNL     1       1.021  10.462  -1.040  1.00  0.00    -0.544 OA
ATOM     10  O   UNL     1       1.005   8.451  -2.129  1.00  0.00    -0.544 OA
ENDBRANCH   3   8
ENDBRANCH   1   3
BRANCH   1  11
ATOM     11  C   UNL     1       1.695  12.745  -3.625  1.00  0.00     0.006 C 
ATOM     12  C   UNL     1       0.296  13.217  -3.220  1.00  0.00     0.004 C 
ENDBRANCH   1  11
TORSDOF 4
ENDMDL
MODEL 8
REMARK VINA RESULT:    -3.186      1.281      2.162
REMARK INTER + INTRA:          -3.926
REMARK INTER:                  -3.815
REMARK INTRA:                  -0.111
REMARK UNBOUND:                -0.088
REMARK SMILES CC[C@H](C)[C@H]([NH3+])C(=O)[O-]
REMARK SMILES IDX 3 1 4 2 5 3 6 4 7 8 8 9 9 10 2 11 1 12
REMARK H PARENT 6 5 6 6 6 7
REMARK Flexibility Score: inf
ROOT
ATOM      1  C   UNL     1       2.547  11.848  -3.485  1.00  0.00     0.050 C 
ATOM      2  C   UNL     1       3.633  10.755  -3.474  1.00  0.00     0.014 C 
ENDROOT
BRANCH   1   3
ATOM      3  C   UNL     1       1.168  11.339  -2.955  1.00  0.00     0.230 C 
BRANCH   3   4
ATOM      4  N   UNL     1       0.961  11.685  -1.541  1.00  0.00    -0.350 N 
ATOM      5  H   UNL     1      -0.042  11.530  -1.287  1.00  0.00     0.345 HD
ATOM      6  H   UNL     1       1.183  12.695  -1.382  1.00  0.00     0.345 HD
ATOM      7  H   UNL     1       1.554  11.099  -0.910  1.00  0.00     0.345 HD
ENDBRANCH   3   4
BRANCH   3   8
ATOM      8  C   UNL     1       0.963   9.860  -3.179  1.00  0.00     0.099 C 
ATOM      9  O   UNL     1       0.719   9.408  -4.328  1.00  0.00    -0.544 OA
ATOM     10  O   UNL     1       1.017   8.986  -2.100  1.00  0.00    -0.544 OA
ENDBRANCH   3   8
ENDBRANCH   1   3
BRANCH   1  11
ATOM     11  C   UNL     1       2.458  12.470  -4.903  1.00  0.00     0.006 C 
ATOM     12  C   UNL     1       1.052  12.953  -5.266  1.00  0.00     0.004 C 
ENDBRANCH   1  11
TORSDOF 4
ENDMDL
MODEL 9
REMARK VINA RESULT:    -3.155      2.539      3.696
REMARK INTER + INTRA:          -3.889
REMARK INTER:                  -3.809
REMARK INTRA:                  -0.080
REMARK UNBOUND:                -0.088
REMARK SMILES CC[C@H](C)[C@H]([NH3+])C(=O)[O-]
REMARK SMILES IDX 3 1 4 2 5 3 6 4 7 8 8 9 9 10 2 11 1 12
REMARK H PARENT 6 5 6 6 6 7
REMARK Flexibility Score: inf
ROOT
ATOM      1  C   UNL     1       2.165  10.696  -3.674  1.00  0.00     0.050 C 
ATOM      2  C   UNL     1       2.917  11.519  -2.611  1.00  0.00     0.014 C 
ENDROOT
BRANCH   1   3
ATOM      3  C   UNL     1       0.704  11.196  -3.907  1.00  0.00     0.230 C 
BRANCH   3   4
ATOM      4  N   UNL     1      -0.050  10.297  -4.794  1.00  0.00    -0.350 N 
ATOM      5  H   UNL     1      -0.527  10.860  -5.536  1.00  0.00     0.345 HD
ATOM      6  H   UNL     1      -0.785   9.789  -4.250  1.00  0.00     0.345 HD
ATOM      7  H   UNL     1       0.576   9.602  -5.260  1.00  0.00     0.345 HD
ENDBRANCH   3   4
BRANCH   3   8
ATOM      8  C   UNL     1       0.643  12.618  -4.412  1.00  0.00     0.099 C 
ATOM      9  O   UNL     1       0.311  13.562  -3.646  1.00  0.00    -0.544 OA
ATOM     10  O   UNL     1       0.930  12.890  -5.744  1.00  0.00    -0.544 OA
ENDBRANCH   3   8
ENDBRANCH   1   3
BRANCH   1  11
ATOM     11  C   UNL     1       2.239   9.192  -3.307  1.00  0.00     0.006 C 
ATOM     12  C   UNL     1       1.595   8.865  -1.957  1.00  0.00     0.004 C 
ENDBRANCH   1  11
TORSDOF 4
ENDMDL
