MODEL 1
REMARK VINA RESULT:    -3.992      0.000      0.000
REMARK INTER + INTRA:          -4.679
REMARK INTER:                  -4.575
REMARK INTRA:                  -0.104
REMARK UNBOUND:                -0.104
REMARK SMILES COc1cc(C(=O)[O-])ccc1O
REMARK SMILES IDX 5 1 9 2 4 3 10 4 3 5 11 6 6 7 7 8 8 9 2 10 1 11 12 12
REMARK H PARENT 12 13
REMARK Flexibility Score: inf
ROOT
ATOM      1  C   UNL     1      22.046 -32.649 -13.326  1.00  0.00     0.001 A 
ATOM      2  C   UNL     1      20.732 -32.719 -13.818  1.00  0.00     0.014 A 
ATOM      3  C   UNL     1      22.875 -31.589 -13.737  1.00  0.00     0.060 A 
ATOM      4  C   UNL     1      20.256 -31.750 -14.703  1.00  0.00     0.051 A 
ATOM      5  C   UNL     1      22.398 -30.610 -14.631  1.00  0.00     0.161 A 
ATOM      6  C   UNL     1      21.084 -30.696 -15.110  1.00  0.00     0.157 A 
ENDROOT
BRANCH   1   7
ATOM      7  C   UNL     1      22.554 -33.675 -12.387  1.00  0.00     0.072 C 
ATOM      8  O   UNL     1      23.754 -33.654 -12.003  1.00  0.00    -0.545 OA
ATOM      9  O   UNL     1      21.713 -34.675 -11.913  1.00  0.00    -0.545 OA
ENDBRANCH   1   7
BRANCH   5  10
ATOM     10  O   UNL     1      23.197 -29.538 -15.063  1.00  0.00    -0.493 OA
ATOM     11  C   UNL     1      23.516 -28.399 -14.271  1.00  0.00     0.278 C 
ENDBRANCH   5  10
BRANCH   6  12
ATOM     12  O   UNL     1      20.607 -29.730 -15.994  1.00  0.00    -0.504 OA
ATOM     13  H   UNL     1      21.236 -29.148 -16.534  1.00  0.00     0.293 HD
ENDBRANCH   6  12
TORSDOF 3
ENDMDL
MODEL 2
REMARK VINA RESULT:    -3.983      1.344      1.911
REMARK INTER + INTRA:          -4.669
REMARK INTER:                  -4.566
REMARK INTRA:                  -0.102
REMARK UNBOUND:                -0.104
REMARK SMILES COc1cc(C(=O)[O-])ccc1O
REMARK SMILES IDX 5 1 9 2 4 3 10 4 3 5 11 6 6 7 7 8 8 9 2 10 1 11 12 12
REMARK H PARENT 12 13
REMARK Flexibility Score: inf
ROOT
ATOM      1  C   UNL     1      22.489 -32.710 -13.139  1.00  0.00     0.001 A 
ATOM      2  C   UNL     1      21.481 -32.185 -13.964  1.00  0.00     0.014 A 
ATOM      3  C   UNL     1      23.741 -32.070 -13.095  1.00  0.00     0.060 A 
ATOM      4  C   UNL     1      21.719 -31.042 -14.731  1.00  0.00     0.051 A 
ATOM      5  C   UNL     1      23.985 -30.917 -13.869  1.00  0.00     0.161 A 
ATOM      6  C   UNL     1      22.966 -30.407 -14.686  1.00  0.00     0.157 A 
ENDROOT
BRANCH   1   7
ATOM      7  C   UNL     1      22.240 -33.921 -12.324  1.00  0.00     0.072 C 
ATOM      8  O   UNL     1      21.064 -34.261 -12.025  1.00  0.00    -0.545 OA
ATOM      9  O   UNL     1      23.300 -34.701 -11.878  1.00  0.00    -0.545 OA
ENDBRANCH   1   7
BRANCH   5  10
ATOM     10  O   UNL     1      25.222 -30.252 -13.851  1.00  0.00    -0.493 OA
ATOM     11  C   UNL     1      25.691 -29.450 -12.772  1.00  0.00     0.278 C 
ENDBRANCH   5  10
BRANCH   6  12
ATOM     12  O   UNL     1      23.202 -29.268 -15.452  1.00  0.00    -0.504 OA
ATOM     13  H   UNL     1      24.075 -28.758 -15.391  1.00  0.00     0.293 HD
ENDBRANCH   6  12
TORSDOF 3
ENDMDL
MODEL 3
REMARK VINA RESULT:    -3.891      1.604      4.117
REMARK INTER + INTRA:          -4.563
REMARK INTER:                  -4.481
REMARK INTRA:                  -0.082
REMARK UNBOUND:                -0.104
REMARK SMILES COc1cc(C(=O)[O-])ccc1O
REMARK SMILES IDX 5 1 9 2 4 3 10 4 3 5 11 6 6 7 7 8 8 9 2 10 1 11 12 12
REMARK H PARENT 12 13
REMARK Flexibility Score: inf
ROOT
ATOM      1  C   UNL     1      23.012 -29.851 -14.124  1.00  0.00     0.001 A 
ATOM      2  C   UNL     1      22.032 -29.542 -15.083  1.00  0.00     0.014 A 
ATOM      3  C   UNL     1      22.940 -31.079 -13.443  1.00  0.00     0.060 A 
ATOM      4  C   UNL     1      21.000 -30.443 -15.354  1.00  0.00     0.051 A 
ATOM      5  C   UNL     1      21.899 -31.991 -13.714  1.00  0.00     0.161 A 
ATOM      6  C   UNL     1      20.931 -31.665 -14.674  1.00  0.00     0.157 A 
ENDROOT
BRANCH   1   7
ATOM      7  C   UNL     1      24.108 -28.898 -13.835  1.00  0.00     0.072 C 
ATOM      8  O   UNL     1      24.025 -27.696 -14.203  1.00  0.00    -0.545 OA
ATOM      9  O   UNL     1      25.243 -29.316 -13.150  1.00  0.00    -0.545 OA
ENDBRANCH   1   7
BRANCH   5  10
ATOM     10  O   UNL     1      21.795 -33.226 -13.054  1.00  0.00    -0.493 OA
ATOM     11  C   UNL     1      22.840 -33.825 -12.294  1.00  0.00     0.278 C 
ENDBRANCH   5  10
BRANCH   6  12
ATOM     12  O   UNL     1      19.901 -32.563 -14.946  1.00  0.00    -0.504 OA
ATOM     13  H   UNL     1      20.080 -33.549 -15.089  1.00  0.00     0.293 HD
ENDBRANCH   6  12
TORSDOF 3
ENDMDL
MODEL 4
REMARK VINA RESULT:    -3.805      1.300      4.240
REMARK INTER + INTRA:          -4.464
REMARK INTER:                  -4.384
REMARK INTRA:                  -0.080
REMARK UNBOUND:                -0.104
REMARK SMILES COc1cc(C(=O)[O-])ccc1O
REMARK SMILES IDX 5 1 9 2 4 3 10 4 3 5 11 6 6 7 7 8 8 9 2 10 1 11 12 12
REMARK H PARENT 12 13
REMARK Flexibility Score: inf
ROOT
ATOM      1  C   UNL     1      21.953 -30.639 -14.887  1.00  0.00     0.001 A 
ATOM      2  C   UNL     1      20.670 -30.744 -15.449  1.00  0.00     0.014 A 
ATOM      3  C   UNL     1      22.327 -31.528 -13.863  1.00  0.00     0.060 A 
ATOM      4  C   UNL     1      19.777 -31.718 -14.995  1.00  0.00     0.051 A 
ATOM      5  C   UNL     1      21.428 -32.511 -13.402  1.00  0.00     0.161 A 
ATOM      6  C   UNL     1      20.152 -32.601 -13.975  1.00  0.00     0.157 A 
ENDROOT
BRANCH   1   7
ATOM      7  C   UNL     1      22.902 -29.609 -15.366  1.00  0.00     0.072 C 
ATOM      8  O   UNL     1      23.321 -28.712 -14.586  1.00  0.00    -0.545 OA
ATOM      9  O   UNL     1      23.345 -29.616 -16.683  1.00  0.00    -0.545 OA
ENDBRANCH   1   7
BRANCH   5  10
ATOM     10  O   UNL     1      21.766 -33.415 -12.382  1.00  0.00    -0.493 OA
ATOM     11  C   UNL     1      23.067 -33.960 -12.184  1.00  0.00     0.278 C 
ENDBRANCH   5  10
BRANCH   6  12
ATOM     12  O   UNL     1      19.259 -33.571 -13.524  1.00  0.00    -0.504 OA
ATOM     13  H   UNL     1      19.306 -34.529 -13.852  1.00  0.00     0.293 HD
ENDBRANCH   6  12
TORSDOF 3
ENDMDL
MODEL 5
REMARK VINA RESULT:    -3.796     15.454     17.524
REMARK INTER + INTRA:          -4.454
REMARK INTER:                  -4.370
REMARK INTRA:                  -0.084
REMARK UNBOUND:                -0.104
REMARK SMILES COc1cc(C(=O)[O-])ccc1O
REMARK SMILES IDX 5 1 9 2 4 3 10 4 3 5 11 6 6 7 7 8 8 9 2 10 1 11 12 12
REMARK H PARENT 12 13
REMARK Flexibility Score: inf
ROOT
ATOM      1  C   UNL     1      35.307 -20.609 -10.193  1.00  0.00     0.001 A 
ATOM      2  C   UNL     1      35.351 -21.365 -11.376  1.00  0.00     0.014 A 
ATOM      3  C   UNL     1      34.949 -21.242  -8.989  1.00  0.00     0.060 A 
ATOM      4  C   UNL     1      35.044 -22.727 -11.356  1.00  0.00     0.051 A 
ATOM      5  C   UNL     1      34.637 -22.616  -8.966  1.00  0.00     0.161 A 
ATOM      6  C   UNL     1      34.688 -23.354 -10.156  1.00  0.00     0.157 A 
ENDROOT
BRANCH   1   7
ATOM      7  C   UNL     1      35.633 -19.165 -10.211  1.00  0.00     0.072 C 
ATOM      8  O   UNL     1      35.633 -18.521 -11.294  1.00  0.00    -0.545 OA
ATOM      9  O   UNL     1      35.942 -18.497  -9.031  1.00  0.00    -0.545 OA
ENDBRANCH   1   7
BRANCH   5  10
ATOM     10  O   UNL     1      34.276 -23.281  -7.783  1.00  0.00    -0.493 OA
ATOM     11  C   UNL     1      34.722 -22.914  -6.481  1.00  0.00     0.278 C 
ENDBRANCH   5  10
BRANCH   6  12
ATOM     12  O   UNL     1      34.381 -24.714 -10.139  1.00  0.00    -0.504 OA
ATOM     13  H   UNL     1      34.144 -25.193  -9.278  1.00  0.00     0.293 HD
ENDBRANCH   6  12
TORSDOF 3
ENDMDL
MODEL 6
REMARK VINA RESULT:    -3.731      2.170      3.611
REMARK INTER + INTRA:          -4.380
REMARK INTER:                  -4.279
REMARK INTRA:                  -0.101
REMARK UNBOUND:                -0.104
REMARK SMILES COc1cc(C(=O)[O-])ccc1O
REMARK SMILES IDX 5 1 9 2 4 3 10 4 3 5 11 6 6 7 7 8 8 9 2 10 1 11 12 12
REMARK H PARENT 12 13
REMARK Flexibility Score: inf
ROOT
ATOM      1  C   UNL     1      22.839 -30.272 -14.204  1.00  0.00     0.001 A 
ATOM      2  C   UNL     1      22.453 -31.501 -13.642  1.00  0.00     0.014 A 
ATOM      3  C   UNL     1      22.023 -29.683 -15.187  1.00  0.00     0.060 A 
ATOM      4  C   UNL     1      21.277 -32.128 -14.056  1.00  0.00     0.051 A 
ATOM      5  C   UNL     1      20.835 -30.314 -15.606  1.00  0.00     0.161 A 
ATOM      6  C   UNL     1      20.467 -31.540 -15.034  1.00  0.00     0.157 A 
ENDROOT
BRANCH   1   7
ATOM      7  C   UNL     1      24.086 -29.603 -13.768  1.00  0.00     0.072 C 
ATOM      8  O   UNL     1      24.141 -28.348 -13.677  1.00  0.00    -0.545 OA
ATOM      9  O   UNL     1      25.213 -30.351 -13.451  1.00  0.00    -0.545 OA
ENDBRANCH   1   7
BRANCH   5  10
ATOM     10  O   UNL     1      19.996 -29.756 -16.585  1.00  0.00    -0.493 OA
ATOM     11  C   UNL     1      20.247 -29.805 -17.986  1.00  0.00     0.278 C 
ENDBRANCH   5  10
BRANCH   6  12
ATOM     12  O   UNL     1      19.293 -32.168 -15.445  1.00  0.00    -0.504 OA
ATOM     13  H   UNL     1      19.104 -33.138 -15.223  1.00  0.00     0.293 HD
ENDBRANCH   6  12
TORSDOF 3
ENDMDL
MODEL 7
REMARK VINA RESULT:    -3.628      1.094      2.588
REMARK INTER + INTRA:          -4.262
REMARK INTER:                  -4.173
REMARK INTRA:                  -0.088
REMARK UNBOUND:                -0.104
REMARK SMILES COc1cc(C(=O)[O-])ccc1O
REMARK SMILES IDX 5 1 9 2 4 3 10 4 3 5 11 6 6 7 7 8 8 9 2 10 1 11 12 12
REMARK H PARENT 12 13
REMARK Flexibility Score: inf
ROOT
ATOM      1  C   UNL     1      22.461 -32.250 -13.477  1.00  0.00     0.001 A 
ATOM      2  C   UNL     1      23.731 -31.649 -13.524  1.00  0.00     0.014 A 
ATOM      3  C   UNL     1      21.448 -31.775 -14.330  1.00  0.00     0.060 A 
ATOM      4  C   UNL     1      23.982 -30.595 -14.405  1.00  0.00     0.051 A 
ATOM      5  C   UNL     1      21.698 -30.711 -15.219  1.00  0.00     0.161 A 
ATOM      6  C   UNL     1      22.971 -30.125 -15.252  1.00  0.00     0.157 A 
ENDROOT
BRANCH   1   7
ATOM      7  C   UNL     1      22.191 -33.368 -12.545  1.00  0.00     0.072 C 
ATOM      8  O   UNL     1      21.008 -33.683 -12.249  1.00  0.00    -0.545 OA
ATOM      9  O   UNL     1      23.240 -34.087 -11.984  1.00  0.00    -0.545 OA
ENDBRANCH   1   7
BRANCH   5  10
ATOM     10  O   UNL     1      20.711 -30.211 -16.084  1.00  0.00    -0.493 OA
ATOM     11  C   UNL     1      19.358 -29.969 -15.711  1.00  0.00     0.278 C 
ENDBRANCH   5  10
BRANCH   6  12
ATOM     12  O   UNL     1      23.224 -29.073 -16.129  1.00  0.00    -0.504 OA
ATOM     13  H   UNL     1      22.604 -28.867 -16.904  1.00  0.00     0.293 HD
ENDBRANCH   6  12
TORSDOF 3
ENDMDL
MODEL 8
REMARK VINA RESULT:    -3.624      3.014      3.996
REMARK INTER + INTRA:          -4.258
REMARK INTER:                  -4.178
REMARK INTRA:                  -0.079
REMARK UNBOUND:                -0.104
REMARK SMILES COc1cc(C(=O)[O-])ccc1O
REMARK SMILES IDX 5 1 9 2 4 3 10 4 3 5 11 6 6 7 7 8 8 9 2 10 1 11 12 12
REMARK H PARENT 12 13
REMARK Flexibility Score: inf
ROOT
ATOM      1  C   UNL     1      22.760 -29.870 -15.463  1.00  0.00     0.001 A 
ATOM      2  C   UNL     1      21.371 -30.036 -15.333  1.00  0.00     0.014 A 
ATOM      3  C   UNL     1      23.336 -29.900 -16.746  1.00  0.00     0.060 A 
ATOM      4  C   UNL     1      20.574 -30.229 -16.464  1.00  0.00     0.051 A 
ATOM      5  C   UNL     1      22.534 -30.095 -17.889  1.00  0.00     0.161 A 
ATOM      6  C   UNL     1      21.150 -30.259 -17.739  1.00  0.00     0.157 A 
ENDROOT
BRANCH   1   7
ATOM      7  C   UNL     1      23.608 -29.664 -14.267  1.00  0.00     0.072 C 
ATOM      8  O   UNL     1      23.466 -28.638 -13.550  1.00  0.00    -0.545 OA
ATOM      9  O   UNL     1      24.573 -30.602 -13.917  1.00  0.00    -0.545 OA
ENDBRANCH   1   7
BRANCH   5  10
ATOM     10  O   UNL     1      23.074 -30.132 -19.185  1.00  0.00    -0.493 OA
ATOM     11  C   UNL     1      24.225 -29.403 -19.600  1.00  0.00     0.278 C 
ENDBRANCH   5  10
BRANCH   6  12
ATOM     12  O   UNL     1      20.353 -30.452 -18.865  1.00  0.00    -0.504 OA
ATOM     13  H   UNL     1      20.681 -30.218 -19.795  1.00  0.00     0.293 HD
ENDBRANCH   6  12
TORSDOF 3
ENDMDL
MODEL 9
REMARK VINA RESULT:    -3.575      1.811      4.640
REMARK INTER + INTRA:          -4.201
REMARK INTER:                  -4.101
REMARK INTRA:                  -0.100
REMARK UNBOUND:                -0.104
REMARK SMILES COc1cc(C(=O)[O-])ccc1O
REMARK SMILES IDX 5 1 9 2 4 3 10 4 3 5 11 6 6 7 7 8 8 9 2 10 1 11 12 12
REMARK H PARENT 12 13
REMARK Flexibility Score: inf
ROOT
ATOM      1  C   UNL     1      22.649 -32.142 -13.512  1.00  0.00     0.001 A 
ATOM      2  C   UNL     1      23.345 -33.090 -12.743  1.00  0.00     0.014 A 
ATOM      3  C   UNL     1      21.244 -32.203 -13.566  1.00  0.00     0.060 A 
ATOM      4  C   UNL     1      22.651 -34.079 -12.042  1.00  0.00     0.051 A 
ATOM      5  C   UNL     1      20.541 -33.201 -12.861  1.00  0.00     0.161 A 
ATOM      6  C   UNL     1      21.253 -34.137 -12.099  1.00  0.00     0.157 A 
ENDROOT
BRANCH   1   7
ATOM      7  C   UNL     1      23.381 -31.092 -14.255  1.00  0.00     0.072 C 
ATOM      8  O   UNL     1      24.512 -30.699 -13.862  1.00  0.00    -0.545 OA
ATOM      9  O   UNL     1      22.831 -30.524 -15.399  1.00  0.00    -0.545 OA
ENDBRANCH   1   7
BRANCH   5  10
ATOM     10  O   UNL     1      19.140 -33.293 -12.892  1.00  0.00    -0.493 OA
ATOM     11  C   UNL     1      18.382 -33.680 -14.033  1.00  0.00     0.278 C 
ENDBRANCH   5  10
BRANCH   6  12
ATOM     12  O   UNL     1      20.563 -35.125 -11.399  1.00  0.00    -0.504 OA
ATOM     13  H   UNL     1      19.765 -35.601 -11.802  1.00  0.00     0.293 HD
ENDBRANCH   6  12
TORSDOF 3
ENDMDL
