MODEL 1
REMARK VINA RESULT:     9.460      0.000      0.000
REMARK INTER + INTRA:          12.054
REMARK INTER:                  12.778
REMARK INTRA:                  -0.724
REMARK UNBOUND:                -0.724
REMARK SMILES CC[C@H](CC[C@H](C)[C@H]1CC[C@H]2[C@H]3CC(=O)C4=CC(=O)CC[C@]4(C)[C@@H]3CC[C@]12C)C(C)C
REMARK SMILES IDX 4 1 3 2 2 3 1 4 29 5 30 6 31 7 5 8 6 9 7 10 8 11 9 12 27 13
REMARK SMILES IDX 10 14 11 15 26 16 28 17 12 18 25 19 24 20 13 21 22 22 14 23
REMARK SMILES IDX 16 24 21 25 23 26 15 27 17 28 20 29 18 30 19 31
REMARK H PARENT
REMARK Flexibility Score: inf
ROOT
ATOM      1  C   UNL     1      12.354  14.242  28.125  1.00  0.00     0.004 C 
ENDROOT
BRANCH   1   2
ATOM      2  C   UNL     1      11.063  14.395  27.265  1.00  0.00    -0.009 C 
BRANCH   2   3
ATOM      3  C   UNL     1      10.967  15.855  26.732  1.00  0.00     0.000 C 
ATOM      4  C   UNL     1      11.673  16.897  27.594  1.00  0.00     0.004 C 
ENDBRANCH   2   3
BRANCH   2   5
ATOM      5  C   UNL     1      10.875  13.320  26.122  1.00  0.00    -0.014 C 
ATOM      6  C   UNL     1      11.434  11.948  26.556  1.00  0.00     0.007 C 
ATOM      7  C   UNL     1      11.531  13.666  24.772  1.00  0.00     0.007 C 
ENDBRANCH   2   5
ENDBRANCH   1   2
BRANCH   1   8
ATOM      8  C   UNL     1      13.345  13.152  27.635  1.00  0.00     0.004 C 
BRANCH   8   9
ATOM      9  C   UNL     1      14.722  13.693  27.166  1.00  0.00    -0.011 C 
ATOM     10  C   UNL     1      15.861  13.060  27.994  1.00  0.00     0.008 C 
BRANCH   9  11
ATOM     11  C   UNL     1      14.815  15.261  27.153  1.00  0.00    -0.002 C 
ATOM     12  C   UNL     1      15.907  15.796  28.125  1.00  0.00     0.005 C 
ATOM     13  C   UNL     1      15.148  15.977  25.795  1.00  0.00    -0.026 C 
ATOM     14  C   UNL     1      16.463  17.096  27.526  1.00  0.00     0.005 C 
ATOM     15  C   UNL     1      15.566  17.361  26.329  1.00  0.00    -0.001 C 
ATOM     16  C   UNL     1      13.937  16.165  24.815  1.00  0.00     0.007 C 
ATOM     17  C   UNL     1      16.314  15.227  25.077  1.00  0.00     0.012 C 
ATOM     18  C   UNL     1      15.983  18.420  25.270  1.00  0.00     0.004 C 
ATOM     19  C   UNL     1      13.851  17.565  24.143  1.00  0.00     0.005 C 
ATOM     20  C   UNL     1      15.245  18.204  23.920  1.00  0.00     0.003 C 
ATOM     21  C   UNL     1      17.493  18.569  25.008  1.00  0.00     0.085 C 
ATOM     22  C   UNL     1      15.272  19.514  23.039  1.00  0.00    -0.000 C 
ATOM     23  C   UNL     1      17.736  19.595  23.930  1.00  0.00     0.159 C 
ATOM     24  C   UNL     1      16.593  20.271  23.259  1.00  0.00     0.005 C 
ATOM     25  C   UNL     1      14.088  20.467  23.380  1.00  0.00     0.020 C 
ATOM     26  C   UNL     1      15.195  19.108  21.543  1.00  0.00     0.017 C 
ATOM     27  O   UNL     1      18.921  19.914  23.641  1.00  0.00    -0.295 OA
ATOM     28  C   UNL     1      16.696  21.575  22.946  1.00  0.00     0.055 C 
ATOM     29  C   UNL     1      14.139  21.785  22.587  1.00  0.00     0.081 C 
ATOM     30  C   UNL     1      15.520  22.372  22.562  1.00  0.00     0.156 C 
ATOM     31  O   UNL     1      15.677  23.568  22.201  1.00  0.00    -0.295 OA
ENDBRANCH   9  11
ENDBRANCH   8   9
ENDBRANCH   1   8
TORSDOF 6
ENDMDL
