MODEL 1
REMARK VINA RESULT:    -7.115      0.000      0.000
REMARK INTER + INTRA:          -9.151
REMARK INTER:                  -8.779
REMARK INTRA:                  -0.372
REMARK UNBOUND:                -0.372
REMARK SMILES O=C1c2c(O)cc(O)cc2O[C@H](c2cc(O)c(O)c(O)c2)[C@@H]1O
REMARK SMILES IDX 12 1 22 2 2 3 1 4 3 5 4 6 6 7 7 8 9 9 10 10 11 11 13 12
REMARK SMILES IDX 14 13 15 14 21 15 17 16 19 17 16 18 18 20 20 22 23 24 5 26
REMARK SMILES IDX 8 28
REMARK H PARENT 16 19 18 21 20 23 23 25 5 27 8 29
REMARK Flexibility Score: inf
ROOT
ATOM      1  C   UNL     1     -14.588  43.336  32.370  1.00  0.00     0.240 C 
ATOM      2  C   UNL     1     -14.500  43.736  30.881  1.00  0.00     0.231 C 
ATOM      3  C   UNL     1     -13.059  43.977  30.518  1.00  0.00     0.202 C 
ATOM      4  O   UNL     1     -12.760  44.989  29.832  1.00  0.00    -0.291 OA
ATOM      5  C   UNL     1     -12.020  43.048  31.033  1.00  0.00     0.105 A 
ATOM      6  C   UNL     1     -10.712  42.938  30.489  1.00  0.00     0.133 A 
ATOM      7  C   UNL     1      -9.784  42.080  31.091  1.00  0.00     0.093 A 
ATOM      8  C   UNL     1     -10.149  41.283  32.182  1.00  0.00     0.123 A 
ATOM      9  C   UNL     1     -11.447  41.351  32.686  1.00  0.00     0.093 A 
ATOM     10  C   UNL     1     -12.377  42.231  32.129  1.00  0.00     0.138 A 
ATOM     11  O   UNL     1     -13.669  42.282  32.669  1.00  0.00    -0.481 OA
ENDROOT
BRANCH   1  12
ATOM     12  C   UNL     1     -15.996  42.945  32.760  1.00  0.00     0.003 A 
ATOM     13  C   UNL     1     -17.069  43.832  32.577  1.00  0.00     0.058 A 
ATOM     14  C   UNL     1     -18.362  43.473  32.974  1.00  0.00     0.161 A 
ATOM     15  C   UNL     1     -16.231  41.707  33.374  1.00  0.00     0.058 A 
ATOM     16  C   UNL     1     -18.600  42.227  33.570  1.00  0.00     0.200 A 
ATOM     17  C   UNL     1     -17.520  41.335  33.777  1.00  0.00     0.161 A 
BRANCH  14  18
ATOM     18  O   UNL     1     -19.424  44.355  32.780  1.00  0.00    -0.504 OA
ATOM     19  H   UNL     1     -20.334  44.032  32.470  1.00  0.00     0.293 HD
ENDBRANCH  14  18
BRANCH  16  20
ATOM     20  O   UNL     1     -19.910  41.917  33.944  1.00  0.00    -0.502 OA
ATOM     21  H   UNL     1     -20.728  42.383  33.579  1.00  0.00     0.293 HD
ENDBRANCH  16  20
BRANCH  17  22
ATOM     22  O   UNL     1     -17.677  40.083  34.374  1.00  0.00    -0.504 OA
ATOM     23  H   UNL     1     -18.546  39.750  34.767  1.00  0.00     0.293 HD
ENDBRANCH  17  22
ENDBRANCH   1  12
BRANCH   2  24
ATOM     24  O   UNL     1     -15.058  42.757  30.038  1.00  0.00    -0.381 OA
ATOM     25  H   UNL     1     -14.697  42.898  29.124  1.00  0.00     0.211 HD
ENDBRANCH   2  24
BRANCH   6  26
ATOM     26  O   UNL     1     -10.299  43.626  29.345  1.00  0.00    -0.507 OA
ATOM     27  H   UNL     1     -10.019  44.596  29.339  1.00  0.00     0.293 HD
ENDBRANCH   6  26
BRANCH   8  28
ATOM     28  O   UNL     1      -9.229  40.416  32.767  1.00  0.00    -0.508 OA
ATOM     29  H   UNL     1      -9.487  39.475  33.042  1.00  0.00     0.293 HD
ENDBRANCH   8  28
TORSDOF 7
ENDMDL
MODEL 2
REMARK VINA RESULT:    -6.946      0.126      1.758
REMARK INTER + INTRA:          -8.942
REMARK INTER:                  -8.640
REMARK INTRA:                  -0.301
REMARK UNBOUND:                -0.372
REMARK SMILES O=C1c2c(O)cc(O)cc2O[C@H](c2cc(O)c(O)c(O)c2)[C@@H]1O
REMARK SMILES IDX 12 1 22 2 2 3 1 4 3 5 4 6 6 7 7 8 9 9 10 10 11 11 13 12
REMARK SMILES IDX 14 13 15 14 21 15 17 16 19 17 16 18 18 20 20 22 23 24 5 26
REMARK SMILES IDX 8 28
REMARK H PARENT 16 19 18 21 20 23 23 25 5 27 8 29
REMARK Flexibility Score: inf
ROOT
ATOM      1  C   UNL     1     -14.573  43.375  32.392  1.00  0.00     0.240 C 
ATOM      2  C   UNL     1     -14.513  43.736  30.891  1.00  0.00     0.231 C 
ATOM      3  C   UNL     1     -13.077  43.951  30.493  1.00  0.00     0.202 C 
ATOM      4  O   UNL     1     -12.782  44.942  29.774  1.00  0.00    -0.291 OA
ATOM      5  C   UNL     1     -12.037  43.024  31.010  1.00  0.00     0.105 A 
ATOM      6  C   UNL     1     -10.743  42.887  30.442  1.00  0.00     0.133 A 
ATOM      7  C   UNL     1      -9.811  42.034  31.047  1.00  0.00     0.093 A 
ATOM      8  C   UNL     1     -10.160  41.270  32.166  1.00  0.00     0.123 A 
ATOM      9  C   UNL     1     -11.447  41.365  32.695  1.00  0.00     0.093 A 
ATOM     10  C   UNL     1     -12.379  42.240  32.134  1.00  0.00     0.138 A 
ATOM     11  O   UNL     1     -13.659  42.319  32.700  1.00  0.00    -0.481 OA
ENDROOT
BRANCH   1  12
ATOM     12  C   UNL     1     -15.977  43.010  32.822  1.00  0.00     0.003 A 
ATOM     13  C   UNL     1     -16.232  41.816  33.514  1.00  0.00     0.058 A 
ATOM     14  C   UNL     1     -17.540  41.472  33.876  1.00  0.00     0.161 A 
ATOM     15  C   UNL     1     -17.051  43.840  32.471  1.00  0.00     0.058 A 
ATOM     16  C   UNL     1     -18.612  42.310  33.541  1.00  0.00     0.200 A 
ATOM     17  C   UNL     1     -18.365  43.506  32.825  1.00  0.00     0.161 A 
BRANCH  14  18
ATOM     18  O   UNL     1     -17.785  40.288  34.571  1.00  0.00    -0.504 OA
ATOM     19  H   UNL     1     -17.811  39.390  34.100  1.00  0.00     0.293 HD
ENDBRANCH  14  18
BRANCH  16  20
ATOM     20  O   UNL     1     -19.896  41.921  33.929  1.00  0.00    -0.502 OA
ATOM     21  H   UNL     1     -20.563  41.474  33.316  1.00  0.00     0.293 HD
ENDBRANCH  16  20
BRANCH  17  22
ATOM     22  O   UNL     1     -19.382  44.385  32.448  1.00  0.00    -0.504 OA
ATOM     23  H   UNL     1     -19.761  45.102  33.049  1.00  0.00     0.293 HD
ENDBRANCH  17  22
ENDBRANCH   1  12
BRANCH   2  24
ATOM     24  O   UNL     1     -15.099  42.741  30.087  1.00  0.00    -0.381 OA
ATOM     25  H   UNL     1     -16.039  43.005  29.910  1.00  0.00     0.211 HD
ENDBRANCH   2  24
BRANCH   6  26
ATOM     26  O   UNL     1     -10.346  43.540  29.272  1.00  0.00    -0.507 OA
ATOM     27  H   UNL     1     -10.673  43.294  28.349  1.00  0.00     0.293 HD
ENDBRANCH   6  26
BRANCH   8  28
ATOM     28  O   UNL     1      -9.237  40.409  32.754  1.00  0.00    -0.508 OA
ATOM     29  H   UNL     1      -8.371  40.162  32.289  1.00  0.00     0.293 HD
ENDBRANCH   8  28
TORSDOF 7
ENDMDL
MODEL 3
REMARK VINA RESULT:    -6.790      1.800      3.570
REMARK INTER + INTRA:          -8.749
REMARK INTER:                  -8.364
REMARK INTRA:                  -0.385
REMARK UNBOUND:                -0.372
REMARK SMILES O=C1c2c(O)cc(O)cc2O[C@H](c2cc(O)c(O)c(O)c2)[C@@H]1O
REMARK SMILES IDX 12 1 22 2 2 3 1 4 3 5 4 6 6 7 7 8 9 9 10 10 11 11 13 12
REMARK SMILES IDX 14 13 15 14 21 15 17 16 19 17 16 18 18 20 20 22 23 24 5 26
REMARK SMILES IDX 8 28
REMARK H PARENT 16 19 18 21 20 23 23 25 5 27 8 29
REMARK Flexibility Score: inf
ROOT
ATOM      1  C   UNL     1     -14.107  42.128  30.769  1.00  0.00     0.240 C 
ATOM      2  C   UNL     1     -13.280  42.076  32.073  1.00  0.00     0.231 C 
ATOM      3  C   UNL     1     -11.863  41.688  31.744  1.00  0.00     0.202 C 
ATOM      4  O   UNL     1     -11.282  40.827  32.455  1.00  0.00    -0.291 OA
ATOM      5  C   UNL     1     -11.209  42.286  30.551  1.00  0.00     0.105 A 
ATOM      6  C   UNL     1      -9.805  42.299  30.337  1.00  0.00     0.133 A 
ATOM      7  C   UNL     1      -9.294  42.827  29.146  1.00  0.00     0.093 A 
ATOM      8  C   UNL     1     -10.144  43.399  28.193  1.00  0.00     0.123 A 
ATOM      9  C   UNL     1     -11.519  43.433  28.423  1.00  0.00     0.093 A 
ATOM     10  C   UNL     1     -12.055  42.875  29.584  1.00  0.00     0.138 A 
ATOM     11  O   UNL     1     -13.443  42.916  29.777  1.00  0.00    -0.481 OA
ENDROOT
BRANCH   1  12
ATOM     12  C   UNL     1     -15.506  42.648  31.017  1.00  0.00     0.003 A 
ATOM     13  C   UNL     1     -16.462  41.860  31.677  1.00  0.00     0.058 A 
ATOM     14  C   UNL     1     -17.764  42.338  31.869  1.00  0.00     0.161 A 
ATOM     15  C   UNL     1     -15.879  43.907  30.526  1.00  0.00     0.058 A 
ATOM     16  C   UNL     1     -18.131  43.604  31.394  1.00  0.00     0.200 A 
ATOM     17  C   UNL     1     -17.178  44.396  30.710  1.00  0.00     0.161 A 
BRANCH  14  18
ATOM     18  O   UNL     1     -18.706  41.553  32.533  1.00  0.00    -0.504 OA
ATOM     19  H   UNL     1     -19.678  41.530  32.243  1.00  0.00     0.293 HD
ENDBRANCH  14  18
BRANCH  16  20
ATOM     20  O   UNL     1     -19.442  44.034  31.617  1.00  0.00    -0.502 OA
ATOM     21  H   UNL     1     -19.736  44.999  31.576  1.00  0.00     0.293 HD
ENDBRANCH  16  20
BRANCH  17  22
ATOM     22  O   UNL     1     -17.474  45.662  30.200  1.00  0.00    -0.504 OA
ATOM     23  H   UNL     1     -17.705  45.842  29.234  1.00  0.00     0.293 HD
ENDBRANCH  17  22
ENDBRANCH   1  12
BRANCH   2  24
ATOM     24  O   UNL     1     -13.304  43.303  32.762  1.00  0.00    -0.381 OA
ATOM     25  H   UNL     1     -12.962  44.004  32.148  1.00  0.00     0.211 HD
ENDBRANCH   2  24
BRANCH   6  26
ATOM     26  O   UNL     1      -8.883  41.836  31.279  1.00  0.00    -0.507 OA
ATOM     27  H   UNL     1      -7.941  41.552  31.055  1.00  0.00     0.293 HD
ENDBRANCH   6  26
BRANCH   8  28
ATOM     28  O   UNL     1      -9.630  43.941  27.017  1.00  0.00    -0.508 OA
ATOM     29  H   UNL     1      -8.632  43.994  26.849  1.00  0.00     0.293 HD
ENDBRANCH   8  28
TORSDOF 7
ENDMDL
MODEL 4
REMARK VINA RESULT:    -6.754      1.849      3.224
REMARK INTER + INTRA:          -8.705
REMARK INTER:                  -8.350
REMARK INTRA:                  -0.355
REMARK UNBOUND:                -0.372
REMARK SMILES O=C1c2c(O)cc(O)cc2O[C@H](c2cc(O)c(O)c(O)c2)[C@@H]1O
REMARK SMILES IDX 12 1 22 2 2 3 1 4 3 5 4 6 6 7 7 8 9 9 10 10 11 11 13 12
REMARK SMILES IDX 14 13 15 14 21 15 17 16 19 17 16 18 18 20 20 22 23 24 5 26
REMARK SMILES IDX 8 28
REMARK H PARENT 16 19 18 21 20 23 23 25 5 27 8 29
REMARK Flexibility Score: inf
ROOT
ATOM      1  C   UNL     1     -14.101  42.063  30.643  1.00  0.00     0.240 C 
ATOM      2  C   UNL     1     -13.279  42.046  31.951  1.00  0.00     0.231 C 
ATOM      3  C   UNL     1     -11.858  41.661  31.636  1.00  0.00     0.202 C 
ATOM      4  O   UNL     1     -11.274  40.821  32.369  1.00  0.00    -0.291 OA
ATOM      5  C   UNL     1     -11.204  42.236  30.432  1.00  0.00     0.105 A 
ATOM      6  C   UNL     1      -9.800  42.254  30.223  1.00  0.00     0.133 A 
ATOM      7  C   UNL     1      -9.288  42.758  29.021  1.00  0.00     0.093 A 
ATOM      8  C   UNL     1     -10.138  43.302  28.052  1.00  0.00     0.123 A 
ATOM      9  C   UNL     1     -11.514  43.332  28.277  1.00  0.00     0.093 A 
ATOM     10  C   UNL     1     -12.051  42.796  29.448  1.00  0.00     0.138 A 
ATOM     11  O   UNL     1     -13.439  42.833  29.636  1.00  0.00    -0.481 OA
ENDROOT
BRANCH   1  12
ATOM     12  C   UNL     1     -15.505  42.578  30.874  1.00  0.00     0.003 A 
ATOM     13  C   UNL     1     -15.874  43.871  30.473  1.00  0.00     0.058 A 
ATOM     14  C   UNL     1     -17.166  44.350  30.723  1.00  0.00     0.161 A 
ATOM     15  C   UNL     1     -16.437  41.782  31.554  1.00  0.00     0.058 A 
ATOM     16  C   UNL     1     -18.103  43.546  31.387  1.00  0.00     0.200 A 
ATOM     17  C   UNL     1     -17.732  42.248  31.812  1.00  0.00     0.161 A 
BRANCH  14  18
ATOM     18  O   UNL     1     -17.529  45.632  30.313  1.00  0.00    -0.504 OA
ATOM     19  H   UNL     1     -16.862  46.260  29.878  1.00  0.00     0.293 HD
ENDBRANCH  14  18
BRANCH  16  20
ATOM     20  O   UNL     1     -19.379  44.071  31.607  1.00  0.00    -0.502 OA
ATOM     21  H   UNL     1     -20.226  43.520  31.608  1.00  0.00     0.293 HD
ENDBRANCH  16  20
BRANCH  17  22
ATOM     22  O   UNL     1     -18.606  41.395  32.488  1.00  0.00    -0.504 OA
ATOM     23  H   UNL     1     -19.538  41.172  32.168  1.00  0.00     0.293 HD
ENDBRANCH  17  22
ENDBRANCH   1  12
BRANCH   2  24
ATOM     24  O   UNL     1     -13.314  43.288  32.611  1.00  0.00    -0.381 OA
ATOM     25  H   UNL     1     -14.047  43.826  32.212  1.00  0.00     0.211 HD
ENDBRANCH   2  24
BRANCH   6  26
ATOM     26  O   UNL     1      -8.878  41.819  31.178  1.00  0.00    -0.507 OA
ATOM     27  H   UNL     1      -8.330  40.975  31.092  1.00  0.00     0.293 HD
ENDBRANCH   6  26
BRANCH   8  28
ATOM     28  O   UNL     1      -9.623  43.820  26.866  1.00  0.00    -0.508 OA
ATOM     29  H   UNL     1     -10.228  44.096  26.101  1.00  0.00     0.293 HD
ENDBRANCH   8  28
TORSDOF 7
ENDMDL
MODEL 5
REMARK VINA RESULT:    -6.716      2.697      7.348
REMARK INTER + INTRA:          -8.658
REMARK INTER:                  -8.278
REMARK INTRA:                  -0.380
REMARK UNBOUND:                -0.372
REMARK SMILES O=C1c2c(O)cc(O)cc2O[C@H](c2cc(O)c(O)c(O)c2)[C@@H]1O
REMARK SMILES IDX 12 1 22 2 2 3 1 4 3 5 4 6 6 7 7 8 9 9 10 10 11 11 13 12
REMARK SMILES IDX 14 13 15 14 21 15 17 16 19 17 16 18 18 20 20 22 23 24 5 26
REMARK SMILES IDX 8 28
REMARK H PARENT 16 19 18 21 20 23 23 25 5 27 8 29
REMARK Flexibility Score: inf
ROOT
ATOM      1  C   UNL     1     -11.772  43.408  30.479  1.00  0.00     0.240 C 
ATOM      2  C   UNL     1     -12.977  42.557  30.021  1.00  0.00     0.231 C 
ATOM      3  C   UNL     1     -13.764  42.124  31.229  1.00  0.00     0.202 C 
ATOM      4  O   UNL     1     -14.158  40.931  31.309  1.00  0.00    -0.291 OA
ATOM      5  C   UNL     1     -14.001  43.101  32.324  1.00  0.00     0.105 A 
ATOM      6  C   UNL     1     -15.004  42.952  33.318  1.00  0.00     0.133 A 
ATOM      7  C   UNL     1     -15.100  43.895  34.348  1.00  0.00     0.093 A 
ATOM      8  C   UNL     1     -14.262  45.015  34.374  1.00  0.00     0.123 A 
ATOM      9  C   UNL     1     -13.309  45.190  33.371  1.00  0.00     0.093 A 
ATOM     10  C   UNL     1     -13.166  44.240  32.358  1.00  0.00     0.138 A 
ATOM     11  O   UNL     1     -12.190  44.443  31.373  1.00  0.00    -0.481 OA
ENDROOT
BRANCH   1  12
ATOM     12  C   UNL     1     -11.020  43.989  29.302  1.00  0.00     0.003 A 
ATOM     13  C   UNL     1     -10.952  45.377  29.103  1.00  0.00     0.058 A 
ATOM     14  C   UNL     1     -10.283  45.902  27.990  1.00  0.00     0.161 A 
ATOM     15  C   UNL     1     -10.436  43.134  28.356  1.00  0.00     0.058 A 
ATOM     16  C   UNL     1      -9.683  45.047  27.056  1.00  0.00     0.200 A 
ATOM     17  C   UNL     1      -9.765  43.646  27.239  1.00  0.00     0.161 A 
BRANCH  14  18
ATOM     18  O   UNL     1     -10.211  47.282  27.804  1.00  0.00    -0.504 OA
ATOM     19  H   UNL     1     -10.759  47.923  28.368  1.00  0.00     0.293 HD
ENDBRANCH  14  18
BRANCH  16  20
ATOM     20  O   UNL     1      -9.025  45.624  25.966  1.00  0.00    -0.502 OA
ATOM     21  H   UNL     1      -8.806  45.132  25.112  1.00  0.00     0.293 HD
ENDBRANCH  16  20
BRANCH  17  22
ATOM     22  O   UNL     1      -9.202  42.733  26.345  1.00  0.00    -0.504 OA
ATOM     23  H   UNL     1      -9.426  41.748  26.327  1.00  0.00     0.293 HD
ENDBRANCH  17  22
ENDBRANCH   1  12
BRANCH   2  24
ATOM     24  O   UNL     1     -13.805  43.256  29.123  1.00  0.00    -0.381 OA
ATOM     25  H   UNL     1     -14.514  42.634  28.814  1.00  0.00     0.211 HD
ENDBRANCH   2  24
BRANCH   6  26
ATOM     26  O   UNL     1     -15.942  41.916  33.310  1.00  0.00    -0.507 OA
ATOM     27  H   UNL     1     -16.383  41.547  34.139  1.00  0.00     0.293 HD
ENDBRANCH   6  26
BRANCH   8  28
ATOM     28  O   UNL     1     -14.373  45.962  35.390  1.00  0.00    -0.508 OA
ATOM     29  H   UNL     1     -14.911  45.779  36.229  1.00  0.00     0.293 HD
ENDBRANCH   8  28
TORSDOF 7
ENDMDL
MODEL 6
REMARK VINA RESULT:    -6.656      3.392      6.589
REMARK INTER + INTRA:          -8.584
REMARK INTER:                  -8.502
REMARK INTRA:                  -0.082
REMARK UNBOUND:                -0.372
REMARK SMILES O=C1c2c(O)cc(O)cc2O[C@H](c2cc(O)c(O)c(O)c2)[C@@H]1O
REMARK SMILES IDX 12 1 22 2 2 3 1 4 3 5 4 6 6 7 7 8 9 9 10 10 11 11 13 12
REMARK SMILES IDX 14 13 15 14 21 15 17 16 19 17 16 18 18 20 20 22 23 24 5 26
REMARK SMILES IDX 8 28
REMARK H PARENT 16 19 18 21 20 23 23 25 5 27 8 29
REMARK Flexibility Score: inf
ROOT
ATOM      1  C   UNL     1     -15.632  42.758  29.716  1.00  0.00     0.240 C 
ATOM      2  C   UNL     1     -14.471  42.770  30.735  1.00  0.00     0.231 C 
ATOM      3  C   UNL     1     -14.724  43.847  31.757  1.00  0.00     0.202 C 
ATOM      4  O   UNL     1     -13.777  44.605  32.095  1.00  0.00    -0.291 OA
ATOM      5  C   UNL     1     -16.098  44.026  32.293  1.00  0.00     0.105 A 
ATOM      6  C   UNL     1     -16.398  44.728  33.490  1.00  0.00     0.133 A 
ATOM      7  C   UNL     1     -17.735  44.899  33.873  1.00  0.00     0.093 A 
ATOM      8  C   UNL     1     -18.772  44.334  33.123  1.00  0.00     0.123 A 
ATOM      9  C   UNL     1     -18.477  43.602  31.974  1.00  0.00     0.093 A 
ATOM     10  C   UNL     1     -17.155  43.453  31.550  1.00  0.00     0.138 A 
ATOM     11  O   UNL     1     -16.896  42.720  30.384  1.00  0.00    -0.481 OA
ENDROOT
BRANCH   1  12
ATOM     12  C   UNL     1     -15.507  41.606  28.743  1.00  0.00     0.003 A 
ATOM     13  C   UNL     1     -15.014  41.807  27.444  1.00  0.00     0.058 A 
ATOM     14  C   UNL     1     -14.936  40.740  26.542  1.00  0.00     0.161 A 
ATOM     15  C   UNL     1     -15.948  40.328  29.115  1.00  0.00     0.058 A 
ATOM     16  C   UNL     1     -15.360  39.459  26.920  1.00  0.00     0.200 A 
ATOM     17  C   UNL     1     -15.877  39.252  28.222  1.00  0.00     0.161 A 
BRANCH  14  18
ATOM     18  O   UNL     1     -14.437  40.946  25.256  1.00  0.00    -0.504 OA
ATOM     19  H   UNL     1     -13.660  40.403  24.894  1.00  0.00     0.293 HD
ENDBRANCH  14  18
BRANCH  16  20
ATOM     20  O   UNL     1     -15.256  38.429  25.982  1.00  0.00    -0.502 OA
ATOM     21  H   UNL     1     -15.872  38.322  25.188  1.00  0.00     0.293 HD
ENDBRANCH  16  20
BRANCH  17  22
ATOM     22  O   UNL     1     -16.328  38.008  28.666  1.00  0.00    -0.504 OA
ATOM     23  H   UNL     1     -15.884  37.130  28.436  1.00  0.00     0.293 HD
ENDBRANCH  17  22
ENDBRANCH   1  12
BRANCH   2  24
ATOM     24  O   UNL     1     -14.312  41.524  31.368  1.00  0.00    -0.381 OA
ATOM     25  H   UNL     1     -14.169  41.689  32.336  1.00  0.00     0.211 HD
ENDBRANCH   2  24
BRANCH   6  26
ATOM     26  O   UNL     1     -15.418  45.239  34.344  1.00  0.00    -0.507 OA
ATOM     27  H   UNL     1     -15.008  46.156  34.248  1.00  0.00     0.293 HD
ENDBRANCH   6  26
BRANCH   8  28
ATOM     28  O   UNL     1     -20.099  44.491  33.517  1.00  0.00    -0.508 OA
ATOM     29  H   UNL     1     -20.681  43.694  33.750  1.00  0.00     0.293 HD
ENDBRANCH   8  28
TORSDOF 7
ENDMDL
MODEL 7
REMARK VINA RESULT:    -6.562      1.390      7.133
REMARK INTER + INTRA:          -8.468
REMARK INTER:                  -8.123
REMARK INTRA:                  -0.345
REMARK UNBOUND:                -0.372
REMARK SMILES O=C1c2c(O)cc(O)cc2O[C@H](c2cc(O)c(O)c(O)c2)[C@@H]1O
REMARK SMILES IDX 12 1 22 2 2 3 1 4 3 5 4 6 6 7 7 8 9 9 10 10 11 11 13 12
REMARK SMILES IDX 14 13 15 14 21 15 17 16 19 17 16 18 18 20 20 22 23 24 5 26
REMARK SMILES IDX 8 28
REMARK H PARENT 16 19 18 21 20 23 23 25 5 27 8 29
REMARK Flexibility Score: inf
ROOT
ATOM      1  C   UNL     1     -14.282  42.644  32.805  1.00  0.00     0.240 C 
ATOM      2  C   UNL     1     -14.978  41.568  31.943  1.00  0.00     0.231 C 
ATOM      3  C   UNL     1     -16.361  41.319  32.485  1.00  0.00     0.202 C 
ATOM      4  O   UNL     1     -16.767  40.133  32.607  1.00  0.00    -0.291 OA
ATOM      5  C   UNL     1     -17.184  42.476  32.921  1.00  0.00     0.105 A 
ATOM      6  C   UNL     1     -18.592  42.426  33.099  1.00  0.00     0.133 A 
ATOM      7  C   UNL     1     -19.267  43.555  33.580  1.00  0.00     0.093 A 
ATOM      8  C   UNL     1     -18.581  44.748  33.827  1.00  0.00     0.123 A 
ATOM      9  C   UNL     1     -17.206  44.815  33.605  1.00  0.00     0.093 A 
ATOM     10  C   UNL     1     -16.505  43.690  33.166  1.00  0.00     0.138 A 
ATOM     11  O   UNL     1     -15.122  43.790  32.965  1.00  0.00    -0.481 OA
ENDROOT
BRANCH   1  12
ATOM     12  C   UNL     1     -12.941  43.039  32.227  1.00  0.00     0.003 A 
ATOM     13  C   UNL     1     -12.783  44.248  31.532  1.00  0.00     0.058 A 
ATOM     14  C   UNL     1     -11.546  44.588  30.971  1.00  0.00     0.161 A 
ATOM     15  C   UNL     1     -11.852  42.161  32.326  1.00  0.00     0.058 A 
ATOM     16  C   UNL     1     -10.453  43.718  31.087  1.00  0.00     0.200 A 
ATOM     17  C   UNL     1     -10.610  42.487  31.769  1.00  0.00     0.161 A 
BRANCH  14  18
ATOM     18  O   UNL     1     -11.393  45.795  30.290  1.00  0.00    -0.504 OA
ATOM     19  H   UNL     1     -12.171  46.238  29.812  1.00  0.00     0.293 HD
ENDBRANCH  14  18
BRANCH  16  20
ATOM     20  O   UNL     1      -9.240  44.107  30.512  1.00  0.00    -0.502 OA
ATOM     21  H   UNL     1      -8.961  43.879  29.569  1.00  0.00     0.293 HD
ENDBRANCH  16  20
BRANCH  17  22
ATOM     22  O   UNL     1      -9.571  41.566  31.915  1.00  0.00    -0.504 OA
ATOM     23  H   UNL     1      -8.719  41.752  32.426  1.00  0.00     0.293 HD
ENDBRANCH  17  22
ENDBRANCH   1  12
BRANCH   2  24
ATOM     24  O   UNL     1     -15.046  41.941  30.587  1.00  0.00    -0.381 OA
ATOM     25  H   UNL     1     -16.003  41.964  30.324  1.00  0.00     0.211 HD
ENDBRANCH   2  24
BRANCH   6  26
ATOM     26  O   UNL     1     -19.365  41.305  32.786  1.00  0.00    -0.507 OA
ATOM     27  H   UNL     1     -19.247  40.399  33.216  1.00  0.00     0.293 HD
ENDBRANCH   6  26
BRANCH   8  28
ATOM     28  O   UNL     1     -19.258  45.875  34.287  1.00  0.00    -0.508 OA
ATOM     29  H   UNL     1     -18.954  46.376  35.114  1.00  0.00     0.293 HD
ENDBRANCH   8  28
TORSDOF 7
ENDMDL
MODEL 8
REMARK VINA RESULT:    -6.549      3.234      6.359
REMARK INTER + INTRA:          -8.453
REMARK INTER:                  -8.073
REMARK INTRA:                  -0.380
REMARK UNBOUND:                -0.372
REMARK SMILES O=C1c2c(O)cc(O)cc2O[C@H](c2cc(O)c(O)c(O)c2)[C@@H]1O
REMARK SMILES IDX 12 1 22 2 2 3 1 4 3 5 4 6 6 7 7 8 9 9 10 10 11 11 13 12
REMARK SMILES IDX 14 13 15 14 21 15 17 16 19 17 16 18 18 20 20 22 23 24 5 26
REMARK SMILES IDX 8 28
REMARK H PARENT 16 19 18 21 20 23 23 25 5 27 8 29
REMARK Flexibility Score: inf
ROOT
ATOM      1  C   UNL     1     -15.493  41.960  30.122  1.00  0.00     0.240 C 
ATOM      2  C   UNL     1     -16.718  42.895  30.019  1.00  0.00     0.231 C 
ATOM      3  C   UNL     1     -17.110  43.349  31.400  1.00  0.00     0.202 C 
ATOM      4  O   UNL     1     -18.326  43.345  31.724  1.00  0.00    -0.291 OA
ATOM      5  C   UNL     1     -16.046  43.730  32.363  1.00  0.00     0.105 A 
ATOM      6  C   UNL     1     -16.273  44.503  33.533  1.00  0.00     0.133 A 
ATOM      7  C   UNL     1     -15.212  44.750  34.413  1.00  0.00     0.093 A 
ATOM      8  C   UNL     1     -13.920  44.298  34.123  1.00  0.00     0.123 A 
ATOM      9  C   UNL     1     -13.684  43.582  32.950  1.00  0.00     0.093 A 
ATOM     10  C   UNL     1     -14.734  43.288  32.079  1.00  0.00     0.138 A 
ATOM     11  O   UNL     1     -14.463  42.555  30.914  1.00  0.00    -0.481 OA
ENDROOT
BRANCH   1  12
ATOM     12  C   UNL     1     -14.965  41.580  28.756  1.00  0.00     0.003 A 
ATOM     13  C   UNL     1     -15.654  40.665  27.944  1.00  0.00     0.058 A 
ATOM     14  C   UNL     1     -15.137  40.295  26.697  1.00  0.00     0.161 A 
ATOM     15  C   UNL     1     -13.738  42.096  28.315  1.00  0.00     0.058 A 
ATOM     16  C   UNL     1     -13.920  40.825  26.248  1.00  0.00     0.200 A 
ATOM     17  C   UNL     1     -13.210  41.733  27.070  1.00  0.00     0.161 A 
BRANCH  14  18
ATOM     18  O   UNL     1     -15.831  39.392  25.892  1.00  0.00    -0.504 OA
ATOM     19  H   UNL     1     -16.606  38.845  26.252  1.00  0.00     0.293 HD
ENDBRANCH  14  18
BRANCH  16  20
ATOM     20  O   UNL     1     -13.452  40.426  24.994  1.00  0.00    -0.502 OA
ATOM     21  H   UNL     1     -13.390  41.036  24.191  1.00  0.00     0.293 HD
ENDBRANCH  16  20
BRANCH  17  22
ATOM     22  O   UNL     1     -11.987  42.294  26.695  1.00  0.00    -0.504 OA
ATOM     23  H   UNL     1     -11.464  42.014  25.878  1.00  0.00     0.293 HD
ENDBRANCH  17  22
ENDBRANCH   1  12
BRANCH   2  24
ATOM     24  O   UNL     1     -16.465  44.006  29.193  1.00  0.00    -0.381 OA
ATOM     25  H   UNL     1     -16.577  43.717  28.249  1.00  0.00     0.211 HD
ENDBRANCH   2  24
BRANCH   6  26
ATOM     26  O   UNL     1     -17.510  45.072  33.847  1.00  0.00    -0.507 OA
ATOM     27  H   UNL     1     -18.142  45.462  33.163  1.00  0.00     0.293 HD
ENDBRANCH   6  26
BRANCH   8  28
ATOM     28  O   UNL     1     -12.864  44.562  34.992  1.00  0.00    -0.508 OA
ATOM     29  H   UNL     1     -12.699  43.994  35.814  1.00  0.00     0.293 HD
ENDBRANCH   8  28
TORSDOF 7
ENDMDL
MODEL 9
REMARK VINA RESULT:    -6.521      3.449      7.097
REMARK INTER + INTRA:          -8.418
REMARK INTER:                  -8.021
REMARK INTRA:                  -0.397
REMARK UNBOUND:                -0.372
REMARK SMILES O=C1c2c(O)cc(O)cc2O[C@H](c2cc(O)c(O)c(O)c2)[C@@H]1O
REMARK SMILES IDX 12 1 22 2 2 3 1 4 3 5 4 6 6 7 7 8 9 9 10 10 11 11 13 12
REMARK SMILES IDX 14 13 15 14 21 15 17 16 19 17 16 18 18 20 20 22 23 24 5 26
REMARK SMILES IDX 8 28
REMARK H PARENT 16 19 18 21 20 23 23 25 5 27 8 29
REMARK Flexibility Score: inf
ROOT
ATOM      1  C   UNL     1     -14.626  42.362  29.482  1.00  0.00     0.240 C 
ATOM      2  C   UNL     1     -13.995  41.545  30.631  1.00  0.00     0.231 C 
ATOM      3  C   UNL     1     -14.298  42.222  31.942  1.00  0.00     0.202 C 
ATOM      4  O   UNL     1     -13.379  42.350  32.792  1.00  0.00    -0.291 OA
ATOM      5  C   UNL     1     -15.657  42.776  32.171  1.00  0.00     0.105 A 
ATOM      6  C   UNL     1     -16.178  43.099  33.452  1.00  0.00     0.133 A 
ATOM      7  C   UNL     1     -17.447  43.681  33.555  1.00  0.00     0.093 A 
ATOM      8  C   UNL     1     -18.233  43.891  32.416  1.00  0.00     0.123 A 
ATOM      9  C   UNL     1     -17.745  43.528  31.162  1.00  0.00     0.093 A 
ATOM     10  C   UNL     1     -16.465  42.985  31.031  1.00  0.00     0.138 A 
ATOM     11  O   UNL     1     -16.002  42.643  29.753  1.00  0.00    -0.481 OA
ENDROOT
BRANCH   1  12
ATOM     12  C   UNL     1     -14.476  41.659  28.151  1.00  0.00     0.003 A 
ATOM     13  C   UNL     1     -13.208  41.413  27.603  1.00  0.00     0.058 A 
ATOM     14  C   UNL     1     -13.082  40.793  26.354  1.00  0.00     0.161 A 
ATOM     15  C   UNL     1     -15.617  41.303  27.418  1.00  0.00     0.058 A 
ATOM     16  C   UNL     1     -14.223  40.421  25.630  1.00  0.00     0.200 A 
ATOM     17  C   UNL     1     -15.506  40.684  26.167  1.00  0.00     0.161 A 
BRANCH  14  18
ATOM     18  O   UNL     1     -11.818  40.543  25.821  1.00  0.00    -0.504 OA
ATOM     19  H   UNL     1     -10.976  40.894  26.263  1.00  0.00     0.293 HD
ENDBRANCH  14  18
BRANCH  16  20
ATOM     20  O   UNL     1     -14.041  39.801  24.391  1.00  0.00    -0.502 OA
ATOM     21  H   UNL     1     -13.738  40.283  23.556  1.00  0.00     0.293 HD
ENDBRANCH  16  20
BRANCH  17  22
ATOM     22  O   UNL     1     -16.687  40.352  25.499  1.00  0.00    -0.504 OA
ATOM     23  H   UNL     1     -17.013  39.406  25.365  1.00  0.00     0.293 HD
ENDBRANCH  17  22
ENDBRANCH   1  12
BRANCH   2  24
ATOM     24  O   UNL     1     -14.458  40.216  30.649  1.00  0.00    -0.381 OA
ATOM     25  H   UNL     1     -14.969  40.059  29.812  1.00  0.00     0.211 HD
ENDBRANCH   2  24
BRANCH   6  26
ATOM     26  O   UNL     1     -15.498  42.834  34.644  1.00  0.00    -0.507 OA
ATOM     27  H   UNL     1     -15.114  43.548  35.246  1.00  0.00     0.293 HD
ENDBRANCH   6  26
BRANCH   8  28
ATOM     28  O   UNL     1     -19.503  44.453  32.524  1.00  0.00    -0.508 OA
ATOM     29  H   UNL     1     -20.135  44.490  31.733  1.00  0.00     0.293 HD
ENDBRANCH   8  28
TORSDOF 7
ENDMDL
