MODEL 1
REMARK VINA RESULT:    -3.534      0.000      0.000
REMARK INTER + INTRA:          -4.960
REMARK INTER:                  -4.567
REMARK INTRA:                  -0.393
REMARK UNBOUND:                -0.393
REMARK SMILES CCCCCCC(=O)[O-]
REMARK SMILES IDX 5 1 6 2 7 3 8 4 9 5 4 6 3 7 2 8 1 9
REMARK H PARENT
REMARK Flexibility Score: inf
ROOT
ATOM      1  C   UNL     1      44.614  63.110  12.611  1.00  0.00     0.006 C 
ENDROOT
BRANCH   1   2
ATOM      2  C   UNL     1      43.144  63.524  12.447  1.00  0.00     0.053 C 
BRANCH   2   3
ATOM      3  C   UNL     1      42.790  63.759  11.010  1.00  0.00     0.041 C 
ATOM      4  O   UNL     1      42.312  62.824  10.314  1.00  0.00    -0.550 OA
ATOM      5  O   UNL     1      43.021  65.000  10.431  1.00  0.00    -0.550 OA
ENDBRANCH   2   3
ENDBRANCH   1   2
BRANCH   1   6
ATOM      6  C   UNL     1      44.756  61.705  13.221  1.00  0.00     0.000 C 
BRANCH   6   7
ATOM      7  C   UNL     1      44.633  60.589  12.171  1.00  0.00    -0.000 C 
BRANCH   7   8
ATOM      8  C   UNL     1      45.411  60.903  10.884  1.00  0.00    -0.003 C 
ATOM      9  C   UNL     1      44.722  60.294   9.666  1.00  0.00     0.004 C 
ENDBRANCH   7   8
ENDBRANCH   6   7
ENDBRANCH   1   6
TORSDOF 5
ENDMDL
MODEL 2
REMARK VINA RESULT:    -3.532      1.829      2.172
REMARK INTER + INTRA:          -4.957
REMARK INTER:                  -4.580
REMARK INTRA:                  -0.377
REMARK UNBOUND:                -0.393
REMARK SMILES CCCCCCC(=O)[O-]
REMARK SMILES IDX 5 1 6 2 7 3 8 4 9 5 4 6 3 7 2 8 1 9
REMARK H PARENT
REMARK Flexibility Score: inf
ROOT
ATOM      1  C   UNL     1      44.223  63.867  12.225  1.00  0.00     0.006 C 
ENDROOT
BRANCH   1   2
ATOM      2  C   UNL     1      42.952  64.140  11.408  1.00  0.00     0.053 C 
BRANCH   2   3
ATOM      3  C   UNL     1      41.799  63.307  11.879  1.00  0.00     0.041 C 
ATOM      4  O   UNL     1      41.134  62.623  11.057  1.00  0.00    -0.550 OA
ATOM      5  O   UNL     1      41.438  63.313  13.220  1.00  0.00    -0.550 OA
ENDBRANCH   2   3
ENDBRANCH   1   2
BRANCH   1   6
ATOM      6  C   UNL     1      44.719  62.420  12.059  1.00  0.00     0.000 C 
BRANCH   6   7
ATOM      7  C   UNL     1      44.962  61.720  13.406  1.00  0.00    -0.000 C 
BRANCH   7   8
ATOM      8  C   UNL     1      44.546  60.242  13.385  1.00  0.00    -0.003 C 
ATOM      9  C   UNL     1      43.251  60.047  12.600  1.00  0.00     0.004 C 
ENDBRANCH   7   8
ENDBRANCH   6   7
ENDBRANCH   1   6
TORSDOF 5
ENDMDL
MODEL 3
REMARK VINA RESULT:    -3.501      1.119      1.837
REMARK INTER + INTRA:          -4.918
REMARK INTER:                  -4.553
REMARK INTRA:                  -0.364
REMARK UNBOUND:                -0.393
REMARK SMILES CCCCCCC(=O)[O-]
REMARK SMILES IDX 5 1 6 2 7 3 8 4 9 5 4 6 3 7 2 8 1 9
REMARK H PARENT
REMARK Flexibility Score: inf
ROOT
ATOM      1  C   UNL     1      44.661  61.684  13.025  1.00  0.00     0.006 C 
ENDROOT
BRANCH   1   2
ATOM      2  C   UNL     1      44.632  63.165  12.620  1.00  0.00     0.053 C 
BRANCH   2   3
ATOM      3  C   UNL     1      43.272  63.587  12.155  1.00  0.00     0.041 C 
ATOM      4  O   UNL     1      43.141  64.225  11.077  1.00  0.00    -0.550 OA
ATOM      5  O   UNL     1      42.153  63.304  12.928  1.00  0.00    -0.550 OA
ENDBRANCH   2   3
ENDBRANCH   1   2
BRANCH   1   6
ATOM      6  C   UNL     1      44.330  60.754  11.844  1.00  0.00     0.000 C 
BRANCH   6   7
ATOM      7  C   UNL     1      45.409  60.779  10.751  1.00  0.00    -0.000 C 
BRANCH   7   8
ATOM      8  C   UNL     1      44.853  60.420   9.365  1.00  0.00    -0.003 C 
ATOM      9  C   UNL     1      43.704  61.348   8.979  1.00  0.00     0.004 C 
ENDBRANCH   7   8
ENDBRANCH   6   7
ENDBRANCH   1   6
TORSDOF 5
ENDMDL
MODEL 4
REMARK VINA RESULT:    -3.496     10.806     12.148
REMARK INTER + INTRA:          -4.910
REMARK INTER:                  -4.559
REMARK INTRA:                  -0.351
REMARK UNBOUND:                -0.393
REMARK SMILES CCCCCCC(=O)[O-]
REMARK SMILES IDX 5 1 6 2 7 3 8 4 9 5 4 6 3 7 2 8 1 9
REMARK H PARENT
REMARK Flexibility Score: inf
ROOT
ATOM      1  C   UNL     1      49.868  59.682  19.866  1.00  0.00     0.006 C 
ENDROOT
BRANCH   1   2
ATOM      2  C   UNL     1      50.135  58.995  21.213  1.00  0.00     0.053 C 
BRANCH   2   3
ATOM      3  C   UNL     1      50.760  59.932  22.201  1.00  0.00     0.041 C 
ATOM      4  O   UNL     1      50.063  60.817  22.762  1.00  0.00    -0.550 OA
ATOM      5  O   UNL     1      52.119  59.849  22.474  1.00  0.00    -0.550 OA
ENDBRANCH   2   3
ENDBRANCH   1   2
BRANCH   1   6
ATOM      6  C   UNL     1      48.363  59.805  19.567  1.00  0.00     0.000 C 
BRANCH   6   7
ATOM      7  C   UNL     1      47.492  59.091  20.613  1.00  0.00    -0.000 C 
BRANCH   7   8
ATOM      8  C   UNL     1      46.316  59.956  21.089  1.00  0.00    -0.003 C 
ATOM      9  C   UNL     1      46.527  60.426  22.525  1.00  0.00     0.004 C 
ENDBRANCH   7   8
ENDBRANCH   6   7
ENDBRANCH   1   6
TORSDOF 5
ENDMDL
MODEL 5
REMARK VINA RESULT:    -3.493      2.179      3.902
REMARK INTER + INTRA:          -4.907
REMARK INTER:                  -4.485
REMARK INTRA:                  -0.422
REMARK UNBOUND:                -0.393
REMARK SMILES CCCCCCC(=O)[O-]
REMARK SMILES IDX 5 1 6 2 7 3 8 4 9 5 4 6 3 7 2 8 1 9
REMARK H PARENT
REMARK Flexibility Score: inf
ROOT
ATOM      1  C   UNL     1      44.973  61.754  11.954  1.00  0.00     0.006 C 
ENDROOT
BRANCH   1   2
ATOM      2  C   UNL     1      44.453  60.502  12.674  1.00  0.00     0.053 C 
BRANCH   2   3
ATOM      3  C   UNL     1      43.215  59.962  12.027  1.00  0.00     0.041 C 
ATOM      4  O   UNL     1      42.930  60.279  10.842  1.00  0.00    -0.550 OA
ATOM      5  O   UNL     1      42.358  59.136  12.744  1.00  0.00    -0.550 OA
ENDBRANCH   2   3
ENDBRANCH   1   2
BRANCH   1   6
ATOM      6  C   UNL     1      44.622  63.047  12.712  1.00  0.00     0.000 C 
BRANCH   6   7
ATOM      7  C   UNL     1      43.866  64.058  11.836  1.00  0.00    -0.000 C 
BRANCH   7   8
ATOM      8  C   UNL     1      42.405  63.651  11.594  1.00  0.00    -0.003 C 
ATOM      9  C   UNL     1      41.699  63.333  12.910  1.00  0.00     0.004 C 
ENDBRANCH   7   8
ENDBRANCH   6   7
ENDBRANCH   1   6
TORSDOF 5
ENDMDL
MODEL 6
REMARK VINA RESULT:    -3.481      1.684      3.620
REMARK INTER + INTRA:          -4.892
REMARK INTER:                  -4.512
REMARK INTRA:                  -0.380
REMARK UNBOUND:                -0.393
REMARK SMILES CCCCCCC(=O)[O-]
REMARK SMILES IDX 5 1 6 2 7 3 8 4 9 5 4 6 3 7 2 8 1 9
REMARK H PARENT
REMARK Flexibility Score: inf
ROOT
ATOM      1  C   UNL     1      44.627  60.629  12.492  1.00  0.00     0.006 C 
ENDROOT
BRANCH   1   2
ATOM      2  C   UNL     1      45.312  60.743  11.122  1.00  0.00     0.053 C 
BRANCH   2   3
ATOM      3  C   UNL     1      44.402  60.322  10.009  1.00  0.00     0.041 C 
ATOM      4  O   UNL     1      43.207  60.715   9.985  1.00  0.00    -0.550 OA
ATOM      5  O   UNL     1      44.866  59.467   9.017  1.00  0.00    -0.550 OA
ENDBRANCH   2   3
ENDBRANCH   1   2
BRANCH   1   6
ATOM      6  C   UNL     1      44.912  61.850  13.385  1.00  0.00     0.000 C 
BRANCH   6   7
ATOM      7  C   UNL     1      44.645  63.182  12.668  1.00  0.00    -0.000 C 
BRANCH   7   8
ATOM      8  C   UNL     1      43.151  63.420  12.405  1.00  0.00    -0.003 C 
ATOM      9  C   UNL     1      42.937  64.143  11.078  1.00  0.00     0.004 C 
ENDBRANCH   7   8
ENDBRANCH   6   7
ENDBRANCH   1   6
TORSDOF 5
ENDMDL
MODEL 7
REMARK VINA RESULT:    -3.479      2.318      4.083
REMARK INTER + INTRA:          -4.889
REMARK INTER:                  -4.540
REMARK INTRA:                  -0.349
REMARK UNBOUND:                -0.393
REMARK SMILES CCCCCCC(=O)[O-]
REMARK SMILES IDX 5 1 6 2 7 3 8 4 9 5 4 6 3 7 2 8 1 9
REMARK H PARENT
REMARK Flexibility Score: inf
ROOT
ATOM      1  C   UNL     1      44.650  62.999  12.689  1.00  0.00     0.006 C 
ENDROOT
BRANCH   1   2
ATOM      2  C   UNL     1      44.920  61.738  11.856  1.00  0.00     0.053 C 
BRANCH   2   3
ATOM      3  C   UNL     1      44.169  60.553  12.383  1.00  0.00     0.041 C 
ATOM      4  O   UNL     1      44.578  59.949  13.409  1.00  0.00    -0.550 OA
ATOM      5  O   UNL     1      43.038  60.095  11.719  1.00  0.00    -0.550 OA
ENDBRANCH   2   3
ENDBRANCH   1   2
BRANCH   1   6
ATOM      6  C   UNL     1      43.927  64.087  11.876  1.00  0.00     0.000 C 
BRANCH   6   7
ATOM      7  C   UNL     1      42.449  63.751  11.622  1.00  0.00    -0.000 C 
BRANCH   7   8
ATOM      8  C   UNL     1      41.688  63.425  12.915  1.00  0.00    -0.003 C 
ATOM      9  C   UNL     1      40.401  62.661  12.615  1.00  0.00     0.004 C 
ENDBRANCH   7   8
ENDBRANCH   6   7
ENDBRANCH   1   6
TORSDOF 5
ENDMDL
MODEL 8
REMARK VINA RESULT:    -3.375      2.364      3.497
REMARK INTER + INTRA:          -4.754
REMARK INTER:                  -4.298
REMARK INTRA:                  -0.456
REMARK UNBOUND:                -0.393
REMARK SMILES CCCCCCC(=O)[O-]
REMARK SMILES IDX 5 1 6 2 7 3 8 4 9 5 4 6 3 7 2 8 1 9
REMARK H PARENT
REMARK Flexibility Score: inf
ROOT
ATOM      1  C   UNL     1      44.645  63.288  12.683  1.00  0.00     0.006 C 
ENDROOT
BRANCH   1   2
ATOM      2  C   UNL     1      44.959  61.958  13.383  1.00  0.00     0.053 C 
BRANCH   2   3
ATOM      3  C   UNL     1      44.580  60.782  12.536  1.00  0.00     0.041 C 
ATOM      4  O   UNL     1      43.785  59.912  12.978  1.00  0.00    -0.550 OA
ATOM      5  O   UNL     1      45.134  60.629  11.271  1.00  0.00    -0.550 OA
ENDBRANCH   2   3
ENDBRANCH   1   2
BRANCH   1   6
ATOM      6  C   UNL     1      43.142  63.453  12.397  1.00  0.00     0.000 C 
BRANCH   6   7
ATOM      7  C   UNL     1      42.862  63.922  10.961  1.00  0.00    -0.000 C 
BRANCH   7   8
ATOM      8  C   UNL     1      42.577  62.754  10.005  1.00  0.00    -0.003 C 
ATOM      9  C   UNL     1      41.617  61.750  10.637  1.00  0.00     0.004 C 
ENDBRANCH   7   8
ENDBRANCH   6   7
ENDBRANCH   1   6
TORSDOF 5
ENDMDL
MODEL 9
REMARK VINA RESULT:    -3.363      1.838      2.528
REMARK INTER + INTRA:          -4.739
REMARK INTER:                  -4.313
REMARK INTRA:                  -0.426
REMARK UNBOUND:                -0.393
REMARK SMILES CCCCCCC(=O)[O-]
REMARK SMILES IDX 5 1 6 2 7 3 8 4 9 5 4 6 3 7 2 8 1 9
REMARK H PARENT
REMARK Flexibility Score: inf
ROOT
ATOM      1  C   UNL     1      43.656  63.933  12.064  1.00  0.00     0.006 C 
ENDROOT
BRANCH   1   2
ATOM      2  C   UNL     1      42.502  63.292  11.280  1.00  0.00     0.053 C 
BRANCH   2   3
ATOM      3  C   UNL     1      41.496  62.658  12.191  1.00  0.00     0.041 C 
ATOM      4  O   UNL     1      41.150  63.238  13.254  1.00  0.00    -0.550 OA
ATOM      5  O   UNL     1      40.966  61.412  11.882  1.00  0.00    -0.550 OA
ENDBRANCH   2   3
ENDBRANCH   1   2
BRANCH   1   6
ATOM      6  C   UNL     1      44.657  62.885  12.584  1.00  0.00     0.000 C 
BRANCH   6   7
ATOM      7  C   UNL     1      45.028  61.843  11.517  1.00  0.00    -0.000 C 
BRANCH   7   8
ATOM      8  C   UNL     1      44.690  60.409  11.951  1.00  0.00    -0.003 C 
ATOM      9  C   UNL     1      44.283  60.363  13.421  1.00  0.00     0.004 C 
ENDBRANCH   7   8
ENDBRANCH   6   7
ENDBRANCH   1   6
TORSDOF 5
ENDMDL
