MODEL 1
REMARK VINA RESULT:    -5.634      0.000      0.000
REMARK INTER + INTRA:          -6.889
REMARK INTER:                  -6.787
REMARK INTRA:                  -0.102
REMARK UNBOUND:                -0.102
REMARK SMILES O=c1c(O)c(-c2ccc(O)c(O)c2)oc2cc(O)cc(O)c12
REMARK SMILES IDX 5 1 3 2 2 3 1 4 22 5 20 6 19 7 17 8 16 9 15 10 14 11 6 12
REMARK SMILES IDX 7 13 8 14 9 15 13 16 11 17 10 18 12 20 4 22 21 24 18 26
REMARK H PARENT 10 19 12 21 4 23 21 25 18 27
REMARK Flexibility Score: inf
ROOT
ATOM      1  C   UNL     1       0.744  10.910   4.402  1.00  0.00     0.180 A 
ATOM      2  C   UNL     1      -0.560  10.786   4.912  1.00  0.00     0.208 A 
ATOM      3  C   UNL     1      -1.379  11.925   4.969  1.00  0.00     0.238 A 
ATOM      4  O   UNL     1      -2.564  11.798   5.375  1.00  0.00    -0.285 OA
ATOM      5  C   UNL     1      -0.879  13.176   4.533  1.00  0.00     0.111 A 
ATOM      6  C   UNL     1      -1.608  14.403   4.584  1.00  0.00     0.134 A 
ATOM      7  C   UNL     1      -1.061  15.554   4.005  1.00  0.00     0.093 A 
ATOM      8  C   UNL     1       0.214  15.538   3.435  1.00  0.00     0.123 A 
ATOM      9  C   UNL     1       0.956  14.360   3.433  1.00  0.00     0.094 A 
ATOM     10  C   UNL     1       0.424  13.186   3.972  1.00  0.00     0.146 A 
ATOM     11  O   UNL     1       1.161  12.083   3.940  1.00  0.00    -0.452 OA
ENDROOT
BRANCH   1  12
ATOM     12  C   UNL     1       1.675   9.760   4.333  1.00  0.00     0.025 A 
ATOM     13  C   UNL     1       1.361   8.608   3.591  1.00  0.00     0.016 A 
ATOM     14  C   UNL     1       2.244   7.526   3.560  1.00  0.00     0.051 A 
ATOM     15  C   UNL     1       3.446   7.572   4.277  1.00  0.00     0.157 A 
ATOM     16  C   UNL     1       2.872   9.794   5.067  1.00  0.00     0.062 A 
ATOM     17  C   UNL     1       3.758   8.712   5.037  1.00  0.00     0.158 A 
BRANCH  15  18
ATOM     18  O   UNL     1       4.326   6.491   4.242  1.00  0.00    -0.504 OA
ATOM     19  H   UNL     1       4.069   5.611   3.810  1.00  0.00     0.293 HD
ENDBRANCH  15  18
BRANCH  17  20
ATOM     20  O   UNL     1       4.944   8.787   5.768  1.00  0.00    -0.504 OA
ATOM     21  H   UNL     1       5.177   9.595   6.332  1.00  0.00     0.293 HD
ENDBRANCH  17  20
ENDBRANCH   1  12
BRANCH   2  22
ATOM     22  O   UNL     1      -1.042   9.538   5.317  1.00  0.00    -0.502 OA
ATOM     23  H   UNL     1      -0.558   8.964   5.997  1.00  0.00     0.293 HD
ENDBRANCH   2  22
BRANCH   6  24
ATOM     24  O   UNL     1      -2.848  14.547   5.212  1.00  0.00    -0.507 OA
ATOM     25  H   UNL     1      -3.193  13.951   5.949  1.00  0.00     0.293 HD
ENDBRANCH   6  24
BRANCH   8  26
ATOM     26  O   UNL     1       0.756  16.693   2.875  1.00  0.00    -0.508 OA
ATOM     27  H   UNL     1       0.954  16.759   1.883  1.00  0.00     0.293 HD
ENDBRANCH   8  26
TORSDOF 6
ENDMDL
MODEL 2
REMARK VINA RESULT:    -5.525      1.232      2.883
REMARK INTER + INTRA:          -6.757
REMARK INTER:                  -6.519
REMARK INTRA:                  -0.238
REMARK UNBOUND:                -0.102
REMARK SMILES O=c1c(O)c(-c2ccc(O)c(O)c2)oc2cc(O)cc(O)c12
REMARK SMILES IDX 5 1 3 2 2 3 1 4 22 5 20 6 19 7 17 8 16 9 15 10 14 11 6 12
REMARK SMILES IDX 7 13 8 14 9 15 13 16 11 17 10 18 12 20 4 22 21 24 18 26
REMARK H PARENT 10 19 12 21 4 23 21 25 18 27
REMARK Flexibility Score: inf
ROOT
ATOM      1  C   UNL     1       0.987  11.128   4.293  1.00  0.00     0.180 A 
ATOM      2  C   UNL     1       1.337  12.283   3.573  1.00  0.00     0.208 A 
ATOM      3  C   UNL     1       0.471  13.388   3.595  1.00  0.00     0.238 A 
ATOM      4  O   UNL     1       0.816  14.439   2.994  1.00  0.00    -0.285 OA
ATOM      5  C   UNL     1      -0.742  13.318   4.321  1.00  0.00     0.111 A 
ATOM      6  C   UNL     1      -1.714  14.363   4.379  1.00  0.00     0.134 A 
ATOM      7  C   UNL     1      -2.815  14.234   5.233  1.00  0.00     0.093 A 
ATOM      8  C   UNL     1      -3.014  13.072   5.982  1.00  0.00     0.123 A 
ATOM      9  C   UNL     1      -2.103  12.023   5.887  1.00  0.00     0.094 A 
ATOM     10  C   UNL     1      -0.975  12.136   5.071  1.00  0.00     0.146 A 
ATOM     11  O   UNL     1      -0.126  11.117   5.017  1.00  0.00    -0.452 OA
ENDROOT
BRANCH   1  12
ATOM     12  C   UNL     1       1.836   9.915   4.299  1.00  0.00     0.025 A 
ATOM     13  C   UNL     1       1.445   8.745   3.625  1.00  0.00     0.016 A 
ATOM     14  C   UNL     1       2.251   7.604   3.664  1.00  0.00     0.051 A 
ATOM     15  C   UNL     1       3.452   7.611   4.386  1.00  0.00     0.157 A 
ATOM     16  C   UNL     1       3.030   9.910   5.039  1.00  0.00     0.062 A 
ATOM     17  C   UNL     1       3.839   8.770   5.079  1.00  0.00     0.158 A 
BRANCH  15  18
ATOM     18  O   UNL     1       4.255   6.472   4.422  1.00  0.00    -0.504 OA
ATOM     19  H   UNL     1       3.908   5.589   4.781  1.00  0.00     0.293 HD
ENDBRANCH  15  18
BRANCH  17  20
ATOM     20  O   UNL     1       5.025   8.807   5.814  1.00  0.00    -0.504 OA
ATOM     21  H   UNL     1       5.030   8.835   6.826  1.00  0.00     0.293 HD
ENDBRANCH  17  20
ENDBRANCH   1  12
BRANCH   2  22
ATOM     22  O   UNL     1       2.550  12.339   2.881  1.00  0.00    -0.502 OA
ATOM     23  H   UNL     1       3.107  11.514   2.693  1.00  0.00     0.293 HD
ENDBRANCH   2  22
BRANCH   6  24
ATOM     24  O   UNL     1      -1.657  15.524   3.603  1.00  0.00    -0.507 OA
ATOM     25  H   UNL     1      -0.835  15.854   3.120  1.00  0.00     0.293 HD
ENDBRANCH   6  24
BRANCH   8  26
ATOM     26  O   UNL     1      -4.122  12.946   6.818  1.00  0.00    -0.508 OA
ATOM     27  H   UNL     1      -4.733  13.731   7.009  1.00  0.00     0.293 HD
ENDBRANCH   8  26
TORSDOF 6
ENDMDL
MODEL 3
REMARK VINA RESULT:    -4.632      1.678      2.384
REMARK INTER + INTRA:          -5.682
REMARK INTER:                  -5.859
REMARK INTRA:                   0.177
REMARK UNBOUND:                -0.102
REMARK SMILES O=c1c(O)c(-c2ccc(O)c(O)c2)oc2cc(O)cc(O)c12
REMARK SMILES IDX 5 1 3 2 2 3 1 4 22 5 20 6 19 7 17 8 16 9 15 10 14 11 6 12
REMARK SMILES IDX 7 13 8 14 9 15 13 16 11 17 10 18 12 20 4 22 21 24 18 26
REMARK H PARENT 10 19 12 21 4 23 21 25 18 27
REMARK Flexibility Score: inf
ROOT
ATOM      1  C   UNL     1       1.891  10.994   3.824  1.00  0.00     0.180 A 
ATOM      2  C   UNL     1       0.505  11.178   3.675  1.00  0.00     0.208 A 
ATOM      3  C   UNL     1       0.012  12.471   3.441  1.00  0.00     0.238 A 
ATOM      4  O   UNL     1      -1.224  12.622   3.253  1.00  0.00    -0.285 OA
ATOM      5  C   UNL     1       0.907  13.566   3.377  1.00  0.00     0.111 A 
ATOM      6  C   UNL     1       0.513  14.925   3.186  1.00  0.00     0.134 A 
ATOM      7  C   UNL     1       1.492  15.909   3.008  1.00  0.00     0.093 A 
ATOM      8  C   UNL     1       2.852  15.594   3.079  1.00  0.00     0.123 A 
ATOM      9  C   UNL     1       3.245  14.281   3.324  1.00  0.00     0.094 A 
ATOM     10  C   UNL     1       2.291  13.271   3.471  1.00  0.00     0.146 A 
ATOM     11  O   UNL     1       2.710  12.031   3.693  1.00  0.00    -0.452 OA
ENDROOT
BRANCH   1  12
ATOM     12  C   UNL     1       2.485   9.665   4.096  1.00  0.00     0.025 A 
ATOM     13  C   UNL     1       3.561   9.513   4.988  1.00  0.00     0.016 A 
ATOM     14  C   UNL     1       4.121   8.253   5.212  1.00  0.00     0.051 A 
ATOM     15  C   UNL     1       3.624   7.129   4.539  1.00  0.00     0.157 A 
ATOM     16  C   UNL     1       2.004   8.538   3.409  1.00  0.00     0.062 A 
ATOM     17  C   UNL     1       2.562   7.275   3.632  1.00  0.00     0.158 A 
BRANCH  15  18
ATOM     18  O   UNL     1       4.184   5.872   4.766  1.00  0.00    -0.504 OA
ATOM     19  H   UNL     1       4.323   5.514   5.704  1.00  0.00     0.293 HD
ENDBRANCH  15  18
BRANCH  17  20
ATOM     20  O   UNL     1       2.048   6.177   2.941  1.00  0.00    -0.504 OA
ATOM     21  H   UNL     1       2.493   5.267   2.971  1.00  0.00     0.293 HD
ENDBRANCH  17  20
ENDBRANCH   1  12
BRANCH   2  22
ATOM     22  O   UNL     1      -0.358  10.080   3.720  1.00  0.00    -0.502 OA
ATOM     23  H   UNL     1      -0.919   9.862   4.535  1.00  0.00     0.293 HD
ENDBRANCH   2  22
BRANCH   6  24
ATOM     24  O   UNL     1      -0.816  15.360   3.190  1.00  0.00    -0.507 OA
ATOM     25  H   UNL     1      -1.387  15.471   2.366  1.00  0.00     0.293 HD
ENDBRANCH   6  24
BRANCH   8  26
ATOM     26  O   UNL     1       3.819  16.583   2.917  1.00  0.00    -0.508 OA
ATOM     27  H   UNL     1       4.707  16.388   2.469  1.00  0.00     0.293 HD
ENDBRANCH   8  26
TORSDOF 6
ENDMDL
MODEL 4
REMARK VINA RESULT:    -4.556      2.740      4.751
REMARK INTER + INTRA:          -5.590
REMARK INTER:                  -5.273
REMARK INTRA:                  -0.317
REMARK UNBOUND:                -0.102
REMARK SMILES O=c1c(O)c(-c2ccc(O)c(O)c2)oc2cc(O)cc(O)c12
REMARK SMILES IDX 5 1 3 2 2 3 1 4 22 5 20 6 19 7 17 8 16 9 15 10 14 11 6 12
REMARK SMILES IDX 7 13 8 14 9 15 13 16 11 17 10 18 12 20 4 22 21 24 18 26
REMARK H PARENT 10 19 12 21 4 23 21 25 18 27
REMARK Flexibility Score: inf
ROOT
ATOM      1  C   UNL     1      -0.759  10.490   5.002  1.00  0.00     0.180 A 
ATOM      2  C   UNL     1      -1.240  11.504   5.849  1.00  0.00     0.208 A 
ATOM      3  C   UNL     1      -2.603  11.522   6.185  1.00  0.00     0.238 A 
ATOM      4  O   UNL     1      -3.017  12.399   6.987  1.00  0.00    -0.285 OA
ATOM      5  C   UNL     1      -3.472  10.537   5.656  1.00  0.00     0.111 A 
ATOM      6  C   UNL     1      -4.878  10.483   5.896  1.00  0.00     0.134 A 
ATOM      7  C   UNL     1      -5.616   9.389   5.429  1.00  0.00     0.093 A 
ATOM      8  C   UNL     1      -5.012   8.381   4.674  1.00  0.00     0.123 A 
ATOM      9  C   UNL     1      -3.652   8.455   4.384  1.00  0.00     0.094 A 
ATOM     10  C   UNL     1      -2.881   9.516   4.867  1.00  0.00     0.146 A 
ATOM     11  O   UNL     1      -1.586   9.543   4.576  1.00  0.00    -0.452 OA
ENDROOT
BRANCH   1  12
ATOM     12  C   UNL     1       0.659  10.419   4.584  1.00  0.00     0.025 A 
ATOM     13  C   UNL     1       1.089  10.957   3.358  1.00  0.00     0.016 A 
ATOM     14  C   UNL     1       2.428  10.857   2.973  1.00  0.00     0.051 A 
ATOM     15  C   UNL     1       3.355  10.208   3.799  1.00  0.00     0.157 A 
ATOM     16  C   UNL     1       1.588   9.751   5.399  1.00  0.00     0.062 A 
ATOM     17  C   UNL     1       2.930   9.650   5.017  1.00  0.00     0.158 A 
BRANCH  15  18
ATOM     18  O   UNL     1       4.692  10.111   3.414  1.00  0.00    -0.504 OA
ATOM     19  H   UNL     1       5.056  10.635   2.626  1.00  0.00     0.293 HD
ENDBRANCH  15  18
BRANCH  17  20
ATOM     20  O   UNL     1       3.826   8.991   5.859  1.00  0.00    -0.504 OA
ATOM     21  H   UNL     1       4.532   9.489   6.389  1.00  0.00     0.293 HD
ENDBRANCH  17  20
ENDBRANCH   1  12
BRANCH   2  22
ATOM     22  O   UNL     1      -0.361  12.454   6.377  1.00  0.00    -0.502 OA
ATOM     23  H   UNL     1       0.643  12.319   6.388  1.00  0.00     0.293 HD
ENDBRANCH   2  22
BRANCH   6  24
ATOM     24  O   UNL     1      -5.595  11.483   6.559  1.00  0.00    -0.507 OA
ATOM     25  H   UNL     1      -5.893  12.351   6.139  1.00  0.00     0.293 HD
ENDBRANCH   6  24
BRANCH   8  26
ATOM     26  O   UNL     1      -5.758   7.305   4.199  1.00  0.00    -0.508 OA
ATOM     27  H   UNL     1      -6.162   7.308   3.270  1.00  0.00     0.293 HD
ENDBRANCH   8  26
TORSDOF 6
ENDMDL
MODEL 5
REMARK VINA RESULT:    -4.497      2.227      2.879
REMARK INTER + INTRA:          -5.519
REMARK INTER:                  -5.206
REMARK INTRA:                  -0.313
REMARK UNBOUND:                -0.102
REMARK SMILES O=c1c(O)c(-c2ccc(O)c(O)c2)oc2cc(O)cc(O)c12
REMARK SMILES IDX 5 1 3 2 2 3 1 4 22 5 20 6 19 7 17 8 16 9 15 10 14 11 6 12
REMARK SMILES IDX 7 13 8 14 9 15 13 16 11 17 10 18 12 20 4 22 21 24 18 26
REMARK H PARENT 10 19 12 21 4 23 21 25 18 27
REMARK Flexibility Score: inf
ROOT
ATOM      1  C   UNL     1      -0.314  10.525   4.511  1.00  0.00     0.180 A 
ATOM      2  C   UNL     1      -1.303   9.526   4.473  1.00  0.00     0.208 A 
ATOM      3  C   UNL     1      -2.645   9.888   4.673  1.00  0.00     0.238 A 
ATOM      4  O   UNL     1      -3.531   8.998   4.583  1.00  0.00    -0.285 OA
ATOM      5  C   UNL     1      -2.980  11.240   4.925  1.00  0.00     0.111 A 
ATOM      6  C   UNL     1      -4.302  11.713   5.182  1.00  0.00     0.134 A 
ATOM      7  C   UNL     1      -4.534  13.090   5.288  1.00  0.00     0.093 A 
ATOM      8  C   UNL     1      -3.482  14.006   5.212  1.00  0.00     0.123 A 
ATOM      9  C   UNL     1      -2.180  13.549   5.021  1.00  0.00     0.094 A 
ATOM     10  C   UNL     1      -1.922  12.184   4.875  1.00  0.00     0.146 A 
ATOM     11  O   UNL     1      -0.668  11.793   4.684  1.00  0.00    -0.452 OA
ENDROOT
BRANCH   1  12
ATOM     12  C   UNL     1       1.123  10.218   4.334  1.00  0.00     0.025 A 
ATOM     13  C   UNL     1       1.696  10.107   3.055  1.00  0.00     0.016 A 
ATOM     14  C   UNL     1       3.050   9.792   2.912  1.00  0.00     0.051 A 
ATOM     15  C   UNL     1       3.848   9.572   4.042  1.00  0.00     0.157 A 
ATOM     16  C   UNL     1       1.923   9.975   5.463  1.00  0.00     0.062 A 
ATOM     17  C   UNL     1       3.279   9.661   5.323  1.00  0.00     0.158 A 
BRANCH  15  18
ATOM     18  O   UNL     1       5.199   9.260   3.896  1.00  0.00    -0.504 OA
ATOM     19  H   UNL     1       5.786   9.743   3.225  1.00  0.00     0.293 HD
ENDBRANCH  15  18
BRANCH  17  20
ATOM     20  O   UNL     1       4.045   9.440   6.468  1.00  0.00    -0.504 OA
ATOM     21  H   UNL     1       5.049   9.574   6.477  1.00  0.00     0.293 HD
ENDBRANCH  17  20
ENDBRANCH   1  12
BRANCH   2  22
ATOM     22  O   UNL     1      -0.953   8.200   4.202  1.00  0.00    -0.502 OA
ATOM     23  H   UNL     1      -1.637   7.499   3.942  1.00  0.00     0.293 HD
ENDBRANCH   2  22
BRANCH   6  24
ATOM     24  O   UNL     1      -5.407  10.877   5.367  1.00  0.00    -0.507 OA
ATOM     25  H   UNL     1      -5.775  10.248   4.669  1.00  0.00     0.293 HD
ENDBRANCH   6  24
BRANCH   8  26
ATOM     26  O   UNL     1      -3.720  15.372   5.335  1.00  0.00    -0.508 OA
ATOM     27  H   UNL     1      -4.658  15.752   5.304  1.00  0.00     0.293 HD
ENDBRANCH   8  26
TORSDOF 6
ENDMDL
MODEL 6
REMARK VINA RESULT:    -4.272      1.759      6.855
REMARK INTER + INTRA:          -5.248
REMARK INTER:                  -4.946
REMARK INTRA:                  -0.302
REMARK UNBOUND:                -0.102
REMARK SMILES O=c1c(O)c(-c2ccc(O)c(O)c2)oc2cc(O)cc(O)c12
REMARK SMILES IDX 5 1 3 2 2 3 1 4 22 5 20 6 19 7 17 8 16 9 15 10 14 11 6 12
REMARK SMILES IDX 7 13 8 14 9 15 13 16 11 17 10 18 12 20 4 22 21 24 18 26
REMARK H PARENT 10 19 12 21 4 23 21 25 18 27
REMARK Flexibility Score: inf
ROOT
ATOM      1  C   UNL     1      -0.269  10.690   4.299  1.00  0.00     0.180 A 
ATOM      2  C   UNL     1      -0.697   9.541   3.611  1.00  0.00     0.208 A 
ATOM      3  C   UNL     1       0.201   8.475   3.443  1.00  0.00     0.238 A 
ATOM      4  O   UNL     1      -0.204   7.427   2.875  1.00  0.00    -0.285 OA
ATOM      5  C   UNL     1       1.520   8.578   3.948  1.00  0.00     0.111 A 
ATOM      6  C   UNL     1       2.526   7.576   3.799  1.00  0.00     0.134 A 
ATOM      7  C   UNL     1       3.754   7.729   4.452  1.00  0.00     0.093 A 
ATOM      8  C   UNL     1       4.038   8.878   5.195  1.00  0.00     0.123 A 
ATOM      9  C   UNL     1       3.084   9.887   5.297  1.00  0.00     0.094 A 
ATOM     10  C   UNL     1       1.836   9.748   4.686  1.00  0.00     0.146 A 
ATOM     11  O   UNL     1       0.952  10.729   4.818  1.00  0.00    -0.452 OA
ENDROOT
BRANCH   1  12
ATOM     12  C   UNL     1      -1.150  11.864   4.495  1.00  0.00     0.025 A 
ATOM     13  C   UNL     1      -1.047  13.002   3.675  1.00  0.00     0.016 A 
ATOM     14  C   UNL     1      -1.872  14.108   3.894  1.00  0.00     0.051 A 
ATOM     15  C   UNL     1      -2.803  14.100   4.941  1.00  0.00     0.157 A 
ATOM     16  C   UNL     1      -2.070  11.870   5.556  1.00  0.00     0.062 A 
ATOM     17  C   UNL     1      -2.898  12.975   5.777  1.00  0.00     0.158 A 
BRANCH  15  18
ATOM     18  O   UNL     1      -3.626  15.204   5.155  1.00  0.00    -0.504 OA
ATOM     19  H   UNL     1      -4.199  15.591   4.414  1.00  0.00     0.293 HD
ENDBRANCH  15  18
BRANCH  17  20
ATOM     20  O   UNL     1      -3.810  12.938   6.832  1.00  0.00    -0.504 OA
ATOM     21  H   UNL     1      -3.573  13.268   7.760  1.00  0.00     0.293 HD
ENDBRANCH  17  20
ENDBRANCH   1  12
BRANCH   2  22
ATOM     22  O   UNL     1      -2.009   9.451   3.139  1.00  0.00    -0.502 OA
ATOM     23  H   UNL     1      -2.813   9.579   3.742  1.00  0.00     0.293 HD
ENDBRANCH   2  22
BRANCH   6  24
ATOM     24  O   UNL     1       2.378   6.435   3.005  1.00  0.00    -0.507 OA
ATOM     25  H   UNL     1       3.112   6.024   2.446  1.00  0.00     0.293 HD
ENDBRANCH   6  24
BRANCH   8  26
ATOM     26  O   UNL     1       5.269   9.028   5.829  1.00  0.00    -0.508 OA
ATOM     27  H   UNL     1       5.342   9.417   6.761  1.00  0.00     0.293 HD
ENDBRANCH   8  26
TORSDOF 6
ENDMDL
MODEL 7
REMARK VINA RESULT:    -4.190      2.654      6.219
REMARK INTER + INTRA:          -5.149
REMARK INTER:                  -4.859
REMARK INTRA:                  -0.291
REMARK UNBOUND:                -0.102
REMARK SMILES O=c1c(O)c(-c2ccc(O)c(O)c2)oc2cc(O)cc(O)c12
REMARK SMILES IDX 5 1 3 2 2 3 1 4 22 5 20 6 19 7 17 8 16 9 15 10 14 11 6 12
REMARK SMILES IDX 7 13 8 14 9 15 13 16 11 17 10 18 12 20 4 22 21 24 18 26
REMARK H PARENT 10 19 12 21 4 23 21 25 18 27
REMARK Flexibility Score: inf
ROOT
ATOM      1  C   UNL     1      -1.147  10.444   4.531  1.00  0.00     0.180 A 
ATOM      2  C   UNL     1      -0.949  11.634   3.810  1.00  0.00     0.208 A 
ATOM      3  C   UNL     1       0.363  12.073   3.568  1.00  0.00     0.238 A 
ATOM      4  O   UNL     1       0.536  13.110   2.875  1.00  0.00    -0.285 OA
ATOM      5  C   UNL     1       1.459  11.326   4.064  1.00  0.00     0.111 A 
ATOM      6  C   UNL     1       2.829  11.699   3.913  1.00  0.00     0.134 A 
ATOM      7  C   UNL     1       3.833  10.818   4.330  1.00  0.00     0.093 A 
ATOM      8  C   UNL     1       3.518   9.607   4.952  1.00  0.00     0.123 A 
ATOM      9  C   UNL     1       2.185   9.262   5.156  1.00  0.00     0.094 A 
ATOM     10  C   UNL     1       1.159  10.104   4.719  1.00  0.00     0.146 A 
ATOM     11  O   UNL     1      -0.098   9.732   4.925  1.00  0.00    -0.452 OA
ENDROOT
BRANCH   1  12
ATOM     12  C   UNL     1      -2.499   9.930   4.846  1.00  0.00     0.025 A 
ATOM     13  C   UNL     1      -3.278  10.498   5.870  1.00  0.00     0.016 A 
ATOM     14  C   UNL     1      -4.541   9.981   6.167  1.00  0.00     0.051 A 
ATOM     15  C   UNL     1      -5.041   8.883   5.455  1.00  0.00     0.157 A 
ATOM     16  C   UNL     1      -2.996   8.816   4.150  1.00  0.00     0.062 A 
ATOM     17  C   UNL     1      -4.262   8.297   4.444  1.00  0.00     0.158 A 
BRANCH  15  18
ATOM     18  O   UNL     1      -6.303   8.371   5.752  1.00  0.00    -0.504 OA
ATOM     19  H   UNL     1      -6.997   8.217   5.029  1.00  0.00     0.293 HD
ENDBRANCH  15  18
BRANCH  17  20
ATOM     20  O   UNL     1      -4.727   7.198   3.722  1.00  0.00    -0.504 OA
ATOM     21  H   UNL     1      -5.707   7.081   3.493  1.00  0.00     0.293 HD
ENDBRANCH  17  20
ENDBRANCH   1  12
BRANCH   2  22
ATOM     22  O   UNL     1      -2.044  12.345   3.311  1.00  0.00    -0.502 OA
ATOM     23  H   UNL     1      -2.184  13.330   3.499  1.00  0.00     0.293 HD
ENDBRANCH   2  22
BRANCH   6  24
ATOM     24  O   UNL     1       3.250  12.925   3.390  1.00  0.00    -0.507 OA
ATOM     25  H   UNL     1       3.735  13.039   2.512  1.00  0.00     0.293 HD
ENDBRANCH   6  24
BRANCH   8  26
ATOM     26  O   UNL     1       4.525   8.744   5.377  1.00  0.00    -0.508 OA
ATOM     27  H   UNL     1       4.917   8.805   6.310  1.00  0.00     0.293 HD
ENDBRANCH   8  26
TORSDOF 6
ENDMDL
MODEL 8
REMARK VINA RESULT:    -3.983      3.244      5.783
REMARK INTER + INTRA:          -4.900
REMARK INTER:                  -4.648
REMARK INTRA:                  -0.252
REMARK UNBOUND:                -0.102
REMARK SMILES O=c1c(O)c(-c2ccc(O)c(O)c2)oc2cc(O)cc(O)c12
REMARK SMILES IDX 5 1 3 2 2 3 1 4 22 5 20 6 19 7 17 8 16 9 15 10 14 11 6 12
REMARK SMILES IDX 7 13 8 14 9 15 13 16 11 17 10 18 12 20 4 22 21 24 18 26
REMARK H PARENT 10 19 12 21 4 23 21 25 18 27
REMARK Flexibility Score: inf
ROOT
ATOM      1  C   UNL     1      -2.744  10.765   4.941  1.00  0.00     0.180 A 
ATOM      2  C   UNL     1      -1.409  10.331   4.862  1.00  0.00     0.208 A 
ATOM      3  C   UNL     1      -0.397  11.280   4.645  1.00  0.00     0.238 A 
ATOM      4  O   UNL     1       0.801  10.893   4.630  1.00  0.00    -0.285 OA
ATOM      5  C   UNL     1      -0.733  12.646   4.491  1.00  0.00     0.111 A 
ATOM      6  C   UNL     1       0.208  13.687   4.226  1.00  0.00     0.134 A 
ATOM      7  C   UNL     1      -0.221  15.020   4.223  1.00  0.00     0.093 A 
ATOM      8  C   UNL     1      -1.566  15.345   4.411  1.00  0.00     0.123 A 
ATOM      9  C   UNL     1      -2.501  14.332   4.612  1.00  0.00     0.094 A 
ATOM     10  C   UNL     1      -2.098  12.995   4.655  1.00  0.00     0.146 A 
ATOM     11  O   UNL     1      -3.019  12.061   4.859  1.00  0.00    -0.452 OA
ENDROOT
BRANCH   1  12
ATOM     12  C   UNL     1      -3.868   9.823   5.145  1.00  0.00     0.025 A 
ATOM     13  C   UNL     1      -4.278   8.942   4.128  1.00  0.00     0.016 A 
ATOM     14  C   UNL     1      -5.356   8.079   4.334  1.00  0.00     0.051 A 
ATOM     15  C   UNL     1      -6.049   8.090   5.551  1.00  0.00     0.157 A 
ATOM     16  C   UNL     1      -4.579   9.845   6.356  1.00  0.00     0.062 A 
ATOM     17  C   UNL     1      -5.659   8.981   6.565  1.00  0.00     0.158 A 
BRANCH  15  18
ATOM     18  O   UNL     1      -7.124   7.226   5.755  1.00  0.00    -0.504 OA
ATOM     19  H   UNL     1      -7.250   6.733   6.631  1.00  0.00     0.293 HD
ENDBRANCH  15  18
BRANCH  17  20
ATOM     20  O   UNL     1      -6.332   9.022   7.786  1.00  0.00    -0.504 OA
ATOM     21  H   UNL     1      -7.226   8.566   7.923  1.00  0.00     0.293 HD
ENDBRANCH  17  20
ENDBRANCH   1  12
BRANCH   2  22
ATOM     22  O   UNL     1      -1.097   8.980   5.038  1.00  0.00    -0.502 OA
ATOM     23  H   UNL     1      -0.311   8.539   4.576  1.00  0.00     0.293 HD
ENDBRANCH   2  22
BRANCH   6  24
ATOM     24  O   UNL     1       1.557  13.464   3.934  1.00  0.00    -0.507 OA
ATOM     25  H   UNL     1       2.216  14.184   3.679  1.00  0.00     0.293 HD
ENDBRANCH   6  24
BRANCH   8  26
ATOM     26  O   UNL     1      -1.986  16.673   4.391  1.00  0.00    -0.508 OA
ATOM     27  H   UNL     1      -1.863  17.280   5.193  1.00  0.00     0.293 HD
ENDBRANCH   8  26
TORSDOF 6
ENDMDL
