MODEL 1
REMARK VINA RESULT:    -4.670      0.000      0.000
REMARK INTER + INTRA:          -7.558
REMARK INTER:                  -7.127
REMARK INTRA:                  -0.432
REMARK UNBOUND:                -0.432
REMARK SMILES CCCCCCCCCCC(=O)[O-]
REMARK SMILES IDX 7 1 8 2 9 3 10 4 11 5 12 6 13 7 6 8 5 9 4 10 3 11 2 12 1 13
REMARK H PARENT
REMARK Flexibility Score: inf
ROOT
ATOM      1  C   UNL     1      48.639 -41.164  -4.368  1.00  0.00     0.000 C 
ENDROOT
BRANCH   1   2
ATOM      2  C   UNL     1      47.572 -40.058  -4.422  1.00  0.00     0.000 C 
BRANCH   2   3
ATOM      3  C   UNL     1      46.274 -40.451  -3.694  1.00  0.00     0.006 C 
BRANCH   3   4
ATOM      4  C   UNL     1      45.868 -39.416  -2.637  1.00  0.00     0.053 C 
BRANCH   4   5
ATOM      5  C   UNL     1      46.611 -39.611  -1.352  1.00  0.00     0.041 C 
ATOM      6  O   UNL     1      47.555 -38.837  -1.041  1.00  0.00    -0.550 OA
ATOM      7  O   UNL     1      46.243 -40.630  -0.483  1.00  0.00    -0.550 OA
ENDBRANCH   4   5
ENDBRANCH   3   4
ENDBRANCH   2   3
ENDBRANCH   1   2
BRANCH   1   8
ATOM      8  C   UNL     1      49.443 -41.143  -3.056  1.00  0.00     0.000 C 
BRANCH   8   9
ATOM      9  C   UNL     1      50.836 -41.784  -3.197  1.00  0.00    -0.000 C 
BRANCH   9  10
ATOM     10  C   UNL     1      52.003 -40.935  -2.660  1.00  0.00    -0.000 C 
BRANCH  10  11
ATOM     11  C   UNL     1      52.990 -41.743  -1.806  1.00  0.00    -0.000 C 
BRANCH  11  12
ATOM     12  C   UNL     1      54.389 -41.117  -1.842  1.00  0.00    -0.003 C 
ATOM     13  C   UNL     1      54.310 -39.598  -1.964  1.00  0.00     0.004 C 
ENDBRANCH  11  12
ENDBRANCH  10  11
ENDBRANCH   9  10
ENDBRANCH   8   9
ENDBRANCH   1   8
TORSDOF 9
ENDMDL
MODEL 2
REMARK VINA RESULT:    -4.629      3.346      5.932
REMARK INTER + INTRA:          -7.496
REMARK INTER:                  -6.573
REMARK INTRA:                  -0.923
REMARK UNBOUND:                -0.432
REMARK SMILES CCCCCCCCCCC(=O)[O-]
REMARK SMILES IDX 7 1 8 2 9 3 10 4 11 5 12 6 13 7 6 8 5 9 4 10 3 11 2 12 1 13
REMARK H PARENT
REMARK Flexibility Score: inf
ROOT
ATOM      1  C   UNL     1      49.858 -38.654  -4.657  1.00  0.00     0.000 C 
ENDROOT
BRANCH   1   2
ATOM      2  C   UNL     1      50.756 -38.391  -3.437  1.00  0.00     0.000 C 
BRANCH   2   3
ATOM      3  C   UNL     1      52.195 -38.898  -3.640  1.00  0.00     0.006 C 
BRANCH   3   4
ATOM      4  C   UNL     1      52.583 -39.966  -2.610  1.00  0.00     0.053 C 
BRANCH   4   5
ATOM      5  C   UNL     1      54.009 -39.828  -2.174  1.00  0.00     0.041 C 
ATOM      6  O   UNL     1      54.532 -38.687  -2.065  1.00  0.00    -0.550 OA
ATOM      7  O   UNL     1      54.753 -40.958  -1.859  1.00  0.00    -0.550 OA
ENDBRANCH   4   5
ENDBRANCH   3   4
ENDBRANCH   2   3
ENDBRANCH   1   2
BRANCH   1   8
ATOM      8  C   UNL     1      49.937 -40.112  -5.142  1.00  0.00     0.000 C 
BRANCH   8   9
ATOM      9  C   UNL     1      48.700 -40.942  -4.749  1.00  0.00    -0.000 C 
BRANCH   9  10
ATOM     10  C   UNL     1      47.373 -40.163  -4.716  1.00  0.00    -0.000 C 
BRANCH  10  11
ATOM     11  C   UNL     1      46.669 -40.236  -3.354  1.00  0.00    -0.000 C 
BRANCH  11  12
ATOM     12  C   UNL     1      47.669 -40.550  -2.235  1.00  0.00    -0.003 C 
ATOM     13  C   UNL     1      47.769 -39.394  -1.243  1.00  0.00     0.004 C 
ENDBRANCH  11  12
ENDBRANCH  10  11
ENDBRANCH   9  10
ENDBRANCH   8   9
ENDBRANCH   1   8
TORSDOF 9
ENDMDL
MODEL 3
REMARK VINA RESULT:    -4.578      2.995      6.382
REMARK INTER + INTRA:          -7.418
REMARK INTER:                  -6.788
REMARK INTRA:                  -0.630
REMARK UNBOUND:                -0.432
REMARK SMILES CCCCCCCCCCC(=O)[O-]
REMARK SMILES IDX 7 1 8 2 9 3 10 4 11 5 12 6 13 7 6 8 5 9 4 10 3 11 2 12 1 13
REMARK H PARENT
REMARK Flexibility Score: inf
ROOT
ATOM      1  C   UNL     1      49.295 -41.159  -3.603  1.00  0.00     0.000 C 
ENDROOT
BRANCH   1   2
ATOM      2  C   UNL     1      50.690 -41.783  -3.438  1.00  0.00     0.000 C 
BRANCH   2   3
ATOM      3  C   UNL     1      51.655 -40.878  -2.650  1.00  0.00     0.006 C 
BRANCH   3   4
ATOM      4  C   UNL     1      52.705 -41.686  -1.878  1.00  0.00     0.053 C 
BRANCH   4   5
ATOM      5  C   UNL     1      54.037 -41.002  -1.867  1.00  0.00     0.041 C 
ATOM      6  O   UNL     1      55.097 -41.677  -1.792  1.00  0.00    -0.550 OA
ATOM      7  O   UNL     1      54.109 -39.619  -1.969  1.00  0.00    -0.550 OA
ENDBRANCH   4   5
ENDBRANCH   3   4
ENDBRANCH   2   3
ENDBRANCH   1   2
BRANCH   1   8
ATOM      8  C   UNL     1      49.356 -39.702  -4.096  1.00  0.00     0.000 C 
BRANCH   8   9
ATOM      9  C   UNL     1      47.963 -39.061  -4.245  1.00  0.00    -0.000 C 
BRANCH   9  10
ATOM     10  C   UNL     1      46.816 -40.049  -4.525  1.00  0.00    -0.000 C 
BRANCH  10  11
ATOM     11  C   UNL     1      45.698 -39.983  -3.475  1.00  0.00    -0.000 C 
BRANCH  11  12
ATOM     12  C   UNL     1      46.178 -39.267  -2.206  1.00  0.00    -0.003 C 
ATOM     13  C   UNL     1      46.444 -40.261  -1.079  1.00  0.00     0.004 C 
ENDBRANCH  11  12
ENDBRANCH  10  11
ENDBRANCH   9  10
ENDBRANCH   8   9
ENDBRANCH   1   8
TORSDOF 9
ENDMDL
MODEL 4
REMARK VINA RESULT:    -4.558      3.547      5.843
REMARK INTER + INTRA:          -7.388
REMARK INTER:                  -6.625
REMARK INTRA:                  -0.764
REMARK UNBOUND:                -0.432
REMARK SMILES CCCCCCCCCCC(=O)[O-]
REMARK SMILES IDX 7 1 8 2 9 3 10 4 11 5 12 6 13 7 6 8 5 9 4 10 3 11 2 12 1 13
REMARK H PARENT
REMARK Flexibility Score: inf
ROOT
ATOM      1  C   UNL     1      49.327 -40.989  -2.743  1.00  0.00     0.000 C 
ENDROOT
BRANCH   1   2
ATOM      2  C   UNL     1      50.655 -41.471  -3.348  1.00  0.00     0.000 C 
BRANCH   2   3
ATOM      3  C   UNL     1      51.866 -40.672  -2.832  1.00  0.00     0.006 C 
BRANCH   3   4
ATOM      4  C   UNL     1      52.728 -41.492  -1.863  1.00  0.00     0.053 C 
BRANCH   4   5
ATOM      5  C   UNL     1      54.148 -41.016  -1.842  1.00  0.00     0.041 C 
ATOM      6  O   UNL     1      54.406 -39.784  -1.899  1.00  0.00    -0.550 OA
ATOM      7  O   UNL     1      55.187 -41.931  -1.730  1.00  0.00    -0.550 OA
ENDBRANCH   4   5
ENDBRANCH   3   4
ENDBRANCH   2   3
ENDBRANCH   1   2
BRANCH   1   8
ATOM      8  C   UNL     1      48.169 -41.025  -3.756  1.00  0.00     0.000 C 
BRANCH   8   9
ATOM      9  C   UNL     1      48.322 -39.980  -4.877  1.00  0.00    -0.000 C 
BRANCH   9  10
ATOM     10  C   UNL     1      47.849 -38.560  -4.516  1.00  0.00    -0.000 C 
BRANCH  10  11
ATOM     11  C   UNL     1      48.880 -37.477  -4.863  1.00  0.00    -0.000 C 
BRANCH  11  12
ATOM     12  C   UNL     1      50.289 -38.075  -4.968  1.00  0.00    -0.003 C 
ATOM     13  C   UNL     1      51.095 -37.395  -6.071  1.00  0.00     0.004 C 
ENDBRANCH  11  12
ENDBRANCH  10  11
ENDBRANCH   9  10
ENDBRANCH   8   9
ENDBRANCH   1   8
TORSDOF 9
ENDMDL
MODEL 5
REMARK VINA RESULT:    -4.513      2.100      2.997
REMARK INTER + INTRA:          -7.319
REMARK INTER:                  -6.023
REMARK INTRA:                  -1.297
REMARK UNBOUND:                -0.432
REMARK SMILES CCCCCCCCCCC(=O)[O-]
REMARK SMILES IDX 7 1 8 2 9 3 10 4 11 5 12 6 13 7 6 8 5 9 4 10 3 11 2 12 1 13
REMARK H PARENT
REMARK Flexibility Score: inf
ROOT
ATOM      1  C   UNL     1      49.316 -41.788  -3.571  1.00  0.00     0.000 C 
ENDROOT
BRANCH   1   2
ATOM      2  C   UNL     1      48.792 -41.059  -4.819  1.00  0.00     0.000 C 
BRANCH   2   3
ATOM      3  C   UNL     1      47.519 -40.241  -4.537  1.00  0.00     0.006 C 
BRANCH   3   4
ATOM      4  C   UNL     1      47.500 -39.675  -3.111  1.00  0.00     0.053 C 
BRANCH   4   5
ATOM      5  C   UNL     1      46.291 -40.125  -2.350  1.00  0.00     0.041 C 
ATOM      6  O   UNL     1      46.406 -40.555  -1.172  1.00  0.00    -0.550 OA
ATOM      7  O   UNL     1      45.032 -40.042  -2.931  1.00  0.00    -0.550 OA
ENDBRANCH   4   5
ENDBRANCH   3   4
ENDBRANCH   2   3
ENDBRANCH   1   2
BRANCH   1   8
ATOM      8  C   UNL     1      50.846 -41.697  -3.433  1.00  0.00     0.000 C 
BRANCH   8   9
ATOM      9  C   UNL     1      51.306 -40.433  -2.684  1.00  0.00    -0.000 C 
BRANCH   9  10
ATOM     10  C   UNL     1      51.812 -39.289  -3.582  1.00  0.00    -0.000 C 
BRANCH  10  11
ATOM     11  C   UNL     1      50.872 -38.075  -3.595  1.00  0.00    -0.000 C 
BRANCH  11  12
ATOM     12  C   UNL     1      50.510 -37.676  -5.031  1.00  0.00    -0.003 C 
ATOM     13  C   UNL     1      51.196 -38.586  -6.046  1.00  0.00     0.004 C 
ENDBRANCH  11  12
ENDBRANCH  10  11
ENDBRANCH   9  10
ENDBRANCH   8   9
ENDBRANCH   1   8
TORSDOF 9
ENDMDL
MODEL 6
REMARK VINA RESULT:    -4.505      3.282      7.131
REMARK INTER + INTRA:          -7.307
REMARK INTER:                  -7.071
REMARK INTRA:                  -0.235
REMARK UNBOUND:                -0.432
REMARK SMILES CCCCCCCCCCC(=O)[O-]
REMARK SMILES IDX 7 1 8 2 9 3 10 4 11 5 12 6 13 7 6 8 5 9 4 10 3 11 2 12 1 13
REMARK H PARENT
REMARK Flexibility Score: inf
ROOT
ATOM      1  C   UNL     1      48.884 -41.020  -3.026  1.00  0.00     0.000 C 
ENDROOT
BRANCH   1   2
ATOM      2  C   UNL     1      50.250 -41.569  -3.470  1.00  0.00     0.000 C 
BRANCH   2   3
ATOM      3  C   UNL     1      51.427 -40.736  -2.929  1.00  0.00     0.006 C 
BRANCH   3   4
ATOM      4  C   UNL     1      52.434 -41.594  -2.152  1.00  0.00     0.053 C 
BRANCH   4   5
ATOM      5  C   UNL     1      53.748 -40.896  -1.985  1.00  0.00     0.041 C 
ATOM      6  O   UNL     1      54.802 -41.561  -1.803  1.00  0.00    -0.550 OA
ATOM      7  O   UNL     1      53.814 -39.510  -2.058  1.00  0.00    -0.550 OA
ENDBRANCH   4   5
ENDBRANCH   3   4
ENDBRANCH   2   3
ENDBRANCH   1   2
BRANCH   1   8
ATOM      8  C   UNL     1      47.915 -40.829  -4.206  1.00  0.00     0.000 C 
BRANCH   8   9
ATOM      9  C   UNL     1      46.543 -40.281  -3.772  1.00  0.00    -0.000 C 
BRANCH   9  10
ATOM     10  C   UNL     1      46.084 -39.009  -4.508  1.00  0.00    -0.000 C 
BRANCH  10  11
ATOM     11  C   UNL     1      44.686 -38.540  -4.082  1.00  0.00    -0.000 C 
BRANCH  11  12
ATOM     12  C   UNL     1      43.902 -37.991  -5.280  1.00  0.00    -0.003 C 
ATOM     13  C   UNL     1      44.677 -38.183  -6.581  1.00  0.00     0.004 C 
ENDBRANCH  11  12
ENDBRANCH  10  11
ENDBRANCH   9  10
ENDBRANCH   8   9
ENDBRANCH   1   8
TORSDOF 9
ENDMDL
MODEL 7
REMARK VINA RESULT:    -4.489     11.797     13.040
REMARK INTER + INTRA:          -7.282
REMARK INTER:                  -6.661
REMARK INTRA:                  -0.621
REMARK UNBOUND:                -0.432
REMARK SMILES CCCCCCCCCCC(=O)[O-]
REMARK SMILES IDX 7 1 8 2 9 3 10 4 11 5 12 6 13 7 6 8 5 9 4 10 3 11 2 12 1 13
REMARK H PARENT
REMARK Flexibility Score: inf
ROOT
ATOM      1  C   UNL     1      51.285 -37.405   8.686  1.00  0.00     0.000 C 
ENDROOT
BRANCH   1   2
ATOM      2  C   UNL     1      50.596 -36.094   8.273  1.00  0.00     0.000 C 
BRANCH   2   3
ATOM      3  C   UNL     1      49.790 -35.461   9.422  1.00  0.00     0.006 C 
BRANCH   3   4
ATOM      4  C   UNL     1      50.580 -35.434  10.736  1.00  0.00     0.053 C 
BRANCH   4   5
ATOM      5  C   UNL     1      50.555 -34.079  11.374  1.00  0.00     0.041 C 
ATOM      6  O   UNL     1      51.133 -33.107  10.821  1.00  0.00    -0.550 OA
ATOM      7  O   UNL     1      49.868 -33.883  12.565  1.00  0.00    -0.550 OA
ENDBRANCH   4   5
ENDBRANCH   3   4
ENDBRANCH   2   3
ENDBRANCH   1   2
BRANCH   1   8
ATOM      8  C   UNL     1      50.903 -38.584   7.775  1.00  0.00     0.000 C 
BRANCH   8   9
ATOM      9  C   UNL     1      49.420 -38.981   7.898  1.00  0.00    -0.000 C 
BRANCH   9  10
ATOM     10  C   UNL     1      49.052 -39.741   9.185  1.00  0.00    -0.000 C 
BRANCH  10  11
ATOM     11  C   UNL     1      49.514 -41.204   9.172  1.00  0.00    -0.000 C 
BRANCH  11  12
ATOM     12  C   UNL     1      49.172 -41.876   7.836  1.00  0.00    -0.003 C 
ATOM     13  C   UNL     1      50.123 -43.032   7.541  1.00  0.00     0.004 C 
ENDBRANCH  11  12
ENDBRANCH  10  11
ENDBRANCH   9  10
ENDBRANCH   8   9
ENDBRANCH   1   8
TORSDOF 9
ENDMDL
MODEL 8
REMARK VINA RESULT:    -4.455      2.561      5.379
REMARK INTER + INTRA:          -7.231
REMARK INTER:                  -6.180
REMARK INTRA:                  -1.051
REMARK UNBOUND:                -0.432
REMARK SMILES CCCCCCCCCCC(=O)[O-]
REMARK SMILES IDX 7 1 8 2 9 3 10 4 11 5 12 6 13 7 6 8 5 9 4 10 3 11 2 12 1 13
REMARK H PARENT
REMARK Flexibility Score: inf
ROOT
ATOM      1  C   UNL     1      47.996 -39.549  -4.451  1.00  0.00     0.000 C 
ENDROOT
BRANCH   1   2
ATOM      2  C   UNL     1      48.518 -40.994  -4.410  1.00  0.00     0.000 C 
BRANCH   2   3
ATOM      3  C   UNL     1      49.221 -41.331  -3.082  1.00  0.00     0.006 C 
BRANCH   3   4
ATOM      4  C   UNL     1      50.576 -42.017  -3.303  1.00  0.00     0.053 C 
BRANCH   4   5
ATOM      5  C   UNL     1      51.710 -41.193  -2.774  1.00  0.00     0.041 C 
ATOM      6  O   UNL     1      51.821 -39.982  -3.101  1.00  0.00    -0.550 OA
ATOM      7  O   UNL     1      52.627 -41.755  -1.896  1.00  0.00    -0.550 OA
ENDBRANCH   4   5
ENDBRANCH   3   4
ENDBRANCH   2   3
ENDBRANCH   1   2
BRANCH   1   8
ATOM      8  C   UNL     1      46.469 -39.479  -4.627  1.00  0.00     0.000 C 
BRANCH   8   9
ATOM      9  C   UNL     1      45.704 -40.253  -3.536  1.00  0.00    -0.000 C 
BRANCH   9  10
ATOM     10  C   UNL     1      45.637 -39.556  -2.165  1.00  0.00    -0.000 C 
BRANCH  10  11
ATOM     11  C   UNL     1      46.383 -40.324  -1.065  1.00  0.00    -0.000 C 
BRANCH  11  12
ATOM     12  C   UNL     1      47.389 -39.416  -0.347  1.00  0.00    -0.003 C 
ATOM     13  C   UNL     1      47.599 -38.113  -1.112  1.00  0.00     0.004 C 
ENDBRANCH  11  12
ENDBRANCH  10  11
ENDBRANCH   9  10
ENDBRANCH   8   9
ENDBRANCH   1   8
TORSDOF 9
ENDMDL
MODEL 9
REMARK VINA RESULT:    -4.455     12.115     13.420
REMARK INTER + INTRA:          -7.230
REMARK INTER:                  -6.188
REMARK INTRA:                  -1.042
REMARK UNBOUND:                -0.432
REMARK SMILES CCCCCCCCCCC(=O)[O-]
REMARK SMILES IDX 7 1 8 2 9 3 10 4 11 5 12 6 13 7 6 8 5 9 4 10 3 11 2 12 1 13
REMARK H PARENT
REMARK Flexibility Score: inf
ROOT
ATOM      1  C   UNL     1      51.378 -37.958   8.755  1.00  0.00     0.000 C 
ENDROOT
BRANCH   1   2
ATOM      2  C   UNL     1      51.007 -36.467   8.699  1.00  0.00     0.000 C 
BRANCH   2   3
ATOM      3  C   UNL     1      49.818 -36.119   9.613  1.00  0.00     0.006 C 
BRANCH   3   4
ATOM      4  C   UNL     1      50.273 -35.618  10.990  1.00  0.00     0.053 C 
BRANCH   4   5
ATOM      5  C   UNL     1      50.654 -34.170  10.958  1.00  0.00     0.041 C 
ATOM      6  O   UNL     1      49.763 -33.280  10.939  1.00  0.00    -0.550 OA
ATOM      7  O   UNL     1      51.993 -33.802  10.978  1.00  0.00    -0.550 OA
ENDBRANCH   4   5
ENDBRANCH   3   4
ENDBRANCH   2   3
ENDBRANCH   1   2
BRANCH   1   8
ATOM      8  C   UNL     1      50.773 -38.760   7.589  1.00  0.00     0.000 C 
BRANCH   8   9
ATOM      9  C   UNL     1      49.409 -39.385   7.936  1.00  0.00    -0.000 C 
BRANCH   9  10
ATOM     10  C   UNL     1      49.468 -40.828   8.469  1.00  0.00    -0.000 C 
BRANCH  10  11
ATOM     11  C   UNL     1      49.301 -40.912   9.992  1.00  0.00    -0.000 C 
BRANCH  11  12
ATOM     12  C   UNL     1      48.600 -39.663  10.538  1.00  0.00    -0.003 C 
ATOM     13  C   UNL     1      49.321 -39.118  11.768  1.00  0.00     0.004 C 
ENDBRANCH  11  12
ENDBRANCH  10  11
ENDBRANCH   9  10
ENDBRANCH   8   9
ENDBRANCH   1   8
TORSDOF 9
ENDMDL
