MODEL 1
REMARK VINA RESULT:    -4.132      0.000      0.000
REMARK INTER + INTRA:          -6.207
REMARK INTER:                  -5.823
REMARK INTRA:                  -0.383
REMARK UNBOUND:                -0.383
REMARK SMILES CCCCCCCCC(=O)[O-]
REMARK SMILES IDX 6 1 7 2 8 3 9 4 10 5 11 6 5 7 4 8 3 9 2 10 1 11
REMARK H PARENT
REMARK Flexibility Score: inf
ROOT
ATOM      1  C   UNL     1      49.757  31.918   5.857  1.00  0.00     0.000 C 
ENDROOT
BRANCH   1   2
ATOM      2  C   UNL     1      50.891  32.522   5.012  1.00  0.00     0.006 C 
BRANCH   2   3
ATOM      3  C   UNL     1      50.394  33.648   4.096  1.00  0.00     0.053 C 
BRANCH   3   4
ATOM      4  C   UNL     1      50.812  33.436   2.673  1.00  0.00     0.041 C 
ATOM      5  O   UNL     1      51.855  32.783   2.409  1.00  0.00    -0.550 OA
ATOM      6  O   UNL     1      50.032  33.934   1.637  1.00  0.00    -0.550 OA
ENDBRANCH   3   4
ENDBRANCH   2   3
ENDBRANCH   1   2
BRANCH   1   7
ATOM      7  C   UNL     1      49.853  32.308   7.341  1.00  0.00     0.000 C 
BRANCH   7   8
ATOM      8  C   UNL     1      49.025  33.557   7.682  1.00  0.00    -0.000 C 
BRANCH   8   9
ATOM      9  C   UNL     1      49.930  34.789   7.834  1.00  0.00    -0.000 C 
BRANCH   9  10
ATOM     10  C   UNL     1      50.162  35.172   9.304  1.00  0.00    -0.003 C 
ATOM     11  C   UNL     1      48.871  35.190  10.122  1.00  0.00     0.004 C 
ENDBRANCH   9  10
ENDBRANCH   8   9
ENDBRANCH   7   8
ENDBRANCH   1   7
TORSDOF 7
ENDMDL
MODEL 2
REMARK VINA RESULT:    -4.093      1.457      2.583
REMARK INTER + INTRA:          -6.151
REMARK INTER:                  -5.874
REMARK INTRA:                  -0.277
REMARK UNBOUND:                -0.383
REMARK SMILES CCCCCCCCC(=O)[O-]
REMARK SMILES IDX 6 1 7 2 8 3 9 4 10 5 11 6 5 7 4 8 3 9 2 10 1 11
REMARK H PARENT
REMARK Flexibility Score: inf
ROOT
ATOM      1  C   UNL     1      50.675  33.604   4.056  1.00  0.00     0.000 C 
ENDROOT
BRANCH   1   2
ATOM      2  C   UNL     1      51.148  33.469   2.599  1.00  0.00     0.006 C 
BRANCH   2   3
ATOM      3  C   UNL     1      50.024  33.759   1.596  1.00  0.00     0.053 C 
BRANCH   3   4
ATOM      4  C   UNL     1      50.300  33.147   0.256  1.00  0.00     0.041 C 
ATOM      5  O   UNL     1      49.823  33.665  -0.787  1.00  0.00    -0.550 OA
ATOM      6  O   UNL     1      51.110  32.023   0.157  1.00  0.00    -0.550 OA
ENDBRANCH   3   4
ENDBRANCH   2   3
ENDBRANCH   1   2
BRANCH   1   7
ATOM      7  C   UNL     1      50.984  32.356   4.898  1.00  0.00     0.000 C 
BRANCH   7   8
ATOM      8  C   UNL     1      50.185  32.311   6.210  1.00  0.00    -0.000 C 
BRANCH   8   9
ATOM      9  C   UNL     1      49.367  33.597   6.398  1.00  0.00    -0.000 C 
BRANCH   9  10
ATOM     10  C   UNL     1      49.039  33.878   7.873  1.00  0.00    -0.003 C 
ATOM     11  C   UNL     1      49.945  34.945   8.487  1.00  0.00     0.004 C 
ENDBRANCH   9  10
ENDBRANCH   8   9
ENDBRANCH   7   8
ENDBRANCH   1   7
TORSDOF 7
ENDMDL
MODEL 3
REMARK VINA RESULT:    -4.074      3.124      6.158
REMARK INTER + INTRA:          -6.124
REMARK INTER:                  -5.834
REMARK INTRA:                  -0.289
REMARK UNBOUND:                -0.383
REMARK SMILES CCCCCCCCC(=O)[O-]
REMARK SMILES IDX 6 1 7 2 8 3 9 4 10 5 11 6 5 7 4 8 3 9 2 10 1 11
REMARK H PARENT
REMARK Flexibility Score: inf
ROOT
ATOM      1  C   UNL     1      49.516  33.385   4.751  1.00  0.00     0.000 C 
ENDROOT
BRANCH   1   2
ATOM      2  C   UNL     1      49.427  32.312   5.850  1.00  0.00     0.006 C 
BRANCH   2   3
ATOM      3  C   UNL     1      50.185  32.719   7.120  1.00  0.00     0.053 C 
BRANCH   3   4
ATOM      4  C   UNL     1      49.498  33.834   7.847  1.00  0.00     0.041 C 
ATOM      5  O   UNL     1      50.007  34.985   7.868  1.00  0.00    -0.550 OA
ATOM      6  O   UNL     1      48.281  33.608   8.478  1.00  0.00    -0.550 OA
ENDBRANCH   3   4
ENDBRANCH   2   3
ENDBRANCH   1   2
BRANCH   1   7
ATOM      7  C   UNL     1      50.880  33.399   4.045  1.00  0.00     0.000 C 
BRANCH   7   8
ATOM      8  C   UNL     1      50.766  33.670   2.537  1.00  0.00    -0.000 C 
BRANCH   8   9
ATOM      9  C   UNL     1      51.876  32.943   1.763  1.00  0.00    -0.000 C 
BRANCH   9  10
ATOM     10  C   UNL     1      51.404  32.434   0.392  1.00  0.00    -0.003 C 
ATOM     11  C   UNL     1      50.051  33.012  -0.020  1.00  0.00     0.004 C 
ENDBRANCH   9  10
ENDBRANCH   8   9
ENDBRANCH   7   8
ENDBRANCH   1   7
TORSDOF 7
ENDMDL
MODEL 4
REMARK VINA RESULT:    -4.070     12.493     14.356
REMARK INTER + INTRA:          -6.119
REMARK INTER:                  -5.596
REMARK INTRA:                  -0.522
REMARK UNBOUND:                -0.383
REMARK SMILES CCCCCCCCC(=O)[O-]
REMARK SMILES IDX 6 1 7 2 8 3 9 4 10 5 11 6 5 7 4 8 3 9 2 10 1 11
REMARK H PARENT
REMARK Flexibility Score: inf
ROOT
ATOM      1  C   UNL     1      52.523  46.324  12.915  1.00  0.00     0.000 C 
ENDROOT
BRANCH   1   2
ATOM      2  C   UNL     1      53.890  46.130  12.237  1.00  0.00     0.006 C 
BRANCH   2   3
ATOM      3  C   UNL     1      54.314  44.656  12.201  1.00  0.00     0.053 C 
BRANCH   3   4
ATOM      4  C   UNL     1      54.240  44.087  10.817  1.00  0.00     0.041 C 
ATOM      5  O   UNL     1      54.327  44.845   9.815  1.00  0.00    -0.550 OA
ATOM      6  O   UNL     1      54.106  42.717  10.633  1.00  0.00    -0.550 OA
ENDBRANCH   3   4
ENDBRANCH   2   3
ENDBRANCH   1   2
BRANCH   1   7
ATOM      7  C   UNL     1      51.350  46.199  11.930  1.00  0.00     0.000 C 
BRANCH   7   8
ATOM      8  C   UNL     1      51.602  46.940  10.608  1.00  0.00    -0.000 C 
BRANCH   8   9
ATOM      9  C   UNL     1      50.962  48.336  10.631  1.00  0.00    -0.000 C 
BRANCH   9  10
ATOM     10  C   UNL     1      49.471  48.295  11.002  1.00  0.00    -0.003 C 
ATOM     11  C   UNL     1      49.113  49.271  12.123  1.00  0.00     0.004 C 
ENDBRANCH   9  10
ENDBRANCH   8   9
ENDBRANCH   7   8
ENDBRANCH   1   7
TORSDOF 7
ENDMDL
MODEL 5
REMARK VINA RESULT:    -4.045      3.252      6.611
REMARK INTER + INTRA:          -6.083
REMARK INTER:                  -5.841
REMARK INTRA:                  -0.242
REMARK UNBOUND:                -0.383
REMARK SMILES CCCCCCCCC(=O)[O-]
REMARK SMILES IDX 6 1 7 2 8 3 9 4 10 5 11 6 5 7 4 8 3 9 2 10 1 11
REMARK H PARENT
REMARK Flexibility Score: inf
ROOT
ATOM      1  C   UNL     1      50.857  33.087   3.983  1.00  0.00     0.000 C 
ENDROOT
BRANCH   1   2
ATOM      2  C   UNL     1      49.626  33.434   4.838  1.00  0.00     0.006 C 
BRANCH   2   3
ATOM      3  C   UNL     1      49.626  32.691   6.181  1.00  0.00     0.053 C 
BRANCH   3   4
ATOM      4  C   UNL     1      49.254  33.593   7.318  1.00  0.00     0.041 C 
ATOM      5  O   UNL     1      48.411  33.219   8.174  1.00  0.00    -0.550 OA
ATOM      6  O   UNL     1      49.862  34.835   7.449  1.00  0.00    -0.550 OA
ENDBRANCH   3   4
ENDBRANCH   2   3
ENDBRANCH   1   2
BRANCH   1   7
ATOM      7  C   UNL     1      50.796  33.707   2.578  1.00  0.00     0.000 C 
BRANCH   7   8
ATOM      8  C   UNL     1      51.986  33.298   1.696  1.00  0.00    -0.000 C 
BRANCH   8   9
ATOM      9  C   UNL     1      51.505  32.584   0.424  1.00  0.00    -0.000 C 
BRANCH   9  10
ATOM     10  C   UNL     1      50.117  33.060  -0.031  1.00  0.00    -0.003 C 
ATOM     11  C   UNL     1      49.607  32.307  -1.260  1.00  0.00     0.004 C 
ENDBRANCH   9  10
ENDBRANCH   8   9
ENDBRANCH   7   8
ENDBRANCH   1   7
TORSDOF 7
ENDMDL
MODEL 6
REMARK VINA RESULT:    -3.965     17.938     18.833
REMARK INTER + INTRA:          -5.970
REMARK INTER:                  -5.567
REMARK INTRA:                  -0.403
REMARK UNBOUND:                -0.383
REMARK SMILES CCCCCCCCC(=O)[O-]
REMARK SMILES IDX 6 1 7 2 8 3 9 4 10 5 11 6 5 7 4 8 3 9 2 10 1 11
REMARK H PARENT
REMARK Flexibility Score: inf
ROOT
ATOM      1  C   UNL     1      46.706  52.085   1.811  1.00  0.00     0.000 C 
ENDROOT
BRANCH   1   2
ATOM      2  C   UNL     1      45.225  51.686   1.703  1.00  0.00     0.006 C 
BRANCH   2   3
ATOM      3  C   UNL     1      45.041  50.313   1.043  1.00  0.00     0.053 C 
BRANCH   3   4
ATOM      4  C   UNL     1      43.636  49.811   1.178  1.00  0.00     0.041 C 
ATOM      5  O   UNL     1      42.912  50.204   2.130  1.00  0.00    -0.550 OA
ATOM      6  O   UNL     1      43.116  48.934   0.235  1.00  0.00    -0.550 OA
ENDBRANCH   3   4
ENDBRANCH   2   3
ENDBRANCH   1   2
BRANCH   1   7
ATOM      7  C   UNL     1      47.410  52.125   0.445  1.00  0.00     0.000 C 
BRANCH   7   8
ATOM      8  C   UNL     1      48.865  51.634   0.512  1.00  0.00    -0.000 C 
BRANCH   8   9
ATOM      9  C   UNL     1      49.094  50.765   1.757  1.00  0.00    -0.000 C 
BRANCH   9  10
ATOM     10  C   UNL     1      50.514  50.911   2.326  1.00  0.00    -0.003 C 
ATOM     11  C   UNL     1      51.511  51.443   1.297  1.00  0.00     0.004 C 
ENDBRANCH   9  10
ENDBRANCH   8   9
ENDBRANCH   7   8
ENDBRANCH   1   7
TORSDOF 7
ENDMDL
MODEL 7
REMARK VINA RESULT:    -3.928     18.027     18.640
REMARK INTER + INTRA:          -5.918
REMARK INTER:                  -5.719
REMARK INTRA:                  -0.199
REMARK UNBOUND:                -0.383
REMARK SMILES CCCCCCCCC(=O)[O-]
REMARK SMILES IDX 6 1 7 2 8 3 9 4 10 5 11 6 5 7 4 8 3 9 2 10 1 11
REMARK H PARENT
REMARK Flexibility Score: inf
ROOT
ATOM      1  C   UNL     1      47.042  51.961   0.307  1.00  0.00     0.000 C 
ENDROOT
BRANCH   1   2
ATOM      2  C   UNL     1      48.565  52.018   0.514  1.00  0.00     0.006 C 
BRANCH   2   3
ATOM      3  C   UNL     1      49.053  50.966   1.519  1.00  0.00     0.053 C 
BRANCH   3   4
ATOM      4  C   UNL     1      50.546  50.955   1.636  1.00  0.00     0.041 C 
ATOM      5  O   UNL     1      51.262  50.929   0.601  1.00  0.00    -0.550 OA
ATOM      6  O   UNL     1      51.147  51.004   2.887  1.00  0.00    -0.550 OA
ENDBRANCH   3   4
ENDBRANCH   2   3
ENDBRANCH   1   2
BRANCH   1   7
ATOM      7  C   UNL     1      46.270  51.811   1.627  1.00  0.00     0.000 C 
BRANCH   7   8
ATOM      8  C   UNL     1      45.505  50.481   1.721  1.00  0.00    -0.000 C 
BRANCH   8   9
ATOM      9  C   UNL     1      44.121  50.598   1.066  1.00  0.00    -0.000 C 
BRANCH   9  10
ATOM     10  C   UNL     1      43.608  49.253   0.528  1.00  0.00    -0.003 C 
ATOM     11  C   UNL     1      42.114  49.047   0.778  1.00  0.00     0.004 C 
ENDBRANCH   9  10
ENDBRANCH   8   9
ENDBRANCH   7   8
ENDBRANCH   1   7
TORSDOF 7
ENDMDL
MODEL 8
REMARK VINA RESULT:    -3.922      3.917      6.293
REMARK INTER + INTRA:          -5.909
REMARK INTER:                  -5.656
REMARK INTRA:                  -0.253
REMARK UNBOUND:                -0.383
REMARK SMILES CCCCCCCCC(=O)[O-]
REMARK SMILES IDX 6 1 7 2 8 3 9 4 10 5 11 6 5 7 4 8 3 9 2 10 1 11
REMARK H PARENT
REMARK Flexibility Score: inf
ROOT
ATOM      1  C   UNL     1      49.611  33.680   6.521  1.00  0.00     0.000 C 
ENDROOT
BRANCH   1   2
ATOM      2  C   UNL     1      49.650  33.692   8.058  1.00  0.00     0.006 C 
BRANCH   2   3
ATOM      3  C   UNL     1      50.031  35.069   8.618  1.00  0.00     0.053 C 
BRANCH   3   4
ATOM      4  C   UNL     1      49.692  35.195  10.071  1.00  0.00     0.041 C 
ATOM      5  O   UNL     1      48.552  35.595  10.424  1.00  0.00    -0.550 OA
ATOM      6  O   UNL     1      50.626  34.841  11.037  1.00  0.00    -0.550 OA
ENDBRANCH   3   4
ENDBRANCH   2   3
ENDBRANCH   1   2
BRANCH   1   7
ATOM      7  C   UNL     1      50.164  32.376   5.924  1.00  0.00     0.000 C 
BRANCH   7   8
ATOM      8  C   UNL     1      50.961  32.605   4.631  1.00  0.00    -0.000 C 
BRANCH   8   9
ATOM      9  C   UNL     1      50.312  33.702   3.773  1.00  0.00    -0.000 C 
BRANCH   9  10
ATOM     10  C   UNL     1      50.807  33.685   2.319  1.00  0.00    -0.003 C 
ATOM     11  C   UNL     1      51.930  32.674   2.088  1.00  0.00     0.004 C 
ENDBRANCH   9  10
ENDBRANCH   8   9
ENDBRANCH   7   8
ENDBRANCH   1   7
TORSDOF 7
ENDMDL
MODEL 9
REMARK VINA RESULT:    -3.918     12.947     15.098
REMARK INTER + INTRA:          -5.904
REMARK INTER:                  -5.374
REMARK INTRA:                  -0.530
REMARK UNBOUND:                -0.383
REMARK SMILES CCCCCCCCC(=O)[O-]
REMARK SMILES IDX 6 1 7 2 8 3 9 4 10 5 11 6 5 7 4 8 3 9 2 10 1 11
REMARK H PARENT
REMARK Flexibility Score: inf
ROOT
ATOM      1  C   UNL     1      51.289  46.956  13.700  1.00  0.00     0.000 C 
ENDROOT
BRANCH   1   2
ATOM      2  C   UNL     1      50.520  46.332  12.524  1.00  0.00     0.006 C 
BRANCH   2   3
ATOM      3  C   UNL     1      49.804  47.390  11.674  1.00  0.00     0.053 C 
BRANCH   3   4
ATOM      4  C   UNL     1      50.754  48.124  10.778  1.00  0.00     0.041 C 
ATOM      5  O   UNL     1      50.801  49.381  10.799  1.00  0.00    -0.550 OA
ATOM      6  O   UNL     1      51.609  47.417   9.943  1.00  0.00    -0.550 OA
ENDBRANCH   3   4
ENDBRANCH   2   3
ENDBRANCH   1   2
BRANCH   1   7
ATOM      7  C   UNL     1      52.808  46.982  13.468  1.00  0.00     0.000 C 
BRANCH   7   8
ATOM      8  C   UNL     1      53.316  45.743  12.714  1.00  0.00    -0.000 C 
BRANCH   8   9
ATOM      9  C   UNL     1      54.479  46.108  11.780  1.00  0.00    -0.000 C 
BRANCH   9  10
ATOM     10  C   UNL     1      54.555  45.193  10.548  1.00  0.00    -0.003 C 
ATOM     11  C   UNL     1      54.261  43.730  10.878  1.00  0.00     0.004 C 
ENDBRANCH   9  10
ENDBRANCH   8   9
ENDBRANCH   7   8
ENDBRANCH   1   7
TORSDOF 7
ENDMDL
