MODEL 1
REMARK VINA RESULT:    -7.859      0.000      0.000
REMARK INTER + INTRA:         -11.764
REMARK INTER:                 -11.534
REMARK INTRA:                  -0.230
REMARK UNBOUND:                -0.230
REMARK SMILES CC(C)(O)CC[C@@H](O)[C@@](C)(O)[C@H]1CC[C@]2(O)C3=CC(=O)[C@H]4C[C@@H](O)[C@@H](O)C[C@@]4(C)[C@H]3CC[C@@]12C
REMARK SMILES IDX 6 1 7 2 9 3 10 4 12 5 34 6 33 7 32 8 15 9 31 10 17 11 14 12
REMARK SMILES IDX 13 13 30 14 18 15 28 16 19 17 21 18 27 19 29 20 20 21 22 22
REMARK SMILES IDX 25 23 23 24 16 25 26 27 24 29 11 31 8 33 5 35 2 36 1 37 3 38
REMARK SMILES IDX 4 39
REMARK H PARENT 16 26 26 28 24 30 11 32 8 34 4 40
REMARK Flexibility Score: inf
ROOT
ATOM      1  C   UNL     1      16.766  26.645  -2.605  1.00  0.00     0.038 C 
ENDROOT
BRANCH   1   2
ATOM      2  C   UNL     1      15.973  26.325  -3.900  1.00  0.00     0.146 C 
BRANCH   2   3
ATOM      3  C   UNL     1      16.034  27.458  -5.012  1.00  0.00     0.091 C 
ATOM      4  C   UNL     1      14.763  27.443  -5.906  1.00  0.00     0.045 C 
BRANCH   3   5
ATOM      5  C   UNL     1      17.335  27.395  -5.917  1.00  0.00     0.032 C 
ATOM      6  C   UNL     1      17.874  27.510  -8.377  1.00  0.00     0.015 C 
ATOM      7  C   UNL     1      17.451  26.515  -7.235  1.00  0.00     0.006 C 
ATOM      8  C   UNL     1      16.217  25.722  -7.760  1.00  0.00     0.011 C 
ATOM      9  C   UNL     1      18.571  25.492  -6.895  1.00  0.00     0.092 C 
ATOM     10  C   UNL     1      16.568  24.442  -8.592  1.00  0.00     0.009 C 
ATOM     11  C   UNL     1      19.074  24.855  -8.179  1.00  0.00    -0.031 C 
ATOM     12  C   UNL     1      19.545  26.304  -6.037  1.00  0.00     0.041 C 
ATOM     13  C   UNL     1      18.625  27.100  -5.112  1.00  0.00     0.010 C 
ATOM     14  C   UNL     1      18.025  24.350  -9.171  1.00  0.00     0.025 C 
ATOM     15  C   UNL     1      20.374  24.630  -8.402  1.00  0.00     0.050 C 
ATOM     16  C   UNL     1      18.418  22.935  -9.747  1.00  0.00    -0.013 C 
ATOM     17  C   UNL     1      20.819  23.848  -9.564  1.00  0.00     0.159 C 
ATOM     18  C   UNL     1      19.837  23.064 -10.417  1.00  0.00     0.070 C 
ATOM     19  C   UNL     1      18.447  21.852  -8.619  1.00  0.00     0.042 C 
ATOM     20  C   UNL     1      17.375  22.534 -10.827  1.00  0.00     0.013 C 
ATOM     21  O   UNL     1      22.040  23.876  -9.875  1.00  0.00    -0.295 OA
ATOM     22  C   UNL     1      20.431  21.695 -10.840  1.00  0.00     0.047 C 
ATOM     23  C   UNL     1      19.018  20.497  -9.074  1.00  0.00     0.143 C 
ATOM     24  C   UNL     1      20.411  20.632  -9.727  1.00  0.00     0.143 C 
BRANCH   9  25
ATOM     25  O   UNL     1      18.052  24.456  -6.089  1.00  0.00    -0.385 OA
ATOM     26  H   UNL     1      18.324  23.588  -6.487  1.00  0.00     0.211 HD
ENDBRANCH   9  25
BRANCH  23  27
ATOM     27  O   UNL     1      19.088  19.638  -7.966  1.00  0.00    -0.390 OA
ATOM     28  H   UNL     1      19.707  20.061  -7.314  1.00  0.00     0.211 HD
ENDBRANCH  23  27
BRANCH  24  29
ATOM     29  O   UNL     1      21.432  20.853  -8.782  1.00  0.00    -0.390 OA
ATOM     30  H   UNL     1      21.824  19.981  -8.529  1.00  0.00     0.211 HD
ENDBRANCH  24  29
ENDBRANCH   3   5
BRANCH   3  31
ATOM     31  O   UNL     1      16.053  28.714  -4.361  1.00  0.00    -0.387 OA
ATOM     32  H   UNL     1      15.795  28.598  -3.408  1.00  0.00     0.211 HD
ENDBRANCH   3  31
ENDBRANCH   2   3
BRANCH   2  33
ATOM     33  O   UNL     1      14.646  26.000  -3.553  1.00  0.00    -0.390 OA
ATOM     34  H   UNL     1      14.059  26.697  -3.946  1.00  0.00     0.211 HD
ENDBRANCH   2  33
ENDBRANCH   1   2
BRANCH   1  35
ATOM     35  C   UNL     1      15.854  26.844  -1.373  1.00  0.00     0.037 C 
BRANCH  35  36
ATOM     36  C   UNL     1      16.039  28.219  -0.670  1.00  0.00     0.059 C 
ATOM     37  C   UNL     1      17.509  28.371  -0.223  1.00  0.00     0.042 C 
ATOM     38  C   UNL     1      15.141  28.317   0.577  1.00  0.00     0.042 C 
BRANCH  36  39
ATOM     39  O   UNL     1      15.705  29.273  -1.543  1.00  0.00    -0.390 OA
ATOM     40  H   UNL     1      14.754  29.515  -1.379  1.00  0.00     0.211 HD
ENDBRANCH  36  39
ENDBRANCH  35  36
ENDBRANCH   1  35
TORSDOF 11
ENDMDL
MODEL 2
REMARK VINA RESULT:    -7.767      4.089      6.625
REMARK INTER + INTRA:         -11.630
REMARK INTER:                 -11.140
REMARK INTRA:                  -0.490
REMARK UNBOUND:                -0.230
REMARK SMILES CC(C)(O)CC[C@@H](O)[C@@](C)(O)[C@H]1CC[C@]2(O)C3=CC(=O)[C@H]4C[C@@H](O)[C@@H](O)C[C@@]4(C)[C@H]3CC[C@@]12C
REMARK SMILES IDX 6 1 7 2 9 3 10 4 12 5 34 6 33 7 32 8 15 9 31 10 17 11 14 12
REMARK SMILES IDX 13 13 30 14 18 15 28 16 19 17 21 18 27 19 29 20 20 21 22 22
REMARK SMILES IDX 25 23 23 24 16 25 26 27 24 29 11 31 8 33 5 35 2 36 1 37 3 38
REMARK SMILES IDX 4 39
REMARK H PARENT 16 26 26 28 24 30 11 32 8 34 4 40
REMARK Flexibility Score: inf
ROOT
ATOM      1  C   UNL     1      17.746  25.089   0.014  1.00  0.00     0.038 C 
ENDROOT
BRANCH   1   2
ATOM      2  C   UNL     1      18.582  25.225  -1.287  1.00  0.00     0.146 C 
BRANCH   2   3
ATOM      3  C   UNL     1      18.184  26.458  -2.206  1.00  0.00     0.091 C 
ATOM      4  C   UNL     1      17.538  27.600  -1.374  1.00  0.00     0.045 C 
BRANCH   3   5
ATOM      5  C   UNL     1      17.239  26.069  -3.420  1.00  0.00     0.032 C 
ATOM      6  C   UNL     1      17.527  25.288  -5.799  1.00  0.00     0.015 C 
ATOM      7  C   UNL     1      17.460  26.581  -4.908  1.00  0.00     0.006 C 
ATOM      8  C   UNL     1      18.709  27.442  -5.265  1.00  0.00     0.011 C 
ATOM      9  C   UNL     1      16.191  27.433  -5.194  1.00  0.00     0.092 C 
ATOM     10  C   UNL     1      18.512  28.406  -6.483  1.00  0.00     0.009 C 
ATOM     11  C   UNL     1      16.061  27.650  -6.691  1.00  0.00    -0.031 C 
ATOM     12  C   UNL     1      15.083  26.680  -4.453  1.00  0.00     0.041 C 
ATOM     13  C   UNL     1      15.737  26.303  -3.124  1.00  0.00     0.010 C 
ATOM     14  C   UNL     1      17.313  28.093  -7.450  1.00  0.00     0.025 C 
ATOM     15  C   UNL     1      14.884  27.575  -7.323  1.00  0.00     0.050 C 
ATOM     16  C   UNL     1      16.982  29.237  -8.482  1.00  0.00    -0.013 C 
ATOM     17  C   UNL     1      14.754  27.969  -8.733  1.00  0.00     0.159 C 
ATOM     18  C   UNL     1      15.871  28.698  -9.460  1.00  0.00     0.070 C 
ATOM     19  C   UNL     1      16.484  30.530  -7.755  1.00  0.00     0.042 C 
ATOM     20  C   UNL     1      18.268  29.560  -9.294  1.00  0.00     0.013 C 
ATOM     21  O   UNL     1      13.706  27.647  -9.354  1.00  0.00    -0.295 OA
ATOM     22  C   UNL     1      15.306  29.799 -10.396  1.00  0.00     0.047 C 
ATOM     23  C   UNL     1      15.952  31.613  -8.710  1.00  0.00     0.143 C 
ATOM     24  C   UNL     1      14.861  31.078  -9.663  1.00  0.00     0.143 C 
BRANCH   9  25
ATOM     25  O   UNL     1      16.317  28.706  -4.596  1.00  0.00    -0.385 OA
ATOM     26  H   UNL     1      17.087  29.170  -5.018  1.00  0.00     0.211 HD
ENDBRANCH   9  25
BRANCH  23  27
ATOM     27  O   UNL     1      15.445  32.679  -7.950  1.00  0.00    -0.390 OA
ATOM     28  H   UNL     1      16.064  32.805  -7.183  1.00  0.00     0.211 HD
ENDBRANCH  23  27
BRANCH  24  29
ATOM     29  O   UNL     1      13.621  30.900  -9.020  1.00  0.00    -0.390 OA
ATOM     30  H   UNL     1      12.923  30.768  -9.708  1.00  0.00     0.211 HD
ENDBRANCH  24  29
ENDBRANCH   3   5
BRANCH   3  31
ATOM     31  O   UNL     1      19.368  26.990  -2.768  1.00  0.00    -0.387 OA
ATOM     32  H   UNL     1      20.103  26.940  -2.101  1.00  0.00     0.211 HD
ENDBRANCH   3  31
ENDBRANCH   2   3
BRANCH   2  33
ATOM     33  O   UNL     1      18.528  24.005  -1.993  1.00  0.00    -0.390 OA
ATOM     34  H   UNL     1      18.282  23.299  -1.342  1.00  0.00     0.211 HD
ENDBRANCH   2  33
ENDBRANCH   1   2
BRANCH   1  35
ATOM     35  C   UNL     1      16.866  23.818   0.035  1.00  0.00     0.037 C 
BRANCH  35  36
ATOM     36  C   UNL     1      15.352  24.106   0.241  1.00  0.00     0.059 C 
ATOM     37  C   UNL     1      15.160  25.591   0.615  1.00  0.00     0.042 C 
ATOM     38  C   UNL     1      14.786  23.242   1.383  1.00  0.00     0.042 C 
BRANCH  36  39
ATOM     39  O   UNL     1      14.627  23.822  -0.933  1.00  0.00    -0.390 OA
ATOM     40  H   UNL     1      14.154  24.652  -1.208  1.00  0.00     0.211 HD
ENDBRANCH  36  39
ENDBRANCH  35  36
ENDBRANCH   1  35
TORSDOF 11
ENDMDL
MODEL 3
REMARK VINA RESULT:    -7.637      3.542      4.831
REMARK INTER + INTRA:         -11.439
REMARK INTER:                 -11.069
REMARK INTRA:                  -0.370
REMARK UNBOUND:                -0.230
REMARK SMILES CC(C)(O)CC[C@@H](O)[C@@](C)(O)[C@H]1CC[C@]2(O)C3=CC(=O)[C@H]4C[C@@H](O)[C@@H](O)C[C@@]4(C)[C@H]3CC[C@@]12C
REMARK SMILES IDX 6 1 7 2 9 3 10 4 12 5 34 6 33 7 32 8 15 9 31 10 17 11 14 12
REMARK SMILES IDX 13 13 30 14 18 15 28 16 19 17 21 18 27 19 29 20 20 21 22 22
REMARK SMILES IDX 25 23 23 24 16 25 26 27 24 29 11 31 8 33 5 35 2 36 1 37 3 38
REMARK SMILES IDX 4 39
REMARK H PARENT 16 26 26 28 24 30 11 32 8 34 4 40
REMARK Flexibility Score: inf
ROOT
ATOM      1  C   UNL     1      18.502  27.167  -1.370  1.00  0.00     0.038 C 
ENDROOT
BRANCH   1   2
ATOM      2  C   UNL     1      17.805  26.267  -2.426  1.00  0.00     0.146 C 
BRANCH   2   3
ATOM      3  C   UNL     1      16.394  26.799  -2.923  1.00  0.00     0.091 C 
ATOM      4  C   UNL     1      15.228  25.996  -2.283  1.00  0.00     0.045 C 
BRANCH   3   5
ATOM      5  C   UNL     1      16.239  26.816  -4.502  1.00  0.00     0.032 C 
ATOM      6  C   UNL     1      16.754  25.262  -6.419  1.00  0.00     0.015 C 
ATOM      7  C   UNL     1      17.388  26.373  -5.506  1.00  0.00     0.006 C 
ATOM      8  C   UNL     1      18.730  25.800  -4.958  1.00  0.00     0.011 C 
ATOM      9  C   UNL     1      17.708  27.677  -6.293  1.00  0.00     0.092 C 
ATOM     10  C   UNL     1      19.966  26.021  -5.895  1.00  0.00     0.009 C 
ATOM     11  C   UNL     1      18.486  27.324  -7.548  1.00  0.00    -0.031 C 
ATOM     12  C   UNL     1      16.341  28.353  -6.430  1.00  0.00     0.041 C 
ATOM     13  C   UNL     1      15.712  28.166  -5.049  1.00  0.00     0.010 C 
ATOM     14  C   UNL     1      19.665  26.361  -7.399  1.00  0.00     0.025 C 
ATOM     15  C   UNL     1      18.241  27.909  -8.727  1.00  0.00     0.050 C 
ATOM     16  C   UNL     1      20.913  26.853  -8.226  1.00  0.00    -0.013 C 
ATOM     17  C   UNL     1      19.124  27.689  -9.880  1.00  0.00     0.159 C 
ATOM     18  C   UNL     1      20.469  26.998  -9.730  1.00  0.00     0.070 C 
ATOM     19  C   UNL     1      21.450  28.219  -7.685  1.00  0.00     0.042 C 
ATOM     20  C   UNL     1      22.031  25.778  -8.123  1.00  0.00     0.013 C 
ATOM     21  O   UNL     1      18.724  28.045 -11.021  1.00  0.00    -0.295 OA
ATOM     22  C   UNL     1      21.548  27.674 -10.616  1.00  0.00     0.047 C 
ATOM     23  C   UNL     1      22.537  28.854  -8.571  1.00  0.00     0.143 C 
ATOM     24  C   UNL     1      22.092  28.996 -10.043  1.00  0.00     0.143 C 
BRANCH   9  25
ATOM     25  O   UNL     1      18.528  28.523  -5.515  1.00  0.00    -0.385 OA
ATOM     26  H   UNL     1      18.056  29.389  -5.397  1.00  0.00     0.211 HD
ENDBRANCH   9  25
BRANCH  23  27
ATOM     27  O   UNL     1      22.872  30.113  -8.047  1.00  0.00    -0.390 OA
ATOM     28  H   UNL     1      22.936  30.005  -7.062  1.00  0.00     0.211 HD
ENDBRANCH  23  27
BRANCH  24  29
ATOM     29  O   UNL     1      21.183  30.055 -10.234  1.00  0.00    -0.390 OA
ATOM     30  H   UNL     1      20.315  29.804  -9.831  1.00  0.00     0.211 HD
ENDBRANCH  24  29
ENDBRANCH   3   5
BRANCH   3  31
ATOM     31  O   UNL     1      16.247  28.137  -2.487  1.00  0.00    -0.387 OA
ATOM     32  H   UNL     1      17.112  28.463  -2.121  1.00  0.00     0.211 HD
ENDBRANCH   3  31
ENDBRANCH   2   3
BRANCH   2  33
ATOM     33  O   UNL     1      17.723  24.954  -1.921  1.00  0.00    -0.390 OA
ATOM     34  H   UNL     1      18.486  24.444  -2.299  1.00  0.00     0.211 HD
ENDBRANCH   2  33
ENDBRANCH   1   2
BRANCH   1  35
ATOM     35  C   UNL     1      18.403  26.601   0.065  1.00  0.00     0.037 C 
BRANCH  35  36
ATOM     36  C   UNL     1      17.552  27.476   1.028  1.00  0.00     0.059 C 
ATOM     37  C   UNL     1      18.433  28.601   1.611  1.00  0.00     0.042 C 
ATOM     38  C   UNL     1      17.011  26.630   2.195  1.00  0.00     0.042 C 
BRANCH  36  39
ATOM     39  O   UNL     1      16.457  28.045   0.347  1.00  0.00    -0.390 OA
ATOM     40  H   UNL     1      15.775  27.333   0.218  1.00  0.00     0.211 HD
ENDBRANCH  36  39
ENDBRANCH  35  36
ENDBRANCH   1  35
TORSDOF 11
ENDMDL
MODEL 4
REMARK VINA RESULT:    -7.620      3.951      7.845
REMARK INTER + INTRA:         -11.414
REMARK INTER:                 -10.625
REMARK INTRA:                  -0.789
REMARK UNBOUND:                -0.230
REMARK SMILES CC(C)(O)CC[C@@H](O)[C@@](C)(O)[C@H]1CC[C@]2(O)C3=CC(=O)[C@H]4C[C@@H](O)[C@@H](O)C[C@@]4(C)[C@H]3CC[C@@]12C
REMARK SMILES IDX 6 1 7 2 9 3 10 4 12 5 34 6 33 7 32 8 15 9 31 10 17 11 14 12
REMARK SMILES IDX 13 13 30 14 18 15 28 16 19 17 21 18 27 19 29 20 20 21 22 22
REMARK SMILES IDX 25 23 23 24 16 25 26 27 24 29 11 31 8 33 5 35 2 36 1 37 3 38
REMARK SMILES IDX 4 39
REMARK H PARENT 16 26 26 28 24 30 11 32 8 34 4 40
REMARK Flexibility Score: inf
ROOT
ATOM      1  C   UNL     1      15.812  30.389  -8.810  1.00  0.00     0.038 C 
ENDROOT
BRANCH   1   2
ATOM      2  C   UNL     1      15.333  29.067  -8.154  1.00  0.00     0.146 C 
BRANCH   2   3
ATOM      3  C   UNL     1      16.002  27.753  -8.745  1.00  0.00     0.091 C 
ATOM      4  C   UNL     1      14.928  26.750  -9.251  1.00  0.00     0.045 C 
BRANCH   3   5
ATOM      5  C   UNL     1      16.988  27.029  -7.734  1.00  0.00     0.032 C 
ATOM      6  C   UNL     1      16.962  24.954  -6.305  1.00  0.00     0.015 C 
ATOM      7  C   UNL     1      16.543  26.468  -6.316  1.00  0.00     0.006 C 
ATOM      8  C   UNL     1      15.047  26.528  -5.884  1.00  0.00     0.011 C 
ATOM      9  C   UNL     1      17.369  27.320  -5.310  1.00  0.00     0.092 C 
ATOM     10  C   UNL     1      14.816  26.590  -4.336  1.00  0.00     0.009 C 
ATOM     11  C   UNL     1      17.360  26.638  -3.954  1.00  0.00    -0.031 C 
ATOM     12  C   UNL     1      18.703  27.526  -6.031  1.00  0.00     0.041 C 
ATOM     13  C   UNL     1      18.287  27.832  -7.469  1.00  0.00     0.010 C 
ATOM     14  C   UNL     1      16.014  26.146  -3.421  1.00  0.00     0.025 C 
ATOM     15  C   UNL     1      18.454  26.563  -3.187  1.00  0.00     0.050 C 
ATOM     16  C   UNL     1      15.841  26.494  -1.893  1.00  0.00    -0.013 C 
ATOM     17  C   UNL     1      18.379  26.065  -1.806  1.00  0.00     0.159 C 
ATOM     18  C   UNL     1      17.045  25.847  -1.112  1.00  0.00     0.070 C 
ATOM     19  C   UNL     1      15.813  28.041  -1.664  1.00  0.00     0.042 C 
ATOM     20  C   UNL     1      14.509  25.870  -1.390  1.00  0.00     0.013 C 
ATOM     21  O   UNL     1      19.452  25.773  -1.213  1.00  0.00    -0.295 OA
ATOM     22  C   UNL     1      17.108  26.289   0.374  1.00  0.00     0.047 C 
ATOM     23  C   UNL     1      15.851  28.449  -0.180  1.00  0.00     0.143 C 
ATOM     24  C   UNL     1      17.037  27.814   0.578  1.00  0.00     0.143 C 
BRANCH   9  25
ATOM     25  O   UNL     1      16.771  28.588  -5.145  1.00  0.00    -0.385 OA
ATOM     26  H   UNL     1      15.805  28.506  -5.362  1.00  0.00     0.211 HD
ENDBRANCH   9  25
BRANCH  23  27
ATOM     27  O   UNL     1      15.922  29.849  -0.096  1.00  0.00    -0.390 OA
ATOM     28  H   UNL     1      16.713  30.063   0.464  1.00  0.00     0.211 HD
ENDBRANCH  23  27
BRANCH  24  29
ATOM     29  O   UNL     1      18.266  28.433   0.277  1.00  0.00    -0.390 OA
ATOM     30  H   UNL     1      18.264  29.344   0.661  1.00  0.00     0.211 HD
ENDBRANCH  24  29
ENDBRANCH   3   5
BRANCH   3  31
ATOM     31  O   UNL     1      16.774  28.119  -9.873  1.00  0.00    -0.387 OA
ATOM     32  H   UNL     1      16.278  28.795 -10.407  1.00  0.00     0.211 HD
ENDBRANCH   3  31
ENDBRANCH   2   3
BRANCH   2  33
ATOM     33  O   UNL     1      13.926  29.012  -8.213  1.00  0.00    -0.390 OA
ATOM     34  H   UNL     1      13.645  28.160  -7.790  1.00  0.00     0.211 HD
ENDBRANCH   2  33
ENDBRANCH   1   2
BRANCH   1  35
ATOM     35  C   UNL     1      16.251  31.452  -7.777  1.00  0.00     0.037 C 
BRANCH  35  36
ATOM     36  C   UNL     1      15.794  32.896  -8.128  1.00  0.00     0.059 C 
ATOM     37  C   UNL     1      16.271  33.866  -7.026  1.00  0.00     0.042 C 
ATOM     38  C   UNL     1      14.259  32.975  -8.212  1.00  0.00     0.042 C 
BRANCH  36  39
ATOM     39  O   UNL     1      16.329  33.299  -9.368  1.00  0.00    -0.390 OA
ATOM     40  H   UNL     1      15.960  34.198  -9.581  1.00  0.00     0.211 HD
ENDBRANCH  36  39
ENDBRANCH  35  36
ENDBRANCH   1  35
TORSDOF 11
ENDMDL
MODEL 5
REMARK VINA RESULT:    -7.575      3.942      8.072
REMARK INTER + INTRA:         -11.347
REMARK INTER:                 -10.629
REMARK INTRA:                  -0.719
REMARK UNBOUND:                -0.230
REMARK SMILES CC(C)(O)CC[C@@H](O)[C@@](C)(O)[C@H]1CC[C@]2(O)C3=CC(=O)[C@H]4C[C@@H](O)[C@@H](O)C[C@@]4(C)[C@H]3CC[C@@]12C
REMARK SMILES IDX 6 1 7 2 9 3 10 4 12 5 34 6 33 7 32 8 15 9 31 10 17 11 14 12
REMARK SMILES IDX 13 13 30 14 18 15 28 16 19 17 21 18 27 19 29 20 20 21 22 22
REMARK SMILES IDX 25 23 23 24 16 25 26 27 24 29 11 31 8 33 5 35 2 36 1 37 3 38
REMARK SMILES IDX 4 39
REMARK H PARENT 16 26 26 28 24 30 11 32 8 34 4 40
REMARK Flexibility Score: inf
ROOT
ATOM      1  C   UNL     1      13.379  27.725  -9.209  1.00  0.00     0.038 C 
ENDROOT
BRANCH   1   2
ATOM      2  C   UNL     1      14.700  26.920  -9.086  1.00  0.00     0.146 C 
BRANCH   2   3
ATOM      3  C   UNL     1      15.971  27.786  -8.690  1.00  0.00     0.091 C 
ATOM      4  C   UNL     1      16.746  28.264  -9.950  1.00  0.00     0.045 C 
BRANCH   3   5
ATOM      5  C   UNL     1      16.960  27.050  -7.691  1.00  0.00     0.032 C 
ATOM      6  C   UNL     1      16.932  24.962  -6.280  1.00  0.00     0.015 C 
ATOM      7  C   UNL     1      16.519  26.478  -6.276  1.00  0.00     0.006 C 
ATOM      8  C   UNL     1      15.026  26.541  -5.835  1.00  0.00     0.011 C 
ATOM      9  C   UNL     1      17.354  27.318  -5.267  1.00  0.00     0.092 C 
ATOM     10  C   UNL     1      14.803  26.591  -4.286  1.00  0.00     0.009 C 
ATOM     11  C   UNL     1      17.349  26.624  -3.916  1.00  0.00    -0.031 C 
ATOM     12  C   UNL     1      18.686  27.524  -5.992  1.00  0.00     0.041 C 
ATOM     13  C   UNL     1      18.263  27.844  -7.426  1.00  0.00     0.010 C 
ATOM     14  C   UNL     1      16.003  26.133  -3.381  1.00  0.00     0.025 C 
ATOM     15  C   UNL     1      18.447  26.537  -3.156  1.00  0.00     0.050 C 
ATOM     16  C   UNL     1      15.840  26.469  -1.849  1.00  0.00    -0.013 C 
ATOM     17  C   UNL     1      18.376  26.028  -1.779  1.00  0.00     0.159 C 
ATOM     18  C   UNL     1      17.045  25.810  -1.080  1.00  0.00     0.070 C 
ATOM     19  C   UNL     1      15.820  28.014  -1.606  1.00  0.00     0.042 C 
ATOM     20  C   UNL     1      14.508  25.846  -1.345  1.00  0.00     0.013 C 
ATOM     21  O   UNL     1      19.451  25.726  -1.194  1.00  0.00    -0.295 OA
ATOM     22  C   UNL     1      17.118  26.239   0.410  1.00  0.00     0.047 C 
ATOM     23  C   UNL     1      15.868  28.409  -0.119  1.00  0.00     0.143 C 
ATOM     24  C   UNL     1      17.054  27.762   0.627  1.00  0.00     0.143 C 
BRANCH   9  25
ATOM     25  O   UNL     1      16.763  28.587  -5.087  1.00  0.00    -0.385 OA
ATOM     26  H   UNL     1      16.221  28.793  -5.894  1.00  0.00     0.211 HD
ENDBRANCH   9  25
BRANCH  23  27
ATOM     27  O   UNL     1      15.945  29.808  -0.024  1.00  0.00    -0.390 OA
ATOM     28  H   UNL     1      15.117  30.110   0.435  1.00  0.00     0.211 HD
ENDBRANCH  23  27
BRANCH  24  29
ATOM     29  O   UNL     1      18.284  28.379   0.325  1.00  0.00    -0.390 OA
ATOM     30  H   UNL     1      19.016  27.750   0.544  1.00  0.00     0.211 HD
ENDBRANCH  24  29
ENDBRANCH   3   5
BRANCH   3  31
ATOM     31  O   UNL     1      15.521  28.953  -8.029  1.00  0.00    -0.387 OA
ATOM     32  H   UNL     1      15.473  28.782  -7.050  1.00  0.00     0.211 HD
ENDBRANCH   3  31
ENDBRANCH   2   3
BRANCH   2  33
ATOM     33  O   UNL     1      14.907  26.199 -10.280  1.00  0.00    -0.390 OA
ATOM     34  H   UNL     1      14.651  25.257 -10.105  1.00  0.00     0.211 HD
ENDBRANCH   2  33
ENDBRANCH   1   2
BRANCH   1  35
ATOM     35  C   UNL     1      12.125  26.879  -8.889  1.00  0.00     0.037 C 
BRANCH  35  36
ATOM     36  C   UNL     1      10.804  27.699  -8.860  1.00  0.00     0.059 C 
ATOM     37  C   UNL     1       9.601  26.732  -8.851  1.00  0.00     0.042 C 
ATOM     38  C   UNL     1      10.696  28.597 -10.106  1.00  0.00     0.042 C 
BRANCH  36  39
ATOM     39  O   UNL     1      10.753  28.519  -7.715  1.00  0.00    -0.390 OA
ATOM     40  H   UNL     1      10.120  29.263  -7.901  1.00  0.00     0.211 HD
ENDBRANCH  36  39
ENDBRANCH  35  36
ENDBRANCH   1  35
TORSDOF 11
ENDMDL
MODEL 6
REMARK VINA RESULT:    -7.463      2.124      8.359
REMARK INTER + INTRA:         -11.184
REMARK INTER:                 -10.334
REMARK INTRA:                  -0.849
REMARK UNBOUND:                -0.230
REMARK SMILES CC(C)(O)CC[C@@H](O)[C@@](C)(O)[C@H]1CC[C@]2(O)C3=CC(=O)[C@H]4C[C@@H](O)[C@@H](O)C[C@@]4(C)[C@H]3CC[C@@]12C
REMARK SMILES IDX 6 1 7 2 9 3 10 4 12 5 34 6 33 7 32 8 15 9 31 10 17 11 14 12
REMARK SMILES IDX 13 13 30 14 18 15 28 16 19 17 21 18 27 19 29 20 20 21 22 22
REMARK SMILES IDX 25 23 23 24 16 25 26 27 24 29 11 31 8 33 5 35 2 36 1 37 3 38
REMARK SMILES IDX 4 39
REMARK H PARENT 16 26 26 28 24 30 11 32 8 34 4 40
REMARK Flexibility Score: inf
ROOT
ATOM      1  C   UNL     1      19.310  23.381  -9.004  1.00  0.00     0.038 C 
ENDROOT
BRANCH   1   2
ATOM      2  C   UNL     1      19.606  24.703  -8.246  1.00  0.00     0.146 C 
BRANCH   2   3
ATOM      3  C   UNL     1      18.858  25.980  -8.822  1.00  0.00     0.091 C 
ATOM      4  C   UNL     1      19.868  27.057  -9.308  1.00  0.00     0.045 C 
BRANCH   3   5
ATOM      5  C   UNL     1      17.823  26.625  -7.808  1.00  0.00     0.032 C 
ATOM      6  C   UNL     1      17.793  28.554  -6.186  1.00  0.00     0.015 C 
ATOM      7  C   UNL     1      18.189  27.039  -6.318  1.00  0.00     0.006 C 
ATOM      8  C   UNL     1      19.654  26.906  -5.804  1.00  0.00     0.011 C 
ATOM      9  C   UNL     1      17.289  26.112  -5.450  1.00  0.00     0.092 C 
ATOM     10  C   UNL     1      19.788  26.691  -4.259  1.00  0.00     0.009 C 
ATOM     11  C   UNL     1      17.225  26.661  -4.036  1.00  0.00    -0.031 C 
ATOM     12  C   UNL     1      15.998  26.005  -6.266  1.00  0.00     0.041 C 
ATOM     13  C   UNL     1      16.498  25.829  -7.700  1.00  0.00     0.010 C 
ATOM     14  C   UNL     1      18.543  27.072  -3.379  1.00  0.00     0.025 C 
ATOM     15  C   UNL     1      16.087  26.686  -3.332  1.00  0.00     0.050 C 
ATOM     16  C   UNL     1      18.616  26.576  -1.884  1.00  0.00    -0.013 C 
ATOM     17  C   UNL     1      16.085  27.048  -1.908  1.00  0.00     0.159 C 
ATOM     18  C   UNL     1      17.376  27.170  -1.117  1.00  0.00     0.070 C 
ATOM     19  C   UNL     1      18.606  25.014  -1.804  1.00  0.00     0.042 C 
ATOM     20  C   UNL     1      19.924  27.120  -1.244  1.00  0.00     0.013 C 
ATOM     21  O   UNL     1      14.982  27.305  -1.354  1.00  0.00    -0.295 OA
ATOM     22  C   UNL     1      17.215  26.590   0.313  1.00  0.00     0.047 C 
ATOM     23  C   UNL     1      18.470  24.466  -0.371  1.00  0.00     0.143 C 
ATOM     24  C   UNL     1      17.250  25.052   0.372  1.00  0.00     0.143 C 
BRANCH   9  25
ATOM     25  O   UNL     1      17.856  24.821  -5.373  1.00  0.00    -0.385 OA
ATOM     26  H   UNL     1      17.247  24.248  -4.836  1.00  0.00     0.211 HD
ENDBRANCH   9  25
BRANCH  23  27
ATOM     27  O   UNL     1      18.373  23.067  -0.427  1.00  0.00    -0.390 OA
ATOM     28  H   UNL     1      17.828  22.785   0.354  1.00  0.00     0.211 HD
ENDBRANCH  23  27
BRANCH  24  29
ATOM     29  O   UNL     1      16.033  24.490  -0.060  1.00  0.00    -0.390 OA
ATOM     30  H   UNL     1      15.362  24.594   0.660  1.00  0.00     0.211 HD
ENDBRANCH  24  29
ENDBRANCH   3   5
BRANCH   3  31
ATOM     31  O   UNL     1      18.117  25.582  -9.960  1.00  0.00    -0.387 OA
ATOM     32  H   UNL     1      18.143  24.592 -10.042  1.00  0.00     0.211 HD
ENDBRANCH   3  31
ENDBRANCH   2   3
BRANCH   2  33
ATOM     33  O   UNL     1      21.002  24.892  -8.190  1.00  0.00    -0.390 OA
ATOM     34  H   UNL     1      21.427  24.033  -8.444  1.00  0.00     0.211 HD
ENDBRANCH   2  33
ENDBRANCH   1   2
BRANCH   1  35
ATOM     35  C   UNL     1      20.485  22.923  -9.899  1.00  0.00     0.037 C 
BRANCH  35  36
ATOM     36  C   UNL     1      21.211  21.650  -9.379  1.00  0.00     0.059 C 
ATOM     37  C   UNL     1      21.888  20.927 -10.562  1.00  0.00     0.042 C 
ATOM     38  C   UNL     1      20.208  20.680  -8.728  1.00  0.00     0.042 C 
BRANCH  36  39
ATOM     39  O   UNL     1      22.186  21.990  -8.420  1.00  0.00    -0.390 OA
ATOM     40  H   UNL     1      22.854  22.581  -8.860  1.00  0.00     0.211 HD
ENDBRANCH  36  39
ENDBRANCH  35  36
ENDBRANCH   1  35
TORSDOF 11
ENDMDL
MODEL 7
REMARK VINA RESULT:    -7.436      2.786      8.361
REMARK INTER + INTRA:         -11.144
REMARK INTER:                 -10.511
REMARK INTRA:                  -0.633
REMARK UNBOUND:                -0.230
REMARK SMILES CC(C)(O)CC[C@@H](O)[C@@](C)(O)[C@H]1CC[C@]2(O)C3=CC(=O)[C@H]4C[C@@H](O)[C@@H](O)C[C@@]4(C)[C@H]3CC[C@@]12C
REMARK SMILES IDX 6 1 7 2 9 3 10 4 12 5 34 6 33 7 32 8 15 9 31 10 17 11 14 12
REMARK SMILES IDX 13 13 30 14 18 15 28 16 19 17 21 18 27 19 29 20 20 21 22 22
REMARK SMILES IDX 25 23 23 24 16 25 26 27 24 29 11 31 8 33 5 35 2 36 1 37 3 38
REMARK SMILES IDX 4 39
REMARK H PARENT 16 26 26 28 24 30 11 32 8 34 4 40
REMARK Flexibility Score: inf
ROOT
ATOM      1  C   UNL     1      21.411  26.086  -8.529  1.00  0.00     0.038 C 
ENDROOT
BRANCH   1   2
ATOM      2  C   UNL     1      20.104  26.888  -8.773  1.00  0.00     0.146 C 
BRANCH   2   3
ATOM      3  C   UNL     1      18.767  26.051  -8.582  1.00  0.00     0.091 C 
ATOM      4  C   UNL     1      18.052  25.809  -9.940  1.00  0.00     0.045 C 
BRANCH   3   5
ATOM      5  C   UNL     1      17.755  26.693  -7.542  1.00  0.00     0.032 C 
ATOM      6  C   UNL     1      17.775  28.597  -5.891  1.00  0.00     0.015 C 
ATOM      7  C   UNL     1      18.149  27.079  -6.052  1.00  0.00     0.006 C 
ATOM      8  C   UNL     1      19.620  26.920  -5.563  1.00  0.00     0.011 C 
ATOM      9  C   UNL     1      17.251  26.152  -5.185  1.00  0.00     0.092 C 
ATOM     10  C   UNL     1      19.775  26.680  -4.023  1.00  0.00     0.009 C 
ATOM     11  C   UNL     1      17.215  26.680  -3.762  1.00  0.00    -0.031 C 
ATOM     12  C   UNL     1      15.947  26.073  -5.982  1.00  0.00     0.041 C 
ATOM     13  C   UNL     1      16.422  25.913  -7.426  1.00  0.00     0.010 C 
ATOM     14  C   UNL     1      18.549  27.063  -3.119  1.00  0.00     0.025 C 
ATOM     15  C   UNL     1      16.088  26.709  -3.041  1.00  0.00     0.050 C 
ATOM     16  C   UNL     1      18.638  26.543  -1.633  1.00  0.00    -0.013 C 
ATOM     17  C   UNL     1      16.112  27.048  -1.611  1.00  0.00     0.159 C 
ATOM     18  C   UNL     1      17.417  27.142  -0.838  1.00  0.00     0.070 C 
ATOM     19  C   UNL     1      18.608  24.980  -1.576  1.00  0.00     0.042 C 
ATOM     20  C   UNL     1      19.962  27.061  -1.005  1.00  0.00     0.013 C 
ATOM     21  O   UNL     1      15.021  27.311  -1.037  1.00  0.00    -0.295 OA
ATOM     22  C   UNL     1      17.270  26.542   0.585  1.00  0.00     0.047 C 
ATOM     23  C   UNL     1      18.487  24.413  -0.150  1.00  0.00     0.143 C 
ATOM     24  C   UNL     1      17.285  25.002   0.620  1.00  0.00     0.143 C 
BRANCH   9  25
ATOM     25  O   UNL     1      17.802  24.852  -5.136  1.00  0.00    -0.385 OA
ATOM     26  H   UNL     1      17.101  24.209  -5.421  1.00  0.00     0.211 HD
ENDBRANCH   9  25
BRANCH  23  27
ATOM     27  O   UNL     1      18.370  23.016  -0.226  1.00  0.00    -0.390 OA
ATOM     28  H   UNL     1      17.466  22.822  -0.589  1.00  0.00     0.211 HD
ENDBRANCH  23  27
BRANCH  24  29
ATOM     29  O   UNL     1      16.054  24.463   0.198  1.00  0.00    -0.390 OA
ATOM     30  H   UNL     1      15.411  24.518   0.948  1.00  0.00     0.211 HD
ENDBRANCH  24  29
ENDBRANCH   3   5
BRANCH   3  31
ATOM     31  O   UNL     1      19.113  24.776  -8.077  1.00  0.00    -0.387 OA
ATOM     32  H   UNL     1      20.102  24.703  -8.011  1.00  0.00     0.211 HD
ENDBRANCH   3  31
ENDBRANCH   2   3
BRANCH   2  33
ATOM     33  O   UNL     1      20.170  27.490 -10.046  1.00  0.00    -0.390 OA
ATOM     34  H   UNL     1      20.991  28.046 -10.067  1.00  0.00     0.211 HD
ENDBRANCH   2  33
ENDBRANCH   1   2
BRANCH   1  35
ATOM     35  C   UNL     1      22.685  26.896  -8.861  1.00  0.00     0.037 C 
BRANCH  35  36
ATOM     36  C   UNL     1      23.999  26.071  -8.751  1.00  0.00     0.059 C 
ATOM     37  C   UNL     1      25.187  27.029  -8.522  1.00  0.00     0.042 C 
ATOM     38  C   UNL     1      24.256  25.284 -10.050  1.00  0.00     0.042 C 
BRANCH  36  39
ATOM     39  O   UNL     1      23.924  25.155  -7.683  1.00  0.00    -0.390 OA
ATOM     40  H   UNL     1      23.118  24.590  -7.823  1.00  0.00     0.211 HD
ENDBRANCH  36  39
ENDBRANCH  35  36
ENDBRANCH   1  35
TORSDOF 11
ENDMDL
MODEL 8
REMARK VINA RESULT:    -7.404      3.479      5.261
REMARK INTER + INTRA:         -11.096
REMARK INTER:                 -10.753
REMARK INTRA:                  -0.343
REMARK UNBOUND:                -0.230
REMARK SMILES CC(C)(O)CC[C@@H](O)[C@@](C)(O)[C@H]1CC[C@]2(O)C3=CC(=O)[C@H]4C[C@@H](O)[C@@H](O)C[C@@]4(C)[C@H]3CC[C@@]12C
REMARK SMILES IDX 6 1 7 2 9 3 10 4 12 5 34 6 33 7 32 8 15 9 31 10 17 11 14 12
REMARK SMILES IDX 13 13 30 14 18 15 28 16 19 17 21 18 27 19 29 20 20 21 22 22
REMARK SMILES IDX 25 23 23 24 16 25 26 27 24 29 11 31 8 33 5 35 2 36 1 37 3 38
REMARK SMILES IDX 4 39
REMARK H PARENT 16 26 26 28 24 30 11 32 8 34 4 40
REMARK Flexibility Score: inf
ROOT
ATOM      1  C   UNL     1      15.888  25.916  -1.396  1.00  0.00     0.038 C 
ENDROOT
BRANCH   1   2
ATOM      2  C   UNL     1      16.630  26.897  -2.343  1.00  0.00     0.146 C 
BRANCH   2   3
ATOM      3  C   UNL     1      18.053  26.394  -2.838  1.00  0.00     0.091 C 
ATOM      4  C   UNL     1      19.203  27.111  -2.079  1.00  0.00     0.045 C 
BRANCH   3   5
ATOM      5  C   UNL     1      18.268  26.529  -4.404  1.00  0.00     0.032 C 
ATOM      6  C   UNL     1      17.917  28.299  -6.164  1.00  0.00     0.015 C 
ATOM      7  C   UNL     1      17.185  27.141  -5.393  1.00  0.00     0.006 C 
ATOM      8  C   UNL     1      15.858  27.735  -4.833  1.00  0.00     0.011 C 
ATOM      9  C   UNL     1      16.823  25.947  -6.322  1.00  0.00     0.092 C 
ATOM     10  C   UNL     1      14.649  27.687  -5.828  1.00  0.00     0.009 C 
ATOM     11  C   UNL     1      16.116  26.472  -7.559  1.00  0.00    -0.031 C 
ATOM     12  C   UNL     1      18.153  25.206  -6.484  1.00  0.00     0.041 C 
ATOM     13  C   UNL     1      18.737  25.212  -5.072  1.00  0.00     0.010 C 
ATOM     14  C   UNL     1      14.989  27.485  -7.348  1.00  0.00     0.025 C 
ATOM     15  C   UNL     1      16.373  25.998  -8.783  1.00  0.00     0.050 C 
ATOM     16  C   UNL     1      13.747  27.157  -8.263  1.00  0.00    -0.013 C 
ATOM     17  C   UNL     1      15.549  26.388  -9.935  1.00  0.00     0.159 C 
ATOM     18  C   UNL     1      14.241  27.140  -9.758  1.00  0.00     0.070 C 
ATOM     19  C   UNL     1      13.113  25.778  -7.885  1.00  0.00     0.042 C 
ATOM     20  C   UNL     1      12.690  28.282  -8.085  1.00  0.00     0.013 C 
ATOM     21  O   UNL     1      15.972  26.126 -11.093  1.00  0.00    -0.295 OA
ATOM     22  C   UNL     1      13.160  26.625 -10.745  1.00  0.00     0.047 C 
ATOM     23  C   UNL     1      12.027  25.304  -8.868  1.00  0.00     0.143 C 
ATOM     24  C   UNL     1      12.520  25.287 -10.331  1.00  0.00     0.143 C 
BRANCH   9  25
ATOM     25  O   UNL     1      15.926  25.077  -5.664  1.00  0.00    -0.385 OA
ATOM     26  H   UNL     1      15.314  24.691  -6.345  1.00  0.00     0.211 HD
ENDBRANCH   9  25
BRANCH  23  27
ATOM     27  O   UNL     1      11.601  24.021  -8.489  1.00  0.00    -0.390 OA
ATOM     28  H   UNL     1      10.948  23.722  -9.175  1.00  0.00     0.211 HD
ENDBRANCH  23  27
BRANCH  24  29
ATOM     29  O   UNL     1      13.374  24.200 -10.601  1.00  0.00    -0.390 OA
ATOM     30  H   UNL     1      13.106  23.437 -10.032  1.00  0.00     0.211 HD
ENDBRANCH  24  29
ENDBRANCH   3   5
BRANCH   3  31
ATOM     31  O   UNL     1      18.165  25.017  -2.531  1.00  0.00    -0.387 OA
ATOM     32  H   UNL     1      17.343  24.544  -2.827  1.00  0.00     0.211 HD
ENDBRANCH   3  31
ENDBRANCH   2   3
BRANCH   2  33
ATOM     33  O   UNL     1      16.708  28.160  -1.720  1.00  0.00    -0.390 OA
ATOM     34  H   UNL     1      16.993  28.009  -0.782  1.00  0.00     0.211 HD
ENDBRANCH   2  33
ENDBRANCH   1   2
BRANCH   1  35
ATOM     35  C   UNL     1      15.950  26.346   0.087  1.00  0.00     0.037 C 
BRANCH  35  36
ATOM     36  C   UNL     1      16.644  25.308   1.014  1.00  0.00     0.059 C 
ATOM     37  C   UNL     1      15.706  24.100   1.221  1.00  0.00     0.042 C 
ATOM     38  C   UNL     1      16.947  25.927   2.391  1.00  0.00     0.042 C 
BRANCH  36  39
ATOM     39  O   UNL     1      17.856  24.868   0.448  1.00  0.00    -0.390 OA
ATOM     40  H   UNL     1      17.712  23.949   0.095  1.00  0.00     0.211 HD
ENDBRANCH  36  39
ENDBRANCH  35  36
ENDBRANCH   1  35
TORSDOF 11
ENDMDL
MODEL 9
REMARK VINA RESULT:    -7.227      4.477      7.238
REMARK INTER + INTRA:         -10.836
REMARK INTER:                  -9.814
REMARK INTRA:                  -1.022
REMARK UNBOUND:                -0.230
REMARK SMILES CC(C)(O)CC[C@@H](O)[C@@](C)(O)[C@H]1CC[C@]2(O)C3=CC(=O)[C@H]4C[C@@H](O)[C@@H](O)C[C@@]4(C)[C@H]3CC[C@@]12C
REMARK SMILES IDX 6 1 7 2 9 3 10 4 12 5 34 6 33 7 32 8 15 9 31 10 17 11 14 12
REMARK SMILES IDX 13 13 30 14 18 15 28 16 19 17 21 18 27 19 29 20 20 21 22 22
REMARK SMILES IDX 25 23 23 24 16 25 26 27 24 29 11 31 8 33 5 35 2 36 1 37 3 38
REMARK SMILES IDX 4 39
REMARK H PARENT 16 26 26 28 24 30 11 32 8 34 4 40
REMARK Flexibility Score: inf
ROOT
ATOM      1  C   UNL     1       9.377  28.407 -10.094  1.00  0.00     0.038 C 
ENDROOT
BRANCH   1   2
ATOM      2  C   UNL     1      10.730  29.164 -10.173  1.00  0.00     0.146 C 
BRANCH   2   3
ATOM      3  C   UNL     1      11.758  28.809  -9.016  1.00  0.00     0.091 C 
ATOM      4  C   UNL     1      12.649  30.029  -8.655  1.00  0.00     0.045 C 
BRANCH   3   5
ATOM      5  C   UNL     1      12.667  27.548  -9.335  1.00  0.00     0.032 C 
ATOM      6  C   UNL     1      13.604  25.584  -8.063  1.00  0.00     0.015 C 
ATOM      7  C   UNL     1      13.886  27.087  -8.427  1.00  0.00     0.006 C 
ATOM      8  C   UNL     1      14.194  27.827  -7.092  1.00  0.00     0.011 C 
ATOM      9  C   UNL     1      15.119  27.249  -9.362  1.00  0.00     0.092 C 
ATOM     10  C   UNL     1      15.693  27.770  -6.642  1.00  0.00     0.009 C 
ATOM     11  C   UNL     1      16.290  26.473  -8.783  1.00  0.00    -0.031 C 
ATOM     12  C   UNL     1      14.576  26.857 -10.738  1.00  0.00     0.041 C 
ATOM     13  C   UNL     1      13.208  27.538 -10.787  1.00  0.00     0.010 C 
ATOM     14  C   UNL     1      16.587  26.654  -7.294  1.00  0.00     0.025 C 
ATOM     15  C   UNL     1      17.112  25.746  -9.549  1.00  0.00     0.050 C 
ATOM     16  C   UNL     1      18.134  26.814  -7.035  1.00  0.00    -0.013 C 
ATOM     17  C   UNL     1      18.340  25.158  -8.997  1.00  0.00     0.159 C 
ATOM     18  C   UNL     1      18.855  25.542  -7.620  1.00  0.00     0.070 C 
ATOM     19  C   UNL     1      18.691  28.111  -7.708  1.00  0.00     0.042 C 
ATOM     20  C   UNL     1      18.376  26.880  -5.501  1.00  0.00     0.013 C 
ATOM     21  O   UNL     1      18.944  24.282  -9.673  1.00  0.00    -0.295 OA
ATOM     22  C   UNL     1      20.402  25.670  -7.616  1.00  0.00     0.047 C 
ATOM     23  C   UNL     1      20.226  28.223  -7.667  1.00  0.00     0.143 C 
ATOM     24  C   UNL     1      20.925  26.974  -8.246  1.00  0.00     0.143 C 
BRANCH   9  25
ATOM     25  O   UNL     1      15.505  28.605  -9.424  1.00  0.00    -0.385 OA
ATOM     26  H   UNL     1      15.373  29.006  -8.525  1.00  0.00     0.211 HD
ENDBRANCH   9  25
BRANCH  23  27
ATOM     27  O   UNL     1      20.617  29.367  -8.381  1.00  0.00    -0.390 OA
ATOM     28  H   UNL     1      21.039  29.050  -9.222  1.00  0.00     0.211 HD
ENDBRANCH  23  27
BRANCH  24  29
ATOM     29  O   UNL     1      20.871  26.926  -9.653  1.00  0.00    -0.390 OA
ATOM     30  H   UNL     1      20.344  27.699  -9.976  1.00  0.00     0.211 HD
ENDBRANCH  24  29
ENDBRANCH   3   5
BRANCH   3  31
ATOM     31  O   UNL     1      11.020  28.491  -7.851  1.00  0.00    -0.387 OA
ATOM     32  H   UNL     1      11.145  29.208  -7.174  1.00  0.00     0.211 HD
ENDBRANCH   3  31
ENDBRANCH   2   3
BRANCH   2  33
ATOM     33  O   UNL     1      10.473  30.549 -10.240  1.00  0.00    -0.390 OA
ATOM     34  H   UNL     1      10.220  30.757 -11.176  1.00  0.00     0.211 HD
ENDBRANCH   2  33
ENDBRANCH   1   2
BRANCH   1  35
ATOM     35  C   UNL     1       9.420  27.024 -10.783  1.00  0.00     0.037 C 
BRANCH  35  36
ATOM     36  C   UNL     1       9.099  25.837  -9.830  1.00  0.00     0.059 C 
ATOM     37  C   UNL     1       9.969  24.622 -10.214  1.00  0.00     0.042 C 
ATOM     38  C   UNL     1       7.618  25.431  -9.948  1.00  0.00     0.042 C 
BRANCH  36  39
ATOM     39  O   UNL     1       9.357  26.192  -8.490  1.00  0.00    -0.390 OA
ATOM     40  H   UNL     1       9.001  25.467  -7.909  1.00  0.00     0.211 HD
ENDBRANCH  36  39
ENDBRANCH  35  36
ENDBRANCH   1  35
TORSDOF 11
ENDMDL
