MODEL 1
REMARK VINA RESULT:    -5.836      0.000      0.000
REMARK INTER + INTRA:          -6.100
REMARK INTER:                  -6.348
REMARK INTRA:                   0.248
REMARK UNBOUND:                 0.248
REMARK SMILES CC1(C)CC[C@@]2(C(=O)[O-])CC[C@]3(C)C(=CC[C@@H]4[C@]5(C)CC[C@@H](O)C(C)(C)[C@@H]5CC[C@@]43C)[C@@H]2C1
REMARK SMILES IDX 6 1 5 2 10 3 32 4 4 5 11 6 14 7 33 8 2 9 12 10 15 11 1 12
REMARK SMILES IDX 3 13 13 14 30 15 16 16 17 17 29 18 31 19 18 20 28 21 27 22
REMARK SMILES IDX 20 23 19 24 24 25 21 26 22 27 25 28 26 29 7 30 8 31 9 32
REMARK SMILES IDX 23 33
REMARK H PARENT 23 34
REMARK Flexibility Score: inf
ROOT
ATOM      1  C   UNL     1      24.922   1.607  21.746  1.00  0.00     0.017 C 
ATOM      2  C   UNL     1      24.673   2.690  20.670  1.00  0.00     0.014 C 
ATOM      3  C   UNL     1      26.429   1.510  22.042  1.00  0.00     0.014 C 
ATOM      4  C   UNL     1      24.253   2.083  23.072  1.00  0.00     0.028 C 
ATOM      5  C   UNL     1      23.168   2.907  20.425  1.00  0.00     0.007 C 
ATOM      6  C   UNL     1      26.740   0.365  23.015  1.00  0.00     0.013 C 
ATOM      7  C   UNL     1      24.697   1.306  24.331  1.00  0.00    -0.064 C 
ATOM      8  C   UNL     1      22.720   2.318  22.899  1.00  0.00     0.015 C 
ATOM      9  C   UNL     1      22.377   3.275  21.713  1.00  0.00    -0.035 C 
ATOM     10  C   UNL     1      25.823   0.247  24.310  1.00  0.00    -0.006 C 
ATOM     11  C   UNL     1      24.165   1.680  25.510  1.00  0.00    -0.027 C 
ATOM     12  C   UNL     1      22.664   4.746  22.104  1.00  0.00     0.011 C 
ATOM     13  C   UNL     1      20.868   3.158  21.410  1.00  0.00     0.011 C 
ATOM     14  C   UNL     1      25.081  -1.125  24.248  1.00  0.00     0.017 C 
ATOM     15  C   UNL     1      26.739   0.324  25.639  1.00  0.00    -0.020 C 
ATOM     16  C   UNL     1      24.730   1.367  26.858  1.00  0.00     0.032 C 
ATOM     17  C   UNL     1      25.858   0.297  26.944  1.00  0.00     0.006 C 
ATOM     18  C   UNL     1      27.579   1.651  25.651  1.00  0.00     0.008 C 
ATOM     19  C   UNL     1      27.708  -0.914  25.631  1.00  0.00     0.012 C 
ATOM     20  C   UNL     1      26.700   0.352  28.330  1.00  0.00    -0.025 C 
ATOM     21  C   UNL     1      27.886   2.267  27.042  1.00  0.00     0.005 C 
ATOM     22  C   UNL     1      28.041   1.214  28.172  1.00  0.00     0.003 C 
ATOM     23  C   UNL     1      25.797   0.901  29.497  1.00  0.00     0.010 C 
ATOM     24  C   UNL     1      27.069  -1.120  28.727  1.00  0.00     0.012 C 
ATOM     25  C   UNL     1      28.692   1.773  29.523  1.00  0.00    -0.006 C 
ATOM     26  C   UNL     1      26.536   1.244  30.786  1.00  0.00     0.033 C 
ATOM     27  C   UNL     1      27.609   2.296  30.507  1.00  0.00     0.120 C 
ATOM     28  C   UNL     1      29.679   2.945  29.255  1.00  0.00     0.014 C 
ATOM     29  C   UNL     1      29.556   0.667  30.198  1.00  0.00     0.014 C 
ENDROOT
BRANCH   1  30
ATOM     30  C   UNL     1      24.432   0.270  21.173  1.00  0.00     0.048 C 
ATOM     31  O   UNL     1      25.176  -0.385  20.395  1.00  0.00    -0.550 OA
ATOM     32  O   UNL     1      23.144  -0.200  21.390  1.00  0.00    -0.550 OA
ENDBRANCH   1  30
BRANCH  27  33
ATOM     33  O   UNL     1      28.195   2.694  31.722  1.00  0.00    -0.393 OA
ATOM     34  H   UNL     1      27.844   2.089  32.428  1.00  0.00     0.210 HD
ENDBRANCH  27  33
TORSDOF 2
ENDMDL
MODEL 2
REMARK VINA RESULT:    -5.597      1.149      1.262
REMARK INTER + INTRA:          -5.840
REMARK INTER:                  -5.954
REMARK INTRA:                   0.114
REMARK UNBOUND:                 0.248
REMARK SMILES CC1(C)CC[C@@]2(C(=O)[O-])CC[C@]3(C)C(=CC[C@@H]4[C@]5(C)CC[C@@H](O)C(C)(C)[C@@H]5CC[C@@]43C)[C@@H]2C1
REMARK SMILES IDX 6 1 5 2 10 3 32 4 4 5 11 6 14 7 33 8 2 9 12 10 15 11 1 12
REMARK SMILES IDX 3 13 13 14 30 15 16 16 17 17 29 18 31 19 18 20 28 21 27 22
REMARK SMILES IDX 20 23 19 24 24 25 21 26 22 27 25 28 26 29 7 30 8 31 9 32
REMARK SMILES IDX 23 33
REMARK H PARENT 23 34
REMARK Flexibility Score: inf
ROOT
ATOM      1  C   UNL     1      25.943   1.354  22.173  1.00  0.00     0.017 C 
ATOM      2  C   UNL     1      25.525   2.297  21.020  1.00  0.00     0.014 C 
ATOM      3  C   UNL     1      27.434   1.561  22.494  1.00  0.00     0.014 C 
ATOM      4  C   UNL     1      25.165   1.785  23.453  1.00  0.00     0.028 C 
ATOM      5  C   UNL     1      24.012   2.211  20.742  1.00  0.00     0.007 C 
ATOM      6  C   UNL     1      27.928   0.563  23.549  1.00  0.00     0.013 C 
ATOM      7  C   UNL     1      25.713   1.191  24.770  1.00  0.00    -0.064 C 
ATOM      8  C   UNL     1      23.619   1.717  23.246  1.00  0.00     0.015 C 
ATOM      9  C   UNL     1      23.134   2.510  21.990  1.00  0.00    -0.035 C 
ATOM     10  C   UNL     1      27.016   0.363  24.838  1.00  0.00    -0.006 C 
ATOM     11  C   UNL     1      25.090   1.538  25.913  1.00  0.00    -0.027 C 
ATOM     12  C   UNL     1      23.133   4.032  22.280  1.00  0.00     0.011 C 
ATOM     13  C   UNL     1      21.682   2.093  21.678  1.00  0.00     0.011 C 
ATOM     14  C   UNL     1      26.544  -1.125  24.864  1.00  0.00     0.017 C 
ATOM     15  C   UNL     1      27.868   0.699  26.169  1.00  0.00    -0.020 C 
ATOM     16  C   UNL     1      25.670   1.427  27.286  1.00  0.00     0.032 C 
ATOM     17  C   UNL     1      26.974   0.595  27.462  1.00  0.00     0.006 C 
ATOM     18  C   UNL     1      28.446   2.158  26.098  1.00  0.00     0.008 C 
ATOM     19  C   UNL     1      29.050  -0.333  26.261  1.00  0.00     0.012 C 
ATOM     20  C   UNL     1      27.757   0.900  28.850  1.00  0.00    -0.025 C 
ATOM     21  C   UNL     1      28.598   2.912  27.445  1.00  0.00     0.005 C 
ATOM     22  C   UNL     1      28.917   1.985  28.649  1.00  0.00     0.003 C 
ATOM     23  C   UNL     1      26.737   1.348  29.965  1.00  0.00     0.010 C 
ATOM     24  C   UNL     1      28.382  -0.447  29.355  1.00  0.00     0.012 C 
ATOM     25  C   UNL     1      29.418   2.746  29.965  1.00  0.00    -0.006 C 
ATOM     26  C   UNL     1      27.368   1.909  31.235  1.00  0.00     0.033 C 
ATOM     27  C   UNL     1      28.233   3.122  30.896  1.00  0.00     0.120 C 
ATOM     28  C   UNL     1      30.177   4.061  29.626  1.00  0.00     0.014 C 
ATOM     29  C   UNL     1      30.456   1.869  30.727  1.00  0.00     0.014 C 
ENDROOT
BRANCH   1  30
ATOM     30  C   UNL     1      25.725  -0.086  21.691  1.00  0.00     0.048 C 
ATOM     31  O   UNL     1      26.508  -0.584  20.838  1.00  0.00    -0.550 OA
ATOM     32  O   UNL     1      24.621  -0.835  22.075  1.00  0.00    -0.550 OA
ENDBRANCH   1  30
BRANCH  27  33
ATOM     33  O   UNL     1      28.704   3.703  32.087  1.00  0.00    -0.393 OA
ATOM     34  H   UNL     1      28.879   2.961  32.725  1.00  0.00     0.210 HD
ENDBRANCH  27  33
TORSDOF 2
ENDMDL
MODEL 3
REMARK VINA RESULT:    -3.962      1.525      2.234
REMARK INTER + INTRA:          -4.061
REMARK INTER:                  -4.439
REMARK INTRA:                   0.378
REMARK UNBOUND:                 0.248
REMARK SMILES CC1(C)CC[C@@]2(C(=O)[O-])CC[C@]3(C)C(=CC[C@@H]4[C@]5(C)CC[C@@H](O)C(C)(C)[C@@H]5CC[C@@]43C)[C@@H]2C1
REMARK SMILES IDX 6 1 5 2 10 3 32 4 4 5 11 6 14 7 33 8 2 9 12 10 15 11 1 12
REMARK SMILES IDX 3 13 13 14 30 15 16 16 17 17 29 18 31 19 18 20 28 21 27 22
REMARK SMILES IDX 20 23 19 24 24 25 21 26 22 27 25 28 26 29 7 30 8 31 9 32
REMARK SMILES IDX 23 33
REMARK H PARENT 23 34
REMARK Flexibility Score: inf
ROOT
ATOM      1  C   UNL     1      23.426   2.013  20.039  1.00  0.00     0.017 C 
ATOM      2  C   UNL     1      23.167   3.148  19.021  1.00  0.00     0.014 C 
ATOM      3  C   UNL     1      24.939   1.756  20.152  1.00  0.00     0.014 C 
ATOM      4  C   UNL     1      22.969   2.515  21.444  1.00  0.00     0.028 C 
ATOM      5  C   UNL     1      21.674   3.523  18.960  1.00  0.00     0.007 C 
ATOM      6  C   UNL     1      25.241   0.557  21.061  1.00  0.00     0.013 C 
ATOM      7  C   UNL     1      23.473   1.659  22.627  1.00  0.00    -0.064 C 
ATOM      8  C   UNL     1      21.459   2.908  21.459  1.00  0.00     0.015 C 
ATOM      9  C   UNL     1      21.081   3.930  20.339  1.00  0.00    -0.035 C 
ATOM     10  C   UNL     1      24.474   0.493  22.453  1.00  0.00    -0.006 C 
ATOM     11  C   UNL     1      23.124   2.050  23.868  1.00  0.00    -0.027 C 
ATOM     12  C   UNL     1      21.563   5.352  20.720  1.00  0.00     0.011 C 
ATOM     13  C   UNL     1      19.543   3.974  20.216  1.00  0.00     0.011 C 
ATOM     14  C   UNL     1      23.591  -0.794  22.455  1.00  0.00     0.017 C 
ATOM     15  C   UNL     1      25.542   0.438  23.665  1.00  0.00    -0.020 C 
ATOM     16  C   UNL     1      23.807   1.640  25.133  1.00  0.00     0.032 C 
ATOM     17  C   UNL     1      24.820   0.460  25.065  1.00  0.00     0.006 C 
ATOM     18  C   UNL     1      26.510   1.672  23.601  1.00  0.00     0.008 C 
ATOM     19  C   UNL     1      26.369  -0.891  23.519  1.00  0.00     0.012 C 
ATOM     20  C   UNL     1      25.820   0.388  26.341  1.00  0.00    -0.025 C 
ATOM     21  C   UNL     1      27.039   2.212  24.956  1.00  0.00     0.005 C 
ATOM     22  C   UNL     1      27.215   1.115  26.041  1.00  0.00     0.003 C 
ATOM     23  C   UNL     1      25.120   0.990  27.617  1.00  0.00     0.010 C 
ATOM     24  C   UNL     1      26.077  -1.125  26.665  1.00  0.00     0.012 C 
ATOM     25  C   UNL     1      28.073   1.565  27.315  1.00  0.00    -0.006 C 
ATOM     26  C   UNL     1      26.036   1.217  28.815  1.00  0.00     0.033 C 
ATOM     27  C   UNL     1      27.172   2.164  28.430  1.00  0.00     0.120 C 
ATOM     28  C   UNL     1      29.138   2.638  26.952  1.00  0.00     0.014 C 
ATOM     29  C   UNL     1      28.891   0.357  27.862  1.00  0.00     0.014 C 
ENDROOT
BRANCH   1  30
ATOM     30  C   UNL     1      22.737   0.751  19.505  1.00  0.00     0.048 C 
ATOM     31  O   UNL     1      23.358  -0.013  18.718  1.00  0.00    -0.550 OA
ATOM     32  O   UNL     1      21.403   0.469  19.768  1.00  0.00    -0.550 OA
ENDBRANCH   1  30
BRANCH  27  33
ATOM     33  O   UNL     1      27.934   2.464  29.573  1.00  0.00    -0.393 OA
ATOM     34  H   UNL     1      28.280   1.603  29.928  1.00  0.00     0.210 HD
ENDBRANCH  27  33
TORSDOF 2
ENDMDL
MODEL 4
REMARK VINA RESULT:    -3.804      2.111      8.235
REMARK INTER + INTRA:          -3.889
REMARK INTER:                  -4.004
REMARK INTRA:                   0.115
REMARK UNBOUND:                 0.248
REMARK SMILES CC1(C)CC[C@@]2(C(=O)[O-])CC[C@]3(C)C(=CC[C@@H]4[C@]5(C)CC[C@@H](O)C(C)(C)[C@@H]5CC[C@@]43C)[C@@H]2C1
REMARK SMILES IDX 6 1 5 2 10 3 32 4 4 5 11 6 14 7 33 8 2 9 12 10 15 11 1 12
REMARK SMILES IDX 3 13 13 14 30 15 16 16 17 17 29 18 31 19 18 20 28 21 27 22
REMARK SMILES IDX 20 23 19 24 24 25 21 26 22 27 25 28 26 29 7 30 8 31 9 32
REMARK SMILES IDX 23 33
REMARK H PARENT 23 34
REMARK Flexibility Score: inf
ROOT
ATOM      1  C   UNL     1      26.090   1.186  27.748  1.00  0.00     0.017 C 
ATOM      2  C   UNL     1      26.762   2.030  28.856  1.00  0.00     0.014 C 
ATOM      3  C   UNL     1      24.599   1.555  27.650  1.00  0.00     0.014 C 
ATOM      4  C   UNL     1      26.723   1.594  26.383  1.00  0.00     0.028 C 
ATOM      5  C   UNL     1      28.282   1.781  28.912  1.00  0.00     0.007 C 
ATOM      6  C   UNL     1      23.861   0.659  26.647  1.00  0.00     0.013 C 
ATOM      7  C   UNL     1      25.938   1.117  25.141  1.00  0.00    -0.064 C 
ATOM      8  C   UNL     1      28.267   1.363  26.364  1.00  0.00     0.015 C 
ATOM      9  C   UNL     1      29.003   2.047  27.560  1.00  0.00    -0.035 C 
ATOM     10  C   UNL     1      24.558   0.427  25.235  1.00  0.00    -0.006 C 
ATOM     11  C   UNL     1      26.427   1.452  23.931  1.00  0.00    -0.027 C 
ATOM     12  C   UNL     1      29.123   3.573  27.320  1.00  0.00     0.011 C 
ATOM     13  C   UNL     1      30.433   1.473  27.648  1.00  0.00     0.011 C 
ATOM     14  C   UNL     1      24.863  -1.097  25.097  1.00  0.00     0.017 C 
ATOM     15  C   UNL     1      23.568   0.907  24.051  1.00  0.00    -0.020 C 
ATOM     16  C   UNL     1      25.653   1.461  22.653  1.00  0.00     0.032 C 
ATOM     17  C   UNL     1      24.257   0.772  22.641  1.00  0.00     0.006 C 
ATOM     18  C   UNL     1      23.162   2.411  24.249  1.00  0.00     0.008 C 
ATOM     19  C   UNL     1      22.283   0.002  24.099  1.00  0.00     0.012 C 
ATOM     20  C   UNL     1      23.324   1.216  21.389  1.00  0.00    -0.025 C 
ATOM     21  C   UNL     1      22.904   3.236  22.961  1.00  0.00     0.005 C 
ATOM     22  C   UNL     1      22.324   2.401  21.788  1.00  0.00     0.003 C 
ATOM     23  C   UNL     1      24.220   1.609  20.154  1.00  0.00     0.010 C 
ATOM     24  C   UNL     1      22.497  -0.038  20.938  1.00  0.00     0.012 C 
ATOM     25  C   UNL     1      21.727   3.267  20.581  1.00  0.00    -0.006 C 
ATOM     26  C   UNL     1      23.481   2.286  19.005  1.00  0.00     0.033 C 
ATOM     27  C   UNL     1      22.804   3.563  19.501  1.00  0.00     0.120 C 
ATOM     28  C   UNL     1      21.165   4.634  21.064  1.00  0.00     0.014 C 
ATOM     29  C   UNL     1      20.507   2.532  19.949  1.00  0.00     0.014 C 
ENDROOT
BRANCH   1  30
ATOM     30  C   UNL     1      26.221  -0.289  28.150  1.00  0.00     0.048 C 
ATOM     31  O   UNL     1      25.513  -0.745  29.087  1.00  0.00    -0.550 OA
ATOM     32  O   UNL     1      27.179  -1.125  27.593  1.00  0.00    -0.550 OA
ENDBRANCH   1  30
BRANCH  27  33
ATOM     33  O   UNL     1      22.235   4.242  18.408  1.00  0.00    -0.393 OA
ATOM     34  H   UNL     1      21.332   4.545  18.691  1.00  0.00     0.210 HD
ENDBRANCH  27  33
TORSDOF 2
ENDMDL
MODEL 5
REMARK VINA RESULT:    -3.782      1.746      8.163
REMARK INTER + INTRA:          -3.866
REMARK INTER:                  -4.300
REMARK INTRA:                   0.434
REMARK UNBOUND:                 0.248
REMARK SMILES CC1(C)CC[C@@]2(C(=O)[O-])CC[C@]3(C)C(=CC[C@@H]4[C@]5(C)CC[C@@H](O)C(C)(C)[C@@H]5CC[C@@]43C)[C@@H]2C1
REMARK SMILES IDX 6 1 5 2 10 3 32 4 4 5 11 6 14 7 33 8 2 9 12 10 15 11 1 12
REMARK SMILES IDX 3 13 13 14 30 15 16 16 17 17 29 18 31 19 18 20 28 21 27 22
REMARK SMILES IDX 20 23 19 24 24 25 21 26 22 27 25 28 26 29 7 30 8 31 9 32
REMARK SMILES IDX 23 33
REMARK H PARENT 23 34
REMARK Flexibility Score: inf
ROOT
ATOM      1  C   UNL     1      28.008   0.768  29.639  1.00  0.00     0.017 C 
ATOM      2  C   UNL     1      27.985   1.363  31.067  1.00  0.00     0.014 C 
ATOM      3  C   UNL     1      26.653   0.106  29.334  1.00  0.00     0.014 C 
ATOM      4  C   UNL     1      28.148   1.947  28.629  1.00  0.00     0.028 C 
ATOM      5  C   UNL     1      29.279   2.140  31.376  1.00  0.00     0.007 C 
ATOM      6  C   UNL     1      26.666  -0.606  27.974  1.00  0.00     0.013 C 
ATOM      7  C   UNL     1      27.835   1.577  27.162  1.00  0.00    -0.064 C 
ATOM      8  C   UNL     1      29.444   2.778  28.879  1.00  0.00     0.015 C 
ATOM      9  C   UNL     1      29.579   3.274  30.355  1.00  0.00    -0.035 C 
ATOM     10  C   UNL     1      27.280   0.196  26.745  1.00  0.00    -0.006 C 
ATOM     11  C   UNL     1      27.924   2.558  26.242  1.00  0.00    -0.027 C 
ATOM     12  C   UNL     1      28.635   4.476  30.610  1.00  0.00     0.011 C 
ATOM     13  C   UNL     1      31.027   3.761  30.577  1.00  0.00     0.011 C 
ATOM     14  C   UNL     1      28.524  -0.595  26.230  1.00  0.00     0.017 C 
ATOM     15  C   UNL     1      26.178   0.325  25.570  1.00  0.00    -0.020 C 
ATOM     16  C   UNL     1      27.293   2.540  24.888  1.00  0.00     0.032 C 
ATOM     17  C   UNL     1      26.721   1.187  24.369  1.00  0.00     0.006 C 
ATOM     18  C   UNL     1      24.876   1.017  26.112  1.00  0.00     0.008 C 
ATOM     19  C   UNL     1      25.836  -1.124  25.067  1.00  0.00     0.012 C 
ATOM     20  C   UNL     1      25.682   1.354  23.133  1.00  0.00    -0.025 C 
ATOM     21  C   UNL     1      24.079   1.885  25.103  1.00  0.00     0.005 C 
ATOM     22  C   UNL     1      24.162   1.377  23.638  1.00  0.00     0.003 C 
ATOM     23  C   UNL     1      26.031   2.642  22.296  1.00  0.00     0.010 C 
ATOM     24  C   UNL     1      25.892   0.140  22.162  1.00  0.00     0.012 C 
ATOM     25  C   UNL     1      23.091   2.027  22.642  1.00  0.00    -0.006 C 
ATOM     26  C   UNL     1      24.983   3.052  21.268  1.00  0.00     0.033 C 
ATOM     27  C   UNL     1      23.645   3.308  21.960  1.00  0.00     0.120 C 
ATOM     28  C   UNL     1      21.777   2.422  23.375  1.00  0.00     0.014 C 
ATOM     29  C   UNL     1      22.654   0.983  21.571  1.00  0.00     0.014 C 
ENDROOT
BRANCH   1  30
ATOM     30  C   UNL     1      29.111  -0.298  29.605  1.00  0.00     0.048 C 
ATOM     31  O   UNL     1      29.209  -1.125  30.551  1.00  0.00    -0.550 OA
ATOM     32  O   UNL     1      30.087  -0.321  28.618  1.00  0.00    -0.550 OA
ENDBRANCH   1  30
BRANCH  27  33
ATOM     33  O   UNL     1      22.724   3.807  21.022  1.00  0.00    -0.393 OA
ATOM     34  H   UNL     1      22.033   4.310  21.529  1.00  0.00     0.210 HD
ENDBRANCH  27  33
TORSDOF 2
ENDMDL
