MODEL 1
REMARK VINA RESULT:    -5.481      0.000      0.000
REMARK INTER + INTRA:          -7.795
REMARK INTER:                  -6.762
REMARK INTRA:                  -1.032
REMARK UNBOUND:                -1.032
REMARK SMILES CC(C)=CCC[C@H](C)c1ccc(C)cc1
REMARK SMILES IDX 6 1 7 2 8 3 9 4 13 5 12 6 11 7 14 8 10 9 15 10 5 11 4 12
REMARK SMILES IDX 2 13 1 14 3 15
REMARK H PARENT
REMARK Flexibility Score: inf
ROOT
ATOM      1  C   UNL     1     -17.030 -21.777 -40.942  1.00  0.00     0.012 C 
ENDROOT
BRANCH   1   2
ATOM      2  C   UNL     1     -16.463 -23.220 -40.904  1.00  0.00     0.016 C 
ATOM      3  C   UNL     1     -16.376 -23.799 -39.481  1.00  0.00     0.013 C 
BRANCH   2   4
ATOM      4  C   UNL     1     -15.181 -23.370 -41.709  1.00  0.00    -0.045 A 
ATOM      5  C   UNL     1     -11.508 -23.936 -43.918  1.00  0.00     0.044 C 
ATOM      6  C   UNL     1     -12.791 -23.771 -43.159  1.00  0.00    -0.051 A 
ATOM      7  C   UNL     1     -13.934 -23.277 -43.802  1.00  0.00     0.004 A 
ATOM      8  C   UNL     1     -12.842 -24.051 -41.786  1.00  0.00     0.004 A 
ATOM      9  C   UNL     1     -15.122 -23.089 -43.089  1.00  0.00     0.004 A 
ATOM     10  C   UNL     1     -14.028 -23.864 -41.071  1.00  0.00     0.004 A 
ENDBRANCH   2   4
ENDBRANCH   1   2
BRANCH   1  11
ATOM     11  C   UNL     1     -17.090 -21.023 -39.597  1.00  0.00     0.028 C 
BRANCH  11  12
ATOM     12  C   UNL     1     -16.269 -19.757 -39.583  1.00  0.00    -0.028 C 
ATOM     13  C   UNL     1     -14.961 -19.689 -39.251  1.00  0.00    -0.080 C 
ATOM     14  C   UNL     1     -14.280 -18.345 -39.301  1.00  0.00     0.039 C 
ATOM     15  C   UNL     1     -14.178 -20.900 -38.801  1.00  0.00     0.039 C 
ENDBRANCH  11  12
ENDBRANCH   1  11
TORSDOF 4
ENDMDL
MODEL 2
REMARK VINA RESULT:    -5.407      0.902      1.706
REMARK INTER + INTRA:          -7.704
REMARK INTER:                  -6.898
REMARK INTRA:                  -0.806
REMARK UNBOUND:                -1.032
REMARK SMILES CC(C)=CCC[C@H](C)c1ccc(C)cc1
REMARK SMILES IDX 6 1 7 2 8 3 9 4 13 5 12 6 11 7 14 8 10 9 15 10 5 11 4 12
REMARK SMILES IDX 2 13 1 14 3 15
REMARK H PARENT
REMARK Flexibility Score: inf
ROOT
ATOM      1  C   UNL     1     -16.113 -22.671 -39.878  1.00  0.00     0.012 C 
ENDROOT
BRANCH   1   2
ATOM      2  C   UNL     1     -15.881 -22.457 -41.396  1.00  0.00     0.016 C 
ATOM      3  C   UNL     1     -17.125 -22.763 -42.248  1.00  0.00     0.013 C 
BRANCH   2   4
ATOM      4  C   UNL     1     -14.611 -23.129 -41.897  1.00  0.00    -0.045 A 
ATOM      5  C   UNL     1     -10.987 -24.919 -43.430  1.00  0.00     0.044 C 
ATOM      6  C   UNL     1     -12.229 -24.269 -42.895  1.00  0.00    -0.051 A 
ATOM      7  C   UNL     1     -12.483 -24.256 -41.517  1.00  0.00     0.004 A 
ATOM      8  C   UNL     1     -13.175 -23.723 -43.774  1.00  0.00     0.004 A 
ATOM      9  C   UNL     1     -13.656 -23.681 -41.019  1.00  0.00     0.004 A 
ATOM     10  C   UNL     1     -14.349 -23.148 -43.279  1.00  0.00     0.004 A 
ENDBRANCH   2   4
ENDBRANCH   1   2
BRANCH   1  11
ATOM     11  C   UNL     1     -16.493 -21.422 -39.055  1.00  0.00     0.028 C 
BRANCH  11  12
ATOM     12  C   UNL     1     -15.845 -20.154 -39.555  1.00  0.00    -0.028 C 
ATOM     13  C   UNL     1     -14.772 -19.560 -38.987  1.00  0.00    -0.080 C 
ATOM     14  C   UNL     1     -14.234 -18.302 -39.620  1.00  0.00     0.039 C 
ATOM     15  C   UNL     1     -14.125 -20.093 -37.730  1.00  0.00     0.039 C 
ENDBRANCH  11  12
ENDBRANCH   1  11
TORSDOF 4
ENDMDL
MODEL 3
REMARK VINA RESULT:    -5.335      1.627      2.781
REMARK INTER + INTRA:          -7.615
REMARK INTER:                  -7.060
REMARK INTRA:                  -0.555
REMARK UNBOUND:                -1.032
REMARK SMILES CC(C)=CCC[C@H](C)c1ccc(C)cc1
REMARK SMILES IDX 6 1 7 2 8 3 9 4 13 5 12 6 11 7 14 8 10 9 15 10 5 11 4 12
REMARK SMILES IDX 2 13 1 14 3 15
REMARK H PARENT
REMARK Flexibility Score: inf
ROOT
ATOM      1  C   UNL     1     -15.062 -23.043 -41.278  1.00  0.00     0.012 C 
ENDROOT
BRANCH   1   2
ATOM      2  C   UNL     1     -14.207 -23.168 -42.565  1.00  0.00     0.016 C 
ATOM      3  C   UNL     1     -15.009 -23.673 -43.778  1.00  0.00     0.013 C 
BRANCH   2   4
ATOM      4  C   UNL     1     -12.902 -23.915 -42.336  1.00  0.00    -0.045 A 
ATOM      5  C   UNL     1      -9.277 -26.153 -41.604  1.00  0.00     0.044 C 
ATOM      6  C   UNL     1     -10.549 -25.404 -41.870  1.00  0.00    -0.051 A 
ATOM      7  C   UNL     1     -10.756 -24.777 -43.105  1.00  0.00     0.004 A 
ATOM      8  C   UNL     1     -11.516 -25.274 -40.862  1.00  0.00     0.004 A 
ATOM      9  C   UNL     1     -11.925 -24.049 -43.343  1.00  0.00     0.004 A 
ATOM     10  C   UNL     1     -12.686 -24.546 -41.097  1.00  0.00     0.004 A 
ENDBRANCH   2   4
ENDBRANCH   1   2
BRANCH   1  11
ATOM     11  C   UNL     1     -15.355 -21.613 -40.778  1.00  0.00     0.028 C 
BRANCH  11  12
ATOM     12  C   UNL     1     -14.862 -21.355 -39.376  1.00  0.00    -0.028 C 
ATOM     13  C   UNL     1     -14.549 -20.138 -38.879  1.00  0.00    -0.080 C 
ATOM     14  C   UNL     1     -14.085 -20.048 -37.448  1.00  0.00     0.039 C 
ATOM     15  C   UNL     1     -14.616 -18.882 -39.717  1.00  0.00     0.039 C 
ENDBRANCH  11  12
ENDBRANCH   1  11
TORSDOF 4
ENDMDL
MODEL 4
REMARK VINA RESULT:    -5.329      1.646      2.998
REMARK INTER + INTRA:          -7.607
REMARK INTER:                  -7.074
REMARK INTRA:                  -0.534
REMARK UNBOUND:                -1.032
REMARK SMILES CC(C)=CCC[C@H](C)c1ccc(C)cc1
REMARK SMILES IDX 6 1 7 2 8 3 9 4 13 5 12 6 11 7 14 8 10 9 15 10 5 11 4 12
REMARK SMILES IDX 2 13 1 14 3 15
REMARK H PARENT
REMARK Flexibility Score: inf
ROOT
ATOM      1  C   UNL     1     -15.039 -23.003 -41.312  1.00  0.00     0.012 C 
ENDROOT
BRANCH   1   2
ATOM      2  C   UNL     1     -14.158 -23.168 -42.577  1.00  0.00     0.016 C 
ATOM      3  C   UNL     1     -14.951 -23.636 -43.811  1.00  0.00     0.013 C 
BRANCH   2   4
ATOM      4  C   UNL     1     -12.896 -23.976 -42.315  1.00  0.00    -0.045 A 
ATOM      5  C   UNL     1      -9.224 -26.156 -41.646  1.00  0.00     0.044 C 
ATOM      6  C   UNL     1     -10.483 -25.372 -41.866  1.00  0.00    -0.051 A 
ATOM      7  C   UNL     1     -11.454 -25.296 -40.859  1.00  0.00     0.004 A 
ATOM      8  C   UNL     1     -10.728 -24.760 -43.104  1.00  0.00     0.004 A 
ATOM      9  C   UNL     1     -12.644 -24.595 -41.074  1.00  0.00     0.004 A 
ATOM     10  C   UNL     1     -11.917 -24.059 -43.322  1.00  0.00     0.004 A 
ENDBRANCH   2   4
ENDBRANCH   1   2
BRANCH   1  11
ATOM     11  C   UNL     1     -15.281 -21.560 -40.822  1.00  0.00     0.028 C 
BRANCH  11  12
ATOM     12  C   UNL     1     -14.827 -21.324 -39.403  1.00  0.00    -0.028 C 
ATOM     13  C   UNL     1     -14.579 -20.110 -38.863  1.00  0.00    -0.080 C 
ATOM     14  C   UNL     1     -14.145 -20.045 -37.421  1.00  0.00     0.039 C 
ATOM     15  C   UNL     1     -14.689 -18.833 -39.664  1.00  0.00     0.039 C 
ENDBRANCH  11  12
ENDBRANCH   1  11
TORSDOF 4
ENDMDL
MODEL 5
REMARK VINA RESULT:    -5.206      1.568      5.687
REMARK INTER + INTRA:          -7.456
REMARK INTER:                  -6.706
REMARK INTRA:                  -0.750
REMARK UNBOUND:                -1.032
REMARK SMILES CC(C)=CCC[C@H](C)c1ccc(C)cc1
REMARK SMILES IDX 6 1 7 2 8 3 9 4 13 5 12 6 11 7 14 8 10 9 15 10 5 11 4 12
REMARK SMILES IDX 2 13 1 14 3 15
REMARK H PARENT
REMARK Flexibility Score: inf
ROOT
ATOM      1  C   UNL     1     -15.564 -22.498 -41.779  1.00  0.00     0.012 C 
ENDROOT
BRANCH   1   2
ATOM      2  C   UNL     1     -14.637 -22.872 -40.593  1.00  0.00     0.016 C 
ATOM      3  C   UNL     1     -14.652 -24.374 -40.262  1.00  0.00     0.013 C 
BRANCH   2   4
ATOM      4  C   UNL     1     -14.839 -21.973 -39.382  1.00  0.00    -0.045 A 
ATOM      5  C   UNL     1     -15.427 -19.553 -35.849  1.00  0.00     0.044 C 
ATOM      6  C   UNL     1     -15.200 -20.410 -37.059  1.00  0.00    -0.051 A 
ATOM      7  C   UNL     1     -14.257 -20.034 -38.024  1.00  0.00     0.004 A 
ATOM      8  C   UNL     1     -15.972 -21.562 -37.264  1.00  0.00     0.004 A 
ATOM      9  C   UNL     1     -14.067 -20.813 -39.170  1.00  0.00     0.004 A 
ATOM     10  C   UNL     1     -15.785 -22.342 -38.409  1.00  0.00     0.004 A 
ENDBRANCH   2   4
ENDBRANCH   1   2
BRANCH   1  11
ATOM     11  C   UNL     1     -15.285 -23.204 -43.122  1.00  0.00     0.028 C 
BRANCH  11  12
ATOM     12  C   UNL     1     -13.885 -22.979 -43.638  1.00  0.00    -0.028 C 
ATOM     13  C   UNL     1     -12.958 -23.949 -43.805  1.00  0.00    -0.080 C 
ATOM     14  C   UNL     1     -11.607 -23.559 -44.347  1.00  0.00     0.039 C 
ATOM     15  C   UNL     1     -13.223 -25.390 -43.437  1.00  0.00     0.039 C 
ENDBRANCH  11  12
ENDBRANCH   1  11
TORSDOF 4
ENDMDL
MODEL 6
REMARK VINA RESULT:    -5.069      1.407      2.164
REMARK INTER + INTRA:          -7.287
REMARK INTER:                  -6.765
REMARK INTRA:                  -0.522
REMARK UNBOUND:                -1.032
REMARK SMILES CC(C)=CCC[C@H](C)c1ccc(C)cc1
REMARK SMILES IDX 6 1 7 2 8 3 9 4 13 5 12 6 11 7 14 8 10 9 15 10 5 11 4 12
REMARK SMILES IDX 2 13 1 14 3 15
REMARK H PARENT
REMARK Flexibility Score: inf
ROOT
ATOM      1  C   UNL     1     -14.303 -23.084 -40.680  1.00  0.00     0.012 C 
ENDROOT
BRANCH   1   2
ATOM      2  C   UNL     1     -14.831 -22.886 -42.124  1.00  0.00     0.016 C 
ATOM      3  C   UNL     1     -16.352 -23.087 -42.246  1.00  0.00     0.013 C 
BRANCH   2   4
ATOM      4  C   UNL     1     -14.023 -23.658 -43.157  1.00  0.00    -0.045 A 
ATOM      5  C   UNL     1     -11.634 -25.908 -45.971  1.00  0.00     0.044 C 
ATOM      6  C   UNL     1     -12.466 -25.155 -44.975  1.00  0.00    -0.051 A 
ATOM      7  C   UNL     1     -13.858 -25.093 -45.120  1.00  0.00     0.004 A 
ATOM      8  C   UNL     1     -11.852 -24.455 -43.927  1.00  0.00     0.004 A 
ATOM      9  C   UNL     1     -14.633 -24.363 -44.215  1.00  0.00     0.004 A 
ATOM     10  C   UNL     1     -12.625 -23.724 -43.020  1.00  0.00     0.004 A 
ENDBRANCH   2   4
ENDBRANCH   1   2
BRANCH   1  11
ATOM     11  C   UNL     1     -14.929 -22.192 -39.588  1.00  0.00     0.028 C 
BRANCH  11  12
ATOM     12  C   UNL     1     -14.785 -20.715 -39.864  1.00  0.00    -0.028 C 
ATOM     13  C   UNL     1     -14.500 -19.779 -38.931  1.00  0.00    -0.080 C 
ATOM     14  C   UNL     1     -14.374 -18.345 -39.374  1.00  0.00     0.039 C 
ATOM     15  C   UNL     1     -14.340 -20.121 -37.468  1.00  0.00     0.039 C 
ENDBRANCH  11  12
ENDBRANCH   1  11
TORSDOF 4
ENDMDL
MODEL 7
REMARK VINA RESULT:    -5.020      1.611      6.058
REMARK INTER + INTRA:          -7.226
REMARK INTER:                  -6.659
REMARK INTRA:                  -0.567
REMARK UNBOUND:                -1.032
REMARK SMILES CC(C)=CCC[C@H](C)c1ccc(C)cc1
REMARK SMILES IDX 6 1 7 2 8 3 9 4 13 5 12 6 11 7 14 8 10 9 15 10 5 11 4 12
REMARK SMILES IDX 2 13 1 14 3 15
REMARK H PARENT
REMARK Flexibility Score: inf
ROOT
ATOM      1  C   UNL     1     -14.109 -24.415 -40.732  1.00  0.00     0.012 C 
ENDROOT
BRANCH   1   2
ATOM      2  C   UNL     1     -15.239 -23.354 -40.755  1.00  0.00     0.016 C 
ATOM      3  C   UNL     1     -15.320 -22.584 -42.085  1.00  0.00     0.013 C 
BRANCH   2   4
ATOM      4  C   UNL     1     -15.231 -22.458 -39.525  1.00  0.00    -0.045 A 
ATOM      5  C   UNL     1     -15.213 -19.784 -36.129  1.00  0.00     0.044 C 
ATOM      6  C   UNL     1     -15.246 -20.696 -37.320  1.00  0.00    -0.051 A 
ATOM      7  C   UNL     1     -15.996 -21.878 -37.285  1.00  0.00     0.004 A 
ATOM      8  C   UNL     1     -14.476 -20.403 -38.454  1.00  0.00     0.004 A 
ATOM      9  C   UNL     1     -16.001 -22.747 -38.380  1.00  0.00     0.004 A 
ATOM     10  C   UNL     1     -14.478 -21.270 -39.551  1.00  0.00     0.004 A 
ENDBRANCH   2   4
ENDBRANCH   1   2
BRANCH   1  11
ATOM     11  C   UNL     1     -12.692 -23.923 -41.094  1.00  0.00     0.028 C 
BRANCH  11  12
ATOM     12  C   UNL     1     -11.823 -24.996 -41.703  1.00  0.00    -0.028 C 
ATOM     13  C   UNL     1     -11.267 -24.934 -42.933  1.00  0.00    -0.080 C 
ATOM     14  C   UNL     1     -10.409 -26.086 -43.388  1.00  0.00     0.039 C 
ATOM     15  C   UNL     1     -11.508 -23.773 -43.870  1.00  0.00     0.039 C 
ENDBRANCH  11  12
ENDBRANCH   1  11
TORSDOF 4
ENDMDL
MODEL 8
REMARK VINA RESULT:    -4.984      1.627      6.022
REMARK INTER + INTRA:          -7.181
REMARK INTER:                  -6.636
REMARK INTRA:                  -0.545
REMARK UNBOUND:                -1.032
REMARK SMILES CC(C)=CCC[C@H](C)c1ccc(C)cc1
REMARK SMILES IDX 6 1 7 2 8 3 9 4 13 5 12 6 11 7 14 8 10 9 15 10 5 11 4 12
REMARK SMILES IDX 2 13 1 14 3 15
REMARK H PARENT
REMARK Flexibility Score: inf
ROOT
ATOM      1  C   UNL     1     -14.123 -24.367 -40.633  1.00  0.00     0.012 C 
ENDROOT
BRANCH   1   2
ATOM      2  C   UNL     1     -15.280 -23.336 -40.682  1.00  0.00     0.016 C 
ATOM      3  C   UNL     1     -15.423 -22.650 -42.052  1.00  0.00     0.013 C 
BRANCH   2   4
ATOM      4  C   UNL     1     -15.255 -22.368 -39.509  1.00  0.00    -0.045 A 
ATOM      5  C   UNL     1     -15.180 -19.744 -36.074  1.00  0.00     0.044 C 
ATOM      6  C   UNL     1     -15.180 -20.671 -37.253  1.00  0.00    -0.051 A 
ATOM      7  C   UNL     1     -14.437 -20.358 -38.398  1.00  0.00     0.004 A 
ATOM      8  C   UNL     1     -15.973 -21.828 -37.243  1.00  0.00     0.004 A 
ATOM      9  C   UNL     1     -14.462 -21.202 -39.512  1.00  0.00     0.004 A 
ATOM     10  C   UNL     1     -16.000 -22.674 -38.355  1.00  0.00     0.004 A 
ENDBRANCH   2   4
ENDBRANCH   1   2
BRANCH   1  11
ATOM     11  C   UNL     1     -12.742 -23.879 -41.116  1.00  0.00     0.028 C 
BRANCH  11  12
ATOM     12  C   UNL     1     -11.886 -24.978 -41.696  1.00  0.00    -0.028 C 
ATOM     13  C   UNL     1     -11.282 -24.931 -42.904  1.00  0.00    -0.080 C 
ATOM     14  C   UNL     1     -10.446 -26.109 -43.331  1.00  0.00     0.039 C 
ATOM     15  C   UNL     1     -11.447 -23.759 -43.843  1.00  0.00     0.039 C 
ENDBRANCH  11  12
ENDBRANCH   1  11
TORSDOF 4
ENDMDL
MODEL 9
REMARK VINA RESULT:    -4.930      2.116      2.462
REMARK INTER + INTRA:          -7.116
REMARK INTER:                  -6.454
REMARK INTRA:                  -0.662
REMARK UNBOUND:                -1.032
REMARK SMILES CC(C)=CCC[C@H](C)c1ccc(C)cc1
REMARK SMILES IDX 6 1 7 2 8 3 9 4 13 5 12 6 11 7 14 8 10 9 15 10 5 11 4 12
REMARK SMILES IDX 2 13 1 14 3 15
REMARK H PARENT
REMARK Flexibility Score: inf
ROOT
ATOM      1  C   UNL     1     -15.529 -20.536 -39.199  1.00  0.00     0.012 C 
ENDROOT
BRANCH   1   2
ATOM      2  C   UNL     1     -15.960 -21.984 -39.546  1.00  0.00     0.016 C 
ATOM      3  C   UNL     1     -15.977 -22.921 -38.325  1.00  0.00     0.013 C 
BRANCH   2   4
ATOM      4  C   UNL     1     -15.213 -22.550 -40.745  1.00  0.00    -0.045 A 
ATOM      5  C   UNL     1     -13.043 -24.281 -44.058  1.00  0.00     0.044 C 
ATOM      6  C   UNL     1     -13.810 -23.710 -42.903  1.00  0.00    -0.051 A 
ATOM      7  C   UNL     1     -15.060 -23.111 -43.112  1.00  0.00     0.004 A 
ATOM      8  C   UNL     1     -13.257 -23.715 -41.615  1.00  0.00     0.004 A 
ATOM      9  C   UNL     1     -15.762 -22.547 -42.043  1.00  0.00     0.004 A 
ATOM     10  C   UNL     1     -13.957 -23.151 -40.544  1.00  0.00     0.004 A 
ENDBRANCH   2   4
ENDBRANCH   1   2
BRANCH   1  11
ATOM     11  C   UNL     1     -14.581 -20.368 -37.993  1.00  0.00     0.028 C 
BRANCH  11  12
ATOM     12  C   UNL     1     -15.092 -19.395 -36.959  1.00  0.00    -0.028 C 
ATOM     13  C   UNL     1     -15.502 -19.733 -35.716  1.00  0.00    -0.080 C 
ATOM     14  C   UNL     1     -15.972 -18.636 -34.796  1.00  0.00     0.039 C 
ATOM     15  C   UNL     1     -15.538 -21.167 -35.240  1.00  0.00     0.039 C 
ENDBRANCH  11  12
ENDBRANCH   1  11
TORSDOF 4
ENDMDL
