MODEL 1
REMARK VINA RESULT:    27.877      0.000      0.000
REMARK INTER + INTRA:          29.275
REMARK INTER:                  29.506
REMARK INTRA:                  -0.231
REMARK UNBOUND:                -0.231
REMARK SMILES O=c1cc(-c2ccccc2)oc2ccccc12
REMARK SMILES IDX 4 1 3 2 2 3 1 4 17 5 16 6 15 7 14 8 13 9 12 10 11 11 5 12
REMARK SMILES IDX 8 13 7 14 9 15 6 16 10 17
REMARK H PARENT
REMARK Flexibility Score: inf
ROOT
ATOM      1  C   UNL     1       9.281  67.649   7.186  1.00  0.00     0.138 A 
ATOM      2  C   UNL     1       9.298  68.718   8.108  1.00  0.00     0.100 A 
ATOM      3  C   UNL     1       9.372  70.031   7.638  1.00  0.00     0.193 A 
ATOM      4  O   UNL     1       9.387  70.985   8.462  1.00  0.00    -0.289 OA
ATOM      5  C   UNL     1       9.428  70.269   6.258  1.00  0.00     0.065 A 
ATOM      6  C   UNL     1       9.502  71.567   5.720  1.00  0.00     0.016 A 
ATOM      7  C   UNL     1       9.557  71.748   4.334  1.00  0.00     0.001 A 
ATOM      8  C   UNL     1       9.535  70.642   3.479  1.00  0.00     0.004 A 
ATOM      9  C   UNL     1       9.461  69.349   4.006  1.00  0.00     0.048 A 
ATOM     10  C   UNL     1       9.407  69.156   5.391  1.00  0.00     0.138 A 
ATOM     11  O   UNL     1       9.336  67.923   5.881  1.00  0.00    -0.456 OA
ENDROOT
BRANCH   1  12
ATOM     12  C   UNL     1       9.204  66.215   7.603  1.00  0.00     0.017 A 
ATOM     13  C   UNL     1       8.972  63.503   8.345  1.00  0.00     0.000 A 
ATOM     14  C   UNL     1      10.098  64.234   8.720  1.00  0.00     0.001 A 
ATOM     15  C   UNL     1       7.961  64.112   7.603  1.00  0.00     0.001 A 
ATOM     16  C   UNL     1      10.218  65.580   8.355  1.00  0.00     0.012 A 
ATOM     17  C   UNL     1       8.074  65.455   7.234  1.00  0.00     0.012 A 
ENDBRANCH   1  12
TORSDOF 1
ENDMDL
