MODEL 1
REMARK VINA RESULT:    -2.496      0.000      0.000
REMARK INTER + INTRA:          -5.120
REMARK INTER:                  -3.663
REMARK INTRA:                  -1.457
REMARK UNBOUND:                -1.457
REMARK SMILES CCCCCC(=O)CCCCC
REMARK SMILES IDX 6 1 7 2 5 3 4 4 3 5 2 6 1 7 8 8 9 9 10 10 11 11 12 12
REMARK H PARENT
REMARK Flexibility Score: inf
ROOT
ATOM      1  C   UNL     1     134.363 139.708 144.818  1.00  0.00     0.132 C 
ATOM      2  O   UNL     1     134.203 140.913 144.951  1.00  0.00    -0.300 OA
ENDROOT
BRANCH   1   3
ATOM      3  C   UNL     1     135.761 139.151 144.732  1.00  0.00     0.075 C 
BRANCH   3   4
ATOM      4  C   UNL     1     135.982 138.365 143.433  1.00  0.00     0.008 C 
BRANCH   4   5
ATOM      5  C   UNL     1     136.243 136.873 143.700  1.00  0.00     0.000 C 
BRANCH   5   6
ATOM      6  C   UNL     1     136.640 136.596 145.158  1.00  0.00    -0.003 C 
ATOM      7  C   UNL     1     136.328 135.165 145.594  1.00  0.00     0.004 C 
ENDBRANCH   5   6
ENDBRANCH   4   5
ENDBRANCH   3   4
ENDBRANCH   1   3
BRANCH   1   8
ATOM      8  C   UNL     1     133.160 138.806 144.749  1.00  0.00     0.075 C 
BRANCH   8   9
ATOM      9  C   UNL     1     133.103 137.882 145.970  1.00  0.00     0.008 C 
BRANCH   9  10
ATOM     10  C   UNL     1     132.796 136.439 145.555  1.00  0.00     0.000 C 
BRANCH  10  11
ATOM     11  C   UNL     1     132.630 136.327 144.035  1.00  0.00    -0.003 C 
ATOM     12  C   UNL     1     133.105 134.970 143.527  1.00  0.00     0.004 C 
ENDBRANCH  10  11
ENDBRANCH   9  10
ENDBRANCH   8   9
ENDBRANCH   1   8
TORSDOF 8
ENDMDL
MODEL 2
REMARK VINA RESULT:    -2.487      8.408     10.649
REMARK INTER + INTRA:          -5.107
REMARK INTER:                  -3.638
REMARK INTRA:                  -1.469
REMARK UNBOUND:                -1.457
REMARK SMILES CCCCCC(=O)CCCCC
REMARK SMILES IDX 6 1 7 2 5 3 4 4 3 5 2 6 1 7 8 8 9 9 10 10 11 11 12 12
REMARK H PARENT
REMARK Flexibility Score: inf
ROOT
ATOM      1  C   UNL     1     139.712 147.209 144.874  1.00  0.00     0.132 C 
ATOM      2  O   UNL     1     140.912 147.322 145.075  1.00  0.00    -0.300 OA
ENDROOT
BRANCH   1   3
ATOM      3  C   UNL     1     138.860 148.447 144.759  1.00  0.00     0.075 C 
BRANCH   3   4
ATOM      4  C   UNL     1     137.886 148.580 145.937  1.00  0.00     0.008 C 
BRANCH   4   5
ATOM      5  C   UNL     1     136.482 149.011 145.477  1.00  0.00     0.000 C 
BRANCH   5   6
ATOM      6  C   UNL     1     136.297 148.889 143.957  1.00  0.00    -0.003 C 
ATOM      7  C   UNL     1     134.861 148.541 143.564  1.00  0.00     0.004 C 
ENDBRANCH   5   6
ENDBRANCH   4   5
ENDBRANCH   3   4
ENDBRANCH   1   3
BRANCH   1   8
ATOM      8  C   UNL     1     139.111 145.835 144.741  1.00  0.00     0.075 C 
BRANCH   8   9
ATOM      9  C   UNL     1     138.306 145.718 143.442  1.00  0.00     0.008 C 
BRANCH   9  10
ATOM     10  C   UNL     1     136.859 145.298 143.726  1.00  0.00     0.000 C 
BRANCH  10  11
ATOM     11  C   UNL     1     136.657 144.997 145.216  1.00  0.00    -0.003 C 
ATOM     12  C   UNL     1     135.297 145.492 145.698  1.00  0.00     0.004 C 
ENDBRANCH  10  11
ENDBRANCH   9  10
ENDBRANCH   8   9
ENDBRANCH   1   8
TORSDOF 8
ENDMDL
MODEL 3
REMARK VINA RESULT:    -2.447     12.241     14.386
REMARK INTER + INTRA:          -5.049
REMARK INTER:                  -3.675
REMARK INTRA:                  -1.374
REMARK UNBOUND:                -1.457
REMARK SMILES CCCCCC(=O)CCCCC
REMARK SMILES IDX 6 1 7 2 5 3 4 4 3 5 2 6 1 7 8 8 9 9 10 10 11 11 12 12
REMARK H PARENT
REMARK Flexibility Score: inf
ROOT
ATOM      1  C   UNL     1     146.171 141.720 145.179  1.00  0.00     0.132 C 
ATOM      2  O   UNL     1     145.899 140.606 145.600  1.00  0.00    -0.300 OA
ENDROOT
BRANCH   1   3
ATOM      3  C   UNL     1     145.060 142.644 144.751  1.00  0.00     0.075 C 
BRANCH   3   4
ATOM      4  C   UNL     1     145.393 143.366 143.439  1.00  0.00     0.008 C 
BRANCH   4   5
ATOM      5  C   UNL     1     145.440 144.894 143.619  1.00  0.00     0.000 C 
BRANCH   5   6
ATOM      6  C   UNL     1     144.774 145.354 144.924  1.00  0.00    -0.003 C 
ATOM      7  C   UNL     1     145.675 146.266 145.756  1.00  0.00     0.004 C 
ENDBRANCH   5   6
ENDBRANCH   4   5
ENDBRANCH   3   4
ENDBRANCH   1   3
BRANCH   1   8
ATOM      8  C   UNL     1     147.613 142.147 145.100  1.00  0.00     0.075 C 
BRANCH   8   9
ATOM      9  C   UNL     1     148.039 142.858 146.389  1.00  0.00     0.008 C 
BRANCH   9  10
ATOM     10  C   UNL     1     148.734 144.189 146.080  1.00  0.00     0.000 C 
BRANCH  10  11
ATOM     11  C   UNL     1     149.116 144.279 144.598  1.00  0.00    -0.003 C 
ATOM     12  C   UNL     1     149.045 145.718 144.097  1.00  0.00     0.004 C 
ENDBRANCH  10  11
ENDBRANCH   9  10
ENDBRANCH   8   9
ENDBRANCH   1   8
TORSDOF 8
ENDMDL
MODEL 4
REMARK VINA RESULT:    -2.440      8.321     10.479
REMARK INTER + INTRA:          -5.038
REMARK INTER:                  -3.884
REMARK INTRA:                  -1.154
REMARK UNBOUND:                -1.457
REMARK SMILES CCCCCC(=O)CCCCC
REMARK SMILES IDX 6 1 7 2 5 3 4 4 3 5 2 6 1 7 8 8 9 9 10 10 11 11 12 12
REMARK H PARENT
REMARK Flexibility Score: inf
ROOT
ATOM      1  C   UNL     1     142.025 134.536 145.031  1.00  0.00     0.132 C 
ATOM      2  O   UNL     1     140.846 134.240 144.912  1.00  0.00    -0.300 OA
ENDROOT
BRANCH   1   3
ATOM      3  C   UNL     1     142.473 135.941 144.718  1.00  0.00     0.075 C 
BRANCH   3   4
ATOM      4  C   UNL     1     143.293 136.002 143.422  1.00  0.00     0.008 C 
BRANCH   4   5
ATOM      5  C   UNL     1     144.777 136.302 143.693  1.00  0.00     0.000 C 
BRANCH   5   6
ATOM      6  C   UNL     1     145.007 136.940 145.072  1.00  0.00    -0.003 C 
ATOM      7  C   UNL     1     146.190 136.322 145.817  1.00  0.00     0.004 C 
ENDBRANCH   5   6
ENDBRANCH   4   5
ENDBRANCH   3   4
ENDBRANCH   1   3
BRANCH   1   8
ATOM      8  C   UNL     1     143.007 133.492 145.494  1.00  0.00     0.075 C 
BRANCH   8   9
ATOM      9  C   UNL     1     143.170 132.395 144.437  1.00  0.00     0.008 C 
BRANCH   9  10
ATOM     10  C   UNL     1     144.562 131.757 144.516  1.00  0.00     0.000 C 
BRANCH  10  11
ATOM     11  C   UNL     1     145.635 132.814 144.801  1.00  0.00    -0.003 C 
ATOM     12  C   UNL     1     146.532 133.030 143.585  1.00  0.00     0.004 C 
ENDBRANCH  10  11
ENDBRANCH   9  10
ENDBRANCH   8   9
ENDBRANCH   1   8
TORSDOF 8
ENDMDL
MODEL 5
REMARK VINA RESULT:    -2.439     12.730     14.622
REMARK INTER + INTRA:          -5.037
REMARK INTER:                  -3.893
REMARK INTRA:                  -1.144
REMARK UNBOUND:                -1.457
REMARK SMILES CCCCCC(=O)CCCCC
REMARK SMILES IDX 6 1 7 2 5 3 4 4 3 5 2 6 1 7 8 8 9 9 10 10 11 11 12 12
REMARK H PARENT
REMARK Flexibility Score: inf
ROOT
ATOM      1  C   UNL     1     147.098 142.043 145.121  1.00  0.00     0.132 C 
ATOM      2  O   UNL     1     147.373 140.857 145.016  1.00  0.00    -0.300 OA
ENDROOT
BRANCH   1   3
ATOM      3  C   UNL     1     148.161 143.015 145.563  1.00  0.00     0.075 C 
BRANCH   3   4
ATOM      4  C   UNL     1     149.213 143.245 144.470  1.00  0.00     0.008 C 
BRANCH   4   5
ATOM      5  C   UNL     1     149.829 144.653 144.551  1.00  0.00     0.000 C 
BRANCH   5   6
ATOM      6  C   UNL     1     148.773 145.746 144.769  1.00  0.00    -0.003 C 
ATOM      7  C   UNL     1     148.537 146.596 143.521  1.00  0.00     0.004 C 
ENDBRANCH   5   6
ENDBRANCH   4   5
ENDBRANCH   3   4
ENDBRANCH   1   3
BRANCH   1   8
ATOM      8  C   UNL     1     145.702 142.509 144.802  1.00  0.00     0.075 C 
BRANCH   8   9
ATOM      9  C   UNL     1     145.669 143.246 143.459  1.00  0.00     0.008 C 
BRANCH   9  10
ATOM     10  C   UNL     1     145.321 144.727 143.651  1.00  0.00     0.000 C 
BRANCH  10  11
ATOM     11  C   UNL     1     144.717 144.973 145.038  1.00  0.00    -0.003 C 
ATOM     12  C   UNL     1     145.227 146.280 145.638  1.00  0.00     0.004 C 
ENDBRANCH  10  11
ENDBRANCH   9  10
ENDBRANCH   8   9
ENDBRANCH   1   8
TORSDOF 8
ENDMDL
MODEL 6
REMARK VINA RESULT:    -2.439      8.088     10.406
REMARK INTER + INTRA:          -5.037
REMARK INTER:                  -3.652
REMARK INTRA:                  -1.385
REMARK UNBOUND:                -1.457
REMARK SMILES CCCCCC(=O)CCCCC
REMARK SMILES IDX 6 1 7 2 5 3 4 4 3 5 2 6 1 7 8 8 9 9 10 10 11 11 12 12
REMARK H PARENT
REMARK Flexibility Score: inf
ROOT
ATOM      1  C   UNL     1     141.778 134.849 144.996  1.00  0.00     0.132 C 
ATOM      2  O   UNL     1     140.570 134.887 145.176  1.00  0.00    -0.300 OA
ENDROOT
BRANCH   1   3
ATOM      3  C   UNL     1     142.477 133.515 144.933  1.00  0.00     0.075 C 
BRANCH   3   4
ATOM      4  C   UNL     1     143.417 133.308 146.127  1.00  0.00     0.008 C 
BRANCH   4   5
ATOM      5  C   UNL     1     144.766 132.704 145.700  1.00  0.00     0.000 C 
BRANCH   5   6
ATOM      6  C   UNL     1     144.878 132.530 144.177  1.00  0.00    -0.003 C 
ATOM      7  C   UNL     1     146.265 132.884 143.643  1.00  0.00     0.004 C 
ENDBRANCH   5   6
ENDBRANCH   4   5
ENDBRANCH   3   4
ENDBRANCH   1   3
BRANCH   1   8
ATOM      8  C   UNL     1     142.542 136.137 144.836  1.00  0.00     0.075 C 
BRANCH   8   9
ATOM      9  C   UNL     1     143.231 136.193 143.469  1.00  0.00     0.008 C 
BRANCH   9  10
ATOM     10  C   UNL     1     144.757 136.210 143.621  1.00  0.00     0.000 C 
BRANCH  10  11
ATOM     11  C   UNL     1     145.170 136.869 144.942  1.00  0.00    -0.003 C 
ATOM     12  C   UNL     1     146.300 136.095 145.615  1.00  0.00     0.004 C 
ENDBRANCH  10  11
ENDBRANCH   9  10
ENDBRANCH   8   9
ENDBRANCH   1   8
TORSDOF 8
ENDMDL
MODEL 7
REMARK VINA RESULT:    -2.409      8.580     10.649
REMARK INTER + INTRA:          -4.992
REMARK INTER:                  -3.772
REMARK INTRA:                  -1.220
REMARK UNBOUND:                -1.457
REMARK SMILES CCCCCC(=O)CCCCC
REMARK SMILES IDX 6 1 7 2 5 3 4 4 3 5 2 6 1 7 8 8 9 9 10 10 11 11 12 12
REMARK H PARENT
REMARK Flexibility Score: inf
ROOT
ATOM      1  C   UNL     1     136.961 145.839 143.952  1.00  0.00     0.132 C 
ATOM      2  O   UNL     1     136.084 145.023 144.191  1.00  0.00    -0.300 OA
ENDROOT
BRANCH   1   3
ATOM      3  C   UNL     1     138.344 145.358 143.593  1.00  0.00     0.075 C 
BRANCH   3   4
ATOM      4  C   UNL     1     139.009 144.614 144.759  1.00  0.00     0.008 C 
BRANCH   4   5
ATOM      5  C   UNL     1     139.420 145.571 145.892  1.00  0.00     0.000 C 
BRANCH   5   6
ATOM      6  C   UNL     1     140.905 145.957 145.827  1.00  0.00    -0.003 C 
ATOM      7  C   UNL     1     141.128 147.343 145.222  1.00  0.00     0.004 C 
ENDBRANCH   5   6
ENDBRANCH   4   5
ENDBRANCH   3   4
ENDBRANCH   1   3
BRANCH   1   8
ATOM      8  C   UNL     1     136.640 147.309 144.015  1.00  0.00     0.075 C 
BRANCH   8   9
ATOM      9  C   UNL     1     137.868 148.149 143.648  1.00  0.00     0.008 C 
BRANCH   9  10
ATOM     10  C   UNL     1     138.047 149.319 144.623  1.00  0.00     0.000 C 
BRANCH  10  11
ATOM     11  C   UNL     1     137.205 149.113 145.888  1.00  0.00    -0.003 C 
ATOM     12  C   UNL     1     138.089 148.813 147.095  1.00  0.00     0.004 C 
ENDBRANCH  10  11
ENDBRANCH   9  10
ENDBRANCH   8   9
ENDBRANCH   1   8
TORSDOF 8
ENDMDL
MODEL 8
REMARK VINA RESULT:    -2.401      1.069      1.449
REMARK INTER + INTRA:          -4.980
REMARK INTER:                  -3.508
REMARK INTRA:                  -1.472
REMARK UNBOUND:                -1.457
REMARK SMILES CCCCCC(=O)CCCCC
REMARK SMILES IDX 6 1 7 2 5 3 4 4 3 5 2 6 1 7 8 8 9 9 10 10 11 11 12 12
REMARK H PARENT
REMARK Flexibility Score: inf
ROOT
ATOM      1  C   UNL     1     135.620 139.112 144.668  1.00  0.00     0.132 C 
ATOM      2  O   UNL     1     136.276 139.565 145.594  1.00  0.00    -0.300 OA
ENDROOT
BRANCH   1   3
ATOM      3  C   UNL     1     136.324 138.422 143.528  1.00  0.00     0.075 C 
BRANCH   3   4
ATOM      4  C   UNL     1     136.039 136.915 143.511  1.00  0.00     0.008 C 
BRANCH   4   5
ATOM      5  C   UNL     1     136.859 136.162 144.573  1.00  0.00     0.000 C 
BRANCH   5   6
ATOM      6  C   UNL     1     135.974 135.518 145.652  1.00  0.00    -0.003 C 
ATOM      7  C   UNL     1     136.105 136.207 147.010  1.00  0.00     0.004 C 
ENDBRANCH   5   6
ENDBRANCH   4   5
ENDBRANCH   3   4
ENDBRANCH   1   3
BRANCH   1   8
ATOM      8  C   UNL     1     134.120 139.249 144.688  1.00  0.00     0.075 C 
BRANCH   8   9
ATOM      9  C   UNL     1     133.552 138.794 146.037  1.00  0.00     0.008 C 
BRANCH   9  10
ATOM     10  C   UNL     1     132.768 137.485 145.890  1.00  0.00     0.000 C 
BRANCH  10  11
ATOM     11  C   UNL     1     132.354 137.252 144.433  1.00  0.00    -0.003 C 
ATOM     12  C   UNL     1     132.593 135.804 144.016  1.00  0.00     0.004 C 
ENDBRANCH  10  11
ENDBRANCH   9  10
ENDBRANCH   8   9
ENDBRANCH   1   8
TORSDOF 8
ENDMDL
MODEL 9
REMARK VINA RESULT:    -2.385      1.218      3.604
REMARK INTER + INTRA:          -4.958
REMARK INTER:                  -3.700
REMARK INTRA:                  -1.258
REMARK UNBOUND:                -1.457
REMARK SMILES CCCCCC(=O)CCCCC
REMARK SMILES IDX 6 1 7 2 5 3 4 4 3 5 2 6 1 7 8 8 9 9 10 10 11 11 12 12
REMARK H PARENT
REMARK Flexibility Score: inf
ROOT
ATOM      1  C   UNL     1     132.855 138.515 144.863  1.00  0.00     0.132 C 
ATOM      2  O   UNL     1     132.034 138.395 143.966  1.00  0.00    -0.300 OA
ENDROOT
BRANCH   1   3
ATOM      3  C   UNL     1     132.759 137.632 146.081  1.00  0.00     0.075 C 
BRANCH   3   4
ATOM      4  C   UNL     1     132.202 136.244 145.736  1.00  0.00     0.008 C 
BRANCH   4   5
ATOM      5  C   UNL     1     133.265 135.143 145.890  1.00  0.00     0.000 C 
BRANCH   5   6
ATOM      6  C   UNL     1     133.431 134.301 144.615  1.00  0.00    -0.003 C 
ATOM      7  C   UNL     1     132.993 135.047 143.355  1.00  0.00     0.004 C 
ENDBRANCH   5   6
ENDBRANCH   4   5
ENDBRANCH   3   4
ENDBRANCH   1   3
BRANCH   1   8
ATOM      8  C   UNL     1     133.950 139.540 144.730  1.00  0.00     0.075 C 
BRANCH   8   9
ATOM      9  C   UNL     1     135.328 138.877 144.821  1.00  0.00     0.008 C 
BRANCH   9  10
ATOM     10  C   UNL     1     135.739 138.274 143.472  1.00  0.00     0.000 C 
BRANCH  10  11
ATOM     11  C   UNL     1     136.160 136.808 143.631  1.00  0.00    -0.003 C 
ATOM     12  C   UNL     1     136.553 136.501 145.073  1.00  0.00     0.004 C 
ENDBRANCH  10  11
ENDBRANCH   9  10
ENDBRANCH   8   9
ENDBRANCH   1   8
TORSDOF 8
ENDMDL
