MODEL 1
REMARK VINA RESULT:    -6.471      0.000      0.000
REMARK INTER + INTRA:          -7.643
REMARK INTER:                  -7.795
REMARK INTRA:                   0.152
REMARK UNBOUND:                 0.152
REMARK SMILES O=c1c(O)c(-c2ccc(O)cc2O)oc2cc(O)cc(O)c12
REMARK SMILES IDX 5 1 3 2 2 3 1 4 22 5 20 6 19 7 17 8 16 9 15 10 14 11 6 12
REMARK SMILES IDX 8 13 7 14 9 15 11 16 12 17 10 18 13 20 4 22 21 24 18 26
REMARK H PARENT 10 19 13 21 4 23 21 25 18 27
REMARK Flexibility Score: inf
ROOT
ATOM      1  C   UNL     1      10.324  -3.153  19.212  1.00  0.00     0.184 A 
ATOM      2  C   UNL     1      11.571  -2.661  18.800  1.00  0.00     0.208 A 
ATOM      3  C   UNL     1      11.713  -1.286  18.556  1.00  0.00     0.238 A 
ATOM      4  O   UNL     1      12.850  -0.842  18.246  1.00  0.00    -0.285 OA
ATOM      5  C   UNL     1      10.597  -0.426  18.700  1.00  0.00     0.111 A 
ATOM      6  C   UNL     1      10.616   0.978  18.441  1.00  0.00     0.134 A 
ATOM      7  C   UNL     1       9.485   1.749  18.735  1.00  0.00     0.093 A 
ATOM      8  C   UNL     1       8.316   1.160  19.216  1.00  0.00     0.123 A 
ATOM      9  C   UNL     1       8.267  -0.219  19.419  1.00  0.00     0.094 A 
ATOM     10  C   UNL     1       9.391  -1.010  19.170  1.00  0.00     0.146 A 
ATOM     11  O   UNL     1       9.307  -2.318  19.389  1.00  0.00    -0.451 OA
ENDROOT
BRANCH   1  12
ATOM     12  C   UNL     1      10.108  -4.594  19.463  1.00  0.00     0.063 A 
ATOM     13  C   UNL     1      11.019  -6.752  20.125  1.00  0.00     0.047 A 
ATOM     14  C   UNL     1      11.177  -5.379  19.932  1.00  0.00     0.020 A 
ATOM     15  C   UNL     1       9.793  -7.364  19.843  1.00  0.00     0.119 A 
ATOM     16  C   UNL     1       8.725  -6.594  19.374  1.00  0.00     0.093 A 
ATOM     17  C   UNL     1       8.867  -5.214  19.187  1.00  0.00     0.130 A 
BRANCH  15  18
ATOM     18  O   UNL     1       9.625  -8.735  20.027  1.00  0.00    -0.508 OA
ATOM     19  H   UNL     1       9.170  -9.311  19.328  1.00  0.00     0.293 HD
ENDBRANCH  15  18
BRANCH  17  20
ATOM     20  O   UNL     1       7.757  -4.489  18.750  1.00  0.00    -0.507 OA
ATOM     21  H   UNL     1       6.970  -4.916  18.278  1.00  0.00     0.293 HD
ENDBRANCH  17  20
ENDBRANCH   1  12
BRANCH   2  22
ATOM     22  O   UNL     1      12.654  -3.533  18.663  1.00  0.00    -0.502 OA
ATOM     23  H   UNL     1      13.143  -3.921  19.460  1.00  0.00     0.293 HD
ENDBRANCH   2  22
BRANCH   6  24
ATOM     24  O   UNL     1      11.701   1.654  17.875  1.00  0.00    -0.507 OA
ATOM     25  H   UNL     1      12.109   1.438  16.978  1.00  0.00     0.293 HD
ENDBRANCH   6  24
BRANCH   8  26
ATOM     26  O   UNL     1       7.204   1.957  19.482  1.00  0.00    -0.508 OA
ATOM     27  H   UNL     1       6.296   1.748  19.086  1.00  0.00     0.293 HD
ENDBRANCH   8  26
TORSDOF 6
ENDMDL
MODEL 2
REMARK VINA RESULT:    -6.187      1.461      6.389
REMARK INTER + INTRA:          -7.302
REMARK INTER:                  -7.098
REMARK INTRA:                  -0.204
REMARK UNBOUND:                 0.152
REMARK SMILES O=c1c(O)c(-c2ccc(O)cc2O)oc2cc(O)cc(O)c12
REMARK SMILES IDX 5 1 3 2 2 3 1 4 22 5 20 6 19 7 17 8 16 9 15 10 14 11 6 12
REMARK SMILES IDX 8 13 7 14 9 15 11 16 12 17 10 18 13 20 4 22 21 24 18 26
REMARK H PARENT 10 19 13 21 4 23 21 25 18 27
REMARK Flexibility Score: inf
ROOT
ATOM      1  C   UNL     1       9.838  -2.004  19.168  1.00  0.00     0.184 A 
ATOM      2  C   UNL     1      11.191  -2.370  19.231  1.00  0.00     0.208 A 
ATOM      3  C   UNL     1      11.523  -3.718  19.440  1.00  0.00     0.238 A 
ATOM      4  O   UNL     1      12.737  -4.049  19.434  1.00  0.00    -0.285 OA
ATOM      5  C   UNL     1      10.495  -4.677  19.612  1.00  0.00     0.111 A 
ATOM      6  C   UNL     1      10.714  -6.064  19.868  1.00  0.00     0.134 A 
ATOM      7  C   UNL     1       9.624  -6.942  19.899  1.00  0.00     0.093 A 
ATOM      8  C   UNL     1       8.319  -6.475  19.748  1.00  0.00     0.123 A 
ATOM      9  C   UNL     1       8.088  -5.113  19.553  1.00  0.00     0.094 A 
ATOM     10  C   UNL     1       9.157  -4.218  19.481  1.00  0.00     0.146 A 
ATOM     11  O   UNL     1       8.895  -2.931  19.281  1.00  0.00    -0.451 OA
ENDROOT
BRANCH   1  12
ATOM     12  C   UNL     1       9.429  -0.596  18.973  1.00  0.00     0.063 A 
ATOM     13  C   UNL     1       9.564   1.729  19.678  1.00  0.00     0.047 A 
ATOM     14  C   UNL     1       9.973   0.400  19.803  1.00  0.00     0.020 A 
ATOM     15  C   UNL     1       8.600   2.081  18.728  1.00  0.00     0.119 A 
ATOM     16  C   UNL     1       8.051   1.098  17.899  1.00  0.00     0.093 A 
ATOM     17  C   UNL     1       8.461  -0.237  18.007  1.00  0.00     0.130 A 
BRANCH  15  18
ATOM     18  O   UNL     1       8.180   3.403  18.597  1.00  0.00    -0.508 OA
ATOM     19  H   UNL     1       7.542   3.686  17.864  1.00  0.00     0.293 HD
ENDBRANCH  15  18
BRANCH  17  20
ATOM     20  O   UNL     1       7.906  -1.170  17.129  1.00  0.00    -0.507 OA
ATOM     21  H   UNL     1       6.921  -1.404  17.122  1.00  0.00     0.293 HD
ENDBRANCH  17  20
ENDBRANCH   1  12
BRANCH   2  22
ATOM     22  O   UNL     1      12.184  -1.401  19.062  1.00  0.00    -0.502 OA
ATOM     23  H   UNL     1      12.047  -0.432  19.323  1.00  0.00     0.293 HD
ENDBRANCH   2  22
BRANCH   6  24
ATOM     24  O   UNL     1      11.971  -6.622  20.125  1.00  0.00    -0.507 OA
ATOM     25  H   UNL     1      12.851  -6.157  19.961  1.00  0.00     0.293 HD
ENDBRANCH   6  24
BRANCH   8  26
ATOM     26  O   UNL     1       7.256  -7.375  19.800  1.00  0.00    -0.508 OA
ATOM     27  H   UNL     1       6.468  -7.228  20.418  1.00  0.00     0.293 HD
ENDBRANCH   8  26
TORSDOF 6
ENDMDL
MODEL 3
REMARK VINA RESULT:    -5.994      1.156      3.256
REMARK INTER + INTRA:          -7.069
REMARK INTER:                  -7.283
REMARK INTRA:                   0.214
REMARK UNBOUND:                 0.152
REMARK SMILES O=c1c(O)c(-c2ccc(O)cc2O)oc2cc(O)cc(O)c12
REMARK SMILES IDX 5 1 3 2 2 3 1 4 22 5 20 6 19 7 17 8 16 9 15 10 14 11 6 12
REMARK SMILES IDX 8 13 7 14 9 15 11 16 12 17 10 18 13 20 4 22 21 24 18 26
REMARK H PARENT 10 19 13 21 4 23 21 25 18 27
REMARK Flexibility Score: inf
ROOT
ATOM      1  C   UNL     1       8.939  -3.172  19.411  1.00  0.00     0.184 A 
ATOM      2  C   UNL     1       7.649  -2.674  19.643  1.00  0.00     0.208 A 
ATOM      3  C   UNL     1       7.422  -1.293  19.529  1.00  0.00     0.238 A 
ATOM      4  O   UNL     1       6.250  -0.860  19.678  1.00  0.00    -0.285 OA
ATOM      5  C   UNL     1       8.497  -0.427  19.213  1.00  0.00     0.111 A 
ATOM      6  C   UNL     1       8.391   0.993  19.110  1.00  0.00     0.134 A 
ATOM      7  C   UNL     1       9.492   1.738  18.672  1.00  0.00     0.093 A 
ATOM      8  C   UNL     1      10.713   1.124  18.395  1.00  0.00     0.123 A 
ATOM      9  C   UNL     1      10.845  -0.257  18.546  1.00  0.00     0.094 A 
ATOM     10  C   UNL     1       9.754  -1.031  18.947  1.00  0.00     0.146 A 
ATOM     11  O   UNL     1       9.918  -2.344  19.066  1.00  0.00    -0.451 OA
ENDROOT
BRANCH   1  12
ATOM     12  C   UNL     1       9.243  -4.614  19.538  1.00  0.00     0.063 A 
ATOM     13  C   UNL     1       8.463  -6.919  19.489  1.00  0.00     0.047 A 
ATOM     14  C   UNL     1       8.220  -5.554  19.322  1.00  0.00     0.020 A 
ATOM     15  C   UNL     1       9.730  -7.363  19.882  1.00  0.00     0.119 A 
ATOM     16  C   UNL     1      10.753  -6.437  20.102  1.00  0.00     0.093 A 
ATOM     17  C   UNL     1      10.525  -5.067  19.927  1.00  0.00     0.130 A 
BRANCH  15  18
ATOM     18  O   UNL     1       9.983  -8.723  20.057  1.00  0.00    -0.508 OA
ATOM     19  H   UNL     1      10.440  -9.272  19.339  1.00  0.00     0.293 HD
ENDBRANCH  15  18
BRANCH  17  20
ATOM     20  O   UNL     1      11.593  -4.190  20.125  1.00  0.00    -0.507 OA
ATOM     21  H   UNL     1      11.895  -3.521  19.428  1.00  0.00     0.293 HD
ENDBRANCH  17  20
ENDBRANCH   1  12
BRANCH   2  22
ATOM     22  O   UNL     1       6.609  -3.552  19.957  1.00  0.00    -0.502 OA
ATOM     23  H   UNL     1       6.770  -4.451  20.395  1.00  0.00     0.293 HD
ENDBRANCH   2  22
BRANCH   6  24
ATOM     24  O   UNL     1       7.244   1.718  19.450  1.00  0.00    -0.507 OA
ATOM     25  H   UNL     1       6.861   1.785  20.381  1.00  0.00     0.293 HD
ENDBRANCH   6  24
BRANCH   8  26
ATOM     26  O   UNL     1      11.793   1.899  17.976  1.00  0.00    -0.508 OA
ATOM     27  H   UNL     1      12.378   2.393  18.638  1.00  0.00     0.293 HD
ENDBRANCH   8  26
TORSDOF 6
ENDMDL
MODEL 4
REMARK VINA RESULT:    -5.586      3.059      5.485
REMARK INTER + INTRA:          -6.577
REMARK INTER:                  -6.288
REMARK INTRA:                  -0.289
REMARK UNBOUND:                 0.152
REMARK SMILES O=c1c(O)c(-c2ccc(O)cc2O)oc2cc(O)cc(O)c12
REMARK SMILES IDX 5 1 3 2 2 3 1 4 22 5 20 6 19 7 17 8 16 9 15 10 14 11 6 12
REMARK SMILES IDX 8 13 7 14 9 15 11 16 12 17 10 18 13 20 4 22 21 24 18 26
REMARK H PARENT 10 19 13 21 4 23 21 25 18 27
REMARK Flexibility Score: inf
ROOT
ATOM      1  C   UNL     1      11.074  -2.217  18.042  1.00  0.00     0.184 A 
ATOM      2  C   UNL     1      11.624  -0.934  18.173  1.00  0.00     0.208 A 
ATOM      3  C   UNL     1      12.910  -0.797  18.718  1.00  0.00     0.238 A 
ATOM      4  O   UNL     1      13.422   0.352  18.776  1.00  0.00    -0.285 OA
ATOM      5  C   UNL     1      13.617  -1.945  19.151  1.00  0.00     0.111 A 
ATOM      6  C   UNL     1      14.911  -1.922  19.755  1.00  0.00     0.134 A 
ATOM      7  C   UNL     1      15.565  -3.128  20.032  1.00  0.00     0.093 A 
ATOM      8  C   UNL     1      14.949  -4.354  19.789  1.00  0.00     0.123 A 
ATOM      9  C   UNL     1      13.661  -4.389  19.252  1.00  0.00     0.094 A 
ATOM     10  C   UNL     1      12.997  -3.204  18.931  1.00  0.00     0.146 A 
ATOM     11  O   UNL     1      11.778  -3.281  18.409  1.00  0.00    -0.451 OA
ENDROOT
BRANCH   1  12
ATOM     12  C   UNL     1       9.715  -2.421  17.496  1.00  0.00     0.063 A 
ATOM     13  C   UNL     1       7.443  -3.234  17.813  1.00  0.00     0.047 A 
ATOM     14  C   UNL     1       8.719  -2.979  18.318  1.00  0.00     0.020 A 
ATOM     15  C   UNL     1       7.144  -2.944  16.478  1.00  0.00     0.119 A 
ATOM     16  C   UNL     1       8.127  -2.391  15.652  1.00  0.00     0.093 A 
ATOM     17  C   UNL     1       9.408  -2.120  16.149  1.00  0.00     0.130 A 
BRANCH  15  18
ATOM     18  O   UNL     1       5.875  -3.198  15.962  1.00  0.00    -0.508 OA
ATOM     19  H   UNL     1       5.635  -2.961  15.008  1.00  0.00     0.293 HD
ENDBRANCH  15  18
BRANCH  17  20
ATOM     20  O   UNL     1      10.339  -1.535  15.289  1.00  0.00    -0.507 OA
ATOM     21  H   UNL     1      10.625  -0.567  15.361  1.00  0.00     0.293 HD
ENDBRANCH  17  20
ENDBRANCH   1  12
BRANCH   2  22
ATOM     22  O   UNL     1      10.902   0.182  17.741  1.00  0.00    -0.502 OA
ATOM     23  H   UNL     1       9.964   0.381  18.067  1.00  0.00     0.293 HD
ENDBRANCH   2  22
BRANCH   6  24
ATOM     24  O   UNL     1      15.579  -0.750  20.124  1.00  0.00    -0.507 OA
ATOM     25  H   UNL     1      16.274  -0.689  20.853  1.00  0.00     0.293 HD
ENDBRANCH   6  24
BRANCH   8  26
ATOM     26  O   UNL     1      15.624  -5.535  20.092  1.00  0.00    -0.508 OA
ATOM     27  H   UNL     1      16.581  -5.528  20.424  1.00  0.00     0.293 HD
ENDBRANCH   8  26
TORSDOF 6
ENDMDL
MODEL 5
REMARK VINA RESULT:    -5.554      2.501      6.584
REMARK INTER + INTRA:          -6.539
REMARK INTER:                  -7.096
REMARK INTRA:                   0.557
REMARK UNBOUND:                 0.152
REMARK SMILES O=c1c(O)c(-c2ccc(O)cc2O)oc2cc(O)cc(O)c12
REMARK SMILES IDX 5 1 3 2 2 3 1 4 22 5 20 6 19 7 17 8 16 9 15 10 14 11 6 12
REMARK SMILES IDX 8 13 7 14 9 15 11 16 12 17 10 18 13 20 4 22 21 24 18 26
REMARK H PARENT 10 19 13 21 4 23 21 25 18 27
REMARK Flexibility Score: inf
ROOT
ATOM      1  C   UNL     1      12.474  -3.425  19.759  1.00  0.00     0.184 A 
ATOM      2  C   UNL     1      11.385  -2.566  19.554  1.00  0.00     0.208 A 
ATOM      3  C   UNL     1      10.095  -3.112  19.461  1.00  0.00     0.238 A 
ATOM      4  O   UNL     1       9.116  -2.331  19.338  1.00  0.00    -0.285 OA
ATOM      5  C   UNL     1       9.917  -4.514  19.546  1.00  0.00     0.111 A 
ATOM      6  C   UNL     1       8.660  -5.181  19.426  1.00  0.00     0.134 A 
ATOM      7  C   UNL     1       8.587  -6.562  19.649  1.00  0.00     0.093 A 
ATOM      8  C   UNL     1       9.731  -7.309  19.923  1.00  0.00     0.123 A 
ATOM      9  C   UNL     1      10.974  -6.677  19.987  1.00  0.00     0.094 A 
ATOM     10  C   UNL     1      11.074  -5.296  19.805  1.00  0.00     0.146 A 
ATOM     11  O   UNL     1      12.273  -4.731  19.887  1.00  0.00    -0.451 OA
ENDROOT
BRANCH   1  12
ATOM     12  C   UNL     1      13.858  -2.909  19.843  1.00  0.00     0.063 A 
ATOM     13  C   UNL     1      15.383  -1.015  19.751  1.00  0.00     0.047 A 
ATOM     14  C   UNL     1      14.084  -1.525  19.731  1.00  0.00     0.020 A 
ATOM     15  C   UNL     1      16.476  -1.879  19.874  1.00  0.00     0.119 A 
ATOM     16  C   UNL     1      16.262  -3.256  19.983  1.00  0.00     0.093 A 
ATOM     17  C   UNL     1      14.964  -3.780  19.976  1.00  0.00     0.130 A 
BRANCH  15  18
ATOM     18  O   UNL     1      17.777  -1.382  19.890  1.00  0.00    -0.508 OA
ATOM     19  H   UNL     1      17.973  -0.406  19.704  1.00  0.00     0.293 HD
ENDBRANCH  15  18
BRANCH  17  20
ATOM     20  O   UNL     1      14.808  -5.160  20.124  1.00  0.00    -0.507 OA
ATOM     21  H   UNL     1      13.986  -5.581  20.538  1.00  0.00     0.293 HD
ENDBRANCH  17  20
ENDBRANCH   1  12
BRANCH   2  22
ATOM     22  O   UNL     1      11.591  -1.186  19.470  1.00  0.00    -0.502 OA
ATOM     23  H   UNL     1      12.148  -0.764  18.736  1.00  0.00     0.293 HD
ENDBRANCH   2  22
BRANCH   6  24
ATOM     24  O   UNL     1       7.469  -4.544  19.066  1.00  0.00    -0.507 OA
ATOM     25  H   UNL     1       6.923  -4.764  18.247  1.00  0.00     0.293 HD
ENDBRANCH   6  24
BRANCH   8  26
ATOM     26  O   UNL     1       9.623  -8.684  20.124  1.00  0.00    -0.508 OA
ATOM     27  H   UNL     1       9.500  -9.324  19.348  1.00  0.00     0.293 HD
ENDBRANCH   8  26
TORSDOF 6
ENDMDL
MODEL 6
REMARK VINA RESULT:    -5.506      2.000      6.991
REMARK INTER + INTRA:          -6.481
REMARK INTER:                  -6.390
REMARK INTRA:                  -0.091
REMARK UNBOUND:                 0.152
REMARK SMILES O=c1c(O)c(-c2ccc(O)cc2O)oc2cc(O)cc(O)c12
REMARK SMILES IDX 5 1 3 2 2 3 1 4 22 5 20 6 19 7 17 8 16 9 15 10 14 11 6 12
REMARK SMILES IDX 8 13 7 14 9 15 11 16 12 17 10 18 13 20 4 22 21 24 18 26
REMARK H PARENT 10 19 13 21 4 23 21 25 18 27
REMARK Flexibility Score: inf
ROOT
ATOM      1  C   UNL     1       8.622  -2.689  19.467  1.00  0.00     0.184 A 
ATOM      2  C   UNL     1       7.549  -3.580  19.616  1.00  0.00     0.208 A 
ATOM      3  C   UNL     1       7.818  -4.944  19.812  1.00  0.00     0.238 A 
ATOM      4  O   UNL     1       6.852  -5.728  20.005  1.00  0.00    -0.285 OA
ATOM      5  C   UNL     1       9.158  -5.401  19.827  1.00  0.00     0.111 A 
ATOM      6  C   UNL     1       9.547  -6.767  19.978  1.00  0.00     0.134 A 
ATOM      7  C   UNL     1      10.904  -7.088  20.101  1.00  0.00     0.093 A 
ATOM      8  C   UNL     1      11.888  -6.105  20.014  1.00  0.00     0.123 A 
ATOM      9  C   UNL     1      11.523  -4.774  19.809  1.00  0.00     0.094 A 
ATOM     10  C   UNL     1      10.176  -4.417  19.718  1.00  0.00     0.146 A 
ATOM     11  O   UNL     1       9.870  -3.137  19.537  1.00  0.00    -0.451 OA
ENDROOT
BRANCH   1  12
ATOM     12  C   UNL     1       8.399  -1.245  19.236  1.00  0.00     0.063 A 
ATOM     13  C   UNL     1       8.722   1.054  19.964  1.00  0.00     0.047 A 
ATOM     14  C   UNL     1       8.961  -0.311  20.125  1.00  0.00     0.020 A 
ATOM     15  C   UNL     1       7.911   1.507  18.918  1.00  0.00     0.119 A 
ATOM     16  C   UNL     1       7.346   0.587  18.031  1.00  0.00     0.093 A 
ATOM     17  C   UNL     1       7.587  -0.785  18.174  1.00  0.00     0.130 A 
BRANCH  15  18
ATOM     18  O   UNL     1       7.661   2.868  18.750  1.00  0.00    -0.508 OA
ATOM     19  H   UNL     1       6.809   3.295  19.091  1.00  0.00     0.293 HD
ENDBRANCH  15  18
BRANCH  17  20
ATOM     20  O   UNL     1       7.026  -1.655  17.238  1.00  0.00    -0.507 OA
ATOM     21  H   UNL     1       6.160  -2.154  17.397  1.00  0.00     0.293 HD
ENDBRANCH  17  20
ENDBRANCH   1  12
BRANCH   2  22
ATOM     22  O   UNL     1       6.236  -3.100  19.593  1.00  0.00    -0.502 OA
ATOM     23  H   UNL     1       5.592  -3.319  18.843  1.00  0.00     0.293 HD
ENDBRANCH   2  22
BRANCH   6  24
ATOM     24  O   UNL     1       8.649  -7.839  19.986  1.00  0.00    -0.507 OA
ATOM     25  H   UNL     1       8.678  -8.609  20.636  1.00  0.00     0.293 HD
ENDBRANCH   6  24
BRANCH   8  26
ATOM     26  O   UNL     1      13.231  -6.464  20.124  1.00  0.00    -0.508 OA
ATOM     27  H   UNL     1      13.547  -7.401  19.910  1.00  0.00     0.293 HD
ENDBRANCH   8  26
TORSDOF 6
ENDMDL
MODEL 7
REMARK VINA RESULT:    -5.418      3.631      7.442
REMARK INTER + INTRA:          -6.375
REMARK INTER:                  -6.269
REMARK INTRA:                  -0.106
REMARK UNBOUND:                 0.152
REMARK SMILES O=c1c(O)c(-c2ccc(O)cc2O)oc2cc(O)cc(O)c12
REMARK SMILES IDX 5 1 3 2 2 3 1 4 22 5 20 6 19 7 17 8 16 9 15 10 14 11 6 12
REMARK SMILES IDX 8 13 7 14 9 15 11 16 12 17 10 18 13 20 4 22 21 24 18 26
REMARK H PARENT 10 19 13 21 4 23 21 25 18 27
REMARK Flexibility Score: inf
ROOT
ATOM      1  C   UNL     1      13.434  -1.285  19.401  1.00  0.00     0.184 A 
ATOM      2  C   UNL     1      13.040  -2.613  19.625  1.00  0.00     0.208 A 
ATOM      3  C   UNL     1      14.026  -3.584  19.865  1.00  0.00     0.238 A 
ATOM      4  O   UNL     1      13.663  -4.761  20.125  1.00  0.00    -0.285 OA
ATOM      5  C   UNL     1      15.393  -3.217  19.848  1.00  0.00     0.111 A 
ATOM      6  C   UNL     1      16.479  -4.125  20.040  1.00  0.00     0.134 A 
ATOM      7  C   UNL     1      17.786  -3.630  20.125  1.00  0.00     0.093 A 
ATOM      8  C   UNL     1      18.054  -2.272  19.962  1.00  0.00     0.123 A 
ATOM      9  C   UNL     1      17.007  -1.382  19.717  1.00  0.00     0.094 A 
ATOM     10  C   UNL     1      15.689  -1.840  19.663  1.00  0.00     0.146 A 
ATOM     11  O   UNL     1      14.720  -0.959  19.442  1.00  0.00    -0.451 OA
ENDROOT
BRANCH   1  12
ATOM     12  C   UNL     1      12.442  -0.224  19.121  1.00  0.00     0.063 A 
ATOM     13  C   UNL     1      11.425   1.895  19.751  1.00  0.00     0.047 A 
ATOM     14  C   UNL     1      12.387   0.904  19.958  1.00  0.00     0.020 A 
ATOM     15  C   UNL     1      10.499   1.768  18.710  1.00  0.00     0.119 A 
ATOM     16  C   UNL     1      10.544   0.649  17.874  1.00  0.00     0.093 A 
ATOM     17  C   UNL     1      11.510  -0.346  18.064  1.00  0.00     0.130 A 
BRANCH  15  18
ATOM     18  O   UNL     1       9.531   2.748  18.497  1.00  0.00    -0.508 OA
ATOM     19  H   UNL     1       9.777   3.728  18.429  1.00  0.00     0.293 HD
ENDBRANCH  15  18
BRANCH  17  20
ATOM     20  O   UNL     1      11.531  -1.424  17.176  1.00  0.00    -0.507 OA
ATOM     21  H   UNL     1      12.017  -2.290  17.370  1.00  0.00     0.293 HD
ENDBRANCH  17  20
ENDBRANCH   1  12
BRANCH   2  22
ATOM     22  O   UNL     1      11.683  -2.946  19.631  1.00  0.00    -0.502 OA
ATOM     23  H   UNL     1      11.341  -3.836  19.287  1.00  0.00     0.293 HD
ENDBRANCH   2  22
BRANCH   6  24
ATOM     24  O   UNL     1      16.331  -5.513  20.123  1.00  0.00    -0.507 OA
ATOM     25  H   UNL     1      15.720  -5.988  20.770  1.00  0.00     0.293 HD
ENDBRANCH   6  24
BRANCH   8  26
ATOM     26  O   UNL     1      19.369  -1.816  20.037  1.00  0.00    -0.508 OA
ATOM     27  H   UNL     1      19.684  -1.231  20.800  1.00  0.00     0.293 HD
ENDBRANCH   8  26
TORSDOF 6
ENDMDL
MODEL 8
REMARK VINA RESULT:    -5.175      3.454      5.089
REMARK INTER + INTRA:          -6.083
REMARK INTER:                  -5.901
REMARK INTRA:                  -0.182
REMARK UNBOUND:                 0.152
REMARK SMILES O=c1c(O)c(-c2ccc(O)cc2O)oc2cc(O)cc(O)c12
REMARK SMILES IDX 5 1 3 2 2 3 1 4 22 5 20 6 19 7 17 8 16 9 15 10 14 11 6 12
REMARK SMILES IDX 8 13 7 14 9 15 11 16 12 17 10 18 13 20 4 22 21 24 18 26
REMARK H PARENT 10 19 13 21 4 23 21 25 18 27
REMARK Flexibility Score: inf
ROOT
ATOM      1  C   UNL     1      13.378  -1.365  18.833  1.00  0.00     0.184 A 
ATOM      2  C   UNL     1      12.615  -2.064  17.887  1.00  0.00     0.208 A 
ATOM      3  C   UNL     1      11.327  -1.599  17.573  1.00  0.00     0.238 A 
ATOM      4  O   UNL     1      10.671  -2.195  16.680  1.00  0.00    -0.285 OA
ATOM      5  C   UNL     1      10.811  -0.458  18.234  1.00  0.00     0.111 A 
ATOM      6  C   UNL     1       9.505   0.079  18.025  1.00  0.00     0.134 A 
ATOM      7  C   UNL     1       9.146   1.283  18.643  1.00  0.00     0.093 A 
ATOM      8  C   UNL     1      10.019   1.935  19.511  1.00  0.00     0.123 A 
ATOM      9  C   UNL     1      11.278   1.390  19.768  1.00  0.00     0.094 A 
ATOM     10  C   UNL     1      11.679   0.210  19.139  1.00  0.00     0.146 A 
ATOM     11  O   UNL     1      12.890  -0.268  19.399  1.00  0.00    -0.451 OA
ENDROOT
BRANCH   1  12
ATOM     12  C   UNL     1      14.732  -1.820  19.219  1.00  0.00     0.063 A 
ATOM     13  C   UNL     1      17.126  -1.397  19.302  1.00  0.00     0.047 A 
ATOM     14  C   UNL     1      15.832  -0.972  18.999  1.00  0.00     0.020 A 
ATOM     15  C   UNL     1      17.343  -2.677  19.822  1.00  0.00     0.119 A 
ATOM     16  C   UNL     1      16.256  -3.528  20.043  1.00  0.00     0.093 A 
ATOM     17  C   UNL     1      14.952  -3.111  19.753  1.00  0.00     0.130 A 
BRANCH  15  18
ATOM     18  O   UNL     1      18.631  -3.113  20.124  1.00  0.00    -0.508 OA
ATOM     19  H   UNL     1      19.107  -3.797  19.548  1.00  0.00     0.293 HD
ENDBRANCH  15  18
BRANCH  17  20
ATOM     20  O   UNL     1      13.902  -3.990  20.027  1.00  0.00    -0.507 OA
ATOM     21  H   UNL     1      12.928  -3.715  19.994  1.00  0.00     0.293 HD
ENDBRANCH  17  20
ENDBRANCH   1  12
BRANCH   2  22
ATOM     22  O   UNL     1      13.148  -3.190  17.254  1.00  0.00    -0.502 OA
ATOM     23  H   UNL     1      12.763  -4.118  17.381  1.00  0.00     0.293 HD
ENDBRANCH   2  22
BRANCH   6  24
ATOM     24  O   UNL     1       8.521  -0.541  17.248  1.00  0.00    -0.507 OA
ATOM     25  H   UNL     1       7.792  -0.055  16.748  1.00  0.00     0.293 HD
ENDBRANCH   6  24
BRANCH   8  26
ATOM     26  O   UNL     1       9.622   3.124  20.121  1.00  0.00    -0.508 OA
ATOM     27  H   UNL     1       9.366   3.156  21.101  1.00  0.00     0.293 HD
ENDBRANCH   8  26
TORSDOF 6
ENDMDL
