MODEL 1
REMARK VINA RESULT:    -4.819      0.000      0.000
REMARK INTER + INTRA:          -6.054
REMARK INTER:                  -5.805
REMARK INTRA:                  -0.249
REMARK UNBOUND:                -0.249
REMARK SMILES O=c1c(O)c(-c2ccc(O)c(O)c2)oc2cc(O)cc(O)c12
REMARK SMILES IDX 5 1 3 2 2 3 1 4 22 5 20 6 19 7 17 8 16 9 15 10 14 11 6 12
REMARK SMILES IDX 7 13 8 14 9 15 13 16 11 17 10 18 12 20 4 22 21 24 18 26
REMARK H PARENT 10 19 12 21 4 23 21 25 18 27
REMARK Flexibility Score: inf
ROOT
ATOM      1  C   UNL     1      20.881  -2.480  19.723  1.00  0.00     0.180 A 
ATOM      2  C   UNL     1      19.936  -2.999  20.630  1.00  0.00     0.208 A 
ATOM      3  C   UNL     1      18.800  -2.234  20.936  1.00  0.00     0.238 A 
ATOM      4  O   UNL     1      17.952  -2.683  21.755  1.00  0.00    -0.285 OA
ATOM      5  C   UNL     1      18.618  -0.979  20.320  1.00  0.00     0.111 A 
ATOM      6  C   UNL     1      17.500  -0.147  20.572  1.00  0.00     0.134 A 
ATOM      7  C   UNL     1      17.387   1.085  19.912  1.00  0.00     0.093 A 
ATOM      8  C   UNL     1      18.369   1.501  19.006  1.00  0.00     0.123 A 
ATOM      9  C   UNL     1      19.473   0.686  18.755  1.00  0.00     0.094 A 
ATOM     10  C   UNL     1      19.606  -0.545  19.404  1.00  0.00     0.146 A 
ATOM     11  O   UNL     1      20.670  -1.299  19.151  1.00  0.00    -0.452 OA
ENDROOT
BRANCH   1  12
ATOM     12  C   UNL     1      22.114  -3.219  19.364  1.00  0.00     0.025 A 
ATOM     13  C   UNL     1      23.343  -2.819  19.915  1.00  0.00     0.016 A 
ATOM     14  C   UNL     1      24.515  -3.514  19.607  1.00  0.00     0.051 A 
ATOM     15  C   UNL     1      24.474  -4.626  18.757  1.00  0.00     0.157 A 
ATOM     16  C   UNL     1      22.075  -4.348  18.528  1.00  0.00     0.062 A 
ATOM     17  C   UNL     1      23.251  -5.047  18.220  1.00  0.00     0.158 A 
BRANCH  15  18
ATOM     18  O   UNL     1      25.642  -5.321  18.445  1.00  0.00    -0.504 OA
ATOM     19  H   UNL     1      26.462  -5.270  19.037  1.00  0.00     0.293 HD
ENDBRANCH  15  18
BRANCH  17  20
ATOM     20  O   UNL     1      23.211  -6.163  17.386  1.00  0.00    -0.504 OA
ATOM     21  H   UNL     1      23.060  -6.075  16.388  1.00  0.00     0.293 HD
ENDBRANCH  17  20
ENDBRANCH   1  12
BRANCH   2  22
ATOM     22  O   UNL     1      20.115  -4.267  21.188  1.00  0.00    -0.502 OA
ATOM     23  H   UNL     1      19.342  -4.899  21.358  1.00  0.00     0.293 HD
ENDBRANCH   2  22
BRANCH   6  24
ATOM     24  O   UNL     1      16.504  -0.535  21.469  1.00  0.00    -0.507 OA
ATOM     25  H   UNL     1      16.706  -1.128  22.265  1.00  0.00     0.293 HD
ENDBRANCH   6  24
BRANCH   8  26
ATOM     26  O   UNL     1      18.257   2.725  18.350  1.00  0.00    -0.508 OA
ATOM     27  H   UNL     1      17.385   3.241  18.336  1.00  0.00     0.293 HD
ENDBRANCH   8  26
TORSDOF 6
ENDMDL
MODEL 2
REMARK VINA RESULT:    -4.711      1.692      2.859
REMARK INTER + INTRA:          -5.925
REMARK INTER:                  -5.678
REMARK INTRA:                  -0.247
REMARK UNBOUND:                -0.249
REMARK SMILES O=c1c(O)c(-c2ccc(O)c(O)c2)oc2cc(O)cc(O)c12
REMARK SMILES IDX 5 1 3 2 2 3 1 4 22 5 20 6 19 7 17 8 16 9 15 10 14 11 6 12
REMARK SMILES IDX 7 13 8 14 9 15 13 16 11 17 10 18 12 20 4 22 21 24 18 26
REMARK H PARENT 10 19 12 21 4 23 21 25 18 27
REMARK Flexibility Score: inf
ROOT
ATOM      1  C   UNL     1      20.680  -2.991  20.090  1.00  0.00     0.180 A 
ATOM      2  C   UNL     1      21.207  -1.686  20.148  1.00  0.00     0.208 A 
ATOM      3  C   UNL     1      20.323  -0.605  20.294  1.00  0.00     0.238 A 
ATOM      4  O   UNL     1      20.781   0.570  20.336  1.00  0.00    -0.285 OA
ATOM      5  C   UNL     1      18.938  -0.845  20.398  1.00  0.00     0.111 A 
ATOM      6  C   UNL     1      17.981   0.187  20.549  1.00  0.00     0.134 A 
ATOM      7  C   UNL     1      16.620  -0.135  20.655  1.00  0.00     0.093 A 
ATOM      8  C   UNL     1      16.198  -1.468  20.613  1.00  0.00     0.123 A 
ATOM      9  C   UNL     1      17.137  -2.490  20.463  1.00  0.00     0.094 A 
ATOM     10  C   UNL     1      18.498  -2.190  20.353  1.00  0.00     0.146 A 
ATOM     11  O   UNL     1      19.370  -3.181  20.206  1.00  0.00    -0.452 OA
ENDROOT
BRANCH   1  12
ATOM     12  C   UNL     1      21.545  -4.180  19.919  1.00  0.00     0.025 A 
ATOM     13  C   UNL     1      21.676  -5.097  20.975  1.00  0.00     0.016 A 
ATOM     14  C   UNL     1      22.471  -6.237  20.828  1.00  0.00     0.051 A 
ATOM     15  C   UNL     1      23.133  -6.485  19.620  1.00  0.00     0.157 A 
ATOM     16  C   UNL     1      22.196  -4.445  18.700  1.00  0.00     0.062 A 
ATOM     17  C   UNL     1      22.992  -5.590  18.552  1.00  0.00     0.158 A 
BRANCH  15  18
ATOM     18  O   UNL     1      23.928  -7.620  19.470  1.00  0.00    -0.504 OA
ATOM     19  H   UNL     1      24.717  -7.798  20.081  1.00  0.00     0.293 HD
ENDBRANCH  15  18
BRANCH  17  20
ATOM     20  O   UNL     1      23.641  -5.847  17.345  1.00  0.00    -0.504 OA
ATOM     21  H   UNL     1      23.153  -6.254  16.556  1.00  0.00     0.293 HD
ENDBRANCH  17  20
ENDBRANCH   1  12
BRANCH   2  22
ATOM     22  O   UNL     1      22.587  -1.478  20.093  1.00  0.00    -0.502 OA
ATOM     23  H   UNL     1      23.252  -2.243  20.105  1.00  0.00     0.293 HD
ENDBRANCH   2  22
BRANCH   6  24
ATOM     24  O   UNL     1      18.372   1.527  20.596  1.00  0.00    -0.507 OA
ATOM     25  H   UNL     1      18.468   2.083  19.755  1.00  0.00     0.293 HD
ENDBRANCH   6  24
BRANCH   8  26
ATOM     26  O   UNL     1      14.846  -1.789  20.719  1.00  0.00    -0.508 OA
ATOM     27  H   UNL     1      14.415  -2.473  20.108  1.00  0.00     0.293 HD
ENDBRANCH   8  26
TORSDOF 6
ENDMDL
MODEL 3
REMARK VINA RESULT:    -4.643      3.567      8.093
REMARK INTER + INTRA:          -5.842
REMARK INTER:                  -5.529
REMARK INTRA:                  -0.313
REMARK UNBOUND:                -0.249
REMARK SMILES O=c1c(O)c(-c2ccc(O)c(O)c2)oc2cc(O)cc(O)c12
REMARK SMILES IDX 5 1 3 2 2 3 1 4 22 5 20 6 19 7 17 8 16 9 15 10 14 11 6 12
REMARK SMILES IDX 7 13 8 14 9 15 13 16 11 17 10 18 12 20 4 22 21 24 18 26
REMARK H PARENT 10 19 12 21 4 23 21 25 18 27
REMARK Flexibility Score: inf
ROOT
ATOM      1  C   UNL     1      22.867  -5.995  18.966  1.00  0.00     0.180 A 
ATOM      2  C   UNL     1      23.505  -6.781  17.986  1.00  0.00     0.208 A 
ATOM      3  C   UNL     1      23.592  -8.169  18.181  1.00  0.00     0.238 A 
ATOM      4  O   UNL     1      24.170  -8.882  17.316  1.00  0.00    -0.285 OA
ATOM      5  C   UNL     1      23.028  -8.747  19.337  1.00  0.00     0.111 A 
ATOM      6  C   UNL     1      23.071 -10.136  19.608  1.00  0.00     0.134 A 
ATOM      7  C   UNL     1      22.478 -10.635  20.777  1.00  0.00     0.093 A 
ATOM      8  C   UNL     1      21.843  -9.773  21.678  1.00  0.00     0.123 A 
ATOM      9  C   UNL     1      21.799  -8.403  21.416  1.00  0.00     0.094 A 
ATOM     10  C   UNL     1      22.386  -7.885  20.258  1.00  0.00     0.146 A 
ATOM     11  O   UNL     1      22.334  -6.576  20.036  1.00  0.00    -0.452 OA
ENDROOT
BRANCH   1  12
ATOM     12  C   UNL     1      22.752  -4.524  18.840  1.00  0.00     0.025 A 
ATOM     13  C   UNL     1      21.531  -3.960  18.436  1.00  0.00     0.016 A 
ATOM     14  C   UNL     1      21.393  -2.573  18.331  1.00  0.00     0.051 A 
ATOM     15  C   UNL     1      22.468  -1.731  18.643  1.00  0.00     0.157 A 
ATOM     16  C   UNL     1      23.822  -3.674  19.172  1.00  0.00     0.062 A 
ATOM     17  C   UNL     1      23.683  -2.282  19.068  1.00  0.00     0.158 A 
BRANCH  15  18
ATOM     18  O   UNL     1      22.335  -0.348  18.538  1.00  0.00    -0.504 OA
ATOM     19  H   UNL     1      22.162   0.231  19.351  1.00  0.00     0.293 HD
ENDBRANCH  15  18
BRANCH  17  20
ATOM     20  O   UNL     1      24.747  -1.441  19.392  1.00  0.00    -0.504 OA
ATOM     21  H   UNL     1      24.631  -0.657  20.022  1.00  0.00     0.293 HD
ENDBRANCH  17  20
ENDBRANCH   1  12
BRANCH   2  22
ATOM     22  O   UNL     1      24.011  -6.190  16.825  1.00  0.00    -0.502 OA
ATOM     23  H   UNL     1      24.571  -5.346  16.847  1.00  0.00     0.293 HD
ENDBRANCH   2  22
BRANCH   6  24
ATOM     24  O   UNL     1      23.695 -11.021  18.727  1.00  0.00    -0.507 OA
ATOM     25  H   UNL     1      24.350 -10.699  18.025  1.00  0.00     0.293 HD
ENDBRANCH   6  24
BRANCH   8  26
ATOM     26  O   UNL     1      21.253 -10.269  22.839  1.00  0.00    -0.508 OA
ATOM     27  H   UNL     1      21.484 -11.187  23.200  1.00  0.00     0.293 HD
ENDBRANCH   8  26
TORSDOF 6
ENDMDL
MODEL 4
REMARK VINA RESULT:    -4.507      1.845      6.899
REMARK INTER + INTRA:          -5.678
REMARK INTER:                  -5.412
REMARK INTRA:                  -0.267
REMARK UNBOUND:                -0.249
REMARK SMILES O=c1c(O)c(-c2ccc(O)c(O)c2)oc2cc(O)cc(O)c12
REMARK SMILES IDX 5 1 3 2 2 3 1 4 22 5 20 6 19 7 17 8 16 9 15 10 14 11 6 12
REMARK SMILES IDX 7 13 8 14 9 15 13 16 11 17 10 18 12 20 4 22 21 24 18 26
REMARK H PARENT 10 19 12 21 4 23 21 25 18 27
REMARK Flexibility Score: inf
ROOT
ATOM      1  C   UNL     1      19.988  -3.261  20.774  1.00  0.00     0.180 A 
ATOM      2  C   UNL     1      20.157  -4.049  21.929  1.00  0.00     0.208 A 
ATOM      3  C   UNL     1      21.066  -5.118  21.892  1.00  0.00     0.238 A 
ATOM      4  O   UNL     1      21.218  -5.838  22.917  1.00  0.00    -0.285 OA
ATOM      5  C   UNL     1      21.801  -5.368  20.716  1.00  0.00     0.111 A 
ATOM      6  C   UNL     1      22.738  -6.423  20.597  1.00  0.00     0.134 A 
ATOM      7  C   UNL     1      23.437  -6.601  19.395  1.00  0.00     0.093 A 
ATOM      8  C   UNL     1      23.218  -5.746  18.309  1.00  0.00     0.123 A 
ATOM      9  C   UNL     1      22.294  -4.705  18.420  1.00  0.00     0.094 A 
ATOM     10  C   UNL     1      21.586  -4.512  19.610  1.00  0.00     0.146 A 
ATOM     11  O   UNL     1      20.708  -3.517  19.687  1.00  0.00    -0.452 OA
ENDROOT
BRANCH   1  12
ATOM     12  C   UNL     1      19.035  -2.128  20.728  1.00  0.00     0.025 A 
ATOM     13  C   UNL     1      19.526  -0.813  20.682  1.00  0.00     0.016 A 
ATOM     14  C   UNL     1      18.646   0.269  20.618  1.00  0.00     0.051 A 
ATOM     15  C   UNL     1      17.263   0.053  20.582  1.00  0.00     0.157 A 
ATOM     16  C   UNL     1      17.645  -2.341  20.671  1.00  0.00     0.062 A 
ATOM     17  C   UNL     1      16.761  -1.254  20.604  1.00  0.00     0.158 A 
BRANCH  15  18
ATOM     18  O   UNL     1      16.381   1.131  20.519  1.00  0.00    -0.504 OA
ATOM     19  H   UNL     1      16.713   2.088  20.532  1.00  0.00     0.293 HD
ENDBRANCH  15  18
BRANCH  17  20
ATOM     20  O   UNL     1      15.385  -1.467  20.554  1.00  0.00    -0.504 OA
ATOM     21  H   UNL     1      14.982  -2.379  20.732  1.00  0.00     0.293 HD
ENDBRANCH  17  20
ENDBRANCH   1  12
BRANCH   2  22
ATOM     22  O   UNL     1      19.453  -3.749  23.098  1.00  0.00    -0.502 OA
ATOM     23  H   UNL     1      19.691  -2.960  23.687  1.00  0.00     0.293 HD
ENDBRANCH   2  22
BRANCH   6  24
ATOM     24  O   UNL     1      22.981  -7.291  21.663  1.00  0.00    -0.507 OA
ATOM     25  H   UNL     1      23.883  -7.334  22.121  1.00  0.00     0.293 HD
ENDBRANCH   6  24
BRANCH   8  26
ATOM     26  O   UNL     1      23.912  -5.921  17.114  1.00  0.00    -0.508 OA
ATOM     27  H   UNL     1      23.450  -6.262  16.279  1.00  0.00     0.293 HD
ENDBRANCH   8  26
TORSDOF 6
ENDMDL
MODEL 5
REMARK VINA RESULT:    -4.479      3.219      7.887
REMARK INTER + INTRA:          -5.644
REMARK INTER:                  -5.325
REMARK INTRA:                  -0.319
REMARK UNBOUND:                -0.249
REMARK SMILES O=c1c(O)c(-c2ccc(O)c(O)c2)oc2cc(O)cc(O)c12
REMARK SMILES IDX 5 1 3 2 2 3 1 4 22 5 20 6 19 7 17 8 16 9 15 10 14 11 6 12
REMARK SMILES IDX 7 13 8 14 9 15 13 16 11 17 10 18 12 20 4 22 21 24 18 26
REMARK H PARENT 10 19 12 21 4 23 21 25 18 27
REMARK Flexibility Score: inf
ROOT
ATOM      1  C   UNL     1      22.807  -5.467  18.821  1.00  0.00     0.180 A 
ATOM      2  C   UNL     1      22.404  -6.207  19.950  1.00  0.00     0.208 A 
ATOM      3  C   UNL     1      22.636  -7.591  19.970  1.00  0.00     0.238 A 
ATOM      4  O   UNL     1      22.270  -8.267  20.971  1.00  0.00    -0.285 OA
ATOM      5  C   UNL     1      23.279  -8.207  18.877  1.00  0.00     0.111 A 
ATOM      6  C   UNL     1      23.552  -9.595  18.820  1.00  0.00     0.134 A 
ATOM      7  C   UNL     1      24.205 -10.130  17.701  1.00  0.00     0.093 A 
ATOM      8  C   UNL     1      24.591  -9.305  16.638  1.00  0.00     0.123 A 
ATOM      9  C   UNL     1      24.323  -7.936  16.689  1.00  0.00     0.094 A 
ATOM     10  C   UNL     1      23.671  -7.383  17.795  1.00  0.00     0.146 A 
ATOM     11  O   UNL     1      23.424  -6.078  17.815  1.00  0.00    -0.452 OA
ENDROOT
BRANCH   1  12
ATOM     12  C   UNL     1      22.581  -4.007  18.717  1.00  0.00     0.025 A 
ATOM     13  C   UNL     1      21.343  -3.531  18.255  1.00  0.00     0.016 A 
ATOM     14  C   UNL     1      21.100  -2.158  18.168  1.00  0.00     0.051 A 
ATOM     15  C   UNL     1      22.085  -1.241  18.556  1.00  0.00     0.157 A 
ATOM     16  C   UNL     1      23.560  -3.082  19.124  1.00  0.00     0.062 A 
ATOM     17  C   UNL     1      23.316  -1.704  19.039  1.00  0.00     0.158 A 
BRANCH  15  18
ATOM     18  O   UNL     1      21.848   0.130  18.469  1.00  0.00    -0.504 OA
ATOM     19  H   UNL     1      21.535   0.559  17.606  1.00  0.00     0.293 HD
ENDBRANCH  15  18
BRANCH  17  20
ATOM     20  O   UNL     1      24.289  -0.789  19.438  1.00  0.00    -0.504 OA
ATOM     21  H   UNL     1      25.191  -0.740  18.980  1.00  0.00     0.293 HD
ENDBRANCH  17  20
ENDBRANCH   1  12
BRANCH   2  22
ATOM     22  O   UNL     1      21.814  -5.565  21.041  1.00  0.00    -0.502 OA
ATOM     23  H   UNL     1      20.955  -5.034  20.959  1.00  0.00     0.293 HD
ENDBRANCH   2  22
BRANCH   6  24
ATOM     24  O   UNL     1      23.181 -10.443  19.865  1.00  0.00    -0.507 OA
ATOM     25  H   UNL     1      22.625 -11.274  19.705  1.00  0.00     0.293 HD
ENDBRANCH   6  24
BRANCH   8  26
ATOM     26  O   UNL     1      25.240  -9.836  15.526  1.00  0.00    -0.508 OA
ATOM     27  H   UNL     1      24.725 -10.286  14.777  1.00  0.00     0.293 HD
ENDBRANCH   8  26
TORSDOF 6
ENDMDL
MODEL 6
REMARK VINA RESULT:    -4.398      2.297      7.248
REMARK INTER + INTRA:          -5.547
REMARK INTER:                  -5.555
REMARK INTRA:                   0.007
REMARK UNBOUND:                -0.249
REMARK SMILES O=c1c(O)c(-c2ccc(O)c(O)c2)oc2cc(O)cc(O)c12
REMARK SMILES IDX 5 1 3 2 2 3 1 4 22 5 20 6 19 7 17 8 16 9 15 10 14 11 6 12
REMARK SMILES IDX 7 13 8 14 9 15 13 16 11 17 10 18 12 20 4 22 21 24 18 26
REMARK H PARENT 10 19 12 21 4 23 21 25 18 27
REMARK Flexibility Score: inf
ROOT
ATOM      1  C   UNL     1      20.494  -3.243  20.012  1.00  0.00     0.180 A 
ATOM      2  C   UNL     1      21.277  -3.584  18.891  1.00  0.00     0.208 A 
ATOM      3  C   UNL     1      22.090  -4.726  18.955  1.00  0.00     0.238 A 
ATOM      4  O   UNL     1      22.805  -5.035  17.963  1.00  0.00    -0.285 OA
ATOM      5  C   UNL     1      22.093  -5.516  20.123  1.00  0.00     0.111 A 
ATOM      6  C   UNL     1      22.881  -6.683  20.267  1.00  0.00     0.134 A 
ATOM      7  C   UNL     1      22.821  -7.420  21.459  1.00  0.00     0.093 A 
ATOM      8  C   UNL     1      21.989  -7.014  22.508  1.00  0.00     0.123 A 
ATOM      9  C   UNL     1      21.210  -5.863  22.371  1.00  0.00     0.094 A 
ATOM     10  C   UNL     1      21.257  -5.113  21.192  1.00  0.00     0.146 A 
ATOM     11  O   UNL     1      20.510  -4.019  21.091  1.00  0.00    -0.452 OA
ENDROOT
BRANCH   1  12
ATOM     12  C   UNL     1      19.625  -2.044  20.028  1.00  0.00     0.025 A 
ATOM     13  C   UNL     1      20.159  -0.800  19.654  1.00  0.00     0.016 A 
ATOM     14  C   UNL     1      19.354   0.341  19.641  1.00  0.00     0.051 A 
ATOM     15  C   UNL     1      18.000   0.253  19.989  1.00  0.00     0.157 A 
ATOM     16  C   UNL     1      18.261  -2.131  20.357  1.00  0.00     0.062 A 
ATOM     17  C   UNL     1      17.451  -0.986  20.343  1.00  0.00     0.158 A 
BRANCH  15  18
ATOM     18  O   UNL     1      17.193   1.390  19.980  1.00  0.00    -0.504 OA
ATOM     19  H   UNL     1      16.718   1.707  20.817  1.00  0.00     0.293 HD
ENDBRANCH  15  18
BRANCH  17  20
ATOM     20  O   UNL     1      16.100  -1.073  20.674  1.00  0.00    -0.504 OA
ATOM     21  H   UNL     1      15.750  -0.745  21.566  1.00  0.00     0.293 HD
ENDBRANCH  17  20
ENDBRANCH   1  12
BRANCH   2  22
ATOM     22  O   UNL     1      21.218  -2.813  17.728  1.00  0.00    -0.502 OA
ATOM     23  H   UNL     1      21.960  -2.814  17.038  1.00  0.00     0.293 HD
ENDBRANCH   2  22
BRANCH   6  24
ATOM     24  O   UNL     1      23.720  -7.115  19.239  1.00  0.00    -0.507 OA
ATOM     25  H   UNL     1      24.208  -8.001  19.287  1.00  0.00     0.293 HD
ENDBRANCH   6  24
BRANCH   8  26
ATOM     26  O   UNL     1      21.928  -7.746  23.692  1.00  0.00    -0.508 OA
ATOM     27  H   UNL     1      21.634  -7.320  24.563  1.00  0.00     0.293 HD
ENDBRANCH   8  26
TORSDOF 6
ENDMDL
MODEL 7
REMARK VINA RESULT:    -4.388      9.117     11.146
REMARK INTER + INTRA:          -5.535
REMARK INTER:                  -5.216
REMARK INTRA:                  -0.319
REMARK UNBOUND:                -0.249
REMARK SMILES O=c1c(O)c(-c2ccc(O)c(O)c2)oc2cc(O)cc(O)c12
REMARK SMILES IDX 5 1 3 2 2 3 1 4 22 5 20 6 19 7 17 8 16 9 15 10 14 11 6 12
REMARK SMILES IDX 7 13 8 14 9 15 13 16 11 17 10 18 12 20 4 22 21 24 18 26
REMARK H PARENT 10 19 12 21 4 23 21 25 18 27
REMARK Flexibility Score: inf
ROOT
ATOM      1  C   UNL     1      19.596 -11.287  23.720  1.00  0.00     0.180 A 
ATOM      2  C   UNL     1      20.034 -12.548  24.169  1.00  0.00     0.208 A 
ATOM      3  C   UNL     1      19.262 -13.234  25.120  1.00  0.00     0.238 A 
ATOM      4  O   UNL     1      19.649 -14.359  25.539  1.00  0.00    -0.285 OA
ATOM      5  C   UNL     1      18.063 -12.661  25.590  1.00  0.00     0.111 A 
ATOM      6  C   UNL     1      17.226 -13.287  26.545  1.00  0.00     0.134 A 
ATOM      7  C   UNL     1      16.043 -12.655  26.955  1.00  0.00     0.093 A 
ATOM      8  C   UNL     1      15.681 -11.410  26.429  1.00  0.00     0.123 A 
ATOM      9  C   UNL     1      16.502 -10.788  25.487  1.00  0.00     0.094 A 
ATOM     10  C   UNL     1      17.686 -11.400  25.067  1.00  0.00     0.146 A 
ATOM     11  O   UNL     1      18.453 -10.784  24.174  1.00  0.00    -0.452 OA
ENDROOT
BRANCH   1  12
ATOM     12  C   UNL     1      20.364 -10.495  22.733  1.00  0.00     0.025 A 
ATOM     13  C   UNL     1      20.157 -10.712  21.361  1.00  0.00     0.016 A 
ATOM     14  C   UNL     1      20.855  -9.962  20.412  1.00  0.00     0.051 A 
ATOM     15  C   UNL     1      21.759  -8.973  20.820  1.00  0.00     0.157 A 
ATOM     16  C   UNL     1      21.258  -9.486  23.137  1.00  0.00     0.062 A 
ATOM     17  C   UNL     1      21.957  -8.731  22.185  1.00  0.00     0.158 A 
BRANCH  15  18
ATOM     18  O   UNL     1      22.459  -8.223  19.876  1.00  0.00    -0.504 OA
ATOM     19  H   UNL     1      22.015  -7.473  19.361  1.00  0.00     0.293 HD
ENDBRANCH  15  18
BRANCH  17  20
ATOM     20  O   UNL     1      22.846  -7.737  22.588  1.00  0.00    -0.504 OA
ATOM     21  H   UNL     1      22.621  -6.754  22.495  1.00  0.00     0.293 HD
ENDBRANCH  17  20
ENDBRANCH   1  12
BRANCH   2  22
ATOM     22  O   UNL     1      21.200 -13.117  23.651  1.00  0.00    -0.502 OA
ATOM     23  H   UNL     1      22.115 -12.712  23.804  1.00  0.00     0.293 HD
ENDBRANCH   2  22
BRANCH   6  24
ATOM     24  O   UNL     1      17.560 -14.529  27.087  1.00  0.00    -0.507 OA
ATOM     25  H   UNL     1      16.880 -15.095  27.581  1.00  0.00     0.293 HD
ENDBRANCH   6  24
BRANCH   8  26
ATOM     26  O   UNL     1      14.505 -10.782  26.835  1.00  0.00    -0.508 OA
ATOM     27  H   UNL     1      14.523  -9.953  27.418  1.00  0.00     0.293 HD
ENDBRANCH   8  26
TORSDOF 6
ENDMDL
MODEL 8
REMARK VINA RESULT:    -4.361     13.447     14.225
REMARK INTER + INTRA:          -5.503
REMARK INTER:                  -5.243
REMARK INTRA:                  -0.260
REMARK UNBOUND:                -0.249
REMARK SMILES O=c1c(O)c(-c2ccc(O)c(O)c2)oc2cc(O)cc(O)c12
REMARK SMILES IDX 5 1 3 2 2 3 1 4 22 5 20 6 19 7 17 8 16 9 15 10 14 11 6 12
REMARK SMILES IDX 7 13 8 14 9 15 13 16 11 17 10 18 12 20 4 22 21 24 18 26
REMARK H PARENT 10 19 12 21 4 23 21 25 18 27
REMARK Flexibility Score: inf
ROOT
ATOM      1  C   UNL     1      13.611  -8.231   9.168  1.00  0.00     0.180 A 
ATOM      2  C   UNL     1      12.553  -7.673   9.911  1.00  0.00     0.208 A 
ATOM      3  C   UNL     1      12.394  -6.278   9.923  1.00  0.00     0.238 A 
ATOM      4  O   UNL     1      11.457  -5.766  10.593  1.00  0.00    -0.285 OA
ATOM      5  C   UNL     1      13.280  -5.470   9.181  1.00  0.00     0.111 A 
ATOM      6  C   UNL     1      13.188  -4.058   9.137  1.00  0.00     0.134 A 
ATOM      7  C   UNL     1      14.102  -3.325   8.367  1.00  0.00     0.093 A 
ATOM      8  C   UNL     1      15.106  -3.975   7.641  1.00  0.00     0.123 A 
ATOM      9  C   UNL     1      15.201  -5.367   7.681  1.00  0.00     0.094 A 
ATOM     10  C   UNL     1      14.301  -6.116   8.444  1.00  0.00     0.146 A 
ATOM     11  O   UNL     1      14.418  -7.439   8.469  1.00  0.00    -0.452 OA
ENDROOT
BRANCH   1  12
ATOM     12  C   UNL     1      13.855  -9.691   9.122  1.00  0.00     0.025 A 
ATOM     13  C   UNL     1      14.893 -10.243   9.891  1.00  0.00     0.016 A 
ATOM     14  C   UNL     1      15.128 -11.620   9.879  1.00  0.00     0.051 A 
ATOM     15  C   UNL     1      14.319 -12.467   9.112  1.00  0.00     0.157 A 
ATOM     16  C   UNL     1      13.033 -10.549   8.369  1.00  0.00     0.062 A 
ATOM     17  C   UNL     1      13.266 -11.931   8.358  1.00  0.00     0.158 A 
BRANCH  15  18
ATOM     18  O   UNL     1      14.551 -13.842   9.095  1.00  0.00    -0.504 OA
ATOM     19  H   UNL     1      15.345 -14.238   8.607  1.00  0.00     0.293 HD
ENDBRANCH  15  18
BRANCH  17  20
ATOM     20  O   UNL     1      12.454 -12.778   7.607  1.00  0.00    -0.504 OA
ATOM     21  H   UNL     1      12.835 -13.571   7.105  1.00  0.00     0.293 HD
ENDBRANCH  17  20
ENDBRANCH   1  12
BRANCH   2  22
ATOM     22  O   UNL     1      11.659  -8.499  10.597  1.00  0.00    -0.502 OA
ATOM     23  H   UNL     1      10.689  -8.246  10.743  1.00  0.00     0.293 HD
ENDBRANCH   2  22
BRANCH   6  24
ATOM     24  O   UNL     1      12.197  -3.380   9.849  1.00  0.00    -0.507 OA
ATOM     25  H   UNL     1      12.161  -3.400  10.861  1.00  0.00     0.293 HD
ENDBRANCH   6  24
BRANCH   8  26
ATOM     26  O   UNL     1      16.014  -3.247   6.875  1.00  0.00    -0.508 OA
ATOM     27  H   UNL     1      16.127  -3.419   5.883  1.00  0.00     0.293 HD
ENDBRANCH   8  26
TORSDOF 6
ENDMDL
MODEL 9
REMARK VINA RESULT:    -4.326      1.965      2.535
REMARK INTER + INTRA:          -5.460
REMARK INTER:                  -5.495
REMARK INTRA:                   0.035
REMARK UNBOUND:                -0.249
REMARK SMILES O=c1c(O)c(-c2ccc(O)c(O)c2)oc2cc(O)cc(O)c12
REMARK SMILES IDX 5 1 3 2 2 3 1 4 22 5 20 6 19 7 17 8 16 9 15 10 14 11 6 12
REMARK SMILES IDX 7 13 8 14 9 15 13 16 11 17 10 18 12 20 4 22 21 24 18 26
REMARK H PARENT 10 19 12 21 4 23 21 25 18 27
REMARK Flexibility Score: inf
ROOT
ATOM      1  C   UNL     1      21.078  -2.436  19.577  1.00  0.00     0.180 A 
ATOM      2  C   UNL     1      19.757  -2.179  19.991  1.00  0.00     0.208 A 
ATOM      3  C   UNL     1      19.280  -0.859  19.958  1.00  0.00     0.238 A 
ATOM      4  O   UNL     1      18.102  -0.615  20.337  1.00  0.00    -0.285 OA
ATOM      5  C   UNL     1      20.122   0.174  19.497  1.00  0.00     0.111 A 
ATOM      6  C   UNL     1      19.718   1.530  19.429  1.00  0.00     0.134 A 
ATOM      7  C   UNL     1      20.611   2.499  18.949  1.00  0.00     0.093 A 
ATOM      8  C   UNL     1      21.898   2.139  18.535  1.00  0.00     0.123 A 
ATOM      9  C   UNL     1      22.301   0.804  18.600  1.00  0.00     0.094 A 
ATOM     10  C   UNL     1      21.427  -0.177  19.078  1.00  0.00     0.146 A 
ATOM     11  O   UNL     1      21.838  -1.439  19.134  1.00  0.00    -0.452 OA
ENDROOT
BRANCH   1  12
ATOM     12  C   UNL     1      21.659  -3.798  19.601  1.00  0.00     0.025 A 
ATOM     13  C   UNL     1      21.528  -4.584  20.757  1.00  0.00     0.016 A 
ATOM     14  C   UNL     1      22.050  -5.879  20.795  1.00  0.00     0.051 A 
ATOM     15  C   UNL     1      22.696  -6.413  19.673  1.00  0.00     0.157 A 
ATOM     16  C   UNL     1      22.291  -4.346  18.470  1.00  0.00     0.062 A 
ATOM     17  C   UNL     1      22.813  -5.647  18.506  1.00  0.00     0.158 A 
BRANCH  15  18
ATOM     18  O   UNL     1      23.220  -7.705  19.707  1.00  0.00    -0.504 OA
ATOM     19  H   UNL     1      23.996  -7.945  20.311  1.00  0.00     0.293 HD
ENDBRANCH  15  18
BRANCH  17  20
ATOM     20  O   UNL     1      23.444  -6.185  17.386  1.00  0.00    -0.504 OA
ATOM     21  H   UNL     1      23.184  -7.092  17.016  1.00  0.00     0.293 HD
ENDBRANCH  17  20
ENDBRANCH   1  12
BRANCH   2  22
ATOM     22  O   UNL     1      18.928  -3.228  20.397  1.00  0.00    -0.502 OA
ATOM     23  H   UNL     1      18.796  -4.063  19.838  1.00  0.00     0.293 HD
ENDBRANCH   2  22
BRANCH   6  24
ATOM     24  O   UNL     1      18.440   1.920  19.834  1.00  0.00    -0.507 OA
ATOM     25  H   UNL     1      17.682   2.029  19.171  1.00  0.00     0.293 HD
ENDBRANCH   6  24
BRANCH   8  26
ATOM     26  O   UNL     1      22.786   3.101  18.057  1.00  0.00    -0.508 OA
ATOM     27  H   UNL     1      23.504   2.869  17.381  1.00  0.00     0.293 HD
ENDBRANCH   8  26
TORSDOF 6
ENDMDL
