MODEL 1
REMARK VINA RESULT:    -4.755      0.000      0.000
REMARK INTER + INTRA:          -5.033
REMARK INTER:                  -5.033
REMARK INTRA:                   0.000
REMARK UNBOUND:                 0.000
REMARK SMILES O=c1ccc2cc(O)c(O)cc2o1
REMARK SMILES IDX 4 1 3 2 2 3 1 4 13 5 12 6 11 7 9 8 7 9 6 10 5 11 8 12 10 14
REMARK H PARENT 8 13 10 15
REMARK Flexibility Score: inf
ROOT
ATOM      1  C   UNL     1      43.417  21.013  -4.708  1.00  0.00     0.019 A 
ATOM      2  C   UNL     1      44.143  20.235  -5.610  1.00  0.00     0.094 A 
ATOM      3  C   UNL     1      44.349  18.881  -5.324  1.00  0.00     0.336 A 
ATOM      4  O   UNL     1      45.001  18.161  -6.125  1.00  0.00    -0.246 OA
ATOM      5  O   UNL     1      43.859  18.346  -4.207  1.00  0.00    -0.423 OA
ATOM      6  C   UNL     1      43.162  19.054  -3.321  1.00  0.00     0.142 A 
ATOM      7  C   UNL     1      42.672  18.437  -2.165  1.00  0.00     0.098 A 
ATOM      8  C   UNL     1      41.938  19.174  -1.228  1.00  0.00     0.161 A 
ATOM      9  C   UNL     1      41.691  20.541  -1.447  1.00  0.00     0.158 A 
ATOM     10  C   UNL     1      42.180  21.164  -2.605  1.00  0.00     0.062 A 
ATOM     11  C   UNL     1      42.915  20.425  -3.543  1.00  0.00     0.022 A 
ENDROOT
BRANCH   9  12
ATOM     12  O   UNL     1      40.960  21.276  -0.515  1.00  0.00    -0.504 OA
ATOM     13  H   UNL     1      41.402  21.701   0.292  1.00  0.00     0.293 HD
ENDBRANCH   9  12
BRANCH   8  14
ATOM     14  O   UNL     1      41.463  18.531  -0.086  1.00  0.00    -0.504 OA
ATOM     15  H   UNL     1      42.083  18.202   0.645  1.00  0.00     0.293 HD
ENDBRANCH   8  14
TORSDOF 2
ENDMDL
MODEL 2
REMARK VINA RESULT:    -4.593      1.568      2.511
REMARK INTER + INTRA:          -4.861
REMARK INTER:                  -4.861
REMARK INTRA:                   0.000
REMARK UNBOUND:                 0.000
REMARK SMILES O=c1ccc2cc(O)c(O)cc2o1
REMARK SMILES IDX 4 1 3 2 2 3 1 4 13 5 12 6 11 7 9 8 7 9 6 10 5 11 8 12 10 14
REMARK H PARENT 8 13 10 15
REMARK Flexibility Score: inf
ROOT
ATOM      1  C   UNL     1      43.721  18.430  -4.804  1.00  0.00     0.019 A 
ATOM      2  C   UNL     1      44.206  19.514  -5.535  1.00  0.00     0.094 A 
ATOM      3  C   UNL     1      43.955  20.811  -5.071  1.00  0.00     0.336 A 
ATOM      4  O   UNL     1      44.384  21.803  -5.716  1.00  0.00    -0.246 OA
ATOM      5  O   UNL     1      43.263  21.003  -3.950  1.00  0.00    -0.423 OA
ATOM      6  C   UNL     1      42.783  19.996  -3.224  1.00  0.00     0.142 A 
ATOM      7  C   UNL     1      42.063  20.259  -2.055  1.00  0.00     0.098 A 
ATOM      8  C   UNL     1      41.554  19.207  -1.285  1.00  0.00     0.161 A 
ATOM      9  C   UNL     1      41.767  17.876  -1.688  1.00  0.00     0.158 A 
ATOM     10  C   UNL     1      42.488  17.606  -2.861  1.00  0.00     0.062 A 
ATOM     11  C   UNL     1      42.997  18.662  -3.631  1.00  0.00     0.022 A 
ENDROOT
BRANCH   9  12
ATOM     12  O   UNL     1      41.261  16.826  -0.923  1.00  0.00    -0.504 OA
ATOM     13  H   UNL     1      40.528  16.219  -1.272  1.00  0.00     0.293 HD
ENDBRANCH   9  12
BRANCH   8  14
ATOM     14  O   UNL     1      40.840  19.502  -0.124  1.00  0.00    -0.504 OA
ATOM     15  H   UNL     1      40.252  18.817   0.335  1.00  0.00     0.293 HD
ENDBRANCH   8  14
TORSDOF 2
ENDMDL
MODEL 3
REMARK VINA RESULT:    -4.310      2.059      3.090
REMARK INTER + INTRA:          -4.562
REMARK INTER:                  -4.562
REMARK INTRA:                   0.000
REMARK UNBOUND:                 0.000
REMARK SMILES O=c1ccc2cc(O)c(O)cc2o1
REMARK SMILES IDX 4 1 3 2 2 3 1 4 13 5 12 6 11 7 9 8 7 9 6 10 5 11 8 12 10 14
REMARK H PARENT 8 13 10 15
REMARK Flexibility Score: inf
ROOT
ATOM      1  C   UNL     1      41.583  20.385  -2.816  1.00  0.00     0.019 A 
ATOM      2  C   UNL     1      42.324  21.198  -3.674  1.00  0.00     0.094 A 
ATOM      3  C   UNL     1      43.382  20.635  -4.396  1.00  0.00     0.336 A 
ATOM      4  O   UNL     1      44.062  21.352  -5.176  1.00  0.00    -0.246 OA
ATOM      5  O   UNL     1      43.675  19.343  -4.264  1.00  0.00    -0.423 OA
ATOM      6  C   UNL     1      42.994  18.533  -3.456  1.00  0.00     0.142 A 
ATOM      7  C   UNL     1      43.348  17.184  -3.359  1.00  0.00     0.098 A 
ATOM      8  C   UNL     1      42.637  16.326  -2.512  1.00  0.00     0.161 A 
ATOM      9  C   UNL     1      41.560  16.820  -1.754  1.00  0.00     0.158 A 
ATOM     10  C   UNL     1      41.201  18.173  -1.848  1.00  0.00     0.062 A 
ATOM     11  C   UNL     1      41.914  19.032  -2.697  1.00  0.00     0.022 A 
ENDROOT
BRANCH   9  12
ATOM     12  O   UNL     1      40.851  15.967  -0.910  1.00  0.00    -0.504 OA
ATOM     13  H   UNL     1      41.128  15.002  -0.775  1.00  0.00     0.293 HD
ENDBRANCH   9  12
BRANCH   8  14
ATOM     14  O   UNL     1      43.014  14.985  -2.437  1.00  0.00    -0.504 OA
ATOM     15  H   UNL     1      43.523  14.612  -1.644  1.00  0.00     0.293 HD
ENDBRANCH   8  14
TORSDOF 2
ENDMDL
MODEL 4
REMARK VINA RESULT:    -4.255      7.555      9.166
REMARK INTER + INTRA:          -4.504
REMARK INTER:                  -4.504
REMARK INTRA:                   0.000
REMARK UNBOUND:                 0.000
REMARK SMILES O=c1ccc2cc(O)c(O)cc2o1
REMARK SMILES IDX 4 1 3 2 2 3 1 4 13 5 12 6 11 7 9 8 7 9 6 10 5 11 8 12 10 14
REMARK H PARENT 8 13 10 15
REMARK Flexibility Score: inf
ROOT
ATOM      1  C   UNL     1      51.621  15.776  -5.756  1.00  0.00     0.019 A 
ATOM      2  C   UNL     1      52.647  14.905  -6.124  1.00  0.00     0.094 A 
ATOM      3  C   UNL     1      52.560  13.559  -5.748  1.00  0.00     0.336 A 
ATOM      4  O   UNL     1      53.475  12.757  -6.071  1.00  0.00    -0.246 OA
ATOM      5  O   UNL     1      51.515  13.121  -5.050  1.00  0.00    -0.423 OA
ATOM      6  C   UNL     1      50.516  13.919  -4.679  1.00  0.00     0.142 A 
ATOM      7  C   UNL     1      49.443  13.402  -3.947  1.00  0.00     0.098 A 
ATOM      8  C   UNL     1      48.389  14.234  -3.553  1.00  0.00     0.161 A 
ATOM      9  C   UNL     1      48.407  15.598  -3.894  1.00  0.00     0.158 A 
ATOM     10  C   UNL     1      49.481  16.123  -4.628  1.00  0.00     0.062 A 
ATOM     11  C   UNL     1      50.536  15.288  -5.023  1.00  0.00     0.022 A 
ENDROOT
BRANCH   9  12
ATOM     12  O   UNL     1      47.358  16.429  -3.502  1.00  0.00    -0.504 OA
ATOM     13  H   UNL     1      47.485  17.427  -3.386  1.00  0.00     0.293 HD
ENDBRANCH   9  12
BRANCH   8  14
ATOM     14  O   UNL     1      47.334  13.688  -2.824  1.00  0.00    -0.504 OA
ATOM     15  H   UNL     1      47.152  12.691  -2.801  1.00  0.00     0.293 HD
ENDBRANCH   8  14
TORSDOF 2
ENDMDL
MODEL 5
REMARK VINA RESULT:    -4.166      5.711      7.616
REMARK INTER + INTRA:          -4.410
REMARK INTER:                  -4.410
REMARK INTRA:                   0.000
REMARK UNBOUND:                 0.000
REMARK SMILES O=c1ccc2cc(O)c(O)cc2o1
REMARK SMILES IDX 4 1 3 2 2 3 1 4 13 5 12 6 11 7 9 8 7 9 6 10 5 11 8 12 10 14
REMARK H PARENT 8 13 10 15
REMARK Flexibility Score: inf
ROOT
ATOM      1  C   UNL     1      46.334  16.457  -3.979  1.00  0.00     0.019 A 
ATOM      2  C   UNL     1      45.012  16.628  -3.566  1.00  0.00     0.094 A 
ATOM      3  C   UNL     1      44.419  15.646  -2.765  1.00  0.00     0.336 A 
ATOM      4  O   UNL     1      43.228  15.783  -2.382  1.00  0.00    -0.246 OA
ATOM      5  O   UNL     1      45.107  14.565  -2.405  1.00  0.00    -0.423 OA
ATOM      6  C   UNL     1      46.369  14.362  -2.778  1.00  0.00     0.142 A 
ATOM      7  C   UNL     1      47.041  13.207  -2.368  1.00  0.00     0.098 A 
ATOM      8  C   UNL     1      48.368  12.986  -2.755  1.00  0.00     0.161 A 
ATOM      9  C   UNL     1      49.031  13.930  -3.561  1.00  0.00     0.158 A 
ATOM     10  C   UNL     1      48.361  15.091  -3.975  1.00  0.00     0.062 A 
ATOM     11  C   UNL     1      47.032  15.311  -3.586  1.00  0.00     0.022 A 
ENDROOT
BRANCH   9  12
ATOM     12  O   UNL     1      50.352  13.712  -3.948  1.00  0.00    -0.504 OA
ATOM     13  H   UNL     1      51.121  13.811  -3.295  1.00  0.00     0.293 HD
ENDBRANCH   9  12
BRANCH   8  14
ATOM     14  O   UNL     1      49.011  11.824  -2.330  1.00  0.00    -0.504 OA
ATOM     15  H   UNL     1      49.797  11.846  -1.691  1.00  0.00     0.293 HD
ENDBRANCH   8  14
TORSDOF 2
ENDMDL
MODEL 6
REMARK VINA RESULT:    -4.161      6.409      9.047
REMARK INTER + INTRA:          -4.405
REMARK INTER:                  -4.405
REMARK INTRA:                   0.000
REMARK UNBOUND:                 0.000
REMARK SMILES O=c1ccc2cc(O)c(O)cc2o1
REMARK SMILES IDX 4 1 3 2 2 3 1 4 13 5 12 6 11 7 9 8 7 9 6 10 5 11 8 12 10 14
REMARK H PARENT 8 13 10 15
REMARK Flexibility Score: inf
ROOT
ATOM      1  C   UNL     1      48.251  13.135  -2.892  1.00  0.00     0.019 A 
ATOM      2  C   UNL     1      46.944  13.418  -2.496  1.00  0.00     0.094 A 
ATOM      3  C   UNL     1      46.357  14.621  -2.906  1.00  0.00     0.336 A 
ATOM      4  O   UNL     1      45.178  14.894  -2.560  1.00  0.00    -0.246 OA
ATOM      5  O   UNL     1      47.038  15.479  -3.661  1.00  0.00    -0.423 OA
ATOM      6  C   UNL     1      48.287  15.248  -4.059  1.00  0.00     0.142 A 
ATOM      7  C   UNL     1      48.952  16.188  -4.852  1.00  0.00     0.098 A 
ATOM      8  C   UNL     1      50.265  15.953  -5.276  1.00  0.00     0.161 A 
ATOM      9  C   UNL     1      50.922  14.765  -4.903  1.00  0.00     0.158 A 
ATOM     10  C   UNL     1      50.258  13.819  -4.107  1.00  0.00     0.062 A 
ATOM     11  C   UNL     1      48.943  14.056  -3.684  1.00  0.00     0.022 A 
ENDROOT
BRANCH   9  12
ATOM     12  O   UNL     1      52.230  14.529  -5.323  1.00  0.00    -0.504 OA
ATOM     13  H   UNL     1      52.431  14.106  -6.222  1.00  0.00     0.293 HD
ENDBRANCH   9  12
BRANCH   8  14
ATOM     14  O   UNL     1      50.903  16.909  -6.065  1.00  0.00    -0.504 OA
ATOM     15  H   UNL     1      50.761  17.903  -5.928  1.00  0.00     0.293 HD
ENDBRANCH   8  14
TORSDOF 2
ENDMDL
MODEL 7
REMARK VINA RESULT:    -4.027      6.815      8.998
REMARK INTER + INTRA:          -4.263
REMARK INTER:                  -4.263
REMARK INTRA:                   0.000
REMARK UNBOUND:                 0.000
REMARK SMILES O=c1ccc2cc(O)c(O)cc2o1
REMARK SMILES IDX 4 1 3 2 2 3 1 4 13 5 12 6 11 7 9 8 7 9 6 10 5 11 8 12 10 14
REMARK H PARENT 8 13 10 15
REMARK Flexibility Score: inf
ROOT
ATOM      1  C   UNL     1      49.002  11.996  -2.872  1.00  0.00     0.019 A 
ATOM      2  C   UNL     1      47.913  11.416  -2.221  1.00  0.00     0.094 A 
ATOM      3  C   UNL     1      46.735  12.158  -2.077  1.00  0.00     0.336 A 
ATOM      4  O   UNL     1      45.742  11.652  -1.492  1.00  0.00    -0.246 OA
ATOM      5  O   UNL     1      46.658  13.398  -2.555  1.00  0.00    -0.423 OA
ATOM      6  C   UNL     1      47.673  13.988  -3.182  1.00  0.00     0.142 A 
ATOM      7  C   UNL     1      47.532  15.293  -3.663  1.00  0.00     0.098 A 
ATOM      8  C   UNL     1      48.594  15.922  -4.323  1.00  0.00     0.161 A 
ATOM      9  C   UNL     1      49.810  15.239  -4.505  1.00  0.00     0.158 A 
ATOM     10  C   UNL     1      49.957  13.929  -4.024  1.00  0.00     0.062 A 
ATOM     11  C   UNL     1      48.892  13.301  -3.363  1.00  0.00     0.022 A 
ENDROOT
BRANCH   9  12
ATOM     12  O   UNL     1      50.870  15.863  -5.163  1.00  0.00    -0.504 OA
ATOM     13  H   UNL     1      51.604  16.341  -4.654  1.00  0.00     0.293 HD
ENDBRANCH   9  12
BRANCH   8  14
ATOM     14  O   UNL     1      48.423  17.224  -4.791  1.00  0.00    -0.504 OA
ATOM     15  H   UNL     1      48.614  17.481  -5.753  1.00  0.00     0.293 HD
ENDBRANCH   8  14
TORSDOF 2
ENDMDL
MODEL 8
REMARK VINA RESULT:    -3.990      1.829      4.466
REMARK INTER + INTRA:          -4.223
REMARK INTER:                  -4.223
REMARK INTRA:                   0.000
REMARK UNBOUND:                 0.000
REMARK SMILES O=c1ccc2cc(O)c(O)cc2o1
REMARK SMILES IDX 4 1 3 2 2 3 1 4 13 5 12 6 11 7 9 8 7 9 6 10 5 11 8 12 10 14
REMARK H PARENT 8 13 10 15
REMARK Flexibility Score: inf
ROOT
ATOM      1  C   UNL     1      42.989  20.239  -3.205  1.00  0.00     0.019 A 
ATOM      2  C   UNL     1      42.244  21.012  -2.314  1.00  0.00     0.094 A 
ATOM      3  C   UNL     1      41.485  20.370  -1.329  1.00  0.00     0.336 A 
ATOM      4  O   UNL     1      40.806  21.050  -0.516  1.00  0.00    -0.246 OA
ATOM      5  O   UNL     1      41.475  19.042  -1.247  1.00  0.00    -0.423 OA
ATOM      6  C   UNL     1      42.171  18.267  -2.076  1.00  0.00     0.142 A 
ATOM      7  C   UNL     1      42.122  16.877  -1.940  1.00  0.00     0.098 A 
ATOM      8  C   UNL     1      42.850  16.055  -2.808  1.00  0.00     0.161 A 
ATOM      9  C   UNL     1      43.636  16.629  -3.824  1.00  0.00     0.158 A 
ATOM     10  C   UNL     1      43.689  18.024  -3.965  1.00  0.00     0.062 A 
ATOM     11  C   UNL     1      42.959  18.845  -3.094  1.00  0.00     0.022 A 
ENDROOT
BRANCH   9  12
ATOM     12  O   UNL     1      44.362  15.812  -4.690  1.00  0.00    -0.504 OA
ATOM     13  H   UNL     1      44.876  16.194  -5.475  1.00  0.00     0.293 HD
ENDBRANCH   9  12
BRANCH   8  14
ATOM     14  O   UNL     1      42.780  14.672  -2.647  1.00  0.00    -0.504 OA
ATOM     15  H   UNL     1      42.651  14.044  -3.431  1.00  0.00     0.293 HD
ENDBRANCH   8  14
TORSDOF 2
ENDMDL
