MODEL 1
REMARK VINA RESULT:    -4.663      0.000      0.000
REMARK INTER + INTRA:          -5.072
REMARK INTER:                  -5.072
REMARK INTRA:                   0.000
REMARK UNBOUND:                 0.000
REMARK SMILES Cc1cc(O)c2c(c1)C(=O)c1cc(O)cc(O)c1C2=O
REMARK SMILES IDX 1 1 2 2 8 3 7 4 6 5 4 6 3 7 19 8 20 9 18 10 11 11 9 12 10 13
REMARK SMILES IDX 12 14 13 15 15 16 16 17 5 18 17 20 14 22
REMARK H PARENT 5 19 17 21 14 23
REMARK Flexibility Score: inf
ROOT
ATOM      1  C   UNL     1       3.374   6.500  26.708  1.00  0.00     0.044 C 
ATOM      2  C   UNL     1       2.524   5.971  25.589  1.00  0.00    -0.047 A 
ATOM      3  C   UNL     1       2.128   4.629  25.578  1.00  0.00     0.016 A 
ATOM      4  C   UNL     1       1.303   4.132  24.554  1.00  0.00     0.038 A 
ATOM      5  C   UNL     1       0.851   4.998  23.536  1.00  0.00     0.076 A 
ATOM      6  C   UNL     1       1.243   6.356  23.556  1.00  0.00     0.127 A 
ATOM      7  C   UNL     1       2.068   6.832  24.584  1.00  0.00     0.050 A 
ATOM      8  C   UNL     1      -0.052   4.464  22.481  1.00  0.00     0.201 C 
ATOM      9  O   UNL     1      -0.742   5.264  21.794  1.00  0.00    -0.288 OA
ATOM     10  C   UNL     1      -0.227   2.995  22.318  1.00  0.00     0.076 A 
ATOM     11  C   UNL     1       0.176   2.148  23.378  1.00  0.00     0.041 A 
ATOM     12  C   UNL     1       0.902   2.707  24.542  1.00  0.00     0.194 C 
ATOM     13  O   UNL     1       1.198   1.963  25.518  1.00  0.00    -0.289 OA
ATOM     14  C   UNL     1      -0.108   0.772  23.321  1.00  0.00     0.059 A 
ATOM     15  C   UNL     1      -0.768   0.228  22.222  1.00  0.00     0.120 A 
ATOM     16  C   UNL     1      -1.124   1.049  21.150  1.00  0.00     0.093 A 
ATOM     17  C   UNL     1      -0.832   2.417  21.168  1.00  0.00     0.131 A 
ENDROOT
BRANCH   6  18
ATOM     18  O   UNL     1       0.823   7.234  22.556  1.00  0.00    -0.507 OA
ATOM     19  H   UNL     1       0.812   8.237  22.698  1.00  0.00     0.293 HD
ENDBRANCH   6  18
BRANCH  17  20
ATOM     20  O   UNL     1      -1.125   3.146  20.013  1.00  0.00    -0.507 OA
ATOM     21  H   UNL     1      -1.090   2.758  19.081  1.00  0.00     0.293 HD
ENDBRANCH  17  20
BRANCH  15  22
ATOM     22  O   UNL     1      -1.053  -1.136  22.196  1.00  0.00    -0.508 OA
ATOM     23  H   UNL     1      -1.527  -1.564  21.410  1.00  0.00     0.293 HD
ENDBRANCH  15  22
TORSDOF 3
ENDMDL
MODEL 2
REMARK VINA RESULT:    -4.536      1.514      6.327
REMARK INTER + INTRA:          -4.934
REMARK INTER:                  -4.934
REMARK INTRA:                   0.000
REMARK UNBOUND:                 0.000
REMARK SMILES Cc1cc(O)c2c(c1)C(=O)c1cc(O)cc(O)c1C2=O
REMARK SMILES IDX 1 1 2 2 8 3 7 4 6 5 4 6 3 7 19 8 20 9 18 10 11 11 9 12 10 13
REMARK SMILES IDX 12 14 13 15 15 16 16 17 5 18 17 20 14 22
REMARK H PARENT 5 19 17 21 14 23
REMARK Flexibility Score: inf
ROOT
ATOM      1  C   UNL     1      -1.125   0.729  19.987  1.00  0.00     0.044 C 
ATOM      2  C   UNL     1      -0.741   1.444  21.249  1.00  0.00    -0.047 A 
ATOM      3  C   UNL     1      -0.624   2.838  21.263  1.00  0.00     0.016 A 
ATOM      4  C   UNL     1      -0.299   3.520  22.448  1.00  0.00     0.038 A 
ATOM      5  C   UNL     1      -0.107   2.796  23.644  1.00  0.00     0.076 A 
ATOM      6  C   UNL     1      -0.239   1.388  23.630  1.00  0.00     0.127 A 
ATOM      7  C   UNL     1      -0.561   0.726  22.437  1.00  0.00     0.050 A 
ATOM      8  C   UNL     1       0.198   3.536  24.897  1.00  0.00     0.201 C 
ATOM      9  O   UNL     1       0.017   2.972  26.009  1.00  0.00    -0.288 OA
ATOM     10  C   UNL     1       0.602   4.968  24.841  1.00  0.00     0.076 A 
ATOM     11  C   UNL     1       0.344   5.693  23.654  1.00  0.00     0.041 A 
ATOM     12  C   UNL     1      -0.161   4.994  22.449  1.00  0.00     0.194 C 
ATOM     13  O   UNL     1      -0.457   5.653  21.414  1.00  0.00    -0.289 OA
ATOM     14  C   UNL     1       0.576   7.079  23.616  1.00  0.00     0.059 A 
ATOM     15  C   UNL     1       1.074   7.747  24.733  1.00  0.00     0.120 A 
ATOM     16  C   UNL     1       1.378   7.029  25.892  1.00  0.00     0.093 A 
ATOM     17  C   UNL     1       1.181   5.646  25.949  1.00  0.00     0.131 A 
ENDROOT
BRANCH   6  18
ATOM     18  O   UNL     1      -0.043   0.643  24.793  1.00  0.00    -0.507 OA
ATOM     19  H   UNL     1       0.786   0.077  24.930  1.00  0.00     0.293 HD
ENDBRANCH   6  18
BRANCH  17  20
ATOM     20  O   UNL     1       1.609   4.989  27.105  1.00  0.00    -0.507 OA
ATOM     21  H   UNL     1       2.544   4.626  27.230  1.00  0.00     0.293 HD
ENDBRANCH  17  20
BRANCH  15  22
ATOM     22  O   UNL     1       1.280   9.124  24.676  1.00  0.00    -0.508 OA
ATOM     23  H   UNL     1       2.207   9.517  24.559  1.00  0.00     0.293 HD
ENDBRANCH  15  22
TORSDOF 3
ENDMDL
MODEL 3
REMARK VINA RESULT:    -4.097      1.140      1.284
REMARK INTER + INTRA:          -4.456
REMARK INTER:                  -4.456
REMARK INTRA:                   0.000
REMARK UNBOUND:                 0.000
REMARK SMILES Cc1cc(O)c2c(c1)C(=O)c1cc(O)cc(O)c1C2=O
REMARK SMILES IDX 1 1 2 2 8 3 7 4 6 5 4 6 3 7 19 8 20 9 18 10 11 11 9 12 10 13
REMARK SMILES IDX 12 14 13 15 15 16 16 17 5 18 17 20 14 22
REMARK H PARENT 5 19 17 21 14 23
REMARK Flexibility Score: inf
ROOT
ATOM      1  C   UNL     1       1.508   6.576  26.271  1.00  0.00     0.044 C 
ATOM      2  C   UNL     1       1.011   5.901  25.026  1.00  0.00    -0.047 A 
ATOM      3  C   UNL     1       0.737   4.529  25.031  1.00  0.00     0.016 A 
ATOM      4  C   UNL     1       0.239   3.893  23.881  1.00  0.00     0.038 A 
ATOM      5  C   UNL     1      -0.007   4.646  22.713  1.00  0.00     0.076 A 
ATOM      6  C   UNL     1       0.259   6.034  22.716  1.00  0.00     0.127 A 
ATOM      7  C   UNL     1       0.758   6.651  23.872  1.00  0.00     0.050 A 
ATOM      8  C   UNL     1      -0.571   3.965  21.518  1.00  0.00     0.201 C 
ATOM      9  O   UNL     1      -1.125   4.650  20.617  1.00  0.00    -0.288 OA
ATOM     10  C   UNL     1      -0.584   2.478  21.440  1.00  0.00     0.076 A 
ATOM     11  C   UNL     1      -0.397   1.741  22.633  1.00  0.00     0.041 A 
ATOM     12  C   UNL     1      -0.034   2.437  23.889  1.00  0.00     0.194 C 
ATOM     13  O   UNL     1       0.063   1.787  24.967  1.00  0.00    -0.289 OA
ATOM     14  C   UNL     1      -0.549   0.343  22.624  1.00  0.00     0.059 A 
ATOM     15  C   UNL     1      -0.866  -0.329  21.445  1.00  0.00     0.120 A 
ATOM     16  C   UNL     1      -1.003   0.387  20.254  1.00  0.00     0.093 A 
ATOM     17  C   UNL     1      -0.832   1.774  20.229  1.00  0.00     0.131 A 
ENDROOT
BRANCH   6  18
ATOM     18  O   UNL     1       0.038   6.805  21.573  1.00  0.00    -0.507 OA
ATOM     19  H   UNL     1       0.498   6.598  20.694  1.00  0.00     0.293 HD
ENDBRANCH   6  18
BRANCH  17  20
ATOM     20  O   UNL     1      -0.880   2.399  18.981  1.00  0.00    -0.507 OA
ATOM     21  H   UNL     1      -1.113   1.921  18.122  1.00  0.00     0.293 HD
ENDBRANCH  17  20
BRANCH  15  22
ATOM     22  O   UNL     1      -1.028  -1.713  21.465  1.00  0.00    -0.508 OA
ATOM     23  H   UNL     1      -0.622  -2.284  22.197  1.00  0.00     0.293 HD
ENDBRANCH  15  22
TORSDOF 3
ENDMDL
MODEL 4
REMARK VINA RESULT:    -3.857      2.180      4.271
REMARK INTER + INTRA:          -4.195
REMARK INTER:                  -4.195
REMARK INTRA:                   0.000
REMARK UNBOUND:                 0.000
REMARK SMILES Cc1cc(O)c2c(c1)C(=O)c1cc(O)cc(O)c1C2=O
REMARK SMILES IDX 1 1 2 2 8 3 7 4 6 5 4 6 3 7 19 8 20 9 18 10 11 11 9 12 10 13
REMARK SMILES IDX 12 14 13 15 15 16 16 17 5 18 17 20 14 22
REMARK H PARENT 5 19 17 21 14 23
REMARK Flexibility Score: inf
ROOT
ATOM      1  C   UNL     1      -0.786   7.434  19.007  1.00  0.00     0.044 C 
ATOM      2  C   UNL     1      -0.473   6.876  20.365  1.00  0.00    -0.047 A 
ATOM      3  C   UNL     1      -0.730   5.531  20.650  1.00  0.00     0.016 A 
ATOM      4  C   UNL     1      -0.409   4.989  21.907  1.00  0.00     0.038 A 
ATOM      5  C   UNL     1       0.198   5.803  22.887  1.00  0.00     0.076 A 
ATOM      6  C   UNL     1       0.469   7.158  22.591  1.00  0.00     0.127 A 
ATOM      7  C   UNL     1       0.139   7.681  21.332  1.00  0.00     0.050 A 
ATOM      8  C   UNL     1       0.567   5.204  24.197  1.00  0.00     0.201 C 
ATOM      9  O   UNL     1       1.412   5.787  24.929  1.00  0.00    -0.288 OA
ATOM     10  C   UNL     1       0.032   3.871  24.589  1.00  0.00     0.076 A 
ATOM     11  C   UNL     1      -0.518   3.045  23.580  1.00  0.00     0.041 A 
ATOM     12  C   UNL     1      -0.701   3.568  22.206  1.00  0.00     0.194 C 
ATOM     13  O   UNL     1      -1.125   2.809  21.292  1.00  0.00    -0.289 OA
ATOM     14  C   UNL     1      -0.897   1.726  23.885  1.00  0.00     0.059 A 
ATOM     15  C   UNL     1      -0.754   1.227  25.178  1.00  0.00     0.120 A 
ATOM     16  C   UNL     1      -0.259   2.053  26.190  1.00  0.00     0.093 A 
ATOM     17  C   UNL     1       0.102   3.376  25.920  1.00  0.00     0.131 A 
ENDROOT
BRANCH   6  18
ATOM     18  O   UNL     1       1.058   7.992  23.543  1.00  0.00    -0.507 OA
ATOM     19  H   UNL     1       1.357   8.933  23.315  1.00  0.00     0.293 HD
ENDBRANCH   6  18
BRANCH  17  20
ATOM     20  O   UNL     1       0.486   4.166  27.007  1.00  0.00    -0.507 OA
ATOM     21  H   UNL     1       0.379   5.170  27.037  1.00  0.00     0.293 HD
ENDBRANCH  17  20
BRANCH  15  22
ATOM     22  O   UNL     1      -1.122  -0.089  25.452  1.00  0.00    -0.508 OA
ATOM     23  H   UNL     1      -2.036  -0.317  25.826  1.00  0.00     0.293 HD
ENDBRANCH  15  22
TORSDOF 3
ENDMDL
MODEL 5
REMARK VINA RESULT:    -3.804      1.878      6.316
REMARK INTER + INTRA:          -4.137
REMARK INTER:                  -4.137
REMARK INTRA:                   0.000
REMARK UNBOUND:                 0.000
REMARK SMILES Cc1cc(O)c2c(c1)C(=O)c1cc(O)cc(O)c1C2=O
REMARK SMILES IDX 1 1 2 2 8 3 7 4 6 5 4 6 3 7 19 8 20 9 18 10 11 11 9 12 10 13
REMARK SMILES IDX 12 14 13 15 15 16 16 17 5 18 17 20 14 22
REMARK H PARENT 5 19 17 21 14 23
REMARK Flexibility Score: inf
ROOT
ATOM      1  C   UNL     1      -1.125   1.443  17.443  1.00  0.00     0.044 C 
ATOM      2  C   UNL     1      -0.932   1.444  18.932  1.00  0.00    -0.047 A 
ATOM      3  C   UNL     1      -0.970   2.646  19.646  1.00  0.00     0.016 A 
ATOM      4  C   UNL     1      -0.825   2.656  21.044  1.00  0.00     0.038 A 
ATOM      5  C   UNL     1      -0.660   1.440  21.740  1.00  0.00     0.076 A 
ATOM      6  C   UNL     1      -0.635   0.225  21.017  1.00  0.00     0.127 A 
ATOM      7  C   UNL     1      -0.778   0.237  19.623  1.00  0.00     0.050 A 
ATOM      8  C   UNL     1      -0.547   1.464  23.223  1.00  0.00     0.201 C 
ATOM      9  O   UNL     1      -0.761   0.409  23.878  1.00  0.00    -0.288 OA
ATOM     10  C   UNL     1      -0.299   2.748  23.934  1.00  0.00     0.076 A 
ATOM     11  C   UNL     1      -0.530   3.958  23.237  1.00  0.00     0.041 A 
ATOM     12  C   UNL     1      -0.850   3.935  21.791  1.00  0.00     0.194 C 
ATOM     13  O   UNL     1      -1.125   5.008  21.187  1.00  0.00    -0.289 OA
ATOM     14  C   UNL     1      -0.449   5.185  23.918  1.00  0.00     0.059 A 
ATOM     15  C   UNL     1      -0.125   5.225  25.273  1.00  0.00     0.120 A 
ATOM     16  C   UNL     1       0.153   4.039  25.955  1.00  0.00     0.093 A 
ATOM     17  C   UNL     1       0.104   2.807  25.296  1.00  0.00     0.131 A 
ENDROOT
BRANCH   6  18
ATOM     18  O   UNL     1      -0.461  -0.993  21.675  1.00  0.00    -0.507 OA
ATOM     19  H   UNL     1      -1.214  -1.665  21.761  1.00  0.00     0.293 HD
ENDBRANCH   6  18
BRANCH  17  20
ATOM     20  O   UNL     1       0.500   1.680  26.023  1.00  0.00    -0.507 OA
ATOM     21  H   UNL     1       1.318   1.654  26.614  1.00  0.00     0.293 HD
ENDBRANCH  17  20
BRANCH  15  22
ATOM     22  O   UNL     1      -0.067   6.453  25.930  1.00  0.00    -0.508 OA
ATOM     23  H   UNL     1      -0.463   7.292  25.523  1.00  0.00     0.293 HD
ENDBRANCH  15  22
TORSDOF 3
ENDMDL
MODEL 6
REMARK VINA RESULT:    -3.706      1.366      5.524
REMARK INTER + INTRA:          -4.031
REMARK INTER:                  -4.031
REMARK INTRA:                   0.000
REMARK UNBOUND:                 0.000
REMARK SMILES Cc1cc(O)c2c(c1)C(=O)c1cc(O)cc(O)c1C2=O
REMARK SMILES IDX 1 1 2 2 8 3 7 4 6 5 4 6 3 7 19 8 20 9 18 10 11 11 9 12 10 13
REMARK SMILES IDX 12 14 13 15 15 16 16 17 5 18 17 20 14 22
REMARK H PARENT 5 19 17 21 14 23
REMARK Flexibility Score: inf
ROOT
ATOM      1  C   UNL     1      -1.125  -0.760  22.982  1.00  0.00     0.044 C 
ATOM      2  C   UNL     1      -0.770   0.695  22.897  1.00  0.00    -0.047 A 
ATOM      3  C   UNL     1      -0.040   1.304  23.924  1.00  0.00     0.016 A 
ATOM      4  C   UNL     1       0.327   2.658  23.839  1.00  0.00     0.038 A 
ATOM      5  C   UNL     1      -0.024   3.410  22.698  1.00  0.00     0.076 A 
ATOM      6  C   UNL     1      -0.751   2.789  21.657  1.00  0.00     0.127 A 
ATOM      7  C   UNL     1      -1.110   1.438  21.760  1.00  0.00     0.050 A 
ATOM      8  C   UNL     1       0.406   4.830  22.607  1.00  0.00     0.201 C 
ATOM      9  O   UNL     1       0.425   5.401  21.484  1.00  0.00    -0.288 OA
ATOM     10  C   UNL     1       0.919   5.536  23.813  1.00  0.00     0.076 A 
ATOM     11  C   UNL     1       1.325   4.760  24.925  1.00  0.00     0.041 A 
ATOM     12  C   UNL     1       1.085   3.298  24.939  1.00  0.00     0.194 C 
ATOM     13  O   UNL     1       1.510   2.597  25.899  1.00  0.00    -0.289 OA
ATOM     14  C   UNL     1       1.950   5.379  26.021  1.00  0.00     0.059 A 
ATOM     15  C   UNL     1       2.159   6.757  26.033  1.00  0.00     0.120 A 
ATOM     16  C   UNL     1       1.717   7.536  24.962  1.00  0.00     0.093 A 
ATOM     17  C   UNL     1       1.070   6.949  23.870  1.00  0.00     0.131 A 
ENDROOT
BRANCH   6  18
ATOM     18  O   UNL     1      -1.124   3.509  20.521  1.00  0.00    -0.507 OA
ATOM     19  H   UNL     1      -1.840   4.225  20.555  1.00  0.00     0.293 HD
ENDBRANCH   6  18
BRANCH  17  20
ATOM     20  O   UNL     1       0.564   7.809  22.893  1.00  0.00    -0.507 OA
ATOM     21  H   UNL     1      -0.353   7.711  22.479  1.00  0.00     0.293 HD
ENDBRANCH  17  20
BRANCH  15  22
ATOM     22  O   UNL     1       2.796   7.346  27.124  1.00  0.00    -0.508 OA
ATOM     23  H   UNL     1       3.268   8.239  27.044  1.00  0.00     0.293 HD
ENDBRANCH  15  22
TORSDOF 3
ENDMDL
MODEL 7
REMARK VINA RESULT:    -3.440      1.675      3.424
REMARK INTER + INTRA:          -3.742
REMARK INTER:                  -3.742
REMARK INTRA:                   0.000
REMARK UNBOUND:                 0.000
REMARK SMILES Cc1cc(O)c2c(c1)C(=O)c1cc(O)cc(O)c1C2=O
REMARK SMILES IDX 1 1 2 2 8 3 7 4 6 5 4 6 3 7 19 8 20 9 18 10 11 11 9 12 10 13
REMARK SMILES IDX 12 14 13 15 15 16 16 17 5 18 17 20 14 22
REMARK H PARENT 5 19 17 21 14 23
REMARK Flexibility Score: inf
ROOT
ATOM      1  C   UNL     1      -0.163   8.851  25.388  1.00  0.00     0.044 C 
ATOM      2  C   UNL     1      -0.142   7.367  25.163  1.00  0.00    -0.047 A 
ATOM      3  C   UNL     1      -0.275   6.848  23.871  1.00  0.00     0.016 A 
ATOM      4  C   UNL     1      -0.222   5.462  23.645  1.00  0.00     0.038 A 
ATOM      5  C   UNL     1      -0.011   4.582  24.728  1.00  0.00     0.076 A 
ATOM      6  C   UNL     1       0.136   5.111  26.030  1.00  0.00     0.127 A 
ATOM      7  C   UNL     1       0.078   6.496  26.236  1.00  0.00     0.050 A 
ATOM      8  C   UNL     1       0.081   3.121  24.466  1.00  0.00     0.201 C 
ATOM      9  O   UNL     1       0.615   2.371  25.325  1.00  0.00    -0.288 OA
ATOM     10  C   UNL     1      -0.348   2.567  23.152  1.00  0.00     0.076 A 
ATOM     11  C   UNL     1      -0.493   3.458  22.062  1.00  0.00     0.041 A 
ATOM     12  C   UNL     1      -0.382   4.920  22.276  1.00  0.00     0.194 C 
ATOM     13  O   UNL     1      -0.442   5.708  21.292  1.00  0.00    -0.289 OA
ATOM     14  C   UNL     1      -0.752   2.954  20.776  1.00  0.00     0.059 A 
ATOM     15  C   UNL     1      -0.885   1.584  20.563  1.00  0.00     0.120 A 
ATOM     16  C   UNL     1      -0.791   0.702  21.642  1.00  0.00     0.093 A 
ATOM     17  C   UNL     1      -0.560   1.178  22.937  1.00  0.00     0.131 A 
ENDROOT
BRANCH   6  18
ATOM     18  O   UNL     1       0.333   4.266  27.124  1.00  0.00    -0.507 OA
ATOM     19  H   UNL     1       1.145   3.663  27.192  1.00  0.00     0.293 HD
ENDBRANCH   6  18
BRANCH  17  20
ATOM     20  O   UNL     1      -0.587   0.242  23.973  1.00  0.00    -0.507 OA
ATOM     21  H   UNL     1      -1.438  -0.137  24.364  1.00  0.00     0.293 HD
ENDBRANCH  17  20
BRANCH  15  22
ATOM     22  O   UNL     1      -1.125   1.107  19.276  1.00  0.00    -0.508 OA
ATOM     23  H   UNL     1      -1.123   0.115  19.069  1.00  0.00     0.293 HD
ENDBRANCH  15  22
TORSDOF 3
ENDMDL
MODEL 8
REMARK VINA RESULT:    -3.308      2.290      6.024
REMARK INTER + INTRA:          -3.598
REMARK INTER:                  -3.598
REMARK INTRA:                   0.000
REMARK UNBOUND:                 0.000
REMARK SMILES Cc1cc(O)c2c(c1)C(=O)c1cc(O)cc(O)c1C2=O
REMARK SMILES IDX 1 1 2 2 8 3 7 4 6 5 4 6 3 7 19 8 20 9 18 10 11 11 9 12 10 13
REMARK SMILES IDX 12 14 13 15 15 16 16 17 5 18 17 20 14 22
REMARK H PARENT 5 19 17 21 14 23
REMARK Flexibility Score: inf
ROOT
ATOM      1  C   UNL     1      -1.120  -2.179  22.095  1.00  0.00     0.044 C 
ATOM      2  C   UNL     1      -1.001  -0.791  22.651  1.00  0.00    -0.047 A 
ATOM      3  C   UNL     1      -1.013   0.315  21.794  1.00  0.00     0.016 A 
ATOM      4  C   UNL     1      -0.937   1.622  22.307  1.00  0.00     0.038 A 
ATOM      5  C   UNL     1      -0.868   1.825  23.702  1.00  0.00     0.076 A 
ATOM      6  C   UNL     1      -0.868   0.706  24.565  1.00  0.00     0.127 A 
ATOM      7  C   UNL     1      -0.942  -0.590  24.035  1.00  0.00     0.050 A 
ATOM      8  C   UNL     1      -0.827   3.214  24.229  1.00  0.00     0.201 C 
ATOM      9  O   UNL     1      -1.125   3.428  25.435  1.00  0.00    -0.288 OA
ATOM     10  C   UNL     1      -0.550   4.356  23.314  1.00  0.00     0.076 A 
ATOM     11  C   UNL     1      -0.686   4.147  21.921  1.00  0.00     0.041 A 
ATOM     12  C   UNL     1      -0.934   2.786  21.392  1.00  0.00     0.194 C 
ATOM     13  O   UNL     1      -1.125   2.614  20.156  1.00  0.00    -0.289 OA
ATOM     14  C   UNL     1      -0.576   5.235  21.037  1.00  0.00     0.059 A 
ATOM     15  C   UNL     1      -0.318   6.517  21.517  1.00  0.00     0.120 A 
ATOM     16  C   UNL     1      -0.134   6.722  22.886  1.00  0.00     0.093 A 
ATOM     17  C   UNL     1      -0.212   5.654  23.785  1.00  0.00     0.131 A 
ENDROOT
BRANCH   6  18
ATOM     18  O   UNL     1      -0.788   0.873  25.949  1.00  0.00    -0.507 OA
ATOM     19  H   UNL     1      -1.603   0.786  26.544  1.00  0.00     0.293 HD
ENDBRANCH   6  18
BRANCH  17  20
ATOM     20  O   UNL     1       0.091   5.924  25.122  1.00  0.00    -0.507 OA
ATOM     21  H   UNL     1       0.006   5.245  25.865  1.00  0.00     0.293 HD
ENDBRANCH  17  20
BRANCH  15  22
ATOM     22  O   UNL     1      -0.231   7.582  20.622  1.00  0.00    -0.508 OA
ATOM     23  H   UNL     1      -0.282   8.544  20.936  1.00  0.00     0.293 HD
ENDBRANCH  15  22
TORSDOF 3
ENDMDL
MODEL 9
REMARK VINA RESULT:    -2.839      7.361     10.360
REMARK INTER + INTRA:          -3.088
REMARK INTER:                  -3.088
REMARK INTRA:                   0.000
REMARK UNBOUND:                 0.000
REMARK SMILES Cc1cc(O)c2c(c1)C(=O)c1cc(O)cc(O)c1C2=O
REMARK SMILES IDX 1 1 2 2 8 3 7 4 6 5 4 6 3 7 19 8 20 9 18 10 11 11 9 12 10 13
REMARK SMILES IDX 12 14 13 15 15 16 16 17 5 18 17 20 14 22
REMARK H PARENT 5 19 17 21 14 23
REMARK Flexibility Score: inf
ROOT
ATOM      1  C   UNL     1      -1.109   0.753  12.102  1.00  0.00     0.044 C 
ATOM      2  C   UNL     1      -1.022   2.184  12.545  1.00  0.00    -0.047 A 
ATOM      3  C   UNL     1      -0.949   2.497  13.907  1.00  0.00     0.016 A 
ATOM      4  C   UNL     1      -0.832   3.832  14.332  1.00  0.00     0.038 A 
ATOM      5  C   UNL     1      -0.765   4.868  13.377  1.00  0.00     0.076 A 
ATOM      6  C   UNL     1      -0.825   4.548  12.002  1.00  0.00     0.127 A 
ATOM      7  C   UNL     1      -0.945   3.211  11.597  1.00  0.00     0.050 A 
ATOM      8  C   UNL     1      -0.602   6.271  13.842  1.00  0.00     0.201 C 
ATOM      9  O   UNL     1      -0.185   7.146  13.037  1.00  0.00    -0.288 OA
ATOM     10  C   UNL     1      -0.818   6.615  15.275  1.00  0.00     0.076 A 
ATOM     11  C   UNL     1      -0.819   5.566  16.225  1.00  0.00     0.041 A 
ATOM     12  C   UNL     1      -0.773   4.155  15.776  1.00  0.00     0.194 C 
ATOM     13  O   UNL     1      -0.704   3.224  16.625  1.00  0.00    -0.289 OA
ATOM     14  C   UNL     1      -0.872   5.864  17.598  1.00  0.00     0.059 A 
ATOM     15  C   UNL     1      -0.940   7.185  18.035  1.00  0.00     0.120 A 
ATOM     16  C   UNL     1      -0.989   8.224  17.102  1.00  0.00     0.093 A 
ATOM     17  C   UNL     1      -0.964   7.954  15.730  1.00  0.00     0.131 A 
ENDROOT
BRANCH   6  18
ATOM     18  O   UNL     1      -0.774   5.552  11.033  1.00  0.00    -0.507 OA
ATOM     19  H   UNL     1      -0.480   6.495  11.258  1.00  0.00     0.293 HD
ENDBRANCH   6  18
BRANCH  17  20
ATOM     20  O   UNL     1      -1.125   9.039  14.865  1.00  0.00    -0.507 OA
ATOM     21  H   UNL     1      -1.913   9.148  14.243  1.00  0.00     0.293 HD
ENDBRANCH  17  20
BRANCH  15  22
ATOM     22  O   UNL     1      -0.976   7.457  19.401  1.00  0.00    -0.508 OA
ATOM     23  H   UNL     1      -1.718   7.104  19.993  1.00  0.00     0.293 HD
ENDBRANCH  15  22
TORSDOF 3
ENDMDL
