MODEL 1
REMARK VINA RESULT:    -3.155      0.000      0.000
REMARK INTER + INTRA:          -4.883
REMARK INTER:                  -4.262
REMARK INTRA:                  -0.621
REMARK UNBOUND:                -0.621
REMARK SMILES CCCCCCCC(=O)[O-]
REMARK SMILES IDX 5 1 6 2 7 3 8 4 9 5 10 6 4 7 3 8 2 9 1 10
REMARK H PARENT
REMARK Flexibility Score: inf
ROOT
ATOM      1  C   UNL     1      37.107 -48.180   3.742  1.00  0.00     0.000 C 
ENDROOT
BRANCH   1   2
ATOM      2  C   UNL     1      37.680 -49.229   4.714  1.00  0.00     0.006 C 
BRANCH   2   3
ATOM      3  C   UNL     1      36.630 -50.185   5.303  1.00  0.00     0.053 C 
BRANCH   3   4
ATOM      4  C   UNL     1      36.682 -51.539   4.666  1.00  0.00     0.041 C 
ATOM      5  O   UNL     1      36.200 -52.538   5.262  1.00  0.00    -0.550 OA
ATOM      6  O   UNL     1      37.231 -51.692   3.399  1.00  0.00    -0.550 OA
ENDBRANCH   3   4
ENDBRANCH   2   3
ENDBRANCH   1   2
BRANCH   1   7
ATOM      7  C   UNL     1      35.617 -47.895   3.984  1.00  0.00     0.000 C 
BRANCH   7   8
ATOM      8  C   UNL     1      34.826 -47.961   2.669  1.00  0.00    -0.000 C 
BRANCH   8   9
ATOM      9  C   UNL     1      35.086 -49.258   1.887  1.00  0.00    -0.003 C 
ATOM     10  C   UNL     1      34.089 -50.364   2.230  1.00  0.00     0.004 C 
ENDBRANCH   8   9
ENDBRANCH   7   8
ENDBRANCH   1   7
TORSDOF 6
ENDMDL
MODEL 2
REMARK VINA RESULT:    -3.082      2.506      4.117
REMARK INTER + INTRA:          -4.784
REMARK INTER:                  -4.452
REMARK INTRA:                  -0.332
REMARK UNBOUND:                -0.621
REMARK SMILES CCCCCCCC(=O)[O-]
REMARK SMILES IDX 5 1 6 2 7 3 8 4 9 5 10 6 4 7 3 8 2 9 1 10
REMARK H PARENT
REMARK Flexibility Score: inf
ROOT
ATOM      1  C   UNL     1      35.789 -48.103   3.993  1.00  0.00     0.000 C 
ENDROOT
BRANCH   1   2
ATOM      2  C   UNL     1      35.218 -48.444   2.604  1.00  0.00     0.006 C 
BRANCH   2   3
ATOM      3  C   UNL     1      34.471 -49.786   2.540  1.00  0.00     0.053 C 
BRANCH   3   4
ATOM      4  C   UNL     1      33.669 -49.924   1.284  1.00  0.00     0.041 C 
ATOM      5  O   UNL     1      34.123 -49.492   0.192  1.00  0.00    -0.550 OA
ATOM      6  O   UNL     1      32.435 -50.561   1.313  1.00  0.00    -0.550 OA
ENDBRANCH   3   4
ENDBRANCH   2   3
ENDBRANCH   1   2
BRANCH   1   7
ATOM      7  C   UNL     1      37.014 -48.954   4.360  1.00  0.00     0.000 C 
BRANCH   7   8
ATOM      8  C   UNL     1      36.652 -50.008   5.417  1.00  0.00    -0.000 C 
BRANCH   8   9
ATOM      9  C   UNL     1      37.242 -51.391   5.100  1.00  0.00    -0.003 C 
ATOM     10  C   UNL     1      36.168 -52.438   4.805  1.00  0.00     0.004 C 
ENDBRANCH   8   9
ENDBRANCH   7   8
ENDBRANCH   1   7
TORSDOF 6
ENDMDL
MODEL 3
REMARK VINA RESULT:    -2.993      1.717      3.529
REMARK INTER + INTRA:          -4.664
REMARK INTER:                  -4.072
REMARK INTRA:                  -0.591
REMARK UNBOUND:                -0.621
REMARK SMILES CCCCCCCC(=O)[O-]
REMARK SMILES IDX 5 1 6 2 7 3 8 4 9 5 10 6 4 7 3 8 2 9 1 10
REMARK H PARENT
REMARK Flexibility Score: inf
ROOT
ATOM      1  C   UNL     1      37.270 -48.331   3.723  1.00  0.00     0.000 C 
ENDROOT
BRANCH   1   2
ATOM      2  C   UNL     1      35.820 -47.940   4.064  1.00  0.00     0.006 C 
BRANCH   2   3
ATOM      3  C   UNL     1      34.879 -47.882   2.851  1.00  0.00     0.053 C 
BRANCH   3   4
ATOM      4  C   UNL     1      34.814 -49.191   2.127  1.00  0.00     0.041 C 
ATOM      5  O   UNL     1      34.363 -50.214   2.706  1.00  0.00    -0.550 OA
ATOM      6  O   UNL     1      35.219 -49.274   0.801  1.00  0.00    -0.550 OA
ENDBRANCH   3   4
ENDBRANCH   2   3
ENDBRANCH   1   2
BRANCH   1   7
ATOM      7  C   UNL     1      37.823 -49.430   4.644  1.00  0.00     0.000 C 
BRANCH   7   8
ATOM      8  C   UNL     1      36.687 -50.124   5.410  1.00  0.00    -0.000 C 
BRANCH   8   9
ATOM      9  C   UNL     1      36.559 -51.614   5.055  1.00  0.00    -0.003 C 
ATOM     10  C   UNL     1      37.385 -52.002   3.829  1.00  0.00     0.004 C 
ENDBRANCH   8   9
ENDBRANCH   7   8
ENDBRANCH   1   7
TORSDOF 6
ENDMDL
MODEL 4
REMARK VINA RESULT:    -2.990      1.634      2.492
REMARK INTER + INTRA:          -4.659
REMARK INTER:                  -4.394
REMARK INTRA:                  -0.266
REMARK UNBOUND:                -0.621
REMARK SMILES CCCCCCCC(=O)[O-]
REMARK SMILES IDX 5 1 6 2 7 3 8 4 9 5 10 6 4 7 3 8 2 9 1 10
REMARK H PARENT
REMARK Flexibility Score: inf
ROOT
ATOM      1  C   UNL     1      35.867 -48.137   3.905  1.00  0.00     0.000 C 
ENDROOT
BRANCH   1   2
ATOM      2  C   UNL     1      36.412 -49.414   4.572  1.00  0.00     0.006 C 
BRANCH   2   3
ATOM      3  C   UNL     1      36.575 -50.606   3.615  1.00  0.00     0.053 C 
BRANCH   3   4
ATOM      4  C   UNL     1      35.944 -51.851   4.154  1.00  0.00     0.041 C 
ATOM      5  O   UNL     1      36.393 -52.387   5.203  1.00  0.00    -0.550 OA
ATOM      6  O   UNL     1      34.838 -52.402   3.520  1.00  0.00    -0.550 OA
ENDBRANCH   3   4
ENDBRANCH   2   3
ENDBRANCH   1   2
BRANCH   1   7
ATOM      7  C   UNL     1      34.827 -48.432   2.814  1.00  0.00     0.000 C 
BRANCH   7   8
ATOM      8  C   UNL     1      34.399 -47.139   2.102  1.00  0.00    -0.000 C 
BRANCH   8   9
ATOM      9  C   UNL     1      34.763 -45.877   2.898  1.00  0.00    -0.003 C 
ATOM     10  C   UNL     1      33.935 -44.660   2.488  1.00  0.00     0.004 C 
ENDBRANCH   8   9
ENDBRANCH   7   8
ENDBRANCH   1   7
TORSDOF 6
ENDMDL
MODEL 5
REMARK VINA RESULT:    -2.967     10.165     11.493
REMARK INTER + INTRA:          -4.629
REMARK INTER:                  -4.450
REMARK INTRA:                  -0.179
REMARK UNBOUND:                -0.621
REMARK SMILES CCCCCCCC(=O)[O-]
REMARK SMILES IDX 5 1 6 2 7 3 8 4 9 5 10 6 4 7 3 8 2 9 1 10
REMARK H PARENT
REMARK Flexibility Score: inf
ROOT
ATOM      1  C   UNL     1      28.169 -43.178   0.488  1.00  0.00     0.000 C 
ENDROOT
BRANCH   1   2
ATOM      2  C   UNL     1      29.397 -42.634  -0.266  1.00  0.00     0.006 C 
BRANCH   2   3
ATOM      3  C   UNL     1      29.056 -41.683  -1.425  1.00  0.00     0.053 C 
BRANCH   3   4
ATOM      4  C   UNL     1      29.151 -42.361  -2.756  1.00  0.00     0.041 C 
ATOM      5  O   UNL     1      29.557 -43.551  -2.833  1.00  0.00    -0.550 OA
ATOM      6  O   UNL     1      28.757 -41.693  -3.908  1.00  0.00    -0.550 OA
ENDBRANCH   3   4
ENDBRANCH   2   3
ENDBRANCH   1   2
BRANCH   1   7
ATOM      7  C   UNL     1      28.242 -42.928   2.002  1.00  0.00     0.000 C 
BRANCH   7   8
ATOM      8  C   UNL     1      28.417 -44.249   2.767  1.00  0.00    -0.000 C 
BRANCH   8   9
ATOM      9  C   UNL     1      27.123 -45.074   2.828  1.00  0.00    -0.003 C 
ATOM     10  C   UNL     1      27.333 -46.461   3.434  1.00  0.00     0.004 C 
ENDBRANCH   8   9
ENDBRANCH   7   8
ENDBRANCH   1   7
TORSDOF 6
ENDMDL
MODEL 6
REMARK VINA RESULT:    -2.959      1.929      2.619
REMARK INTER + INTRA:          -4.618
REMARK INTER:                  -4.491
REMARK INTRA:                  -0.126
REMARK UNBOUND:                -0.621
REMARK SMILES CCCCCCCC(=O)[O-]
REMARK SMILES IDX 5 1 6 2 7 3 8 4 9 5 10 6 4 7 3 8 2 9 1 10
REMARK H PARENT
REMARK Flexibility Score: inf
ROOT
ATOM      1  C   UNL     1      35.989 -50.709   2.820  1.00  0.00     0.000 C 
ENDROOT
BRANCH   1   2
ATOM      2  C   UNL     1      35.613 -52.016   3.544  1.00  0.00     0.006 C 
BRANCH   2   3
ATOM      3  C   UNL     1      36.322 -52.217   4.893  1.00  0.00     0.053 C 
BRANCH   3   4
ATOM      4  C   UNL     1      37.084 -51.000   5.315  1.00  0.00     0.041 C 
ATOM      5  O   UNL     1      36.482 -50.025   5.839  1.00  0.00    -0.550 OA
ATOM      6  O   UNL     1      38.464 -50.955   5.162  1.00  0.00    -0.550 OA
ENDBRANCH   3   4
ENDBRANCH   2   3
ENDBRANCH   1   2
BRANCH   1   7
ATOM      7  C   UNL     1      34.768 -49.834   2.498  1.00  0.00     0.000 C 
BRANCH   7   8
ATOM      8  C   UNL     1      33.562 -50.701   2.105  1.00  0.00    -0.000 C 
BRANCH   8   9
ATOM      9  C   UNL     1      32.715 -50.066   0.992  1.00  0.00    -0.003 C 
ATOM     10  C   UNL     1      33.149 -48.639   0.659  1.00  0.00     0.004 C 
ENDBRANCH   8   9
ENDBRANCH   7   8
ENDBRANCH   1   7
TORSDOF 6
ENDMDL
MODEL 7
REMARK VINA RESULT:    -2.930     12.488     14.044
REMARK INTER + INTRA:          -4.580
REMARK INTER:                  -4.348
REMARK INTRA:                  -0.232
REMARK UNBOUND:                -0.621
REMARK SMILES CCCCCCCC(=O)[O-]
REMARK SMILES IDX 5 1 6 2 7 3 8 4 9 5 10 6 4 7 3 8 2 9 1 10
REMARK H PARENT
REMARK Flexibility Score: inf
ROOT
ATOM      1  C   UNL     1      37.970 -56.301  -8.476  1.00  0.00     0.000 C 
ENDROOT
BRANCH   1   2
ATOM      2  C   UNL     1      36.758 -55.472  -8.944  1.00  0.00     0.006 C 
BRANCH   2   3
ATOM      3  C   UNL     1      36.841 -55.001 -10.404  1.00  0.00     0.053 C 
BRANCH   3   4
ATOM      4  C   UNL     1      35.489 -54.725 -10.984  1.00  0.00     0.041 C 
ATOM      5  O   UNL     1      35.326 -53.767 -11.785  1.00  0.00    -0.550 OA
ATOM      6  O   UNL     1      34.415 -55.548 -10.668  1.00  0.00    -0.550 OA
ENDBRANCH   3   4
ENDBRANCH   2   3
ENDBRANCH   1   2
BRANCH   1   7
ATOM      7  C   UNL     1      38.053 -56.423  -6.947  1.00  0.00     0.000 C 
BRANCH   7   8
ATOM      8  C   UNL     1      37.885 -55.051  -6.278  1.00  0.00    -0.000 C 
BRANCH   8   9
ATOM      9  C   UNL     1      36.708 -55.014  -5.291  1.00  0.00    -0.003 C 
ATOM     10  C   UNL     1      36.424 -53.609  -4.762  1.00  0.00     0.004 C 
ENDBRANCH   8   9
ENDBRANCH   7   8
ENDBRANCH   1   7
TORSDOF 6
ENDMDL
MODEL 8
REMARK VINA RESULT:    -2.893     12.485     13.739
REMARK INTER + INTRA:          -4.529
REMARK INTER:                  -4.222
REMARK INTRA:                  -0.307
REMARK UNBOUND:                -0.621
REMARK SMILES CCCCCCCC(=O)[O-]
REMARK SMILES IDX 5 1 6 2 7 3 8 4 9 5 10 6 4 7 3 8 2 9 1 10
REMARK H PARENT
REMARK Flexibility Score: inf
ROOT
ATOM      1  C   UNL     1      38.196 -54.904  -9.370  1.00  0.00     0.000 C 
ENDROOT
BRANCH   1   2
ATOM      2  C   UNL     1      37.736 -56.000  -8.390  1.00  0.00     0.006 C 
BRANCH   2   3
ATOM      3  C   UNL     1      37.384 -55.485  -6.985  1.00  0.00     0.053 C 
BRANCH   3   4
ATOM      4  C   UNL     1      38.060 -56.278  -5.910  1.00  0.00     0.041 C 
ATOM      5  O   UNL     1      38.517 -57.425  -6.160  1.00  0.00    -0.550 OA
ATOM      6  O   UNL     1      38.216 -55.738  -4.640  1.00  0.00    -0.550 OA
ENDBRANCH   3   4
ENDBRANCH   2   3
ENDBRANCH   1   2
BRANCH   1   7
ATOM      7  C   UNL     1      37.603 -55.076 -10.776  1.00  0.00     0.000 C 
BRANCH   7   8
ATOM      8  C   UNL     1      36.836 -53.815 -11.204  1.00  0.00    -0.000 C 
BRANCH   8   9
ATOM      9  C   UNL     1      35.348 -54.090 -11.470  1.00  0.00    -0.003 C 
ATOM     10  C   UNL     1      34.785 -55.201 -10.584  1.00  0.00     0.004 C 
ENDBRANCH   8   9
ENDBRANCH   7   8
ENDBRANCH   1   7
TORSDOF 6
ENDMDL
MODEL 9
REMARK VINA RESULT:    -2.824      3.145      4.276
REMARK INTER + INTRA:          -4.435
REMARK INTER:                  -4.195
REMARK INTRA:                  -0.241
REMARK UNBOUND:                -0.621
REMARK SMILES CCCCCCCC(=O)[O-]
REMARK SMILES IDX 5 1 6 2 7 3 8 4 9 5 10 6 4 7 3 8 2 9 1 10
REMARK H PARENT
REMARK Flexibility Score: inf
ROOT
ATOM      1  C   UNL     1      35.501 -46.128   2.617  1.00  0.00     0.000 C 
ENDROOT
BRANCH   1   2
ATOM      2  C   UNL     1      35.135 -47.534   3.131  1.00  0.00     0.006 C 
BRANCH   2   3
ATOM      3  C   UNL     1      34.354 -48.392   2.122  1.00  0.00     0.053 C 
BRANCH   3   4
ATOM      4  C   UNL     1      34.436 -49.852   2.443  1.00  0.00     0.041 C 
ATOM      5  O   UNL     1      33.603 -50.657   1.949  1.00  0.00    -0.550 OA
ATOM      6  O   UNL     1      35.453 -50.329   3.260  1.00  0.00    -0.550 OA
ENDBRANCH   3   4
ENDBRANCH   2   3
ENDBRANCH   1   2
BRANCH   1   7
ATOM      7  C   UNL     1      34.357 -45.117   2.785  1.00  0.00     0.000 C 
BRANCH   7   8
ATOM      8  C   UNL     1      34.725 -43.765   2.153  1.00  0.00    -0.000 C 
BRANCH   8   9
ATOM      9  C   UNL     1      34.069 -43.557   0.779  1.00  0.00    -0.003 C 
ATOM     10  C   UNL     1      32.706 -44.239   0.665  1.00  0.00     0.004 C 
ENDBRANCH   8   9
ENDBRANCH   7   8
ENDBRANCH   1   7
TORSDOF 6
ENDMDL
