MODEL 1
REMARK VINA RESULT:    -3.117      0.000      0.000
REMARK INTER + INTRA:          -5.241
REMARK INTER:                  -4.758
REMARK INTRA:                  -0.483
REMARK UNBOUND:                -0.483
REMARK SMILES CCCCCCCCCCC(=O)[O-]
REMARK SMILES IDX 7 1 8 2 9 3 10 4 11 5 12 6 13 7 6 8 5 9 4 10 3 11 2 12 1 13
REMARK H PARENT
REMARK Flexibility Score: inf
ROOT
ATOM      1  C   UNL     1      27.549  20.995  15.350  1.00  0.00     0.000 C 
ENDROOT
BRANCH   1   2
ATOM      2  C   UNL     1      29.056  20.760  15.147  1.00  0.00     0.000 C 
BRANCH   2   3
ATOM      3  C   UNL     1      29.498  20.528  13.688  1.00  0.00     0.006 C 
BRANCH   3   4
ATOM      4  C   UNL     1      28.399  20.811  12.645  1.00  0.00     0.053 C 
BRANCH   4   5
ATOM      5  C   UNL     1      28.810  21.842  11.639  1.00  0.00     0.041 C 
ATOM      6  O   UNL     1      29.239  21.492  10.508  1.00  0.00    -0.550 OA
ATOM      7  O   UNL     1      28.681  23.194  11.934  1.00  0.00    -0.550 OA
ENDBRANCH   4   5
ENDBRANCH   3   4
ENDBRANCH   2   3
ENDBRANCH   1   2
BRANCH   1   8
ATOM      8  C   UNL     1      27.093  20.739  16.797  1.00  0.00     0.000 C 
BRANCH   8   9
ATOM      9  C   UNL     1      25.640  20.240  16.878  1.00  0.00    -0.000 C 
BRANCH   9  10
ATOM     10  C   UNL     1      25.064  19.875  15.498  1.00  0.00    -0.000 C 
BRANCH  10  11
ATOM     11  C   UNL     1      23.622  20.374  15.311  1.00  0.00    -0.000 C 
BRANCH  11  12
ATOM     12  C   UNL     1      23.122  20.217  13.868  1.00  0.00    -0.003 C 
ATOM     13  C   UNL     1      21.596  20.230  13.811  1.00  0.00     0.004 C 
ENDBRANCH  11  12
ENDBRANCH  10  11
ENDBRANCH   9  10
ENDBRANCH   8   9
ENDBRANCH   1   8
TORSDOF 9
ENDMDL
MODEL 2
REMARK VINA RESULT:    -3.025      3.037      5.544
REMARK INTER + INTRA:          -5.099
REMARK INTER:                  -4.444
REMARK INTRA:                  -0.655
REMARK UNBOUND:                -0.483
REMARK SMILES CCCCCCCCCCC(=O)[O-]
REMARK SMILES IDX 7 1 8 2 9 3 10 4 11 5 12 6 13 7 6 8 5 9 4 10 3 11 2 12 1 13
REMARK H PARENT
REMARK Flexibility Score: inf
ROOT
ATOM      1  C   UNL     1      27.307  20.834  15.855  1.00  0.00     0.000 C 
ENDROOT
BRANCH   1   2
ATOM      2  C   UNL     1      26.073  20.888  16.772  1.00  0.00     0.000 C 
BRANCH   2   3
ATOM      3  C   UNL     1      24.958  19.878  16.438  1.00  0.00     0.006 C 
BRANCH   3   4
ATOM      4  C   UNL     1      24.532  19.877  14.957  1.00  0.00     0.053 C 
BRANCH   4   5
ATOM      5  C   UNL     1      23.117  20.329  14.763  1.00  0.00     0.041 C 
ATOM      6  O   UNL     1      22.502  20.058  13.698  1.00  0.00    -0.550 OA
ATOM      7  O   UNL     1      22.460  21.018  15.776  1.00  0.00    -0.550 OA
ENDBRANCH   4   5
ENDBRANCH   3   4
ENDBRANCH   2   3
ENDBRANCH   1   2
BRANCH   1   8
ATOM      8  C   UNL     1      28.536  20.210  16.540  1.00  0.00     0.000 C 
BRANCH   8   9
ATOM      9  C   UNL     1      29.684  19.935  15.555  1.00  0.00    -0.000 C 
BRANCH   9  10
ATOM     10  C   UNL     1      29.269  20.151  14.089  1.00  0.00    -0.000 C 
BRANCH  10  11
ATOM     11  C   UNL     1      30.091  21.251  13.400  1.00  0.00    -0.000 C 
BRANCH  11  12
ATOM     12  C   UNL     1      29.221  22.405  12.880  1.00  0.00    -0.003 C 
ATOM     13  C   UNL     1      28.082  21.885  12.009  1.00  0.00     0.004 C 
ENDBRANCH  11  12
ENDBRANCH  10  11
ENDBRANCH   9  10
ENDBRANCH   8   9
ENDBRANCH   1   8
TORSDOF 9
ENDMDL
MODEL 3
REMARK VINA RESULT:    -2.635      1.211      2.046
REMARK INTER + INTRA:          -4.505
REMARK INTER:                  -3.935
REMARK INTRA:                  -0.570
REMARK UNBOUND:                -0.483
REMARK SMILES CCCCCCCCCCC(=O)[O-]
REMARK SMILES IDX 7 1 8 2 9 3 10 4 11 5 12 6 13 7 6 8 5 9 4 10 3 11 2 12 1 13
REMARK H PARENT
REMARK Flexibility Score: inf
ROOT
ATOM      1  C   UNL     1      26.517  21.124  16.334  1.00  0.00     0.000 C 
ENDROOT
BRANCH   1   2
ATOM      2  C   UNL     1      27.837  20.382  16.607  1.00  0.00     0.000 C 
BRANCH   2   3
ATOM      3  C   UNL     1      29.014  20.769  15.691  1.00  0.00     0.006 C 
BRANCH   3   4
ATOM      4  C   UNL     1      29.100  19.940  14.395  1.00  0.00     0.053 C 
BRANCH   4   5
ATOM      5  C   UNL     1      28.914  20.773  13.163  1.00  0.00     0.041 C 
ATOM      6  O   UNL     1      29.352  21.953  13.121  1.00  0.00    -0.550 OA
ATOM      7  O   UNL     1      28.292  20.233  12.044  1.00  0.00    -0.550 OA
ENDBRANCH   4   5
ENDBRANCH   3   4
ENDBRANCH   2   3
ENDBRANCH   1   2
BRANCH   1   8
ATOM      8  C   UNL     1      25.410  20.200  15.799  1.00  0.00     0.000 C 
BRANCH   8   9
ATOM      9  C   UNL     1      25.540  19.937  14.289  1.00  0.00    -0.000 C 
BRANCH   9  10
ATOM     10  C   UNL     1      24.175  19.875  13.581  1.00  0.00    -0.000 C 
BRANCH  10  11
ATOM     11  C   UNL     1      23.017  20.309  14.494  1.00  0.00    -0.000 C 
BRANCH  11  12
ATOM     12  C   UNL     1      21.641  19.920  13.934  1.00  0.00    -0.003 C 
ATOM     13  C   UNL     1      21.513  20.317  12.466  1.00  0.00     0.004 C 
ENDBRANCH  11  12
ENDBRANCH  10  11
ENDBRANCH   9  10
ENDBRANCH   8   9
ENDBRANCH   1   8
TORSDOF 9
ENDMDL
MODEL 4
REMARK VINA RESULT:    -2.567     14.505     16.595
REMARK INTER + INTRA:          -4.400
REMARK INTER:                  -3.558
REMARK INTRA:                  -0.842
REMARK UNBOUND:                -0.483
REMARK SMILES CCCCCCCCCCC(=O)[O-]
REMARK SMILES IDX 7 1 8 2 9 3 10 4 11 5 12 6 13 7 6 8 5 9 4 10 3 11 2 12 1 13
REMARK H PARENT
REMARK Flexibility Score: inf
ROOT
ATOM      1  C   UNL     1      12.821  20.804  18.381  1.00  0.00     0.000 C 
ENDROOT
BRANCH   1   2
ATOM      2  C   UNL     1      11.570  19.914  18.464  1.00  0.00     0.000 C 
BRANCH   2   3
ATOM      3  C   UNL     1      10.390  20.506  19.259  1.00  0.00     0.006 C 
BRANCH   3   4
ATOM      4  C   UNL     1      10.699  20.765  20.746  1.00  0.00     0.053 C 
BRANCH   4   5
ATOM      5  C   UNL     1      10.654  22.220  21.100  1.00  0.00     0.041 C 
ATOM      6  O   UNL     1      10.730  23.097  20.200  1.00  0.00    -0.550 OA
ATOM      7  O   UNL     1      10.487  22.610  22.424  1.00  0.00    -0.550 OA
ENDBRANCH   4   5
ENDBRANCH   3   4
ENDBRANCH   2   3
ENDBRANCH   1   2
BRANCH   1   8
ATOM      8  C   UNL     1      13.791  20.372  17.266  1.00  0.00     0.000 C 
BRANCH   8   9
ATOM      9  C   UNL     1      13.215  20.609  15.860  1.00  0.00    -0.000 C 
BRANCH   9  10
ATOM     10  C   UNL     1      12.534  21.983  15.724  1.00  0.00    -0.000 C 
BRANCH  10  11
ATOM     11  C   UNL     1      11.632  22.073  14.483  1.00  0.00    -0.000 C 
BRANCH  11  12
ATOM     12  C   UNL     1      10.168  22.376  14.834  1.00  0.00    -0.003 C 
ATOM     13  C   UNL     1      10.022  22.751  16.306  1.00  0.00     0.004 C 
ENDBRANCH  11  12
ENDBRANCH  10  11
ENDBRANCH   9  10
ENDBRANCH   8   9
ENDBRANCH   1   8
TORSDOF 9
ENDMDL
MODEL 5
REMARK VINA RESULT:    -2.477      3.491      5.661
REMARK INTER + INTRA:          -4.264
REMARK INTER:                  -4.053
REMARK INTRA:                  -0.211
REMARK UNBOUND:                -0.483
REMARK SMILES CCCCCCCCCCC(=O)[O-]
REMARK SMILES IDX 7 1 8 2 9 3 10 4 11 5 12 6 13 7 6 8 5 9 4 10 3 11 2 12 1 13
REMARK H PARENT
REMARK Flexibility Score: inf
ROOT
ATOM      1  C   UNL     1      28.999  22.577  13.617  1.00  0.00     0.000 C 
ENDROOT
BRANCH   1   2
ATOM      2  C   UNL     1      29.225  21.113  14.031  1.00  0.00     0.000 C 
BRANCH   2   3
ATOM      3  C   UNL     1      28.554  20.688  15.351  1.00  0.00     0.006 C 
BRANCH   3   4
ATOM      4  C   UNL     1      27.089  20.238  15.197  1.00  0.00     0.053 C 
BRANCH   4   5
ATOM      5  C   UNL     1      26.276  20.483  16.431  1.00  0.00     0.041 C 
ATOM      6  O   UNL     1      26.839  20.798  17.512  1.00  0.00    -0.550 OA
ATOM      7  O   UNL     1      24.889  20.404  16.379  1.00  0.00    -0.550 OA
ENDBRANCH   4   5
ENDBRANCH   3   4
ENDBRANCH   2   3
ENDBRANCH   1   2
BRANCH   1   8
ATOM      8  C   UNL     1      30.124  23.128  12.724  1.00  0.00     0.000 C 
BRANCH   8   9
ATOM      9  C   UNL     1      29.944  22.748  11.245  1.00  0.00    -0.000 C 
BRANCH   9  10
ATOM     10  C   UNL     1      29.623  21.255  11.054  1.00  0.00    -0.000 C 
BRANCH  10  11
ATOM     11  C   UNL     1      28.920  20.969   9.718  1.00  0.00    -0.000 C 
BRANCH  11  12
ATOM     12  C   UNL     1      27.849  19.875   9.831  1.00  0.00    -0.003 C 
ATOM     13  C   UNL     1      27.167  19.914  11.196  1.00  0.00     0.004 C 
ENDBRANCH  11  12
ENDBRANCH  10  11
ENDBRANCH   9  10
ENDBRANCH   8   9
ENDBRANCH   1   8
TORSDOF 9
ENDMDL
MODEL 6
REMARK VINA RESULT:    -2.326     15.736     17.030
REMARK INTER + INTRA:          -4.033
REMARK INTER:                  -3.782
REMARK INTRA:                  -0.251
REMARK UNBOUND:                -0.483
REMARK SMILES CCCCCCCCCCC(=O)[O-]
REMARK SMILES IDX 7 1 8 2 9 3 10 4 11 5 12 6 13 7 6 8 5 9 4 10 3 11 2 12 1 13
REMARK H PARENT
REMARK Flexibility Score: inf
ROOT
ATOM      1  C   UNL     1      11.852  20.919  19.047  1.00  0.00     0.000 C 
ENDROOT
BRANCH   1   2
ATOM      2  C   UNL     1      11.260  20.988  17.629  1.00  0.00     0.000 C 
BRANCH   2   3
ATOM      3  C   UNL     1       9.996  21.858  17.483  1.00  0.00     0.006 C 
BRANCH   3   4
ATOM      4  C   UNL     1      10.075  22.896  16.348  1.00  0.00     0.053 C 
BRANCH   4   5
ATOM      5  C   UNL     1      10.697  22.344  15.102  1.00  0.00     0.041 C 
ATOM      6  O   UNL     1       9.986  22.090  14.094  1.00  0.00    -0.550 OA
ATOM      7  O   UNL     1      12.071  22.146  15.038  1.00  0.00    -0.550 OA
ENDBRANCH   4   5
ENDBRANCH   3   4
ENDBRANCH   2   3
ENDBRANCH   1   2
BRANCH   1   8
ATOM      8  C   UNL     1      11.080  19.964  19.974  1.00  0.00     0.000 C 
BRANCH   8   9
ATOM      9  C   UNL     1      10.096  20.703  20.896  1.00  0.00    -0.000 C 
BRANCH   9  10
ATOM     10  C   UNL     1      10.619  22.083  21.332  1.00  0.00    -0.000 C 
BRANCH  10  11
ATOM     11  C   UNL     1      11.229  22.063  22.743  1.00  0.00    -0.000 C 
BRANCH  11  12
ATOM     12  C   UNL     1      10.761  20.861  23.576  1.00  0.00    -0.003 C 
ATOM     13  C   UNL     1      11.903  19.878  23.812  1.00  0.00     0.004 C 
ENDBRANCH  11  12
ENDBRANCH  10  11
ENDBRANCH   9  10
ENDBRANCH   8   9
ENDBRANCH   1   8
TORSDOF 9
ENDMDL
MODEL 7
REMARK VINA RESULT:    -2.195     12.965     15.736
REMARK INTER + INTRA:          -3.833
REMARK INTER:                  -3.246
REMARK INTRA:                  -0.587
REMARK UNBOUND:                -0.483
REMARK SMILES CCCCCCCCCCC(=O)[O-]
REMARK SMILES IDX 7 1 8 2 9 3 10 4 11 5 12 6 13 7 6 8 5 9 4 10 3 11 2 12 1 13
REMARK H PARENT
REMARK Flexibility Score: inf
ROOT
ATOM      1  C   UNL     1      10.029  22.878  16.513  1.00  0.00     0.000 C 
ENDROOT
BRANCH   1   2
ATOM      2  C   UNL     1      10.938  22.614  15.301  1.00  0.00     0.000 C 
BRANCH   2   3
ATOM      3  C   UNL     1      11.877  21.398  15.432  1.00  0.00     0.006 C 
BRANCH   3   4
ATOM      4  C   UNL     1      13.376  21.752  15.377  1.00  0.00     0.053 C 
BRANCH   4   5
ATOM      5  C   UNL     1      14.177  21.034  16.419  1.00  0.00     0.041 C 
ATOM      6  O   UNL     1      15.435  21.040  16.371  1.00  0.00    -0.550 OA
ATOM      7  O   UNL     1      13.535  20.391  17.471  1.00  0.00    -0.550 OA
ENDBRANCH   4   5
ENDBRANCH   3   4
ENDBRANCH   2   3
ENDBRANCH   1   2
BRANCH   1   8
ATOM      8  C   UNL     1      10.080  21.749  17.558  1.00  0.00     0.000 C 
BRANCH   8   9
ATOM      9  C   UNL     1      10.772  22.183  18.861  1.00  0.00    -0.000 C 
BRANCH   9  10
ATOM     10  C   UNL     1      10.537  21.190  20.013  1.00  0.00    -0.000 C 
BRANCH  10  11
ATOM     11  C   UNL     1      11.849  20.674  20.625  1.00  0.00    -0.000 C 
BRANCH  11  12
ATOM     12  C   UNL     1      11.938  20.924  22.137  1.00  0.00    -0.003 C 
ATOM     13  C   UNL     1      11.460  22.329  22.491  1.00  0.00     0.004 C 
ENDBRANCH  11  12
ENDBRANCH  10  11
ENDBRANCH   9  10
ENDBRANCH   8   9
ENDBRANCH   1   8
TORSDOF 9
ENDMDL
MODEL 8
REMARK VINA RESULT:    -2.184     11.912     15.250
REMARK INTER + INTRA:          -3.817
REMARK INTER:                  -3.481
REMARK INTRA:                  -0.335
REMARK UNBOUND:                -0.483
REMARK SMILES CCCCCCCCCCC(=O)[O-]
REMARK SMILES IDX 7 1 8 2 9 3 10 4 11 5 12 6 13 7 6 8 5 9 4 10 3 11 2 12 1 13
REMARK H PARENT
REMARK Flexibility Score: inf
ROOT
ATOM      1  C   UNL     1      12.593  20.250  19.172  1.00  0.00     0.000 C 
ENDROOT
BRANCH   1   2
ATOM      2  C   UNL     1      12.099  21.042  17.950  1.00  0.00     0.000 C 
BRANCH   2   3
ATOM      3  C   UNL     1      12.904  20.825  16.653  1.00  0.00     0.006 C 
BRANCH   3   4
ATOM      4  C   UNL     1      14.106  19.875  16.810  1.00  0.00     0.053 C 
BRANCH   4   5
ATOM      5  C   UNL     1      15.411  20.535  16.482  1.00  0.00     0.041 C 
ATOM      6  O   UNL     1      15.431  21.639  15.878  1.00  0.00    -0.550 OA
ATOM      7  O   UNL     1      16.607  19.950  16.880  1.00  0.00    -0.550 OA
ENDBRANCH   4   5
ENDBRANCH   3   4
ENDBRANCH   2   3
ENDBRANCH   1   2
BRANCH   1   8
ATOM      8  C   UNL     1      11.459  19.876  20.143  1.00  0.00     0.000 C 
BRANCH   8   9
ATOM      9  C   UNL     1      10.259  20.832  20.045  1.00  0.00    -0.000 C 
BRANCH   9  10
ATOM     10  C   UNL     1       9.891  21.459  21.401  1.00  0.00    -0.000 C 
BRANCH  10  11
ATOM     11  C   UNL     1      10.533  20.719  22.586  1.00  0.00    -0.000 C 
BRANCH  11  12
ATOM     12  C   UNL     1      11.949  21.220  22.903  1.00  0.00    -0.003 C 
ATOM     13  C   UNL     1      12.077  22.717  22.629  1.00  0.00     0.004 C 
ENDBRANCH  11  12
ENDBRANCH  10  11
ENDBRANCH   9  10
ENDBRANCH   8   9
ENDBRANCH   1   8
TORSDOF 9
ENDMDL
