MODEL 1
REMARK VINA RESULT:    -3.886      0.000      0.000
REMARK INTER + INTRA:          -6.100
REMARK INTER:                  -5.363
REMARK INTRA:                  -0.738
REMARK UNBOUND:                -0.738
REMARK SMILES OC[C@@H](O)[C@H](O)[C@@H](O)CO
REMARK SMILES IDX 5 1 7 2 9 3 10 4 8 6 3 8 2 9 1 10 4 12 6 14
REMARK H PARENT 10 5 8 7 1 11 4 13 6 15
REMARK Flexibility Score: inf
ROOT
ATOM      1  C   UNL     1      16.853 254.365  33.143  1.00  0.00     0.176 C 
ENDROOT
BRANCH   1   2
ATOM      2  C   UNL     1      18.233 255.061  33.306  1.00  0.00     0.171 C 
BRANCH   2   3
ATOM      3  C   UNL     1      18.465 256.127  32.225  1.00  0.00     0.190 C 
BRANCH   3   4
ATOM      4  O   UNL     1      18.640 255.530  30.970  1.00  0.00    -0.394 OA
ATOM      5  H   UNL     1      18.487 254.559  31.103  1.00  0.00     0.210 HD
ENDBRANCH   3   4
ENDBRANCH   2   3
BRANCH   2   6
ATOM      6  O   UNL     1      19.281 254.124  33.261  1.00  0.00    -0.388 OA
ATOM      7  H   UNL     1      20.132 254.632  33.214  1.00  0.00     0.211 HD
ENDBRANCH   2   6
ENDBRANCH   1   2
BRANCH   1   8
ATOM      8  C   UNL     1      16.983 252.844  32.850  1.00  0.00     0.171 C 
BRANCH   8   9
ATOM      9  C   UNL     1      15.641 252.100  32.991  1.00  0.00     0.190 C 
BRANCH   9  10
ATOM     10  O   UNL     1      15.389 251.308  31.860  1.00  0.00    -0.394 OA
ATOM     11  H   UNL     1      14.591 250.755  32.066  1.00  0.00     0.210 HD
ENDBRANCH   9  10
ENDBRANCH   8   9
BRANCH   8  12
ATOM     12  O   UNL     1      17.546 252.609  31.582  1.00  0.00    -0.388 OA
ATOM     13  H   UNL     1      18.425 253.067  31.544  1.00  0.00     0.211 HD
ENDBRANCH   8  12
ENDBRANCH   1   8
BRANCH   1  14
ATOM     14  O   UNL     1      16.046 255.007  32.184  1.00  0.00    -0.388 OA
ATOM     15  H   UNL     1      15.118 255.038  32.529  1.00  0.00     0.211 HD
ENDBRANCH   1  14
TORSDOF 9
ENDMDL
MODEL 2
REMARK VINA RESULT:    -3.865      8.972     10.529
REMARK INTER + INTRA:          -6.071
REMARK INTER:                  -5.385
REMARK INTRA:                  -0.686
REMARK UNBOUND:                -0.738
REMARK SMILES OC[C@@H](O)[C@H](O)[C@@H](O)CO
REMARK SMILES IDX 5 1 7 2 9 3 10 4 8 6 3 8 2 9 1 10 4 12 6 14
REMARK H PARENT 10 5 8 7 1 11 4 13 6 15
REMARK Flexibility Score: inf
ROOT
ATOM      1  C   UNL     1      12.778 262.741  32.240  1.00  0.00     0.176 C 
ENDROOT
BRANCH   1   2
ATOM      2  C   UNL     1      12.608 264.276  32.408  1.00  0.00     0.171 C 
BRANCH   2   3
ATOM      3  C   UNL     1      11.487 264.622  33.399  1.00  0.00     0.190 C 
BRANCH   3   4
ATOM      4  O   UNL     1      10.318 263.913  33.091  1.00  0.00    -0.394 OA
ATOM      5  H   UNL     1       9.649 264.176  33.773  1.00  0.00     0.210 HD
ENDBRANCH   3   4
ENDBRANCH   2   3
BRANCH   2   6
ATOM      6  O   UNL     1      12.337 264.894  31.173  1.00  0.00    -0.388 OA
ATOM      7  H   UNL     1      12.799 265.772  31.173  1.00  0.00     0.211 HD
ENDBRANCH   2   6
ENDBRANCH   1   2
BRANCH   1   8
ATOM      8  C   UNL     1      14.254 262.329  31.982  1.00  0.00     0.171 C 
BRANCH   8   9
ATOM      9  C   UNL     1      14.374 260.918  31.374  1.00  0.00     0.190 C 
BRANCH   9  10
ATOM     10  O   UNL     1      14.401 260.981  29.972  1.00  0.00    -0.394 OA
ATOM     11  H   UNL     1      13.650 260.421  29.643  1.00  0.00     0.210 HD
ENDBRANCH   9  10
ENDBRANCH   8   9
BRANCH   8  12
ATOM     12  O   UNL     1      14.921 263.271  31.177  1.00  0.00    -0.388 OA
ATOM     13  H   UNL     1      15.878 263.277  31.439  1.00  0.00     0.211 HD
ENDBRANCH   8  12
ENDBRANCH   1   8
BRANCH   1  14
ATOM     14  O   UNL     1      11.918 262.218  31.254  1.00  0.00    -0.388 OA
ATOM     15  H   UNL     1      11.123 261.837  31.706  1.00  0.00     0.211 HD
ENDBRANCH   1  14
TORSDOF 9
ENDMDL
MODEL 3
REMARK VINA RESULT:    -3.834      9.231     10.320
REMARK INTER + INTRA:          -6.029
REMARK INTER:                  -5.262
REMARK INTRA:                  -0.767
REMARK UNBOUND:                -0.738
REMARK SMILES OC[C@@H](O)[C@H](O)[C@@H](O)CO
REMARK SMILES IDX 5 1 7 2 9 3 10 4 8 6 3 8 2 9 1 10 4 12 6 14
REMARK H PARENT 10 5 8 7 1 11 4 13 6 15
REMARK Flexibility Score: inf
ROOT
ATOM      1  C   UNL     1      26.471 253.465  35.388  1.00  0.00     0.176 C 
ENDROOT
BRANCH   1   2
ATOM      2  C   UNL     1      27.430 253.901  34.247  1.00  0.00     0.171 C 
BRANCH   2   3
ATOM      3  C   UNL     1      26.725 254.796  33.218  1.00  0.00     0.190 C 
BRANCH   3   4
ATOM      4  O   UNL     1      27.435 255.990  33.030  1.00  0.00    -0.394 OA
ATOM      5  H   UNL     1      26.765 256.720  33.076  1.00  0.00     0.210 HD
ENDBRANCH   3   4
ENDBRANCH   2   3
BRANCH   2   6
ATOM      6  O   UNL     1      27.975 252.784  33.588  1.00  0.00    -0.388 OA
ATOM      7  H   UNL     1      28.486 252.263  34.260  1.00  0.00     0.211 HD
ENDBRANCH   2   6
ENDBRANCH   1   2
BRANCH   1   8
ATOM      8  C   UNL     1      27.191 252.639  36.490  1.00  0.00     0.171 C 
BRANCH   8   9
ATOM      9  C   UNL     1      26.758 251.160  36.495  1.00  0.00     0.190 C 
BRANCH   9  10
ATOM     10  O   UNL     1      27.179 250.515  35.322  1.00  0.00    -0.394 OA
ATOM     11  H   UNL     1      27.139 251.186  34.592  1.00  0.00     0.210 HD
ENDBRANCH   9  10
ENDBRANCH   8   9
BRANCH   8  12
ATOM     12  O   UNL     1      28.590 252.743  36.383  1.00  0.00    -0.388 OA
ATOM     13  H   UNL     1      28.867 252.319  35.530  1.00  0.00     0.211 HD
ENDBRANCH   8  12
ENDBRANCH   1   8
BRANCH   1  14
ATOM     14  O   UNL     1      25.337 252.789  34.897  1.00  0.00    -0.388 OA
ATOM     15  H   UNL     1      25.226 251.951  35.415  1.00  0.00     0.211 HD
ENDBRANCH   1  14
TORSDOF 9
ENDMDL
MODEL 4
REMARK VINA RESULT:    -3.816      8.959     10.680
REMARK INTER + INTRA:          -6.004
REMARK INTER:                  -5.062
REMARK INTRA:                  -0.942
REMARK UNBOUND:                -0.738
REMARK SMILES OC[C@@H](O)[C@H](O)[C@@H](O)CO
REMARK SMILES IDX 5 1 7 2 9 3 10 4 8 6 3 8 2 9 1 10 4 12 6 14
REMARK H PARENT 10 5 8 7 1 11 4 13 6 15
REMARK Flexibility Score: inf
ROOT
ATOM      1  C   UNL     1      13.695 263.305  32.473  1.00  0.00     0.176 C 
ENDROOT
BRANCH   1   2
ATOM      2  C   UNL     1      13.200 261.876  32.116  1.00  0.00     0.171 C 
BRANCH   2   3
ATOM      3  C   UNL     1      14.327 261.008  31.539  1.00  0.00     0.190 C 
BRANCH   3   4
ATOM      4  O   UNL     1      14.425 261.184  30.152  1.00  0.00    -0.394 OA
ATOM      5  H   UNL     1      14.441 260.273  29.759  1.00  0.00     0.210 HD
ENDBRANCH   3   4
ENDBRANCH   2   3
BRANCH   2   6
ATOM      6  O   UNL     1      12.137 261.924  31.195  1.00  0.00    -0.388 OA
ATOM      7  H   UNL     1      11.926 260.989  30.937  1.00  0.00     0.211 HD
ENDBRANCH   2   6
ENDBRANCH   1   2
BRANCH   1   8
ATOM      8  C   UNL     1      12.589 264.172  33.137  1.00  0.00     0.171 C 
BRANCH   8   9
ATOM      9  C   UNL     1      12.033 265.248  32.184  1.00  0.00     0.190 C 
BRANCH   9  10
ATOM     10  O   UNL     1      11.398 264.656  31.081  1.00  0.00    -0.394 OA
ATOM     11  H   UNL     1      11.847 265.004  30.267  1.00  0.00     0.210 HD
ENDBRANCH   9  10
ENDBRANCH   8   9
BRANCH   8  12
ATOM     12  O   UNL     1      11.545 263.377  33.646  1.00  0.00    -0.388 OA
ATOM     13  H   UNL     1      10.860 263.276  32.935  1.00  0.00     0.211 HD
ENDBRANCH   8  12
ENDBRANCH   1   8
BRANCH   1  14
ATOM     14  O   UNL     1      14.265 263.960  31.363  1.00  0.00    -0.388 OA
ATOM     15  H   UNL     1      13.706 264.749  31.148  1.00  0.00     0.211 HD
ENDBRANCH   1  14
TORSDOF 9
ENDMDL
MODEL 5
REMARK VINA RESULT:    -3.805     11.471     13.277
REMARK INTER + INTRA:          -5.989
REMARK INTER:                  -5.021
REMARK INTRA:                  -0.967
REMARK UNBOUND:                -0.738
REMARK SMILES OC[C@@H](O)[C@H](O)[C@@H](O)CO
REMARK SMILES IDX 5 1 7 2 9 3 10 4 8 6 3 8 2 9 1 10 4 12 6 14
REMARK H PARENT 10 5 8 7 1 11 4 13 6 15
REMARK Flexibility Score: inf
ROOT
ATOM      1  C   UNL     1      20.381 266.654  33.378  1.00  0.00     0.176 C 
ENDROOT
BRANCH   1   2
ATOM      2  C   UNL     1      21.743 267.330  33.697  1.00  0.00     0.171 C 
BRANCH   2   3
ATOM      3  C   UNL     1      21.646 268.862  33.649  1.00  0.00     0.190 C 
BRANCH   3   4
ATOM      4  O   UNL     1      21.867 269.331  32.347  1.00  0.00    -0.394 OA
ATOM      5  H   UNL     1      21.518 268.630  31.738  1.00  0.00     0.210 HD
ENDBRANCH   3   4
ENDBRANCH   2   3
BRANCH   2   6
ATOM      6  O   UNL     1      22.742 266.904  32.803  1.00  0.00    -0.388 OA
ATOM      7  H   UNL     1      22.345 266.201  32.227  1.00  0.00     0.211 HD
ENDBRANCH   2   6
ENDBRANCH   1   2
BRANCH   1   8
ATOM      8  C   UNL     1      20.443 265.106  33.492  1.00  0.00     0.171 C 
BRANCH   8   9
ATOM      9  C   UNL     1      20.347 264.410  32.120  1.00  0.00     0.190 C 
BRANCH   9  10
ATOM     10  O   UNL     1      21.438 264.757  31.309  1.00  0.00    -0.394 OA
ATOM     11  H   UNL     1      21.715 265.673  31.572  1.00  0.00     0.210 HD
ENDBRANCH   9  10
ENDBRANCH   8   9
BRANCH   8  12
ATOM     12  O   UNL     1      21.596 264.683  34.180  1.00  0.00    -0.388 OA
ATOM     13  H   UNL     1      21.846 265.392  34.828  1.00  0.00     0.211 HD
ENDBRANCH   8  12
ENDBRANCH   1   8
BRANCH   1  14
ATOM     14  O   UNL     1      19.870 267.058  32.130  1.00  0.00    -0.388 OA
ATOM     15  H   UNL     1      20.195 266.424  31.441  1.00  0.00     0.211 HD
ENDBRANCH   1  14
TORSDOF 9
ENDMDL
MODEL 6
REMARK VINA RESULT:    -3.723     14.215     15.139
REMARK INTER + INTRA:          -5.875
REMARK INTER:                  -5.214
REMARK INTRA:                  -0.661
REMARK UNBOUND:                -0.738
REMARK SMILES OC[C@@H](O)[C@H](O)[C@@H](O)CO
REMARK SMILES IDX 5 1 7 2 9 3 10 4 8 6 3 8 2 9 1 10 4 12 6 14
REMARK H PARENT 10 5 8 7 1 11 4 13 6 15
REMARK Flexibility Score: inf
ROOT
ATOM      1  C   UNL     1      10.347 266.384  37.097  1.00  0.00     0.176 C 
ENDROOT
BRANCH   1   2
ATOM      2  C   UNL     1      10.411 266.009  35.591  1.00  0.00     0.171 C 
BRANCH   2   3
ATOM      3  C   UNL     1      10.708 267.231  34.709  1.00  0.00     0.190 C 
BRANCH   3   4
ATOM      4  O   UNL     1       9.612 268.105  34.692  1.00  0.00    -0.394 OA
ATOM      5  H   UNL     1       8.988 267.751  34.007  1.00  0.00     0.210 HD
ENDBRANCH   3   4
ENDBRANCH   2   3
BRANCH   2   6
ATOM      6  O   UNL     1       9.210 265.414  35.165  1.00  0.00    -0.388 OA
ATOM      7  H   UNL     1       8.735 266.076  34.598  1.00  0.00     0.211 HD
ENDBRANCH   2   6
ENDBRANCH   1   2
BRANCH   1   8
ATOM      8  C   UNL     1      10.516 265.151  38.027  1.00  0.00     0.171 C 
BRANCH   8   9
ATOM      9  C   UNL     1      10.456 265.527  39.521  1.00  0.00     0.190 C 
BRANCH   9  10
ATOM     10  O   UNL     1       9.161 265.339  40.029  1.00  0.00    -0.394 OA
ATOM     11  H   UNL     1       8.937 266.149  40.557  1.00  0.00     0.210 HD
ENDBRANCH   9  10
ENDBRANCH   8   9
BRANCH   8  12
ATOM     12  O   UNL     1       9.575 264.148  37.733  1.00  0.00    -0.388 OA
ATOM     13  H   UNL     1       9.744 263.379  38.336  1.00  0.00     0.211 HD
ENDBRANCH   8  12
ENDBRANCH   1   8
BRANCH   1  14
ATOM     14  O   UNL     1       9.181 267.109  37.411  1.00  0.00    -0.388 OA
ATOM     15  H   UNL     1       8.415 266.682  36.949  1.00  0.00     0.211 HD
ENDBRANCH   1  14
TORSDOF 9
ENDMDL
MODEL 7
REMARK VINA RESULT:    -3.721      9.088     10.376
REMARK INTER + INTRA:          -5.873
REMARK INTER:                  -5.036
REMARK INTRA:                  -0.837
REMARK UNBOUND:                -0.738
REMARK SMILES OC[C@@H](O)[C@H](O)[C@@H](O)CO
REMARK SMILES IDX 5 1 7 2 9 3 10 4 8 6 3 8 2 9 1 10 4 12 6 14
REMARK H PARENT 10 5 8 7 1 11 4 13 6 15
REMARK Flexibility Score: inf
ROOT
ATOM      1  C   UNL     1      25.844 252.624  35.923  1.00  0.00     0.176 C 
ENDROOT
BRANCH   1   2
ATOM      2  C   UNL     1      26.499 253.052  37.265  1.00  0.00     0.171 C 
BRANCH   2   3
ATOM      3  C   UNL     1      25.473 253.662  38.232  1.00  0.00     0.190 C 
BRANCH   3   4
ATOM      4  O   UNL     1      24.351 252.830  38.351  1.00  0.00    -0.394 OA
ATOM      5  H   UNL     1      24.157 252.766  39.321  1.00  0.00     0.210 HD
ENDBRANCH   3   4
ENDBRANCH   2   3
BRANCH   2   6
ATOM      6  O   UNL     1      27.535 253.979  37.050  1.00  0.00    -0.388 OA
ATOM      7  H   UNL     1      27.134 254.779  36.622  1.00  0.00     0.211 HD
ENDBRANCH   2   6
ENDBRANCH   1   2
BRANCH   1   8
ATOM      8  C   UNL     1      26.866 251.998  34.934  1.00  0.00     0.171 C 
BRANCH   8   9
ATOM      9  C   UNL     1      27.128 252.897  33.710  1.00  0.00     0.190 C 
BRANCH   9  10
ATOM     10  O   UNL     1      28.021 253.930  34.033  1.00  0.00    -0.394 OA
ATOM     11  H   UNL     1      27.799 254.227  34.954  1.00  0.00     0.210 HD
ENDBRANCH   9  10
ENDBRANCH   8   9
BRANCH   8  12
ATOM     12  O   UNL     1      28.076 251.675  35.576  1.00  0.00    -0.388 OA
ATOM     13  H   UNL     1      28.785 251.613  34.885  1.00  0.00     0.211 HD
ENDBRANCH   8  12
ENDBRANCH   1   8
BRANCH   1  14
ATOM     14  O   UNL     1      25.128 253.678  35.323  1.00  0.00    -0.388 OA
ATOM     15  H   UNL     1      24.160 253.478  35.399  1.00  0.00     0.211 HD
ENDBRANCH   1  14
TORSDOF 9
ENDMDL
MODEL 8
REMARK VINA RESULT:    -3.677     11.487     13.764
REMARK INTER + INTRA:          -5.812
REMARK INTER:                  -4.891
REMARK INTRA:                  -0.921
REMARK UNBOUND:                -0.738
REMARK SMILES OC[C@@H](O)[C@H](O)[C@@H](O)CO
REMARK SMILES IDX 5 1 7 2 9 3 10 4 8 6 3 8 2 9 1 10 4 12 6 14
REMARK H PARENT 10 5 8 7 1 11 4 13 6 15
REMARK Flexibility Score: inf
ROOT
ATOM      1  C   UNL     1      21.926 266.408  33.564  1.00  0.00     0.176 C 
ENDROOT
BRANCH   1   2
ATOM      2  C   UNL     1      21.244 265.017  33.689  1.00  0.00     0.171 C 
BRANCH   2   3
ATOM      3  C   UNL     1      21.509 264.139  32.457  1.00  0.00     0.190 C 
BRANCH   3   4
ATOM      4  O   UNL     1      21.065 264.776  31.291  1.00  0.00    -0.394 OA
ATOM      5  H   UNL     1      21.009 264.071  30.596  1.00  0.00     0.210 HD
ENDBRANCH   3   4
ENDBRANCH   2   3
BRANCH   2   6
ATOM      6  O   UNL     1      19.856 265.148  33.871  1.00  0.00    -0.388 OA
ATOM      7  H   UNL     1      19.612 266.081  33.638  1.00  0.00     0.211 HD
ENDBRANCH   2   6
ENDBRANCH   1   2
BRANCH   1   8
ATOM      8  C   UNL     1      20.898 267.568  33.455  1.00  0.00     0.171 C 
BRANCH   8   9
ATOM      9  C   UNL     1      21.564 268.955  33.545  1.00  0.00     0.190 C 
BRANCH   9  10
ATOM     10  O   UNL     1      21.941 269.409  32.272  1.00  0.00    -0.394 OA
ATOM     11  H   UNL     1      22.081 270.390  32.344  1.00  0.00     0.210 HD
ENDBRANCH   9  10
ENDBRANCH   8   9
BRANCH   8  12
ATOM     12  O   UNL     1      20.126 267.467  32.283  1.00  0.00    -0.388 OA
ATOM     13  H   UNL     1      19.173 267.588  32.529  1.00  0.00     0.211 HD
ENDBRANCH   8  12
ENDBRANCH   1   8
BRANCH   1  14
ATOM     14  O   UNL     1      22.860 266.447  32.511  1.00  0.00    -0.388 OA
ATOM     15  H   UNL     1      23.396 267.276  32.602  1.00  0.00     0.211 HD
ENDBRANCH   1  14
TORSDOF 9
ENDMDL
MODEL 9
REMARK VINA RESULT:    -3.641     13.592     15.096
REMARK INTER + INTRA:          -5.762
REMARK INTER:                  -4.822
REMARK INTRA:                  -0.941
REMARK UNBOUND:                -0.738
REMARK SMILES OC[C@@H](O)[C@H](O)[C@@H](O)CO
REMARK SMILES IDX 5 1 7 2 9 3 10 4 8 6 3 8 2 9 1 10 4 12 6 14
REMARK H PARENT 10 5 8 7 1 11 4 13 6 15
REMARK Flexibility Score: inf
ROOT
ATOM      1  C   UNL     1      10.698 265.742  35.744  1.00  0.00     0.176 C 
ENDROOT
BRANCH   1   2
ATOM      2  C   UNL     1      10.249 265.906  37.222  1.00  0.00     0.171 C 
BRANCH   2   3
ATOM      3  C   UNL     1       9.604 264.624  37.769  1.00  0.00     0.190 C 
BRANCH   3   4
ATOM      4  O   UNL     1      10.100 263.497  37.100  1.00  0.00    -0.394 OA
ATOM      5  H   UNL     1       9.967 262.731  37.715  1.00  0.00     0.210 HD
ENDBRANCH   3   4
ENDBRANCH   2   3
BRANCH   2   6
ATOM      6  O   UNL     1       9.343 266.973  37.362  1.00  0.00    -0.388 OA
ATOM      7  H   UNL     1       8.704 266.921  36.604  1.00  0.00     0.211 HD
ENDBRANCH   2   6
ENDBRANCH   1   2
BRANCH   1   8
ATOM      8  C   UNL     1      11.592 266.916  35.258  1.00  0.00     0.171 C 
BRANCH   8   9
ATOM      9  C   UNL     1      10.879 267.812  34.226  1.00  0.00     0.190 C 
BRANCH   9  10
ATOM     10  O   UNL     1       9.643 268.256  34.722  1.00  0.00    -0.394 OA
ATOM     11  H   UNL     1       8.938 267.813  34.181  1.00  0.00     0.210 HD
ENDBRANCH   9  10
ENDBRANCH   8   9
BRANCH   8  12
ATOM     12  O   UNL     1      12.064 267.687  36.337  1.00  0.00    -0.388 OA
ATOM     13  H   UNL     1      13.053 267.607  36.364  1.00  0.00     0.211 HD
ENDBRANCH   8  12
ENDBRANCH   1   8
BRANCH   1  14
ATOM     14  O   UNL     1       9.605 265.536  34.879  1.00  0.00    -0.388 OA
ATOM     15  H   UNL     1       9.391 266.398  34.438  1.00  0.00     0.211 HD
ENDBRANCH   1  14
TORSDOF 9
ENDMDL
