MODEL 1
REMARK VINA RESULT:    -4.436      0.000      0.000
REMARK INTER + INTRA:          -5.913
REMARK INTER:                  -6.252
REMARK INTRA:                   0.339
REMARK UNBOUND:                 0.339
REMARK SMILES CC1=CCC(=C(C)C)C(=O)CC(C)=CCC1
REMARK SMILES IDX 12 1 14 2 13 3 15 4 16 5 2 6 1 7 3 8 11 10 9 11 10 12 5 13
REMARK SMILES IDX 6 14 7 15 8 16 4 17
REMARK H PARENT
REMARK Flexibility Score: 60.00
ROOT
ATOM      1  C   UNL     1      36.007  10.850  28.358  1.00  0.00    -0.070 C 
ATOM      2  C   UNL     1      34.932  10.376  27.690  1.00  0.00    -0.027 C 
ATOM      3  C   UNL     1      35.892  12.204  29.009  1.00  0.00     0.039 C 
ENDROOT
BRANCH   2   4
ATOM      4  C   UNL     1      34.819   9.007  27.055  1.00  0.00     0.032 C 
BRANCH   4   5
ATOM      5  C   UNL     1      35.383   8.908  25.622  1.00  0.00     0.034 C 
BRANCH   5   6
ATOM      6  C   UNL     1      36.446   7.835  25.472  1.00  0.00    -0.077 C 
ATOM      7  C   UNL     1      35.988   6.399  25.396  1.00  0.00     0.039 C 
ATOM      8  C   UNL     1      37.771   8.085  25.334  1.00  0.00    -0.023 CG0
ATOM      9  G   UNL     1      38.457   9.435  25.398  1.00  0.00     0.000 G0
ENDBRANCH   5   6
ENDBRANCH   4   5
ENDBRANCH   2   4
BRANCH   1  10
ATOM     10  C   UNL     1      37.278  10.052  28.560  1.00  0.00     0.111 C 
BRANCH  10  11
ATOM     11  C   UNL     1      38.402  10.569  27.702  1.00  0.00     0.163 C 
ATOM     12  O   UNL     1      38.768  11.765  27.860  1.00  0.00    -0.294 OA
BRANCH  11  13
ATOM     13  C   UNL     1      39.131   9.703  26.728  1.00  0.00    -0.002 C 
ATOM     14  C   UNL     1      40.312   9.105  27.071  1.00  0.00    -0.069 C 
ATOM     15  C   UNL     1      40.992   8.100  26.168  1.00  0.00     0.039 C 
ATOM     16  C   UNL     1      40.999   9.421  28.381  1.00  0.00     0.039 C 
BRANCH  13  17
ATOM     17  C   UNL     1      38.459   9.444  25.389  1.00  0.00     0.066 CG0
ATOM     18  G   UNL     1      37.786   8.087  25.335  1.00  0.00     0.000 G0
ENDBRANCH  13  17
ENDBRANCH  11  13
ENDBRANCH  10  11
ENDBRANCH   1  10
TORSDOF 0
ENDMDL
MODEL 2
REMARK VINA RESULT:    -4.223      2.110      2.836
REMARK INTER + INTRA:          -5.612
REMARK INTER:                  -5.829
REMARK INTRA:                   0.217
REMARK UNBOUND:                 0.339
REMARK SMILES CC1=CCC(=C(C)C)C(=O)CC(C)=CCC1
REMARK SMILES IDX 12 1 14 2 13 3 15 4 16 5 2 6 1 7 3 8 11 10 9 11 10 12 5 13
REMARK SMILES IDX 6 14 7 15 8 16 4 17
REMARK H PARENT
REMARK Flexibility Score: 60.00
ROOT
ATOM      1  C   UNL     1      35.790   9.105  26.903  1.00  0.00    -0.070 C 
ATOM      2  C   UNL     1      35.623   7.764  26.917  1.00  0.00    -0.027 C 
ATOM      3  C   UNL     1      34.701   9.958  27.503  1.00  0.00     0.039 C 
ENDROOT
BRANCH   2   4
ATOM      4  C   UNL     1      36.638   6.743  26.453  1.00  0.00     0.032 C 
BRANCH   4   5
ATOM      5  C   UNL     1      37.415   6.039  27.586  1.00  0.00     0.034 C 
BRANCH   5   6
ATOM      6  C   UNL     1      38.916   6.029  27.363  1.00  0.00    -0.077 C 
ATOM      7  C   UNL     1      39.503   4.871  26.595  1.00  0.00     0.039 C 
ATOM      8  C   UNL     1      39.753   7.023  27.748  1.00  0.00    -0.023 CG0
ATOM      9  G   UNL     1      39.395   8.263  28.542  1.00  0.00     0.000 G0
ENDBRANCH   5   6
ENDBRANCH   4   5
ENDBRANCH   2   4
BRANCH   1  10
ATOM     10  C   UNL     1      37.049   9.781  26.402  1.00  0.00     0.111 C 
BRANCH  10  11
ATOM     11  C   UNL     1      37.974  10.142  27.534  1.00  0.00     0.163 C 
ATOM     12  O   UNL     1      37.564  10.962  28.398  1.00  0.00    -0.294 OA
BRANCH  11  13
ATOM     13  C   UNL     1      39.322   9.518  27.698  1.00  0.00    -0.002 C 
ATOM     14  C   UNL     1      40.434  10.106  27.163  1.00  0.00    -0.069 C 
ATOM     15  C   UNL     1      41.827   9.588  27.443  1.00  0.00     0.039 C 
ATOM     16  C   UNL     1      40.324  11.315  26.259  1.00  0.00     0.039 C 
BRANCH  13  17
ATOM     17  C   UNL     1      39.410   8.266  28.556  1.00  0.00     0.066 CG0
ATOM     18  G   UNL     1      39.769   7.036  27.747  1.00  0.00     0.000 G0
ENDBRANCH  13  17
ENDBRANCH  11  13
ENDBRANCH  10  11
ENDBRANCH   1  10
TORSDOF 0
ENDMDL
MODEL 3
REMARK VINA RESULT:    -4.074      1.929      4.881
REMARK INTER + INTRA:          -5.402
REMARK INTER:                  -5.767
REMARK INTRA:                   0.365
REMARK UNBOUND:                 0.339
REMARK SMILES CC1=CCC(=C(C)C)C(=O)CC(C)=CCC1
REMARK SMILES IDX 12 1 14 2 13 3 15 4 16 5 2 6 1 7 3 8 11 10 9 11 10 12 5 13
REMARK SMILES IDX 6 14 7 15 8 16 4 17
REMARK H PARENT
REMARK Flexibility Score: 60.00
ROOT
ATOM      1  C   UNL     1      37.702   8.714  25.195  1.00  0.00    -0.070 C 
ATOM      2  C   UNL     1      39.025   8.989  25.230  1.00  0.00    -0.027 C 
ATOM      3  C   UNL     1      36.862   9.415  24.159  1.00  0.00     0.039 C 
ENDROOT
BRANCH   2   4
ATOM      4  C   UNL     1      40.043   8.321  26.127  1.00  0.00     0.032 C 
BRANCH   4   5
ATOM      5  C   UNL     1      40.537   9.185  27.305  1.00  0.00     0.034 C 
BRANCH   5   6
ATOM      6  C   UNL     1      40.007  10.608  27.264  1.00  0.00    -0.077 C 
ATOM      7  C   UNL     1      40.773  11.617  26.445  1.00  0.00     0.039 C 
ATOM      8  C   UNL     1      38.859  11.013  27.858  1.00  0.00    -0.023 CG0
ATOM      9  G   UNL     1      37.944  10.186  28.739  1.00  0.00     0.000 G0
ENDBRANCH   5   6
ENDBRANCH   4   5
ENDBRANCH   2   4
BRANCH   1  10
ATOM     10  C   UNL     1      37.047   7.672  26.079  1.00  0.00     0.111 C 
BRANCH  10  11
ATOM     11  C   UNL     1      37.054   8.087  27.526  1.00  0.00     0.163 C 
ATOM     12  O   UNL     1      37.320   7.213  28.394  1.00  0.00    -0.294 OA
BRANCH  11  13
ATOM     13  C   UNL     1      36.822   9.499  27.956  1.00  0.00    -0.002 C 
ATOM     14  C   UNL     1      35.624  10.114  27.720  1.00  0.00    -0.069 C 
ATOM     15  C   UNL     1      35.302  11.482  28.279  1.00  0.00     0.039 C 
ATOM     16  C   UNL     1      34.553   9.449  26.882  1.00  0.00     0.039 C 
BRANCH  13  17
ATOM     17  C   UNL     1      37.932  10.178  28.743  1.00  0.00     0.066 CG0
ATOM     18  G   UNL     1      38.848  10.998  27.857  1.00  0.00     0.000 G0
ENDBRANCH  13  17
ENDBRANCH  11  13
ENDBRANCH  10  11
ENDBRANCH   1  10
TORSDOF 0
ENDMDL
MODEL 4
REMARK VINA RESULT:    -3.974      1.859      4.868
REMARK INTER + INTRA:          -5.262
REMARK INTER:                  -5.915
REMARK INTRA:                   0.653
REMARK UNBOUND:                 0.339
REMARK SMILES CC1=CCC(=C(C)C)C(=O)CC(C)=CCC1
REMARK SMILES IDX 12 1 14 2 13 3 15 4 16 5 2 6 1 7 3 8 11 10 9 11 10 12 5 13
REMARK SMILES IDX 6 14 7 15 8 16 4 17
REMARK H PARENT
REMARK Flexibility Score: 60.00
ROOT
ATOM      1  C   UNL     1      38.268   7.219  26.936  1.00  0.00    -0.070 C 
ATOM      2  C   UNL     1      39.441   7.296  27.602  1.00  0.00    -0.027 C 
ATOM      3  C   UNL     1      37.067   6.692  27.679  1.00  0.00     0.039 C 
ENDROOT
BRANCH   2   4
ATOM      4  C   UNL     1      40.727   7.883  27.063  1.00  0.00     0.032 C 
BRANCH   4   5
ATOM      5  C   UNL     1      41.125   9.244  27.672  1.00  0.00     0.034 C 
BRANCH   5   6
ATOM      6  C   UNL     1      40.730  10.424  26.803  1.00  0.00    -0.077 C 
ATOM      7  C   UNL     1      41.783  11.010  25.895  1.00  0.00     0.039 C 
ATOM      8  C   UNL     1      39.480  10.942  26.739  1.00  0.00    -0.023 CG0
ATOM      9  G   UNL     1      38.277  10.531  27.565  1.00  0.00     0.000 G0
ENDBRANCH   5   6
ENDBRANCH   4   5
ENDBRANCH   2   4
BRANCH   1  10
ATOM     10  C   UNL     1      38.084   7.719  25.518  1.00  0.00     0.111 C 
BRANCH  10  11
ATOM     11  C   UNL     1      37.618   9.151  25.490  1.00  0.00     0.163 C 
ATOM     12  O   UNL     1      37.548   9.731  24.373  1.00  0.00    -0.294 OA
BRANCH  11  13
ATOM     13  C   UNL     1      37.180   9.875  26.721  1.00  0.00    -0.002 C 
ATOM     14  C   UNL     1      35.868   9.868  27.107  1.00  0.00    -0.069 C 
ATOM     15  C   UNL     1      35.419  10.455  28.427  1.00  0.00     0.039 C 
ATOM     16  C   UNL     1      34.795   9.265  26.227  1.00  0.00     0.039 C 
BRANCH  13  17
ATOM     17  C   UNL     1      38.262  10.532  27.564  1.00  0.00     0.066 CG0
ATOM     18  G   UNL     1      39.469  10.934  26.741  1.00  0.00     0.000 G0
ENDBRANCH  13  17
ENDBRANCH  11  13
ENDBRANCH  10  11
ENDBRANCH   1  10
TORSDOF 0
ENDMDL
MODEL 5
REMARK VINA RESULT:    -3.972      1.880      4.790
REMARK INTER + INTRA:          -5.258
REMARK INTER:                  -5.450
REMARK INTRA:                   0.192
REMARK UNBOUND:                 0.339
REMARK SMILES CC1=CCC(=C(C)C)C(=O)CC(C)=CCC1
REMARK SMILES IDX 12 1 14 2 13 3 15 4 16 5 2 6 1 7 3 8 11 10 9 11 10 12 5 13
REMARK SMILES IDX 6 14 7 15 8 16 4 17
REMARK H PARENT
REMARK Flexibility Score: 60.00
ROOT
ATOM      1  C   UNL     1      36.767   6.319  26.137  1.00  0.00    -0.070 C 
ATOM      2  C   UNL     1      38.055   5.913  26.105  1.00  0.00    -0.027 C 
ATOM      3  C   UNL     1      35.787   5.631  25.221  1.00  0.00     0.039 C 
ENDROOT
BRANCH   2   4
ATOM      4  C   UNL     1      39.161   6.411  27.009  1.00  0.00     0.032 C 
BRANCH   4   5
ATOM      5  C   UNL     1      39.725   7.799  26.641  1.00  0.00     0.034 C 
BRANCH   5   6
ATOM      6  C   UNL     1      39.724   8.771  27.807  1.00  0.00    -0.077 C 
ATOM      7  C   UNL     1      40.653   8.484  28.961  1.00  0.00     0.039 C 
ATOM      8  C   UNL     1      38.996   9.913  27.849  1.00  0.00    -0.023 CG0
ATOM      9  G   UNL     1      37.989  10.394  26.823  1.00  0.00     0.000 G0
ENDBRANCH   5   6
ENDBRANCH   4   5
ENDBRANCH   2   4
BRANCH   1  10
ATOM     10  C   UNL     1      36.247   7.360  27.108  1.00  0.00     0.111 C 
BRANCH  10  11
ATOM     11  C   UNL     1      36.094   8.706  26.451  1.00  0.00     0.163 C 
ATOM     12  O   UNL     1      35.498   8.761  25.342  1.00  0.00    -0.294 OA
BRANCH  11  13
ATOM     13  C   UNL     1      36.565   9.969  27.094  1.00  0.00    -0.002 C 
ATOM     14  C   UNL     1      35.760  10.653  27.963  1.00  0.00    -0.069 C 
ATOM     15  C   UNL     1      36.260  11.844  28.750  1.00  0.00     0.039 C 
ATOM     16  C   UNL     1      34.319  10.245  28.183  1.00  0.00     0.039 C 
BRANCH  13  17
ATOM     17  C   UNL     1      37.995  10.402  26.814  1.00  0.00     0.066 CG0
ATOM     18  G   UNL     1      38.964   9.903  27.867  1.00  0.00     0.000 G0
ENDBRANCH  13  17
ENDBRANCH  11  13
ENDBRANCH  10  11
ENDBRANCH   1  10
TORSDOF 0
ENDMDL
MODEL 6
REMARK VINA RESULT:    -3.954      1.583      3.645
REMARK INTER + INTRA:          -5.232
REMARK INTER:                  -5.759
REMARK INTRA:                   0.527
REMARK UNBOUND:                 0.339
REMARK SMILES CC1=CCC(=C(C)C)C(=O)CC(C)=CCC1
REMARK SMILES IDX 12 1 14 2 13 3 15 4 16 5 2 6 1 7 3 8 11 10 9 11 10 12 5 13
REMARK SMILES IDX 6 14 7 15 8 16 4 17
REMARK H PARENT
REMARK Flexibility Score: 60.00
ROOT
ATOM      1  C   UNL     1      36.265   8.175  25.710  1.00  0.00    -0.070 C 
ATOM      2  C   UNL     1      35.184   8.407  26.487  1.00  0.00    -0.027 C 
ATOM      3  C   UNL     1      36.574   6.746  25.341  1.00  0.00     0.039 C 
ENDROOT
BRANCH   2   4
ATOM      4  C   UNL     1      34.658   9.770  26.883  1.00  0.00     0.032 C 
BRANCH   4   5
ATOM      5  C   UNL     1      34.930  10.170  28.348  1.00  0.00     0.034 C 
BRANCH   5   6
ATOM      6  C   UNL     1      36.111  11.111  28.500  1.00  0.00    -0.077 C 
ATOM      7  C   UNL     1      35.826  12.591  28.557  1.00  0.00     0.039 C 
ATOM      8  C   UNL     1      37.395  10.707  28.656  1.00  0.00    -0.023 CG0
ATOM      9  G   UNL     1      37.917   9.285  28.613  1.00  0.00     0.000 G0
ENDBRANCH   5   6
ENDBRANCH   4   5
ENDBRANCH   2   4
BRANCH   1  10
ATOM     10  C   UNL     1      37.118   9.278  25.120  1.00  0.00     0.111 C 
BRANCH  10  11
ATOM     11  C   UNL     1      38.173   9.744  26.088  1.00  0.00     0.163 C 
ATOM     12  O   UNL     1      38.686  10.880  25.907  1.00  0.00    -0.294 OA
BRANCH  11  13
ATOM     13  C   UNL     1      38.579   8.938  27.278  1.00  0.00    -0.002 C 
ATOM     14  C   UNL     1      39.564   7.993  27.180  1.00  0.00    -0.069 C 
ATOM     15  C   UNL     1      40.107   7.274  28.395  1.00  0.00     0.039 C 
ATOM     16  C   UNL     1      40.163   7.622  25.842  1.00  0.00     0.039 C 
BRANCH  13  17
ATOM     17  C   UNL     1      37.923   9.278  28.607  1.00  0.00     0.066 CG0
ATOM     18  G   UNL     1      37.410  10.704  28.647  1.00  0.00     0.000 G0
ENDBRANCH  13  17
ENDBRANCH  11  13
ENDBRANCH  10  11
ENDBRANCH   1  10
TORSDOF 0
ENDMDL
MODEL 7
REMARK VINA RESULT:    -3.918      1.741      3.734
REMARK INTER + INTRA:          -5.182
REMARK INTER:                  -5.335
REMARK INTRA:                   0.153
REMARK UNBOUND:                 0.339
REMARK SMILES CC1=CCC(=C(C)C)C(=O)CC(C)=CCC1
REMARK SMILES IDX 12 1 14 2 13 3 15 4 16 5 2 6 1 7 3 8 11 10 9 11 10 12 5 13
REMARK SMILES IDX 6 14 7 15 8 16 4 17
REMARK H PARENT
REMARK Flexibility Score: 60.00
ROOT
ATOM      1  C   UNL     1      35.549   9.733  27.693  1.00  0.00    -0.070 C 
ATOM      2  C   UNL     1      36.395  10.650  28.211  1.00  0.00    -0.027 C 
ATOM      3  C   UNL     1      34.169  10.192  27.294  1.00  0.00     0.039 C 
ENDROOT
BRANCH   2   4
ATOM      4  C   UNL     1      37.843  10.408  28.580  1.00  0.00     0.032 C 
BRANCH   4   5
ATOM      5  C   UNL     1      38.860  10.748  27.471  1.00  0.00     0.034 C 
BRANCH   5   6
ATOM      6  C   UNL     1      39.859   9.634  27.216  1.00  0.00    -0.077 C 
ATOM      7  C   UNL     1      41.036   9.520  28.154  1.00  0.00     0.039 C 
ATOM      8  C   UNL     1      39.729   8.697  26.246  1.00  0.00    -0.023 CG0
ATOM      9  G   UNL     1      38.649   8.625  25.186  1.00  0.00     0.000 G0
ENDBRANCH   5   6
ENDBRANCH   4   5
ENDBRANCH   2   4
BRANCH   1  10
ATOM     10  C   UNL     1      35.948   8.299  27.411  1.00  0.00     0.111 C 
BRANCH  10  11
ATOM     11  C   UNL     1      36.258   8.085  25.953  1.00  0.00     0.163 C 
ATOM     12  O   UNL     1      35.378   8.399  25.107  1.00  0.00    -0.294 OA
BRANCH  11  13
ATOM     13  C   UNL     1      37.582   7.580  25.481  1.00  0.00    -0.002 C 
ATOM     14  C   UNL     1      37.780   6.246  25.253  1.00  0.00    -0.069 C 
ATOM     15  C   UNL     1      39.053   5.722  24.626  1.00  0.00     0.039 C 
ATOM     16  C   UNL     1      36.726   5.223  25.616  1.00  0.00     0.039 C 
BRANCH  13  17
ATOM     17  C   UNL     1      38.655   8.614  25.179  1.00  0.00     0.066 CG0
ATOM     18  G   UNL     1      39.713   8.679  26.262  1.00  0.00     0.000 G0
ENDBRANCH  13  17
ENDBRANCH  11  13
ENDBRANCH  10  11
ENDBRANCH   1  10
TORSDOF 0
ENDMDL
MODEL 8
REMARK VINA RESULT:    -3.900      1.663      4.176
REMARK INTER + INTRA:          -5.157
REMARK INTER:                  -5.556
REMARK INTRA:                   0.399
REMARK UNBOUND:                 0.339
REMARK SMILES CC1=CCC(=C(C)C)C(=O)CC(C)=CCC1
REMARK SMILES IDX 12 1 14 2 13 3 15 4 16 5 2 6 1 7 3 8 11 10 9 11 10 12 5 13
REMARK SMILES IDX 6 14 7 15 8 16 4 17
REMARK H PARENT
REMARK Flexibility Score: 60.00
ROOT
ATOM      1  C   UNL     1      38.438   7.924  28.408  1.00  0.00    -0.070 C 
ATOM      2  C   UNL     1      39.788   7.900  28.376  1.00  0.00    -0.027 C 
ATOM      3  C   UNL     1      37.702   6.641  28.113  1.00  0.00     0.039 C 
ENDROOT
BRANCH   2   4
ATOM      4  C   UNL     1      40.701   9.053  28.736  1.00  0.00     0.032 C 
BRANCH   4   5
ATOM      5  C   UNL     1      41.385   9.737  27.534  1.00  0.00     0.034 C 
BRANCH   5   6
ATOM      6  C   UNL     1      41.088   9.055  26.210  1.00  0.00    -0.077 C 
ATOM      7  C   UNL     1      41.962   7.892  25.810  1.00  0.00     0.039 C 
ATOM      8  C   UNL     1      40.052   9.377  25.399  1.00  0.00    -0.023 CG0
ATOM      9  G   UNL     1      39.063  10.511  25.586  1.00  0.00     0.000 G0
ENDBRANCH   5   6
ENDBRANCH   4   5
ENDBRANCH   2   4
BRANCH   1  10
ATOM     10  C   UNL     1      37.637   9.144  28.814  1.00  0.00     0.111 C 
BRANCH  10  11
ATOM     11  C   UNL     1      37.823  10.280  27.843  1.00  0.00     0.163 C 
ATOM     12  O   UNL     1      38.042  11.430  28.309  1.00  0.00    -0.294 OA
BRANCH  11  13
ATOM     13  C   UNL     1      37.820  10.077  26.363  1.00  0.00    -0.002 C 
ATOM     14  C   UNL     1      36.710   9.598  25.725  1.00  0.00    -0.069 C 
ATOM     15  C   UNL     1      36.619   9.531  24.217  1.00  0.00     0.039 C 
ATOM     16  C   UNL     1      35.507   9.111  26.504  1.00  0.00     0.039 C 
BRANCH  13  17
ATOM     17  C   UNL     1      39.060  10.512  25.598  1.00  0.00     0.066 CG0
ATOM     18  G   UNL     1      40.038   9.373  25.391  1.00  0.00     0.000 G0
ENDBRANCH  13  17
ENDBRANCH  11  13
ENDBRANCH  10  11
ENDBRANCH   1  10
TORSDOF 0
ENDMDL
MODEL 9
REMARK VINA RESULT:    -3.805      1.803      3.399
REMARK INTER + INTRA:          -5.023
REMARK INTER:                  -5.607
REMARK INTRA:                   0.584
REMARK UNBOUND:                 0.339
REMARK SMILES CC1=CCC(=C(C)C)C(=O)CC(C)=CCC1
REMARK SMILES IDX 12 1 14 2 13 3 15 4 16 5 2 6 1 7 3 8 11 10 9 11 10 12 5 13
REMARK SMILES IDX 6 14 7 15 8 16 4 17
REMARK H PARENT
REMARK Flexibility Score: 60.00
ROOT
ATOM      1  C   UNL     1      37.713   6.502  26.158  1.00  0.00    -0.070 C 
ATOM      2  C   UNL     1      36.536   6.876  25.610  1.00  0.00    -0.027 C 
ATOM      3  C   UNL     1      38.832   6.109  25.227  1.00  0.00     0.039 C 
ENDROOT
BRANCH   2   4
ATOM      4  C   UNL     1      35.333   7.393  26.368  1.00  0.00     0.032 C 
BRANCH   4   5
ATOM      5  C   UNL     1      35.001   8.879  26.121  1.00  0.00     0.034 C 
BRANCH   5   6
ATOM      6  C   UNL     1      35.500   9.793  27.226  1.00  0.00    -0.077 C 
ATOM      7  C   UNL     1      34.500  10.262  28.254  1.00  0.00     0.039 C 
ATOM      8  C   UNL     1      36.794  10.160  27.388  1.00  0.00    -0.023 CG0
ATOM      9  G   UNL     1      37.959   9.829  26.477  1.00  0.00     0.000 G0
ENDBRANCH   5   6
ENDBRANCH   4   5
ENDBRANCH   2   4
BRANCH   1  10
ATOM     10  C   UNL     1      37.989   6.549  27.647  1.00  0.00     0.111 C 
BRANCH  10  11
ATOM     11  C   UNL     1      38.478   7.905  28.080  1.00  0.00     0.163 C 
ATOM     12  O   UNL     1      38.503   8.163  29.313  1.00  0.00    -0.294 OA
BRANCH  11  13
ATOM     13  C   UNL     1      38.990   8.919  27.109  1.00  0.00    -0.002 C 
ATOM     14  C   UNL     1      40.311   8.945  26.756  1.00  0.00    -0.069 C 
ATOM     15  C   UNL     1      40.830   9.852  25.663  1.00  0.00     0.039 C 
ATOM     16  C   UNL     1      41.324   8.058  27.447  1.00  0.00     0.039 C 
BRANCH  13  17
ATOM     17  C   UNL     1      37.970   9.847  26.469  1.00  0.00     0.066 CG0
ATOM     18  G   UNL     1      36.805  10.147  27.392  1.00  0.00     0.000 G0
ENDBRANCH  13  17
ENDBRANCH  11  13
ENDBRANCH  10  11
ENDBRANCH   1  10
TORSDOF 0
ENDMDL
