MODEL 1
REMARK VINA RESULT:    -4.506      0.000      0.000
REMARK INTER + INTRA:          -5.311
REMARK INTER:                  -5.428
REMARK INTRA:                   0.117
REMARK UNBOUND:                 0.117
REMARK SMILES CC[C@H](C)[C@H]([NH3+])C(=O)[O-]
REMARK SMILES IDX 3 1 4 2 5 3 6 4 7 8 8 9 9 10 2 11 1 12
REMARK H PARENT 6 5 6 6 6 7
REMARK Flexibility Score: inf
ROOT
ATOM      1  C   UNL     1       3.086  -2.800   5.125  1.00  0.00     0.050 C 
ATOM      2  C   UNL     1       2.922  -2.589   6.644  1.00  0.00     0.014 C 
ENDROOT
BRANCH   1   3
ATOM      3  C   UNL     1       3.759  -4.174   4.810  1.00  0.00     0.230 C 
BRANCH   3   4
ATOM      4  N   UNL     1       2.909  -5.306   5.209  1.00  0.00    -0.350 N 
ATOM      5  H   UNL     1       2.213  -5.515   4.455  1.00  0.00     0.345 HD
ATOM      6  H   UNL     1       3.487  -6.160   5.384  1.00  0.00     0.345 HD
ATOM      7  H   UNL     1       2.367  -5.068   6.070  1.00  0.00     0.345 HD
ENDBRANCH   3   4
BRANCH   3   8
ATOM      8  C   UNL     1       5.097  -4.284   5.501  1.00  0.00     0.099 C 
ATOM      9  O   UNL     1       5.192  -4.855   6.619  1.00  0.00    -0.544 OA
ATOM     10  O   UNL     1       6.231  -3.741   4.909  1.00  0.00    -0.544 OA
ENDBRANCH   3   8
ENDBRANCH   1   3
BRANCH   1  11
ATOM     11  C   UNL     1       3.801  -1.585   4.478  1.00  0.00     0.006 C 
ATOM     12  C   UNL     1       3.133  -1.057   3.205  1.00  0.00     0.004 C 
ENDBRANCH   1  11
TORSDOF 4
ENDMDL
MODEL 2
REMARK VINA RESULT:    -4.473      0.081      1.081
REMARK INTER + INTRA:          -5.271
REMARK INTER:                  -5.365
REMARK INTRA:                   0.094
REMARK UNBOUND:                 0.117
REMARK SMILES CC[C@H](C)[C@H]([NH3+])C(=O)[O-]
REMARK SMILES IDX 3 1 4 2 5 3 6 4 7 8 8 9 9 10 2 11 1 12
REMARK H PARENT 6 5 6 6 6 7
REMARK Flexibility Score: inf
ROOT
ATOM      1  C   UNL     1       3.116  -2.765   5.070  1.00  0.00     0.050 C 
ATOM      2  C   UNL     1       2.963  -2.555   6.589  1.00  0.00     0.014 C 
ENDROOT
BRANCH   1   3
ATOM      3  C   UNL     1       3.794  -4.135   4.748  1.00  0.00     0.230 C 
BRANCH   3   4
ATOM      4  N   UNL     1       2.959  -5.272   5.164  1.00  0.00    -0.350 N 
ATOM      5  H   UNL     1       3.426  -5.796   5.942  1.00  0.00     0.345 HD
ATOM      6  H   UNL     1       2.021  -4.943   5.490  1.00  0.00     0.345 HD
ATOM      7  H   UNL     1       2.838  -5.943   4.372  1.00  0.00     0.345 HD
ENDBRANCH   3   4
BRANCH   3   8
ATOM      8  C   UNL     1       5.144  -4.233   5.419  1.00  0.00     0.099 C 
ATOM      9  O   UNL     1       6.163  -3.728   4.878  1.00  0.00    -0.544 OA
ATOM     10  O   UNL     1       5.268  -4.897   6.634  1.00  0.00    -0.544 OA
ENDBRANCH   3   8
ENDBRANCH   1   3
BRANCH   1  11
ATOM     11  C   UNL     1       3.820  -1.546   4.417  1.00  0.00     0.006 C 
ATOM     12  C   UNL     1       3.111  -0.989   3.178  1.00  0.00     0.004 C 
ENDBRANCH   1  11
TORSDOF 4
ENDMDL
MODEL 3
REMARK VINA RESULT:    -4.379      0.600      2.052
REMARK INTER + INTRA:          -5.157
REMARK INTER:                  -5.034
REMARK INTRA:                  -0.124
REMARK UNBOUND:                 0.117
REMARK SMILES CC[C@H](C)[C@H]([NH3+])C(=O)[O-]
REMARK SMILES IDX 3 1 4 2 5 3 6 4 7 8 8 9 9 10 2 11 1 12
REMARK H PARENT 6 5 6 6 6 7
REMARK Flexibility Score: inf
ROOT
ATOM      1  C   UNL     1       3.657  -2.538   5.186  1.00  0.00     0.050 C 
ATOM      2  C   UNL     1       3.297  -1.639   3.985  1.00  0.00     0.014 C 
ENDROOT
BRANCH   1   3
ATOM      3  C   UNL     1       4.167  -3.938   4.718  1.00  0.00     0.230 C 
BRANCH   3   4
ATOM      4  N   UNL     1       3.160  -4.989   4.934  1.00  0.00    -0.350 N 
ATOM      5  H   UNL     1       3.168  -5.663   4.133  1.00  0.00     0.345 HD
ATOM      6  H   UNL     1       3.352  -5.510   5.821  1.00  0.00     0.345 HD
ATOM      7  H   UNL     1       2.203  -4.571   4.974  1.00  0.00     0.345 HD
ENDBRANCH   3   4
BRANCH   3   8
ATOM      8  C   UNL     1       5.441  -4.310   5.438  1.00  0.00     0.099 C 
ATOM      9  O   UNL     1       5.403  -5.021   6.476  1.00  0.00    -0.544 OA
ATOM     10  O   UNL     1       6.665  -3.854   4.962  1.00  0.00    -0.544 OA
ENDBRANCH   3   8
ENDBRANCH   1   3
BRANCH   1  11
ATOM     11  C   UNL     1       2.479  -2.601   6.194  1.00  0.00     0.006 C 
ATOM     12  C   UNL     1       2.901  -2.754   7.658  1.00  0.00     0.004 C 
ENDBRANCH   1  11
TORSDOF 4
ENDMDL
MODEL 4
REMARK VINA RESULT:    -4.240      1.659      1.810
REMARK INTER + INTRA:          -4.990
REMARK INTER:                  -5.018
REMARK INTRA:                   0.028
REMARK UNBOUND:                 0.117
REMARK SMILES CC[C@H](C)[C@H]([NH3+])C(=O)[O-]
REMARK SMILES IDX 3 1 4 2 5 3 6 4 7 8 8 9 9 10 2 11 1 12
REMARK H PARENT 6 5 6 6 6 7
REMARK Flexibility Score: inf
ROOT
ATOM      1  C   UNL     1       3.412  -2.832   5.141  1.00  0.00     0.050 C 
ATOM      2  C   UNL     1       2.320  -2.662   6.216  1.00  0.00     0.014 C 
ENDROOT
BRANCH   1   3
ATOM      3  C   UNL     1       4.633  -3.635   5.691  1.00  0.00     0.230 C 
BRANCH   3   4
ATOM      4  N   UNL     1       5.784  -3.578   4.776  1.00  0.00    -0.350 N 
ATOM      5  H   UNL     1       6.676  -3.551   5.323  1.00  0.00     0.345 HD
ATOM      6  H   UNL     1       5.797  -4.411   4.143  1.00  0.00     0.345 HD
ATOM      7  H   UNL     1       5.750  -2.705   4.203  1.00  0.00     0.345 HD
ENDBRANCH   3   4
BRANCH   3   8
ATOM      8  C   UNL     1       4.258  -5.077   5.934  1.00  0.00     0.099 C 
ATOM      9  O   UNL     1       4.927  -5.785   6.732  1.00  0.00    -0.544 OA
ATOM     10  O   UNL     1       3.176  -5.635   5.263  1.00  0.00    -0.544 OA
ENDBRANCH   3   8
ENDBRANCH   1   3
BRANCH   1  11
ATOM     11  C   UNL     1       3.789  -1.460   4.522  1.00  0.00     0.006 C 
ATOM     12  C   UNL     1       3.074  -1.136   3.206  1.00  0.00     0.004 C 
ENDBRANCH   1  11
TORSDOF 4
ENDMDL
MODEL 5
REMARK VINA RESULT:    -4.202      2.838      3.125
REMARK INTER + INTRA:          -4.944
REMARK INTER:                  -4.867
REMARK INTRA:                  -0.078
REMARK UNBOUND:                 0.117
REMARK SMILES CC[C@H](C)[C@H]([NH3+])C(=O)[O-]
REMARK SMILES IDX 3 1 4 2 5 3 6 4 7 8 8 9 9 10 2 11 1 12
REMARK H PARENT 6 5 6 6 6 7
REMARK Flexibility Score: inf
ROOT
ATOM      1  C   UNL     1       2.770  -2.940   5.652  1.00  0.00     0.050 C 
ATOM      2  C   UNL     1       3.649  -2.167   6.656  1.00  0.00     0.014 C 
ENDROOT
BRANCH   1   3
ATOM      3  C   UNL     1       2.532  -4.412   6.117  1.00  0.00     0.230 C 
BRANCH   3   4
ATOM      4  N   UNL     1       2.896  -5.382   5.072  1.00  0.00    -0.350 N 
ATOM      5  H   UNL     1       3.575  -4.951   4.403  1.00  0.00     0.345 HD
ATOM      6  H   UNL     1       3.328  -6.236   5.494  1.00  0.00     0.345 HD
ATOM      7  H   UNL     1       2.052  -5.654   4.520  1.00  0.00     0.345 HD
ENDBRANCH   3   4
BRANCH   3   8
ATOM      8  C   UNL     1       1.091  -4.620   6.514  1.00  0.00     0.099 C 
ATOM      9  O   UNL     1       0.384  -3.646   6.884  1.00  0.00    -0.544 OA
ATOM     10  O   UNL     1       0.541  -5.896   6.487  1.00  0.00    -0.544 OA
ENDBRANCH   3   8
ENDBRANCH   1   3
BRANCH   1  11
ATOM     11  C   UNL     1       3.344  -2.818   4.216  1.00  0.00     0.006 C 
ATOM     12  C   UNL     1       3.352  -1.394   3.651  1.00  0.00     0.004 C 
ENDBRANCH   1  11
TORSDOF 4
ENDMDL
MODEL 6
REMARK VINA RESULT:    -4.075     13.107     13.979
REMARK INTER + INTRA:          -4.791
REMARK INTER:                  -4.696
REMARK INTRA:                  -0.095
REMARK UNBOUND:                 0.117
REMARK SMILES CC[C@H](C)[C@H]([NH3+])C(=O)[O-]
REMARK SMILES IDX 3 1 4 2 5 3 6 4 7 8 8 9 9 10 2 11 1 12
REMARK H PARENT 6 5 6 6 6 7
REMARK Flexibility Score: inf
ROOT
ATOM      1  C   UNL     1       6.861  -1.722  -8.226  1.00  0.00     0.050 C 
ATOM      2  C   UNL     1       8.076  -1.067  -7.538  1.00  0.00     0.014 C 
ENDROOT
BRANCH   1   3
ATOM      3  C   UNL     1       6.275  -2.885  -7.364  1.00  0.00     0.230 C 
BRANCH   3   4
ATOM      4  N   UNL     1       7.213  -4.013  -7.254  1.00  0.00    -0.350 N 
ATOM      5  H   UNL     1       7.283  -4.326  -6.257  1.00  0.00     0.345 HD
ATOM      6  H   UNL     1       6.895  -4.817  -7.843  1.00  0.00     0.345 HD
ATOM      7  H   UNL     1       8.170  -3.719  -7.551  1.00  0.00     0.345 HD
ENDBRANCH   3   4
BRANCH   3   8
ATOM      8  C   UNL     1       4.969  -3.373  -7.943  1.00  0.00     0.099 C 
ATOM      9  O   UNL     1       4.845  -4.569  -8.317  1.00  0.00    -0.544 OA
ATOM     10  O   UNL     1       3.900  -2.496  -8.079  1.00  0.00    -0.544 OA
ENDBRANCH   3   8
ENDBRANCH   1   3
BRANCH   1  11
ATOM     11  C   UNL     1       7.212  -2.132  -9.681  1.00  0.00     0.006 C 
ATOM     12  C   UNL     1       7.517  -0.959 -10.618  1.00  0.00     0.004 C 
ENDBRANCH   1  11
TORSDOF 4
ENDMDL
MODEL 7
REMARK VINA RESULT:    -4.038     13.167     14.178
REMARK INTER + INTRA:          -4.746
REMARK INTER:                  -4.598
REMARK INTRA:                  -0.148
REMARK UNBOUND:                 0.117
REMARK SMILES CC[C@H](C)[C@H]([NH3+])C(=O)[O-]
REMARK SMILES IDX 3 1 4 2 5 3 6 4 7 8 8 9 9 10 2 11 1 12
REMARK H PARENT 6 5 6 6 6 7
REMARK Flexibility Score: inf
ROOT
ATOM      1  C   UNL     1       6.758  -2.499  -9.075  1.00  0.00     0.050 C 
ATOM      2  C   UNL     1       7.497  -1.158  -9.254  1.00  0.00     0.014 C 
ENDROOT
BRANCH   1   3
ATOM      3  C   UNL     1       5.953  -2.533  -7.737  1.00  0.00     0.230 C 
BRANCH   3   4
ATOM      4  N   UNL     1       6.679  -3.250  -6.678  1.00  0.00    -0.350 N 
ATOM      5  H   UNL     1       6.623  -4.283  -6.839  1.00  0.00     0.345 HD
ATOM      6  H   UNL     1       7.685  -2.962  -6.658  1.00  0.00     0.345 HD
ATOM      7  H   UNL     1       6.244  -3.061  -5.747  1.00  0.00     0.345 HD
ENDBRANCH   3   4
BRANCH   3   8
ATOM      8  C   UNL     1       4.603  -3.177  -7.943  1.00  0.00     0.099 C 
ATOM      9  O   UNL     1       4.493  -4.431  -7.982  1.00  0.00    -0.544 OA
ATOM     10  O   UNL     1       3.473  -2.384  -8.103  1.00  0.00    -0.544 OA
ENDBRANCH   3   8
ENDBRANCH   1   3
BRANCH   1  11
ATOM     11  C   UNL     1       7.736  -3.690  -9.251  1.00  0.00     0.006 C 
ATOM     12  C   UNL     1       7.239  -4.789 -10.196  1.00  0.00     0.004 C 
ENDBRANCH   1  11
TORSDOF 4
ENDMDL
MODEL 8
REMARK VINA RESULT:    -4.030     12.845     13.629
REMARK INTER + INTRA:          -4.737
REMARK INTER:                  -4.580
REMARK INTRA:                  -0.157
REMARK UNBOUND:                 0.117
REMARK SMILES CC[C@H](C)[C@H]([NH3+])C(=O)[O-]
REMARK SMILES IDX 3 1 4 2 5 3 6 4 7 8 8 9 9 10 2 11 1 12
REMARK H PARENT 6 5 6 6 6 7
REMARK Flexibility Score: inf
ROOT
ATOM      1  C   UNL     1       5.744  -3.849  -8.264  1.00  0.00     0.050 C 
ATOM      2  C   UNL     1       6.010  -5.343  -8.540  1.00  0.00     0.014 C 
ENDROOT
BRANCH   1   3
ATOM      3  C   UNL     1       7.027  -3.129  -7.739  1.00  0.00     0.230 C 
BRANCH   3   4
ATOM      4  N   UNL     1       7.038  -3.028  -6.271  1.00  0.00    -0.350 N 
ATOM      5  H   UNL     1       7.495  -3.874  -5.857  1.00  0.00     0.345 HD
ATOM      6  H   UNL     1       7.557  -2.174  -5.962  1.00  0.00     0.345 HD
ATOM      7  H   UNL     1       6.061  -2.996  -5.902  1.00  0.00     0.345 HD
ENDBRANCH   3   4
BRANCH   3   8
ATOM      8  C   UNL     1       7.146  -1.748  -8.336  1.00  0.00     0.099 C 
ATOM      9  O   UNL     1       6.725  -1.518  -9.501  1.00  0.00    -0.544 OA
ATOM     10  O   UNL     1       7.737  -0.724  -7.605  1.00  0.00    -0.544 OA
ENDBRANCH   3   8
ENDBRANCH   1   3
BRANCH   1  11
ATOM     11  C   UNL     1       4.505  -3.674  -7.348  1.00  0.00     0.006 C 
ATOM     12  C   UNL     1       3.465  -2.675  -7.866  1.00  0.00     0.004 C 
ENDBRANCH   1  11
TORSDOF 4
ENDMDL
MODEL 9
REMARK VINA RESULT:    -3.975      1.992      2.455
REMARK INTER + INTRA:          -4.671
REMARK INTER:                  -4.758
REMARK INTRA:                   0.087
REMARK UNBOUND:                 0.117
REMARK SMILES CC[C@H](C)[C@H]([NH3+])C(=O)[O-]
REMARK SMILES IDX 3 1 4 2 5 3 6 4 7 8 8 9 9 10 2 11 1 12
REMARK H PARENT 6 5 6 6 6 7
REMARK Flexibility Score: inf
ROOT
ATOM      1  C   UNL     1       3.872  -2.422   5.211  1.00  0.00     0.050 C 
ATOM      2  C   UNL     1       5.115  -3.286   4.916  1.00  0.00     0.014 C 
ENDROOT
BRANCH   1   3
ATOM      3  C   UNL     1       2.978  -3.068   6.317  1.00  0.00     0.230 C 
BRANCH   3   4
ATOM      4  N   UNL     1       3.268  -2.516   7.650  1.00  0.00    -0.350 N 
ATOM      5  H   UNL     1       4.155  -1.960   7.622  1.00  0.00     0.345 HD
ATOM      6  H   UNL     1       2.489  -1.898   7.973  1.00  0.00     0.345 HD
ATOM      7  H   UNL     1       3.411  -3.288   8.339  1.00  0.00     0.345 HD
ENDBRANCH   3   4
BRANCH   3   8
ATOM      8  C   UNL     1       3.161  -4.567   6.345  1.00  0.00     0.099 C 
ATOM      9  O   UNL     1       2.616  -5.292   5.472  1.00  0.00    -0.544 OA
ATOM     10  O   UNL     1       3.925  -5.154   7.346  1.00  0.00    -0.544 OA
ENDBRANCH   3   8
ENDBRANCH   1   3
BRANCH   1  11
ATOM     11  C   UNL     1       3.112  -2.093   3.900  1.00  0.00     0.006 C 
ATOM     12  C   UNL     1       3.491  -0.752   3.263  1.00  0.00     0.004 C 
ENDBRANCH   1  11
TORSDOF 4
ENDMDL
