MODEL 1
REMARK VINA RESULT:    -7.216      0.000      0.000
REMARK INTER + INTRA:         -11.687
REMARK INTER:                 -10.801
REMARK INTRA:                  -0.886
REMARK UNBOUND:                -0.886
REMARK SMILES O=c1c(O[C@@H]2O[C@H](CO)[C@@H](O)[C@@H](O)[C@H]2O)c(-c2cc(O)c(O)c(O)c2)oc2cc(O)cc(O)c12
REMARK SMILES IDX 4 1 3 2 16 3 26 4 2 5 27 6 1 7 34 8 28 9 32 10 29 11 31 12
REMARK SMILES IDX 17 13 18 14 19 15 25 16 21 17 23 18 20 19 22 21 24 23 33 25
REMARK SMILES IDX 30 27 5 29 14 30 6 31 12 32 7 33 10 34 15 35 13 37 8 39 9 40
REMARK SMILES IDX 11 42
REMARK H PARENT 20 20 22 22 24 24 33 26 30 28 15 36 13 38 9 41 11 43
REMARK Flexibility Score: inf
ROOT
ATOM      1  O   UNL     1     -37.498   5.649  81.908  1.00  0.00    -0.454 OA
ENDROOT
BRANCH   1   2
ATOM      2  C   UNL     1     -38.318   5.104  80.905  1.00  0.00     0.214 A 
ATOM      3  C   UNL     1     -37.863   5.110  79.573  1.00  0.00     0.181 A 
ATOM      4  O   UNL     1     -38.611   4.582  78.613  1.00  0.00    -0.452 OA
ATOM      5  C   UNL     1     -39.582   4.544  81.182  1.00  0.00     0.239 A 
ATOM      6  C   UNL     1     -39.796   4.026  78.831  1.00  0.00     0.146 A 
ATOM      7  O   UNL     1     -40.048   4.632  82.346  1.00  0.00    -0.285 OA
ATOM      8  C   UNL     1     -40.330   3.943  80.141  1.00  0.00     0.111 A 
ATOM      9  C   UNL     1     -40.511   3.531  77.738  1.00  0.00     0.094 A 
ATOM     10  C   UNL     1     -41.591   3.297  80.321  1.00  0.00     0.134 A 
ATOM     11  C   UNL     1     -41.771   2.958  77.919  1.00  0.00     0.123 A 
ATOM     12  C   UNL     1     -42.303   2.848  79.203  1.00  0.00     0.093 A 
BRANCH   3  13
ATOM     13  C   UNL     1     -36.537   5.656  79.200  1.00  0.00     0.029 A 
ATOM     14  C   UNL     1     -36.377   6.999  78.822  1.00  0.00     0.062 A 
ATOM     15  C   UNL     1     -35.114   7.499  78.481  1.00  0.00     0.162 A 
ATOM     16  C   UNL     1     -35.420   4.806  79.190  1.00  0.00     0.062 A 
ATOM     17  C   UNL     1     -33.998   6.647  78.497  1.00  0.00     0.200 A 
ATOM     18  C   UNL     1     -34.154   5.300  78.846  1.00  0.00     0.162 A 
BRANCH  15  19
ATOM     19  O   UNL     1     -34.967   8.839  78.125  1.00  0.00    -0.504 OA
ATOM     20  H   UNL     1     -34.146   9.371  78.390  1.00  0.00     0.293 HD
ENDBRANCH  15  19
BRANCH  17  21
ATOM     21  O   UNL     1     -32.728   7.122  78.163  1.00  0.00    -0.502 OA
ATOM     22  H   UNL     1     -32.592   8.002  77.681  1.00  0.00     0.293 HD
ENDBRANCH  17  21
BRANCH  18  23
ATOM     23  O   UNL     1     -33.045   4.456  78.851  1.00  0.00    -0.504 OA
ATOM     24  H   UNL     1     -33.091   3.521  79.239  1.00  0.00     0.293 HD
ENDBRANCH  18  23
ENDBRANCH   3  13
BRANCH  10  25
ATOM     25  O   UNL     1     -42.168   3.047  81.570  1.00  0.00    -0.507 OA
ATOM     26  H   UNL     1     -43.161   3.008  81.747  1.00  0.00     0.293 HD
ENDBRANCH  10  25
BRANCH  11  27
ATOM     27  O   UNL     1     -42.499   2.483  76.831  1.00  0.00    -0.508 OA
ATOM     28  H   UNL     1     -43.161   3.072  76.338  1.00  0.00     0.293 HD
ENDBRANCH  11  27
ENDBRANCH   1   2
BRANCH   1  29
ATOM     29  C   UNL     1     -37.021   4.944  83.055  1.00  0.00     0.339 C 
ATOM     30  C   UNL     1     -36.083   3.809  82.623  1.00  0.00     0.214 C 
ATOM     31  O   UNL     1     -36.420   5.815  84.003  1.00  0.00    -0.332 OA
ATOM     32  C   UNL     1     -34.791   4.394  82.041  1.00  0.00     0.180 C 
ATOM     33  C   UNL     1     -35.187   6.395  83.588  1.00  0.00     0.179 C 
ATOM     34  C   UNL     1     -34.151   5.377  83.042  1.00  0.00     0.177 C 
BRANCH  30  35
ATOM     35  O   UNL     1     -35.810   2.987  83.729  1.00  0.00    -0.384 OA
ATOM     36  H   UNL     1     -34.971   2.497  83.526  1.00  0.00     0.211 HD
ENDBRANCH  30  35
BRANCH  32  37
ATOM     37  O   UNL     1     -33.899   3.355  81.724  1.00  0.00    -0.387 OA
ATOM     38  H   UNL     1     -34.410   2.507  81.802  1.00  0.00     0.211 HD
ENDBRANCH  32  37
BRANCH  33  39
ATOM     39  C   UNL     1     -35.382   7.667  82.730  1.00  0.00     0.191 C 
BRANCH  39  40
ATOM     40  O   UNL     1     -34.309   7.898  81.859  1.00  0.00    -0.394 OA
ATOM     41  H   UNL     1     -34.695   8.106  80.968  1.00  0.00     0.210 HD
ENDBRANCH  39  40
ENDBRANCH  33  39
BRANCH  34  42
ATOM     42  O   UNL     1     -33.598   4.669  84.125  1.00  0.00    -0.387 OA
ATOM     43  H   UNL     1     -33.948   3.740  84.078  1.00  0.00     0.211 HD
ENDBRANCH  34  42
ENDBRANCH   1  29
TORSDOF 13
ENDMDL
MODEL 2
REMARK VINA RESULT:    -7.081      0.467      1.503
REMARK INTER + INTRA:         -11.485
REMARK INTER:                 -10.484
REMARK INTRA:                  -1.001
REMARK UNBOUND:                -0.886
REMARK SMILES O=c1c(O[C@@H]2O[C@H](CO)[C@@H](O)[C@@H](O)[C@H]2O)c(-c2cc(O)c(O)c(O)c2)oc2cc(O)cc(O)c12
REMARK SMILES IDX 4 1 3 2 16 3 26 4 2 5 27 6 1 7 34 8 28 9 32 10 29 11 31 12
REMARK SMILES IDX 17 13 18 14 19 15 25 16 21 17 23 18 20 19 22 21 24 23 33 25
REMARK SMILES IDX 30 27 5 29 14 30 6 31 12 32 7 33 10 34 15 35 13 37 8 39 9 40
REMARK SMILES IDX 11 42
REMARK H PARENT 20 20 22 22 24 24 33 26 30 28 15 36 13 38 9 41 11 43
REMARK Flexibility Score: inf
ROOT
ATOM      1  O   UNL     1     -37.687   5.598  81.557  1.00  0.00    -0.454 OA
ENDROOT
BRANCH   1   2
ATOM      2  C   UNL     1     -38.488   5.034  80.550  1.00  0.00     0.214 A 
ATOM      3  C   UNL     1     -38.048   5.092  79.215  1.00  0.00     0.181 A 
ATOM      4  O   UNL     1     -38.778   4.548  78.249  1.00  0.00    -0.452 OA
ATOM      5  C   UNL     1     -39.719   4.405  80.826  1.00  0.00     0.239 A 
ATOM      6  C   UNL     1     -39.931   3.929  78.466  1.00  0.00     0.146 A 
ATOM      7  O   UNL     1     -40.177   4.444  81.996  1.00  0.00    -0.285 OA
ATOM      8  C   UNL     1     -40.447   3.790  79.779  1.00  0.00     0.111 A 
ATOM      9  C   UNL     1     -40.632   3.423  77.368  1.00  0.00     0.094 A 
ATOM     10  C   UNL     1     -41.672   3.078  79.956  1.00  0.00     0.134 A 
ATOM     11  C   UNL     1     -41.860   2.783  77.549  1.00  0.00     0.123 A 
ATOM     12  C   UNL     1     -42.372   2.618  78.834  1.00  0.00     0.093 A 
BRANCH   3  13
ATOM     13  C   UNL     1     -36.755   5.713  78.842  1.00  0.00     0.029 A 
ATOM     14  C   UNL     1     -35.541   5.024  78.993  1.00  0.00     0.062 A 
ATOM     15  C   UNL     1     -34.330   5.625  78.626  1.00  0.00     0.162 A 
ATOM     16  C   UNL     1     -36.738   7.030  78.358  1.00  0.00     0.062 A 
ATOM     17  C   UNL     1     -34.324   6.935  78.121  1.00  0.00     0.200 A 
ATOM     18  C   UNL     1     -35.528   7.638  77.993  1.00  0.00     0.162 A 
BRANCH  15  19
ATOM     19  O   UNL     1     -33.133   4.923  78.764  1.00  0.00    -0.504 OA
ATOM     20  H   UNL     1     -32.933   4.370  79.589  1.00  0.00     0.293 HD
ENDBRANCH  15  19
BRANCH  17  21
ATOM     21  O   UNL     1     -33.130   7.554  77.747  1.00  0.00    -0.502 OA
ATOM     22  H   UNL     1     -32.554   7.202  76.993  1.00  0.00     0.293 HD
ENDBRANCH  17  21
BRANCH  18  23
ATOM     23  O   UNL     1     -35.517   8.942  77.501  1.00  0.00    -0.504 OA
ATOM     24  H   UNL     1     -35.491   9.743  78.121  1.00  0.00     0.293 HD
ENDBRANCH  18  23
ENDBRANCH   3  13
BRANCH  10  25
ATOM     25  O   UNL     1     -42.223   2.772  81.204  1.00  0.00    -0.507 OA
ATOM     26  H   UNL     1     -42.425   3.449  81.925  1.00  0.00     0.293 HD
ENDBRANCH  10  25
BRANCH  11  27
ATOM     27  O   UNL     1     -42.574   2.296  76.457  1.00  0.00    -0.508 OA
ATOM     28  H   UNL     1     -42.395   1.374  76.075  1.00  0.00     0.293 HD
ENDBRANCH  11  27
ENDBRANCH   1   2
BRANCH   1  29
ATOM     29  C   UNL     1     -37.252   4.922  82.738  1.00  0.00     0.339 C 
ATOM     30  C   UNL     1     -36.170   3.891  82.386  1.00  0.00     0.214 C 
ATOM     31  O   UNL     1     -36.830   5.829  83.747  1.00  0.00    -0.332 OA
ATOM     32  C   UNL     1     -34.893   4.610  81.935  1.00  0.00     0.180 C 
ATOM     33  C   UNL     1     -35.627   6.533  83.456  1.00  0.00     0.179 C 
ATOM     34  C   UNL     1     -34.449   5.631  83.001  1.00  0.00     0.177 C 
BRANCH  30  35
ATOM     35  O   UNL     1     -35.922   3.080  83.507  1.00  0.00    -0.384 OA
ATOM     36  H   UNL     1     -34.940   2.942  83.552  1.00  0.00     0.211 HD
ENDBRANCH  30  35
BRANCH  32  37
ATOM     37  O   UNL     1     -33.878   3.668  81.694  1.00  0.00    -0.387 OA
ATOM     38  H   UNL     1     -33.437   3.935  80.846  1.00  0.00     0.211 HD
ENDBRANCH  32  37
BRANCH  33  39
ATOM     39  C   UNL     1     -35.865   7.796  82.594  1.00  0.00     0.191 C 
BRANCH  39  40
ATOM     40  O   UNL     1     -34.891   7.961  81.601  1.00  0.00    -0.394 OA
ATOM     41  H   UNL     1     -34.764   7.077  81.166  1.00  0.00     0.210 HD
ENDBRANCH  39  40
ENDBRANCH  33  39
BRANCH  34  42
ATOM     42  O   UNL     1     -33.933   4.961  84.125  1.00  0.00    -0.387 OA
ATOM     43  H   UNL     1     -34.404   4.088  84.188  1.00  0.00     0.211 HD
ENDBRANCH  34  42
ENDBRANCH   1  29
TORSDOF 13
ENDMDL
MODEL 3
REMARK VINA RESULT:    -6.842      2.193      5.738
REMARK INTER + INTRA:         -11.128
REMARK INTER:                 -10.327
REMARK INTRA:                  -0.801
REMARK UNBOUND:                -0.886
REMARK SMILES O=c1c(O[C@@H]2O[C@H](CO)[C@@H](O)[C@@H](O)[C@H]2O)c(-c2cc(O)c(O)c(O)c2)oc2cc(O)cc(O)c12
REMARK SMILES IDX 4 1 3 2 16 3 26 4 2 5 27 6 1 7 34 8 28 9 32 10 29 11 31 12
REMARK SMILES IDX 17 13 18 14 19 15 25 16 21 17 23 18 20 19 22 21 24 23 33 25
REMARK SMILES IDX 30 27 5 29 14 30 6 31 12 32 7 33 10 34 15 35 13 37 8 39 9 40
REMARK SMILES IDX 11 42
REMARK H PARENT 20 20 22 22 24 24 33 26 30 28 15 36 13 38 9 41 11 43
REMARK Flexibility Score: inf
ROOT
ATOM      1  O   UNL     1     -36.764   5.496  80.395  1.00  0.00    -0.454 OA
ENDROOT
BRANCH   1   2
ATOM      2  C   UNL     1     -37.484   6.280  79.478  1.00  0.00     0.214 A 
ATOM      3  C   UNL     1     -38.881   6.133  79.404  1.00  0.00     0.181 A 
ATOM      4  O   UNL     1     -39.584   6.878  78.560  1.00  0.00    -0.452 OA
ATOM      5  C   UNL     1     -36.859   7.217  78.630  1.00  0.00     0.239 A 
ATOM      6  C   UNL     1     -39.041   7.785  77.759  1.00  0.00     0.146 A 
ATOM      7  O   UNL     1     -35.604   7.280  78.606  1.00  0.00    -0.285 OA
ATOM      8  C   UNL     1     -37.645   8.031  77.779  1.00  0.00     0.111 A 
ATOM      9  C   UNL     1     -39.875   8.488  76.886  1.00  0.00     0.094 A 
ATOM     10  C   UNL     1     -37.123   9.048  76.924  1.00  0.00     0.134 A 
ATOM     11  C   UNL     1     -39.343   9.436  76.011  1.00  0.00     0.123 A 
ATOM     12  C   UNL     1     -37.976   9.707  76.032  1.00  0.00     0.093 A 
BRANCH   3  13
ATOM     13  C   UNL     1     -39.618   5.189  80.277  1.00  0.00     0.029 A 
ATOM     14  C   UNL     1     -39.416   5.166  81.666  1.00  0.00     0.062 A 
ATOM     15  C   UNL     1     -40.128   4.272  82.476  1.00  0.00     0.162 A 
ATOM     16  C   UNL     1     -40.513   4.275  79.701  1.00  0.00     0.062 A 
ATOM     17  C   UNL     1     -41.040   3.376  81.894  1.00  0.00     0.200 A 
ATOM     18  C   UNL     1     -41.227   3.375  80.506  1.00  0.00     0.162 A 
BRANCH  15  19
ATOM     19  O   UNL     1     -39.931   4.271  83.856  1.00  0.00    -0.504 OA
ATOM     20  H   UNL     1     -39.555   5.079  84.339  1.00  0.00     0.293 HD
ENDBRANCH  15  19
BRANCH  17  21
ATOM     21  O   UNL     1     -41.763   2.477  82.680  1.00  0.00    -0.502 OA
ATOM     22  H   UNL     1     -41.884   1.507  82.416  1.00  0.00     0.293 HD
ENDBRANCH  17  21
BRANCH  18  23
ATOM     23  O   UNL     1     -42.125   2.478  79.932  1.00  0.00    -0.504 OA
ATOM     24  H   UNL     1     -41.885   1.942  79.106  1.00  0.00     0.293 HD
ENDBRANCH  18  23
ENDBRANCH   3  13
BRANCH  10  25
ATOM     25  O   UNL     1     -35.788   9.467  76.935  1.00  0.00    -0.507 OA
ATOM     26  H   UNL     1     -35.459  10.348  76.570  1.00  0.00     0.293 HD
ENDBRANCH  10  25
BRANCH  11  27
ATOM     27  O   UNL     1     -40.167  10.125  75.123  1.00  0.00    -0.508 OA
ATOM     28  H   UNL     1     -40.230  11.137  75.135  1.00  0.00     0.293 HD
ENDBRANCH  11  27
ENDBRANCH   1   2
BRANCH   1  29
ATOM     29  C   UNL     1     -36.126   5.986  81.576  1.00  0.00     0.339 C 
ATOM     30  C   UNL     1     -36.421   5.054  82.759  1.00  0.00     0.214 C 
ATOM     31  O   UNL     1     -34.734   6.195  81.382  1.00  0.00    -0.332 OA
ATOM     32  C   UNL     1     -35.720   3.707  82.548  1.00  0.00     0.180 C 
ATOM     33  C   UNL     1     -33.967   5.007  81.211  1.00  0.00     0.179 C 
ATOM     34  C   UNL     1     -34.215   3.922  82.291  1.00  0.00     0.177 C 
BRANCH  30  35
ATOM     35  O   UNL     1     -35.989   5.665  83.949  1.00  0.00    -0.384 OA
ATOM     36  H   UNL     1     -36.770   5.694  84.560  1.00  0.00     0.211 HD
ENDBRANCH  30  35
BRANCH  32  37
ATOM     37  O   UNL     1     -35.922   2.885  83.670  1.00  0.00    -0.387 OA
ATOM     38  H   UNL     1     -36.819   3.110  84.030  1.00  0.00     0.211 HD
ENDBRANCH  32  37
BRANCH  33  39
ATOM     39  C   UNL     1     -33.968   4.500  79.749  1.00  0.00     0.191 C 
BRANCH  39  40
ATOM     40  O   UNL     1     -33.299   5.369  78.878  1.00  0.00    -0.394 OA
ATOM     41  H   UNL     1     -32.496   4.889  78.544  1.00  0.00     0.210 HD
ENDBRANCH  39  40
ENDBRANCH  33  39
BRANCH  34  42
ATOM     42  O   UNL     1     -33.575   4.313  83.480  1.00  0.00    -0.387 OA
ATOM     43  H   UNL     1     -33.877   3.693  84.195  1.00  0.00     0.211 HD
ENDBRANCH  34  42
ENDBRANCH   1  29
TORSDOF 13
ENDMDL
MODEL 4
REMARK VINA RESULT:    -6.351      2.209      6.249
REMARK INTER + INTRA:         -10.392
REMARK INTER:                 -10.627
REMARK INTRA:                   0.234
REMARK UNBOUND:                -0.886
REMARK SMILES O=c1c(O[C@@H]2O[C@H](CO)[C@@H](O)[C@@H](O)[C@H]2O)c(-c2cc(O)c(O)c(O)c2)oc2cc(O)cc(O)c12
REMARK SMILES IDX 4 1 3 2 16 3 26 4 2 5 27 6 1 7 34 8 28 9 32 10 29 11 31 12
REMARK SMILES IDX 17 13 18 14 19 15 25 16 21 17 23 18 20 19 22 21 24 23 33 25
REMARK SMILES IDX 30 27 5 29 14 30 6 31 12 32 7 33 10 34 15 35 13 37 8 39 9 40
REMARK SMILES IDX 11 42
REMARK H PARENT 20 20 22 22 24 24 33 26 30 28 15 36 13 38 9 41 11 43
REMARK Flexibility Score: inf
ROOT
ATOM      1  O   UNL     1     -36.795   5.074  81.446  1.00  0.00    -0.454 OA
ENDROOT
BRANCH   1   2
ATOM      2  C   UNL     1     -36.271   5.908  80.443  1.00  0.00     0.214 A 
ATOM      3  C   UNL     1     -36.722   5.749  79.119  1.00  0.00     0.181 A 
ATOM      4  O   UNL     1     -36.256   6.539  78.160  1.00  0.00    -0.452 OA
ATOM      5  C   UNL     1     -35.313   6.905  80.714  1.00  0.00     0.239 A 
ATOM      6  C   UNL     1     -35.370   7.503  78.372  1.00  0.00     0.146 A 
ATOM      7  O   UNL     1     -34.821   6.985  81.867  1.00  0.00    -0.285 OA
ATOM      8  C   UNL     1     -34.877   7.764  79.676  1.00  0.00     0.111 A 
ATOM      9  C   UNL     1     -34.925   8.251  77.280  1.00  0.00     0.094 A 
ATOM     10  C   UNL     1     -33.956   8.841  79.850  1.00  0.00     0.134 A 
ATOM     11  C   UNL     1     -33.977   9.261  77.455  1.00  0.00     0.123 A 
ATOM     12  C   UNL     1     -33.498   9.547  78.732  1.00  0.00     0.093 A 
BRANCH   3  13
ATOM     13  C   UNL     1     -37.745   4.741  78.755  1.00  0.00     0.029 A 
ATOM     14  C   UNL     1     -37.389   3.430  78.401  1.00  0.00     0.062 A 
ATOM     15  C   UNL     1     -38.372   2.490  78.068  1.00  0.00     0.162 A 
ATOM     16  C   UNL     1     -39.098   5.113  78.728  1.00  0.00     0.062 A 
ATOM     17  C   UNL     1     -39.726   2.864  78.066  1.00  0.00     0.200 A 
ATOM     18  C   UNL     1     -40.086   4.177  78.391  1.00  0.00     0.162 A 
BRANCH  15  19
ATOM     19  O   UNL     1     -38.006   1.186  77.736  1.00  0.00    -0.504 OA
ATOM     20  H   UNL     1     -38.305   0.393  78.292  1.00  0.00     0.293 HD
ENDBRANCH  15  19
BRANCH  17  21
ATOM     21  O   UNL     1     -40.724   1.944  77.740  1.00  0.00    -0.502 OA
ATOM     22  H   UNL     1     -41.394   2.116  77.001  1.00  0.00     0.293 HD
ENDBRANCH  17  21
BRANCH  18  23
ATOM     23  O   UNL     1     -41.430   4.547  78.379  1.00  0.00    -0.504 OA
ATOM     24  H   UNL     1     -41.789   5.264  78.999  1.00  0.00     0.293 HD
ENDBRANCH  18  23
ENDBRANCH   3  13
BRANCH  10  25
ATOM     25  O   UNL     1     -33.490   9.274  81.095  1.00  0.00    -0.507 OA
ATOM     26  H   UNL     1     -33.916  10.004  81.647  1.00  0.00     0.293 HD
ENDBRANCH  10  25
BRANCH  11  27
ATOM     27  O   UNL     1     -33.513   9.996  76.366  1.00  0.00    -0.508 OA
ATOM     28  H   UNL     1     -33.779  10.965  76.229  1.00  0.00     0.293 HD
ENDBRANCH  11  27
ENDBRANCH   1   2
BRANCH   1  29
ATOM     29  C   UNL     1     -38.032   4.364  81.363  1.00  0.00     0.339 C 
ATOM     30  C   UNL     1     -37.876   2.962  81.968  1.00  0.00     0.214 C 
ATOM     31  O   UNL     1     -39.104   5.091  81.946  1.00  0.00    -0.332 OA
ATOM     32  C   UNL     1     -37.665   3.069  83.483  1.00  0.00     0.180 C 
ATOM     33  C   UNL     1     -39.037   5.226  83.362  1.00  0.00     0.179 C 
ATOM     34  C   UNL     1     -38.797   3.896  84.123  1.00  0.00     0.177 C 
BRANCH  30  35
ATOM     35  O   UNL     1     -39.019   2.200  81.672  1.00  0.00    -0.384 OA
ATOM     36  H   UNL     1     -39.159   1.580  82.434  1.00  0.00     0.211 HD
ENDBRANCH  30  35
BRANCH  32  37
ATOM     37  O   UNL     1     -37.606   1.783  84.046  1.00  0.00    -0.387 OA
ATOM     38  H   UNL     1     -38.458   1.648  84.538  1.00  0.00     0.211 HD
ENDBRANCH  32  37
BRANCH  33  39
ATOM     39  C   UNL     1     -38.152   6.414  83.810  1.00  0.00     0.191 C 
BRANCH  39  40
ATOM     40  O   UNL     1     -36.833   6.030  84.080  1.00  0.00    -0.394 OA
ATOM     41  H   UNL     1     -36.804   5.725  85.025  1.00  0.00     0.210 HD
ENDBRANCH  39  40
ENDBRANCH  33  39
BRANCH  34  42
ATOM     42  O   UNL     1     -39.993   3.154  84.125  1.00  0.00    -0.387 OA
ATOM     43  H   UNL     1     -39.756   2.215  83.904  1.00  0.00     0.211 HD
ENDBRANCH  34  42
ENDBRANCH   1  29
TORSDOF 13
ENDMDL
MODEL 5
REMARK VINA RESULT:    -6.320      2.390      6.987
REMARK INTER + INTRA:         -10.346
REMARK INTER:                  -8.974
REMARK INTRA:                  -1.372
REMARK UNBOUND:                -0.886
REMARK SMILES O=c1c(O[C@@H]2O[C@H](CO)[C@@H](O)[C@@H](O)[C@H]2O)c(-c2cc(O)c(O)c(O)c2)oc2cc(O)cc(O)c12
REMARK SMILES IDX 4 1 3 2 16 3 26 4 2 5 27 6 1 7 34 8 28 9 32 10 29 11 31 12
REMARK SMILES IDX 17 13 18 14 19 15 25 16 21 17 23 18 20 19 22 21 24 23 33 25
REMARK SMILES IDX 30 27 5 29 14 30 6 31 12 32 7 33 10 34 15 35 13 37 8 39 9 40
REMARK SMILES IDX 11 42
REMARK H PARENT 20 20 22 22 24 24 33 26 30 28 15 36 13 38 9 41 11 43
REMARK Flexibility Score: inf
ROOT
ATOM      1  O   UNL     1     -37.124   4.507  80.228  1.00  0.00    -0.454 OA
ENDROOT
BRANCH   1   2
ATOM      2  C   UNL     1     -36.222   5.394  80.840  1.00  0.00     0.214 A 
ATOM      3  C   UNL     1     -36.247   6.753  80.475  1.00  0.00     0.181 A 
ATOM      4  O   UNL     1     -35.418   7.613  81.054  1.00  0.00    -0.452 OA
ATOM      5  C   UNL     1     -35.292   4.976  81.813  1.00  0.00     0.239 A 
ATOM      6  C   UNL     1     -34.542   7.267  81.988  1.00  0.00     0.146 A 
ATOM      7  O   UNL     1     -35.182   3.750  82.067  1.00  0.00    -0.285 OA
ATOM      8  C   UNL     1     -34.459   5.928  82.448  1.00  0.00     0.111 A 
ATOM      9  C   UNL     1     -33.696   8.251  82.505  1.00  0.00     0.094 A 
ATOM     10  C   UNL     1     -33.526   5.623  83.484  1.00  0.00     0.134 A 
ATOM     11  C   UNL     1     -32.745   7.927  83.474  1.00  0.00     0.123 A 
ATOM     12  C   UNL     1     -32.663   6.621  83.953  1.00  0.00     0.093 A 
BRANCH   3  13
ATOM     13  C   UNL     1     -37.210   7.280  79.479  1.00  0.00     0.029 A 
ATOM     14  C   UNL     1     -37.146   6.904  78.127  1.00  0.00     0.062 A 
ATOM     15  C   UNL     1     -38.070   7.406  77.203  1.00  0.00     0.162 A 
ATOM     16  C   UNL     1     -38.186   8.201  79.886  1.00  0.00     0.062 A 
ATOM     17  C   UNL     1     -39.059   8.310  77.623  1.00  0.00     0.200 A 
ATOM     18  C   UNL     1     -39.113   8.711  78.964  1.00  0.00     0.162 A 
BRANCH  15  19
ATOM     19  O   UNL     1     -38.006   7.011  75.867  1.00  0.00    -0.504 OA
ATOM     20  H   UNL     1     -38.640   7.386  75.172  1.00  0.00     0.293 HD
ENDBRANCH  15  19
BRANCH  17  21
ATOM     21  O   UNL     1     -39.993   8.823  76.721  1.00  0.00    -0.502 OA
ATOM     22  H   UNL     1     -40.987   8.817  76.914  1.00  0.00     0.293 HD
ENDBRANCH  17  21
BRANCH  18  23
ATOM     23  O   UNL     1     -40.089   9.615  79.375  1.00  0.00    -0.504 OA
ATOM     24  H   UNL     1     -40.987   9.675  78.909  1.00  0.00     0.293 HD
ENDBRANCH  18  23
ENDBRANCH   3  13
BRANCH  10  25
ATOM     25  O   UNL     1     -33.429   4.373  84.103  1.00  0.00    -0.507 OA
ATOM     26  H   UNL     1     -32.633   3.757  84.033  1.00  0.00     0.293 HD
ENDBRANCH  10  25
BRANCH  11  27
ATOM     27  O   UNL     1     -31.883   8.898  83.977  1.00  0.00    -0.508 OA
ATOM     28  H   UNL     1     -31.741   9.780  83.496  1.00  0.00     0.293 HD
ENDBRANCH  11  27
ENDBRANCH   1   2
BRANCH   1  29
ATOM     29  C   UNL     1     -38.279   3.945  80.854  1.00  0.00     0.339 C 
ATOM     30  C   UNL     1     -39.502   4.836  80.598  1.00  0.00     0.214 C 
ATOM     31  O   UNL     1     -38.495   2.598  80.460  1.00  0.00    -0.332 OA
ATOM     32  C   UNL     1     -39.882   4.785  79.113  1.00  0.00     0.180 C 
ATOM     33  C   UNL     1     -38.891   2.425  79.103  1.00  0.00     0.179 C 
ATOM     34  C   UNL     1     -40.075   3.324  78.661  1.00  0.00     0.177 C 
BRANCH  30  35
ATOM     35  O   UNL     1     -40.568   4.402  81.404  1.00  0.00    -0.384 OA
ATOM     36  H   UNL     1     -41.371   4.354  80.823  1.00  0.00     0.211 HD
ENDBRANCH  30  35
BRANCH  32  37
ATOM     37  O   UNL     1     -41.051   5.533  78.896  1.00  0.00    -0.387 OA
ATOM     38  H   UNL     1     -41.428   5.739  79.791  1.00  0.00     0.211 HD
ENDBRANCH  32  37
BRANCH  33  39
ATOM     39  C   UNL     1     -37.689   2.385  78.129  1.00  0.00     0.191 C 
BRANCH  39  40
ATOM     40  O   UNL     1     -37.596   1.170  77.440  1.00  0.00    -0.394 OA
ATOM     41  H   UNL     1     -36.800   0.693  77.794  1.00  0.00     0.210 HD
ENDBRANCH  39  40
ENDBRANCH  33  39
BRANCH  34  42
ATOM     42  O   UNL     1     -41.264   2.805  79.204  1.00  0.00    -0.387 OA
ATOM     43  H   UNL     1     -41.440   3.297  80.049  1.00  0.00     0.211 HD
ENDBRANCH  34  42
ENDBRANCH   1  29
TORSDOF 13
ENDMDL
MODEL 6
REMARK VINA RESULT:    -6.268      2.618      5.458
REMARK INTER + INTRA:         -10.268
REMARK INTER:                  -8.670
REMARK INTRA:                  -1.599
REMARK UNBOUND:                -0.886
REMARK SMILES O=c1c(O[C@@H]2O[C@H](CO)[C@@H](O)[C@@H](O)[C@H]2O)c(-c2cc(O)c(O)c(O)c2)oc2cc(O)cc(O)c12
REMARK SMILES IDX 4 1 3 2 16 3 26 4 2 5 27 6 1 7 34 8 28 9 32 10 29 11 31 12
REMARK SMILES IDX 17 13 18 14 19 15 25 16 21 17 23 18 20 19 22 21 24 23 33 25
REMARK SMILES IDX 30 27 5 29 14 30 6 31 12 32 7 33 10 34 15 35 13 37 8 39 9 40
REMARK SMILES IDX 11 42
REMARK H PARENT 20 20 22 22 24 24 33 26 30 28 15 36 13 38 9 41 11 43
REMARK Flexibility Score: inf
ROOT
ATOM      1  O   UNL     1     -38.061   7.375  78.961  1.00  0.00    -0.454 OA
ENDROOT
BRANCH   1   2
ATOM      2  C   UNL     1     -38.136   6.281  79.841  1.00  0.00     0.214 A 
ATOM      3  C   UNL     1     -36.988   5.909  80.566  1.00  0.00     0.181 A 
ATOM      4  O   UNL     1     -37.040   4.893  81.418  1.00  0.00    -0.452 OA
ATOM      5  C   UNL     1     -39.321   5.542  80.031  1.00  0.00     0.239 A 
ATOM      6  C   UNL     1     -38.138   4.184  81.643  1.00  0.00     0.146 A 
ATOM      7  O   UNL     1     -40.320   5.792  79.311  1.00  0.00    -0.285 OA
ATOM      8  C   UNL     1     -39.355   4.497  80.986  1.00  0.00     0.111 A 
ATOM      9  C   UNL     1     -38.068   3.113  82.537  1.00  0.00     0.094 A 
ATOM     10  C   UNL     1     -40.514   3.725  81.299  1.00  0.00     0.134 A 
ATOM     11  C   UNL     1     -39.194   2.327  82.788  1.00  0.00     0.123 A 
ATOM     12  C   UNL     1     -40.404   2.634  82.168  1.00  0.00     0.093 A 
BRANCH   3  13
ATOM     13  C   UNL     1     -35.709   6.648  80.443  1.00  0.00     0.029 A 
ATOM     14  C   UNL     1     -34.777   6.339  79.440  1.00  0.00     0.062 A 
ATOM     15  C   UNL     1     -33.578   7.054  79.335  1.00  0.00     0.162 A 
ATOM     16  C   UNL     1     -35.406   7.657  81.370  1.00  0.00     0.062 A 
ATOM     17  C   UNL     1     -33.293   8.078  80.253  1.00  0.00     0.200 A 
ATOM     18  C   UNL     1     -34.205   8.375  81.273  1.00  0.00     0.162 A 
BRANCH  15  19
ATOM     19  O   UNL     1     -32.669   6.749  78.323  1.00  0.00    -0.504 OA
ATOM     20  H   UNL     1     -31.671   6.723  78.495  1.00  0.00     0.293 HD
ENDBRANCH  15  19
BRANCH  17  21
ATOM     21  O   UNL     1     -32.105   8.807  80.168  1.00  0.00    -0.502 OA
ATOM     22  H   UNL     1     -31.352   8.539  79.547  1.00  0.00     0.293 HD
ENDBRANCH  17  21
BRANCH  18  23
ATOM     23  O   UNL     1     -33.914   9.385  82.188  1.00  0.00    -0.504 OA
ATOM     24  H   UNL     1     -34.062  10.362  81.964  1.00  0.00     0.293 HD
ENDBRANCH  18  23
ENDBRANCH   3  13
BRANCH  10  25
ATOM     25  O   UNL     1     -41.794   4.008  80.811  1.00  0.00    -0.507 OA
ATOM     26  H   UNL     1     -42.005   4.240  79.851  1.00  0.00     0.293 HD
ENDBRANCH  10  25
BRANCH  11  27
ATOM     27  O   UNL     1     -39.125   1.245  83.662  1.00  0.00    -0.508 OA
ATOM     28  H   UNL     1     -39.917   0.973  84.234  1.00  0.00     0.293 HD
ENDBRANCH  11  27
ENDBRANCH   1   2
BRANCH   1  29
ATOM     29  C   UNL     1     -37.853   7.284  77.551  1.00  0.00     0.339 C 
ATOM     30  C   UNL     1     -39.108   7.756  76.803  1.00  0.00     0.214 C 
ATOM     31  O   UNL     1     -36.683   7.975  77.139  1.00  0.00    -0.332 OA
ATOM     32  C   UNL     1     -39.299   9.263  77.006  1.00  0.00     0.180 C 
ATOM     33  C   UNL     1     -36.754   9.394  77.247  1.00  0.00     0.179 C 
ATOM     34  C   UNL     1     -38.019  10.023  76.606  1.00  0.00     0.177 C 
BRANCH  30  35
ATOM     35  O   UNL     1     -38.978   7.445  75.438  1.00  0.00    -0.384 OA
ATOM     36  H   UNL     1     -38.186   6.854  75.349  1.00  0.00     0.211 HD
ENDBRANCH  30  35
BRANCH  32  37
ATOM     37  O   UNL     1     -40.399   9.709  76.252  1.00  0.00    -0.387 OA
ATOM     38  H   UNL     1     -41.204   9.279  76.642  1.00  0.00     0.211 HD
ENDBRANCH  32  37
BRANCH  33  39
ATOM     39  C   UNL     1     -36.406   9.904  78.666  1.00  0.00     0.191 C 
BRANCH  39  40
ATOM     40  O   UNL     1     -37.545  10.125  79.452  1.00  0.00    -0.394 OA
ATOM     41  H   UNL     1     -37.834   9.242  79.802  1.00  0.00     0.210 HD
ENDBRANCH  39  40
ENDBRANCH  33  39
BRANCH  34  42
ATOM     42  O   UNL     1     -37.869  10.012  75.207  1.00  0.00    -0.387 OA
ATOM     43  H   UNL     1     -37.023  10.490  74.999  1.00  0.00     0.211 HD
ENDBRANCH  34  42
ENDBRANCH   1  29
TORSDOF 13
ENDMDL
MODEL 7
REMARK VINA RESULT:    -6.206      2.815      5.565
REMARK INTER + INTRA:         -10.175
REMARK INTER:                  -8.630
REMARK INTRA:                  -1.545
REMARK UNBOUND:                -0.886
REMARK SMILES O=c1c(O[C@@H]2O[C@H](CO)[C@@H](O)[C@@H](O)[C@H]2O)c(-c2cc(O)c(O)c(O)c2)oc2cc(O)cc(O)c12
REMARK SMILES IDX 4 1 3 2 16 3 26 4 2 5 27 6 1 7 34 8 28 9 32 10 29 11 31 12
REMARK SMILES IDX 17 13 18 14 19 15 25 16 21 17 23 18 20 19 22 21 24 23 33 25
REMARK SMILES IDX 30 27 5 29 14 30 6 31 12 32 7 33 10 34 15 35 13 37 8 39 9 40
REMARK SMILES IDX 11 42
REMARK H PARENT 20 20 22 22 24 24 33 26 30 28 15 36 13 38 9 41 11 43
REMARK Flexibility Score: inf
ROOT
ATOM      1  O   UNL     1     -36.426   7.465  79.825  1.00  0.00    -0.454 OA
ENDROOT
BRANCH   1   2
ATOM      2  C   UNL     1     -37.160   6.378  80.329  1.00  0.00     0.214 A 
ATOM      3  C   UNL     1     -38.455   6.139  79.831  1.00  0.00     0.181 A 
ATOM      4  O   UNL     1     -39.159   5.106  80.278  1.00  0.00    -0.452 OA
ATOM      5  C   UNL     1     -36.648   5.511  81.316  1.00  0.00     0.239 A 
ATOM      6  C   UNL     1     -38.708   4.254  81.189  1.00  0.00     0.146 A 
ATOM      7  O   UNL     1     -35.541   5.777  81.849  1.00  0.00    -0.285 OA
ATOM      8  C   UNL     1     -37.405   4.390  81.731  1.00  0.00     0.111 A 
ATOM      9  C   UNL     1     -39.550   3.222  81.610  1.00  0.00     0.094 A 
ATOM     10  C   UNL     1     -36.959   3.419  82.679  1.00  0.00     0.134 A 
ATOM     11  C   UNL     1     -39.124   2.315  82.583  1.00  0.00     0.123 A 
ATOM     12  C   UNL     1     -37.839   2.420  83.111  1.00  0.00     0.093 A 
BRANCH   3  13
ATOM     13  C   UNL     1     -39.058   6.987  78.776  1.00  0.00     0.029 A 
ATOM     14  C   UNL     1     -38.587   6.958  77.454  1.00  0.00     0.062 A 
ATOM     15  C   UNL     1     -39.177   7.761  76.470  1.00  0.00     0.162 A 
ATOM     16  C   UNL     1     -40.102   7.863  79.112  1.00  0.00     0.062 A 
ATOM     17  C   UNL     1     -40.236   8.618  76.809  1.00  0.00     0.200 A 
ATOM     18  C   UNL     1     -40.694   8.672  78.131  1.00  0.00     0.162 A 
BRANCH  15  19
ATOM     19  O   UNL     1     -38.711   7.710  75.156  1.00  0.00    -0.504 OA
ATOM     20  H   UNL     1     -39.347   7.666  74.369  1.00  0.00     0.293 HD
ENDBRANCH  15  19
BRANCH  17  21
ATOM     21  O   UNL     1     -40.842   9.426  75.845  1.00  0.00    -0.502 OA
ATOM     22  H   UNL     1     -41.457   9.049  75.134  1.00  0.00     0.293 HD
ENDBRANCH  17  21
BRANCH  18  23
ATOM     23  O   UNL     1     -41.739   9.531  78.465  1.00  0.00    -0.504 OA
ATOM     24  H   UNL     1     -42.125  10.184  77.794  1.00  0.00     0.293 HD
ENDBRANCH  18  23
ENDBRANCH   3  13
BRANCH  10  25
ATOM     25  O   UNL     1     -35.661   3.374  83.196  1.00  0.00    -0.507 OA
ATOM     26  H   UNL     1     -34.832   3.176  82.654  1.00  0.00     0.293 HD
ENDBRANCH  10  25
BRANCH  11  27
ATOM     27  O   UNL     1     -39.967   1.297  83.023  1.00  0.00    -0.508 OA
ATOM     28  H   UNL     1     -39.955   0.378  82.596  1.00  0.00     0.293 HD
ENDBRANCH  11  27
ENDBRANCH   1   2
BRANCH   1  29
ATOM     29  C   UNL     1     -35.159   7.370  79.171  1.00  0.00     0.339 C 
ATOM     30  C   UNL     1     -35.246   7.977  77.764  1.00  0.00     0.214 C 
ATOM     31  O   UNL     1     -34.116   7.943  79.946  1.00  0.00    -0.332 OA
ATOM     32  C   UNL     1     -35.448   9.494  77.863  1.00  0.00     0.180 C 
ATOM     33  C   UNL     1     -34.175   9.359  80.080  1.00  0.00     0.179 C 
ATOM     34  C   UNL     1     -34.347  10.123  78.740  1.00  0.00     0.177 C 
BRANCH  30  35
ATOM     35  O   UNL     1     -34.073   7.671  77.054  1.00  0.00    -0.384 OA
ATOM     36  H   UNL     1     -34.280   7.785  76.090  1.00  0.00     0.211 HD
ENDBRANCH  30  35
BRANCH  32  37
ATOM     37  O   UNL     1     -35.443  10.059  76.576  1.00  0.00    -0.387 OA
ATOM     38  H   UNL     1     -34.540  10.449  76.440  1.00  0.00     0.211 HD
ENDBRANCH  32  37
BRANCH  33  39
ATOM     39  C   UNL     1     -35.108   9.815  81.227  1.00  0.00     0.191 C 
BRANCH  39  40
ATOM     40  O   UNL     1     -35.262   8.835  82.215  1.00  0.00    -0.394 OA
ATOM     41  H   UNL     1     -36.238   8.714  82.358  1.00  0.00     0.210 HD
ENDBRANCH  39  40
ENDBRANCH  33  39
BRANCH  34  42
ATOM     42  O   UNL     1     -33.119  10.113  78.053  1.00  0.00    -0.387 OA
ATOM     43  H   UNL     1     -33.009  11.009  77.638  1.00  0.00     0.211 HD
ENDBRANCH  34  42
ENDBRANCH   1  29
TORSDOF 13
ENDMDL
MODEL 8
REMARK VINA RESULT:    -6.164      2.921      5.208
REMARK INTER + INTRA:         -10.112
REMARK INTER:                  -8.595
REMARK INTRA:                  -1.518
REMARK UNBOUND:                -0.886
REMARK SMILES O=c1c(O[C@@H]2O[C@H](CO)[C@@H](O)[C@@H](O)[C@H]2O)c(-c2cc(O)c(O)c(O)c2)oc2cc(O)cc(O)c12
REMARK SMILES IDX 4 1 3 2 16 3 26 4 2 5 27 6 1 7 34 8 28 9 32 10 29 11 31 12
REMARK SMILES IDX 17 13 18 14 19 15 25 16 21 17 23 18 20 19 22 21 24 23 33 25
REMARK SMILES IDX 30 27 5 29 14 30 6 31 12 32 7 33 10 34 15 35 13 37 8 39 9 40
REMARK SMILES IDX 11 42
REMARK H PARENT 20 20 22 22 24 24 33 26 30 28 15 36 13 38 9 41 11 43
REMARK Flexibility Score: inf
ROOT
ATOM      1  O   UNL     1     -37.040   7.359  79.888  1.00  0.00    -0.454 OA
ENDROOT
BRANCH   1   2
ATOM      2  C   UNL     1     -37.969   6.423  80.371  1.00  0.00     0.214 A 
ATOM      3  C   UNL     1     -39.250   6.370  79.790  1.00  0.00     0.181 A 
ATOM      4  O   UNL     1     -40.137   5.480  80.216  1.00  0.00    -0.452 OA
ATOM      5  C   UNL     1     -37.667   5.526  81.416  1.00  0.00     0.239 A 
ATOM      6  C   UNL     1     -39.889   4.604  81.181  1.00  0.00     0.146 A 
ATOM      7  O   UNL     1     -36.569   5.636  82.018  1.00  0.00    -0.285 OA
ATOM      8  C   UNL     1     -38.619   4.555  81.810  1.00  0.00     0.111 A 
ATOM      9  C   UNL     1     -40.911   3.735  81.571  1.00  0.00     0.094 A 
ATOM     10  C   UNL     1     -38.396   3.565  82.814  1.00  0.00     0.134 A 
ATOM     11  C   UNL     1     -40.699   2.812  82.597  1.00  0.00     0.123 A 
ATOM     12  C   UNL     1     -39.451   2.735  83.212  1.00  0.00     0.093 A 
BRANCH   3  13
ATOM     13  C   UNL     1     -39.640   7.260  78.671  1.00  0.00     0.029 A 
ATOM     14  C   UNL     1     -40.630   8.243  78.827  1.00  0.00     0.062 A 
ATOM     15  C   UNL     1     -40.980   9.080  77.760  1.00  0.00     0.162 A 
ATOM     16  C   UNL     1     -39.033   7.095  77.417  1.00  0.00     0.062 A 
ATOM     17  C   UNL     1     -40.350   8.924  76.515  1.00  0.00     0.200 A 
ATOM     18  C   UNL     1     -39.380   7.928  76.343  1.00  0.00     0.162 A 
BRANCH  15  19
ATOM     19  O   UNL     1     -41.952  10.064  77.934  1.00  0.00    -0.504 OA
ATOM     20  H   UNL     1     -42.940   9.846  77.899  1.00  0.00     0.293 HD
ENDBRANCH  15  19
BRANCH  17  21
ATOM     21  O   UNL     1     -40.679   9.747  75.436  1.00  0.00    -0.502 OA
ATOM     22  H   UNL     1     -40.892  10.730  75.555  1.00  0.00     0.293 HD
ENDBRANCH  17  21
BRANCH  18  23
ATOM     23  O   UNL     1     -38.765   7.770  75.103  1.00  0.00    -0.504 OA
ATOM     24  H   UNL     1     -37.763   7.870  74.991  1.00  0.00     0.293 HD
ENDBRANCH  18  23
ENDBRANCH   3  13
BRANCH  10  25
ATOM     25  O   UNL     1     -37.159   3.337  83.423  1.00  0.00    -0.507 OA
ATOM     26  H   UNL     1     -36.733   2.428  83.537  1.00  0.00     0.293 HD
ENDBRANCH  10  25
BRANCH  11  27
ATOM     27  O   UNL     1     -41.721   1.958  83.006  1.00  0.00    -0.508 OA
ATOM     28  H   UNL     1     -41.548   0.977  83.192  1.00  0.00     0.293 HD
ENDBRANCH  11  27
ENDBRANCH   1   2
BRANCH   1  29
ATOM     29  C   UNL     1     -35.784   7.038  79.286  1.00  0.00     0.339 C 
ATOM     30  C   UNL     1     -35.681   7.696  77.903  1.00  0.00     0.214 C 
ATOM     31  O   UNL     1     -34.689   7.369  80.128  1.00  0.00    -0.332 OA
ATOM     32  C   UNL     1     -35.587   9.219  78.056  1.00  0.00     0.180 C 
ATOM     33  C   UNL     1     -34.477   8.765  80.318  1.00  0.00     0.179 C 
ATOM     34  C   UNL     1     -34.430   9.590  79.005  1.00  0.00     0.177 C 
BRANCH  30  35
ATOM     35  O   UNL     1     -34.556   7.188  77.231  1.00  0.00    -0.384 OA
ATOM     36  H   UNL     1     -34.012   6.701  77.904  1.00  0.00     0.211 HD
ENDBRANCH  30  35
BRANCH  32  37
ATOM     37  O   UNL     1     -35.408   9.813  76.795  1.00  0.00    -0.387 OA
ATOM     38  H   UNL     1     -36.143   9.480  76.216  1.00  0.00     0.211 HD
ENDBRANCH  32  37
BRANCH  33  39
ATOM     39  C   UNL     1     -35.360   9.357  81.442  1.00  0.00     0.191 C 
BRANCH  39  40
ATOM     40  O   UNL     1     -35.724   8.402  82.400  1.00  0.00    -0.394 OA
ATOM     41  H   UNL     1     -36.414   8.818  82.980  1.00  0.00     0.210 HD
ENDBRANCH  39  40
ENDBRANCH  33  39
BRANCH  34  42
ATOM     42  O   UNL     1     -33.195   9.361  78.371  1.00  0.00    -0.387 OA
ATOM     43  H   UNL     1     -32.844  10.246  78.084  1.00  0.00     0.211 HD
ENDBRANCH  34  42
ENDBRANCH   1  29
TORSDOF 13
ENDMDL
MODEL 9
REMARK VINA RESULT:    -6.101      1.585      4.827
REMARK INTER + INTRA:         -10.019
REMARK INTER:                  -9.054
REMARK INTRA:                  -0.965
REMARK UNBOUND:                -0.886
REMARK SMILES O=c1c(O[C@@H]2O[C@H](CO)[C@@H](O)[C@@H](O)[C@H]2O)c(-c2cc(O)c(O)c(O)c2)oc2cc(O)cc(O)c12
REMARK SMILES IDX 4 1 3 2 16 3 26 4 2 5 27 6 1 7 34 8 28 9 32 10 29 11 31 12
REMARK SMILES IDX 17 13 18 14 19 15 25 16 21 17 23 18 20 19 22 21 24 23 33 25
REMARK SMILES IDX 30 27 5 29 14 30 6 31 12 32 7 33 10 34 15 35 13 37 8 39 9 40
REMARK SMILES IDX 11 42
REMARK H PARENT 20 20 22 22 24 24 33 26 30 28 15 36 13 38 9 41 11 43
REMARK Flexibility Score: inf
ROOT
ATOM      1  O   UNL     1     -35.982   5.799  79.250  1.00  0.00    -0.454 OA
ENDROOT
BRANCH   1   2
ATOM      2  C   UNL     1     -37.036   5.253  80.002  1.00  0.00     0.214 A 
ATOM      3  C   UNL     1     -36.892   5.139  81.397  1.00  0.00     0.181 A 
ATOM      4  O   UNL     1     -37.883   4.644  82.130  1.00  0.00    -0.452 OA
ATOM      5  C   UNL     1     -38.240   4.817  79.411  1.00  0.00     0.239 A 
ATOM      6  C   UNL     1     -39.039   4.242  81.619  1.00  0.00     0.146 A 
ATOM      7  O   UNL     1     -38.339   4.810  78.159  1.00  0.00    -0.285 OA
ATOM      8  C   UNL     1     -39.295   4.344  80.228  1.00  0.00     0.111 A 
ATOM      9  C   UNL     1     -39.998   3.707  82.482  1.00  0.00     0.094 A 
ATOM     10  C   UNL     1     -40.573   3.933  79.741  1.00  0.00     0.134 A 
ATOM     11  C   UNL     1     -41.221   3.252  81.984  1.00  0.00     0.123 A 
ATOM     12  C   UNL     1     -41.498   3.364  80.623  1.00  0.00     0.093 A 
BRANCH   3  13
ATOM     13  C   UNL     1     -35.670   5.595  82.099  1.00  0.00     0.029 A 
ATOM     14  C   UNL     1     -35.343   6.958  82.192  1.00  0.00     0.062 A 
ATOM     15  C   UNL     1     -34.188   7.370  82.868  1.00  0.00     0.162 A 
ATOM     16  C   UNL     1     -34.800   4.645  82.655  1.00  0.00     0.062 A 
ATOM     17  C   UNL     1     -33.335   6.413  83.442  1.00  0.00     0.200 A 
ATOM     18  C   UNL     1     -33.639   5.051  83.330  1.00  0.00     0.162 A 
BRANCH  15  19
ATOM     19  O   UNL     1     -33.885   8.727  82.968  1.00  0.00    -0.504 OA
ATOM     20  H   UNL     1     -33.019   9.106  82.604  1.00  0.00     0.293 HD
ENDBRANCH  15  19
BRANCH  17  21
ATOM     21  O   UNL     1     -32.179   6.800  84.122  1.00  0.00    -0.502 OA
ATOM     22  H   UNL     1     -31.329   7.059  83.636  1.00  0.00     0.293 HD
ENDBRANCH  17  21
BRANCH  18  23
ATOM     23  O   UNL     1     -32.785   4.105  83.892  1.00  0.00    -0.504 OA
ATOM     24  H   UNL     1     -31.791   4.105  83.698  1.00  0.00     0.293 HD
ENDBRANCH  18  23
ENDBRANCH   3  13
BRANCH  10  25
ATOM     25  O   UNL     1     -40.990   4.092  78.416  1.00  0.00    -0.507 OA
ATOM     26  H   UNL     1     -41.741   4.697  78.118  1.00  0.00     0.293 HD
ENDBRANCH  10  25
BRANCH  11  27
ATOM     27  O   UNL     1     -42.172   2.697  82.836  1.00  0.00    -0.508 OA
ATOM     28  H   UNL     1     -42.236   1.695  82.980  1.00  0.00     0.293 HD
ENDBRANCH  11  27
ENDBRANCH   1   2
BRANCH   1  29
ATOM     29  C   UNL     1     -36.133   6.550  78.044  1.00  0.00     0.339 C 
ATOM     30  C   UNL     1     -36.828   7.886  78.340  1.00  0.00     0.214 C 
ATOM     31  O   UNL     1     -34.898   6.719  77.364  1.00  0.00    -0.332 OA
ATOM     32  C   UNL     1     -35.899   8.784  79.167  1.00  0.00     0.180 C 
ATOM     33  C   UNL     1     -33.961   7.567  78.020  1.00  0.00     0.179 C 
ATOM     34  C   UNL     1     -34.538   8.939  78.461  1.00  0.00     0.177 C 
BRANCH  30  35
ATOM     35  O   UNL     1     -37.177   8.505  77.128  1.00  0.00    -0.384 OA
ATOM     36  H   UNL     1     -36.802   7.947  76.399  1.00  0.00     0.211 HD
ENDBRANCH  30  35
BRANCH  32  37
ATOM     37  O   UNL     1     -36.503  10.037  79.365  1.00  0.00    -0.387 OA
ATOM     38  H   UNL     1     -37.255  10.097  78.719  1.00  0.00     0.211 HD
ENDBRANCH  32  37
BRANCH  33  39
ATOM     39  C   UNL     1     -33.127   6.824  79.090  1.00  0.00     0.191 C 
BRANCH  39  40
ATOM     40  O   UNL     1     -33.114   5.437  78.894  1.00  0.00    -0.394 OA
ATOM     41  H   UNL     1     -33.945   5.076  79.301  1.00  0.00     0.210 HD
ENDBRANCH  39  40
ENDBRANCH  33  39
BRANCH  34  42
ATOM     42  O   UNL     1     -34.674   9.758  77.326  1.00  0.00    -0.387 OA
ATOM     43  H   UNL     1     -35.560   9.557  76.924  1.00  0.00     0.211 HD
ENDBRANCH  34  42
ENDBRANCH   1  29
TORSDOF 13
ENDMDL
