MODEL 1
REMARK VINA RESULT:    -3.437      0.000      0.000
REMARK INTER + INTRA:          -6.546
REMARK INTER:                  -5.245
REMARK INTRA:                  -1.301
REMARK UNBOUND:                -1.301
REMARK SMILES CCCCCCCCCC=CC(=O)[O-]
REMARK SMILES IDX 7 1 8 2 9 3 10 4 11 5 12 6 13 7 14 8 6 9 5 10 4 11 3 12 2 13
REMARK SMILES IDX 1 14
REMARK H PARENT
REMARK Flexibility Score: inf
ROOT
ATOM      1  C   UNL     1      17.436 -11.742   0.150  1.00  0.00     0.000 C 
ENDROOT
BRANCH   1   2
ATOM      2  C   UNL     1      16.271 -10.910  -0.426  1.00  0.00     0.004 C 
BRANCH   2   3
ATOM      3  C   UNL     1      16.668  -9.972  -1.580  1.00  0.00     0.027 C 
BRANCH   3   4
ATOM      4  C   UNL     1      15.478  -9.423  -2.314  1.00  0.00    -0.025 C 
ATOM      5  C   UNL     1      14.477  -8.814  -1.668  1.00  0.00     0.020 C 
BRANCH   5   6
ATOM      6  C   UNL     1      13.305  -8.265  -2.368  1.00  0.00     0.064 C 
ATOM      7  O   UNL     1      12.134  -8.553  -2.003  1.00  0.00    -0.545 OA
ATOM      8  O   UNL     1      13.492  -7.412  -3.448  1.00  0.00    -0.545 OA
ENDBRANCH   5   6
ENDBRANCH   3   4
ENDBRANCH   2   3
ENDBRANCH   1   2
BRANCH   1   9
ATOM      9  C   UNL     1      18.064 -12.748  -0.831  1.00  0.00     0.000 C 
BRANCH   9  10
ATOM     10  C   UNL     1      17.323 -14.092  -0.866  1.00  0.00     0.000 C 
BRANCH  10  11
ATOM     11  C   UNL     1      16.881 -14.439  -2.294  1.00  0.00    -0.000 C 
BRANCH  11  12
ATOM     12  C   UNL     1      17.103 -13.251  -3.241  1.00  0.00    -0.000 C 
BRANCH  12  13
ATOM     13  C   UNL     1      15.812 -12.810  -3.947  1.00  0.00    -0.003 C 
ATOM     14  C   UNL     1      14.554 -13.164  -3.153  1.00  0.00     0.004 C 
ENDBRANCH  12  13
ENDBRANCH  11  12
ENDBRANCH  10  11
ENDBRANCH   9  10
ENDBRANCH   1   9
TORSDOF 9
ENDMDL
MODEL 2
REMARK VINA RESULT:    -3.406      5.726      7.730
REMARK INTER + INTRA:          -6.499
REMARK INTER:                  -5.648
REMARK INTRA:                  -0.851
REMARK UNBOUND:                -1.301
REMARK SMILES CCCCCCCCCC=CC(=O)[O-]
REMARK SMILES IDX 7 1 8 2 9 3 10 4 11 5 12 6 13 7 14 8 6 9 5 10 4 11 3 12 2 13
REMARK SMILES IDX 1 14
REMARK H PARENT
REMARK Flexibility Score: inf
ROOT
ATOM      1  C   UNL     1      17.225 -14.239  -0.182  1.00  0.00     0.000 C 
ENDROOT
BRANCH   1   2
ATOM      2  C   UNL     1      17.955 -15.138   0.837  1.00  0.00     0.004 C 
BRANCH   2   3
ATOM      3  C   UNL     1      17.467 -16.597   0.865  1.00  0.00     0.027 C 
BRANCH   3   4
ATOM      4  C   UNL     1      18.517 -17.566   0.400  1.00  0.00    -0.025 C 
ATOM      5  C   UNL     1      18.317 -18.359  -0.658  1.00  0.00     0.020 C 
BRANCH   5   6
ATOM      6  C   UNL     1      19.334 -19.311  -1.134  1.00  0.00     0.064 C 
ATOM      7  O   UNL     1      19.025 -20.266  -1.896  1.00  0.00    -0.545 OA
ATOM      8  O   UNL     1      20.655 -19.154  -0.738  1.00  0.00    -0.545 OA
ENDBRANCH   5   6
ENDBRANCH   3   4
ENDBRANCH   2   3
ENDBRANCH   1   2
BRANCH   1   9
ATOM      9  C   UNL     1      17.061 -14.848  -1.586  1.00  0.00     0.000 C 
BRANCH   9  10
ATOM     10  C   UNL     1      15.612 -14.804  -2.091  1.00  0.00     0.000 C 
BRANCH  10  11
ATOM     11  C   UNL     1      15.382 -13.587  -2.996  1.00  0.00    -0.000 C 
BRANCH  11  12
ATOM     12  C   UNL     1      16.692 -13.143  -3.664  1.00  0.00    -0.000 C 
BRANCH  12  13
ATOM     13  C   UNL     1      16.917 -11.627  -3.571  1.00  0.00    -0.003 C 
ATOM     14  C   UNL     1      16.445 -11.039  -2.240  1.00  0.00     0.004 C 
ENDBRANCH  12  13
ENDBRANCH  11  12
ENDBRANCH  10  11
ENDBRANCH   9  10
ENDBRANCH   1   9
TORSDOF 9
ENDMDL
MODEL 3
REMARK VINA RESULT:    -3.379      1.116      2.711
REMARK INTER + INTRA:          -6.458
REMARK INTER:                  -5.265
REMARK INTRA:                  -1.193
REMARK UNBOUND:                -1.301
REMARK SMILES CCCCCCCCCC=CC(=O)[O-]
REMARK SMILES IDX 7 1 8 2 9 3 10 4 11 5 12 6 13 7 14 8 6 9 5 10 4 11 3 12 2 13
REMARK SMILES IDX 1 14
REMARK H PARENT
REMARK Flexibility Score: inf
ROOT
ATOM      1  C   UNL     1      16.879 -11.524  -3.771  1.00  0.00     0.000 C 
ENDROOT
BRANCH   1   2
ATOM      2  C   UNL     1      16.615 -10.546  -2.607  1.00  0.00     0.004 C 
BRANCH   2   3
ATOM      3  C   UNL     1      15.348 -10.855  -1.790  1.00  0.00     0.027 C 
BRANCH   3   4
ATOM      4  C   UNL     1      14.289  -9.799  -1.944  1.00  0.00    -0.025 C 
ATOM      5  C   UNL     1      14.597  -8.544  -2.286  1.00  0.00     0.020 C 
BRANCH   5   6
ATOM      6  C   UNL     1      13.575  -7.497  -2.447  1.00  0.00     0.064 C 
ATOM      7  O   UNL     1      12.897  -7.406  -3.506  1.00  0.00    -0.545 OA
ATOM      8  O   UNL     1      13.352  -6.595  -1.415  1.00  0.00    -0.545 OA
ENDBRANCH   5   6
ENDBRANCH   3   4
ENDBRANCH   2   3
ENDBRANCH   1   2
BRANCH   1   9
ATOM      9  C   UNL     1      16.065 -12.830  -3.720  1.00  0.00     0.000 C 
BRANCH   9  10
ATOM     10  C   UNL     1      16.834 -13.988  -3.068  1.00  0.00     0.000 C 
BRANCH  10  11
ATOM     11  C   UNL     1      16.040 -14.585  -1.898  1.00  0.00    -0.000 C 
BRANCH  11  12
ATOM     12  C   UNL     1      16.675 -14.206  -0.553  1.00  0.00    -0.000 C 
BRANCH  12  13
ATOM     13  C   UNL     1      17.988 -13.425  -0.720  1.00  0.00    -0.003 C 
ATOM     14  C   UNL     1      18.143 -12.302   0.306  1.00  0.00     0.004 C 
ENDBRANCH  12  13
ENDBRANCH  11  12
ENDBRANCH  10  11
ENDBRANCH   9  10
ENDBRANCH   1   9
TORSDOF 9
ENDMDL
MODEL 4
REMARK VINA RESULT:    -3.335      1.604      2.966
REMARK INTER + INTRA:          -6.391
REMARK INTER:                  -5.647
REMARK INTRA:                  -0.744
REMARK UNBOUND:                -1.301
REMARK SMILES CCCCCCCCCC=CC(=O)[O-]
REMARK SMILES IDX 7 1 8 2 9 3 10 4 11 5 12 6 13 7 14 8 6 9 5 10 4 11 3 12 2 13
REMARK SMILES IDX 1 14
REMARK H PARENT
REMARK Flexibility Score: inf
ROOT
ATOM      1  C   UNL     1      15.139 -11.048  -1.749  1.00  0.00     0.000 C 
ENDROOT
BRANCH   1   2
ATOM      2  C   UNL     1      14.133  -9.884  -1.618  1.00  0.00     0.004 C 
BRANCH   2   3
ATOM      3  C   UNL     1      14.581  -8.576  -2.293  1.00  0.00     0.027 C 
BRANCH   3   4
ATOM      4  C   UNL     1      13.505  -7.527  -2.291  1.00  0.00    -0.025 C 
ATOM      5  C   UNL     1      12.395  -7.661  -3.023  1.00  0.00     0.020 C 
BRANCH   5   6
ATOM      6  C   UNL     1      11.327  -6.649  -3.031  1.00  0.00     0.064 C 
ATOM      7  O   UNL     1      11.575  -5.439  -2.777  1.00  0.00    -0.545 OA
ATOM      8  O   UNL     1      10.025  -7.031  -3.324  1.00  0.00    -0.545 OA
ENDBRANCH   5   6
ENDBRANCH   3   4
ENDBRANCH   2   3
ENDBRANCH   1   2
BRANCH   1   9
ATOM      9  C   UNL     1      16.368 -10.749  -2.626  1.00  0.00     0.000 C 
BRANCH   9  10
ATOM     10  C   UNL     1      16.579 -11.790  -3.735  1.00  0.00     0.000 C 
BRANCH  10  11
ATOM     11  C   UNL     1      15.940 -13.132  -3.356  1.00  0.00    -0.000 C 
BRANCH  11  12
ATOM     12  C   UNL     1      17.015 -14.188  -3.060  1.00  0.00    -0.000 C 
BRANCH  12  13
ATOM     13  C   UNL     1      17.011 -14.639  -1.591  1.00  0.00    -0.003 C 
ATOM     14  C   UNL     1      17.655 -13.614  -0.657  1.00  0.00     0.004 C 
ENDBRANCH  12  13
ENDBRANCH  11  12
ENDBRANCH  10  11
ENDBRANCH   9  10
ENDBRANCH   1   9
TORSDOF 9
ENDMDL
MODEL 5
REMARK VINA RESULT:    -3.251      6.000      7.995
REMARK INTER + INTRA:          -6.262
REMARK INTER:                  -5.408
REMARK INTRA:                  -0.855
REMARK UNBOUND:                -1.301
REMARK SMILES CCCCCCCCCC=CC(=O)[O-]
REMARK SMILES IDX 7 1 8 2 9 3 10 4 11 5 12 6 13 7 14 8 6 9 5 10 4 11 3 12 2 13
REMARK SMILES IDX 1 14
REMARK H PARENT
REMARK Flexibility Score: inf
ROOT
ATOM      1  C   UNL     1      16.609 -14.588   0.380  1.00  0.00     0.000 C 
ENDROOT
BRANCH   1   2
ATOM      2  C   UNL     1      17.147 -15.918   0.949  1.00  0.00     0.004 C 
BRANCH   2   3
ATOM      3  C   UNL     1      16.943 -17.134   0.029  1.00  0.00     0.027 C 
BRANCH   3   4
ATOM      4  C   UNL     1      18.241 -17.760  -0.398  1.00  0.00    -0.025 C 
ATOM      5  C   UNL     1      18.442 -19.079  -0.317  1.00  0.00     0.020 C 
BRANCH   5   6
ATOM      6  C   UNL     1      19.703 -19.712  -0.735  1.00  0.00     0.064 C 
ATOM      7  O   UNL     1      20.712 -19.018  -1.034  1.00  0.00    -0.545 OA
ATOM      8  O   UNL     1      19.785 -21.096  -0.799  1.00  0.00    -0.545 OA
ENDBRANCH   5   6
ENDBRANCH   3   4
ENDBRANCH   2   3
ENDBRANCH   1   2
BRANCH   1   9
ATOM      9  C   UNL     1      17.671 -13.493   0.172  1.00  0.00     0.000 C 
BRANCH   9  10
ATOM     10  C   UNL     1      17.855 -13.112  -1.304  1.00  0.00     0.000 C 
BRANCH  10  11
ATOM     11  C   UNL     1      17.150 -14.118  -2.223  1.00  0.00    -0.000 C 
BRANCH  11  12
ATOM     12  C   UNL     1      16.440 -13.400  -3.381  1.00  0.00    -0.000 C 
BRANCH  12  13
ATOM     13  C   UNL     1      14.914 -13.369  -3.208  1.00  0.00    -0.003 C 
ATOM     14  C   UNL     1      14.361 -14.659  -2.601  1.00  0.00     0.004 C 
ENDBRANCH  12  13
ENDBRANCH  11  12
ENDBRANCH  10  11
ENDBRANCH   9  10
ENDBRANCH   1   9
TORSDOF 9
ENDMDL
MODEL 6
REMARK VINA RESULT:    -3.249      1.014      1.834
REMARK INTER + INTRA:          -6.259
REMARK INTER:                  -4.603
REMARK INTRA:                  -1.656
REMARK UNBOUND:                -1.301
REMARK SMILES CCCCCCCCCC=CC(=O)[O-]
REMARK SMILES IDX 7 1 8 2 9 3 10 4 11 5 12 6 13 7 14 8 6 9 5 10 4 11 3 12 2 13
REMARK SMILES IDX 1 14
REMARK H PARENT
REMARK Flexibility Score: inf
ROOT
ATOM      1  C   UNL     1      17.905 -12.858  -0.923  1.00  0.00     0.000 C 
ENDROOT
BRANCH   1   2
ATOM      2  C   UNL     1      17.041 -11.772  -0.249  1.00  0.00     0.004 C 
BRANCH   2   3
ATOM      3  C   UNL     1      17.083 -10.400  -0.946  1.00  0.00     0.027 C 
BRANCH   3   4
ATOM      4  C   UNL     1      15.735  -9.739  -1.000  1.00  0.00    -0.025 C 
ATOM      5  C   UNL     1      15.226  -9.279  -2.148  1.00  0.00     0.020 C 
BRANCH   5   6
ATOM      6  C   UNL     1      13.906  -8.633  -2.224  1.00  0.00     0.064 C 
ATOM      7  O   UNL     1      12.933  -9.058  -1.544  1.00  0.00    -0.545 OA
ATOM      8  O   UNL     1      13.729  -7.536  -3.057  1.00  0.00    -0.545 OA
ENDBRANCH   5   6
ENDBRANCH   3   4
ENDBRANCH   2   3
ENDBRANCH   1   2
BRANCH   1   9
ATOM      9  C   UNL     1      17.174 -13.708  -1.979  1.00  0.00     0.000 C 
BRANCH   9  10
ATOM     10  C   UNL     1      17.112 -13.028  -3.354  1.00  0.00     0.000 C 
BRANCH  10  11
ATOM     11  C   UNL     1      15.658 -12.800  -3.789  1.00  0.00    -0.000 C 
BRANCH  11  12
ATOM     12  C   UNL     1      14.685 -13.547  -2.865  1.00  0.00    -0.000 C 
BRANCH  12  13
ATOM     13  C   UNL     1      13.592 -12.630  -2.296  1.00  0.00    -0.003 C 
ATOM     14  C   UNL     1      13.455 -12.746  -0.777  1.00  0.00     0.004 C 
ENDBRANCH  12  13
ENDBRANCH  11  12
ENDBRANCH  10  11
ENDBRANCH   9  10
ENDBRANCH   1   9
TORSDOF 9
ENDMDL
MODEL 7
REMARK VINA RESULT:    -3.240      1.870      4.022
REMARK INTER + INTRA:          -6.245
REMARK INTER:                  -4.925
REMARK INTRA:                  -1.320
REMARK UNBOUND:                -1.301
REMARK SMILES CCCCCCCCCC=CC(=O)[O-]
REMARK SMILES IDX 7 1 8 2 9 3 10 4 11 5 12 6 13 7 14 8 6 9 5 10 4 11 3 12 2 13
REMARK SMILES IDX 1 14
REMARK H PARENT
REMARK Flexibility Score: inf
ROOT
ATOM      1  C   UNL     1      17.457 -14.709  -0.878  1.00  0.00     0.000 C 
ENDROOT
BRANCH   1   2
ATOM      2  C   UNL     1      16.827 -14.861  -2.279  1.00  0.00     0.004 C 
BRANCH   2   3
ATOM      3  C   UNL     1      16.832 -13.574  -3.123  1.00  0.00     0.027 C 
BRANCH   3   4
ATOM      4  C   UNL     1      15.448 -13.060  -3.402  1.00  0.00    -0.025 C 
ATOM      5  C   UNL     1      14.375 -13.573  -2.792  1.00  0.00     0.020 C 
BRANCH   5   6
ATOM      6  C   UNL     1      13.012 -13.080  -3.046  1.00  0.00     0.064 C 
ATOM      7  O   UNL     1      12.294 -13.586  -3.951  1.00  0.00    -0.545 OA
ATOM      8  O   UNL     1      12.506 -12.041  -2.276  1.00  0.00    -0.545 OA
ENDBRANCH   5   6
ENDBRANCH   3   4
ENDBRANCH   2   3
ENDBRANCH   1   2
BRANCH   1   9
ATOM      9  C   UNL     1      17.011 -13.460  -0.097  1.00  0.00     0.000 C 
BRANCH   9  10
ATOM     10  C   UNL     1      18.191 -12.636   0.437  1.00  0.00     0.000 C 
BRANCH  10  11
ATOM     11  C   UNL     1      17.973 -11.138   0.187  1.00  0.00    -0.000 C 
BRANCH  11  12
ATOM     12  C   UNL     1      16.651 -10.892  -0.556  1.00  0.00    -0.000 C 
BRANCH  12  13
ATOM     13  C   UNL     1      16.810  -9.922  -1.737  1.00  0.00    -0.003 C 
ATOM     14  C   UNL     1      15.472  -9.524  -2.359  1.00  0.00     0.004 C 
ENDBRANCH  12  13
ENDBRANCH  11  12
ENDBRANCH  10  11
ENDBRANCH   9  10
ENDBRANCH   1   9
TORSDOF 9
ENDMDL
MODEL 8
REMARK VINA RESULT:    -3.220      1.568      2.517
REMARK INTER + INTRA:          -6.216
REMARK INTER:                  -4.710
REMARK INTRA:                  -1.505
REMARK UNBOUND:                -1.301
REMARK SMILES CCCCCCCCCC=CC(=O)[O-]
REMARK SMILES IDX 7 1 8 2 9 3 10 4 11 5 12 6 13 7 14 8 6 9 5 10 4 11 3 12 2 13
REMARK SMILES IDX 1 14
REMARK H PARENT
REMARK Flexibility Score: inf
ROOT
ATOM      1  C   UNL     1      16.210 -12.919  -3.762  1.00  0.00     0.000 C 
ENDROOT
BRANCH   1   2
ATOM      2  C   UNL     1      16.651 -11.461  -3.517  1.00  0.00     0.004 C 
BRANCH   2   3
ATOM      3  C   UNL     1      16.774 -11.073  -2.033  1.00  0.00     0.027 C 
BRANCH   3   4
ATOM      4  C   UNL     1      16.034  -9.807  -1.703  1.00  0.00    -0.025 C 
ATOM      5  C   UNL     1      15.056  -9.343  -2.488  1.00  0.00     0.020 C 
BRANCH   5   6
ATOM      6  C   UNL     1      14.316  -8.109  -2.180  1.00  0.00     0.064 C 
ATOM      7  O   UNL     1      14.341  -7.606  -1.024  1.00  0.00    -0.545 OA
ATOM      8  O   UNL     1      13.578  -7.488  -3.179  1.00  0.00    -0.545 OA
ENDBRANCH   5   6
ENDBRANCH   3   4
ENDBRANCH   2   3
ENDBRANCH   1   2
BRANCH   1   9
ATOM      9  C   UNL     1      17.040 -13.983  -3.019  1.00  0.00     0.000 C 
BRANCH   9  10
ATOM     10  C   UNL     1      16.203 -14.817  -2.039  1.00  0.00     0.000 C 
BRANCH  10  11
ATOM     11  C   UNL     1      14.745 -14.341  -2.019  1.00  0.00    -0.000 C 
BRANCH  11  12
ATOM     12  C   UNL     1      14.396 -13.696  -0.669  1.00  0.00    -0.000 C 
BRANCH  12  13
ATOM     13  C   UNL     1      13.486 -12.468  -0.820  1.00  0.00    -0.003 C 
ATOM     14  C   UNL     1      12.849 -12.370  -2.207  1.00  0.00     0.004 C 
ENDBRANCH  12  13
ENDBRANCH  11  12
ENDBRANCH  10  11
ENDBRANCH   9  10
ENDBRANCH   1   9
TORSDOF 9
ENDMDL
MODEL 9
REMARK VINA RESULT:    -3.193      2.405      4.716
REMARK INTER + INTRA:          -6.174
REMARK INTER:                  -4.922
REMARK INTRA:                  -1.252
REMARK UNBOUND:                -1.301
REMARK SMILES CCCCCCCCCC=CC(=O)[O-]
REMARK SMILES IDX 7 1 8 2 9 3 10 4 11 5 12 6 13 7 14 8 6 9 5 10 4 11 3 12 2 13
REMARK SMILES IDX 1 14
REMARK H PARENT
REMARK Flexibility Score: inf
ROOT
ATOM      1  C   UNL     1      16.139 -12.694  -3.885  1.00  0.00     0.000 C 
ENDROOT
BRANCH   1   2
ATOM      2  C   UNL     1      16.125 -13.933  -2.965  1.00  0.00     0.004 C 
BRANCH   2   3
ATOM      3  C   UNL     1      14.747 -14.267  -2.366  1.00  0.00     0.027 C 
BRANCH   3   4
ATOM      4  C   UNL     1      13.632 -13.502  -3.020  1.00  0.00    -0.025 C 
ATOM      5  C   UNL     1      12.397 -14.005  -3.111  1.00  0.00     0.020 C 
BRANCH   5   6
ATOM      6  C   UNL     1      11.289 -13.270  -3.742  1.00  0.00     0.064 C 
ATOM      7  O   UNL     1      10.886 -12.171  -3.273  1.00  0.00    -0.545 OA
ATOM      8  O   UNL     1      10.679 -13.793  -4.875  1.00  0.00    -0.545 OA
ENDBRANCH   5   6
ENDBRANCH   3   4
ENDBRANCH   2   3
ENDBRANCH   1   2
BRANCH   1   9
ATOM      9  C   UNL     1      17.048 -11.545  -3.413  1.00  0.00     0.000 C 
BRANCH   9  10
ATOM     10  C   UNL     1      16.281 -10.445  -2.664  1.00  0.00     0.000 C 
BRANCH  10  11
ATOM     11  C   UNL     1      16.736 -10.358  -1.201  1.00  0.00    -0.000 C 
BRANCH  11  12
ATOM     12  C   UNL     1      15.966 -11.357  -0.326  1.00  0.00    -0.000 C 
BRANCH  12  13
ATOM     13  C   UNL     1      16.892 -12.192   0.571  1.00  0.00    -0.003 C 
ATOM     14  C   UNL     1      18.160 -12.650  -0.152  1.00  0.00     0.004 C 
ENDBRANCH  12  13
ENDBRANCH  11  12
ENDBRANCH  10  11
ENDBRANCH   9  10
ENDBRANCH   1   9
TORSDOF 9
ENDMDL
