MODEL 1
REMARK VINA RESULT:    -4.371      0.000      0.000
REMARK INTER + INTRA:          -5.435
REMARK INTER:                  -5.137
REMARK INTRA:                  -0.298
REMARK UNBOUND:                -0.298
REMARK SMILES O=c1cc(-c2ccc(O)c(O)c2)oc2cc(O)cc(O)c12
REMARK SMILES IDX 4 1 3 2 2 3 1 4 21 5 19 6 18 7 16 8 15 9 14 10 13 11 5 12
REMARK SMILES IDX 6 13 7 14 8 15 12 16 10 17 9 18 11 20 20 22 17 24
REMARK H PARENT 9 19 11 21 20 23 17 25
REMARK Flexibility Score: inf
ROOT
ATOM      1  C   UNL     1      23.280  25.046   5.199  1.00  0.00     0.138 A 
ATOM      2  C   UNL     1      24.553  24.744   5.700  1.00  0.00     0.100 A 
ATOM      3  C   UNL     1      25.363  25.769   6.191  1.00  0.00     0.197 A 
ATOM      4  O   UNL     1      26.524  25.475   6.574  1.00  0.00    -0.289 OA
ATOM      5  C   UNL     1      24.880  27.099   6.211  1.00  0.00     0.107 A 
ATOM      6  C   UNL     1      25.600  28.218   6.727  1.00  0.00     0.134 A 
ATOM      7  C   UNL     1      25.068  29.505   6.588  1.00  0.00     0.093 A 
ATOM      8  C   UNL     1      23.817  29.708   6.007  1.00  0.00     0.123 A 
ATOM      9  C   UNL     1      23.079  28.616   5.547  1.00  0.00     0.094 A 
ATOM     10  C   UNL     1      23.598  27.323   5.642  1.00  0.00     0.146 A 
ATOM     11  O   UNL     1      22.870  26.311   5.179  1.00  0.00    -0.456 OA
ENDROOT
BRANCH   1  12
ATOM     12  C   UNL     1      22.378  23.995   4.665  1.00  0.00     0.021 A 
ATOM     13  C   UNL     1      22.912  22.951   3.894  1.00  0.00     0.016 A 
ATOM     14  C   UNL     1      22.084  21.956   3.375  1.00  0.00     0.051 A 
ATOM     15  C   UNL     1      20.704  21.982   3.604  1.00  0.00     0.157 A 
ATOM     16  C   UNL     1      20.987  24.032   4.883  1.00  0.00     0.062 A 
ATOM     17  C   UNL     1      20.148  23.038   4.364  1.00  0.00     0.158 A 
BRANCH  15  18
ATOM     18  O   UNL     1      19.933  20.953   3.061  1.00  0.00    -0.504 OA
ATOM     19  H   UNL     1      19.222  20.450   3.574  1.00  0.00     0.293 HD
ENDBRANCH  15  18
BRANCH  17  20
ATOM     20  O   UNL     1      18.779  23.141   4.621  1.00  0.00    -0.504 OA
ATOM     21  H   UNL     1      18.242  23.985   4.490  1.00  0.00     0.293 HD
ENDBRANCH  17  20
ENDBRANCH   1  12
BRANCH   6  22
ATOM     22  O   UNL     1      26.821  28.117   7.402  1.00  0.00    -0.507 OA
ATOM     23  H   UNL     1      26.926  27.827   8.361  1.00  0.00     0.293 HD
ENDBRANCH   6  22
BRANCH   8  24
ATOM     24  O   UNL     1      23.311  31.002   5.898  1.00  0.00    -0.508 OA
ATOM     25  H   UNL     1      22.316  31.187   5.938  1.00  0.00     0.293 HD
ENDBRANCH   8  24
TORSDOF 5
ENDMDL
MODEL 2
REMARK VINA RESULT:    -4.337      2.944      6.475
REMARK INTER + INTRA:          -5.396
REMARK INTER:                  -5.129
REMARK INTRA:                  -0.267
REMARK UNBOUND:                -0.298
REMARK SMILES O=c1cc(-c2ccc(O)c(O)c2)oc2cc(O)cc(O)c12
REMARK SMILES IDX 4 1 3 2 2 3 1 4 21 5 19 6 18 7 16 8 15 9 14 10 13 11 5 12
REMARK SMILES IDX 6 13 7 14 8 15 12 16 10 17 9 18 11 20 20 22 17 24
REMARK H PARENT 9 19 11 21 20 23 17 25
REMARK Flexibility Score: inf
ROOT
ATOM      1  C   UNL     1      24.949  28.382   5.395  1.00  0.00     0.138 A 
ATOM      2  C   UNL     1      26.052  28.513   6.248  1.00  0.00     0.100 A 
ATOM      3  C   UNL     1      26.718  27.372   6.698  1.00  0.00     0.197 A 
ATOM      4  O   UNL     1      27.665  27.520   7.513  1.00  0.00    -0.289 OA
ATOM      5  C   UNL     1      26.295  26.094   6.263  1.00  0.00     0.107 A 
ATOM      6  C   UNL     1      26.922  24.864   6.622  1.00  0.00     0.134 A 
ATOM      7  C   UNL     1      26.345  23.652   6.225  1.00  0.00     0.093 A 
ATOM      8  C   UNL     1      25.199  23.627   5.431  1.00  0.00     0.123 A 
ATOM      9  C   UNL     1      24.606  24.825   5.029  1.00  0.00     0.094 A 
ATOM     10  C   UNL     1      25.140  26.049   5.437  1.00  0.00     0.146 A 
ATOM     11  O   UNL     1      24.538  27.167   5.044  1.00  0.00    -0.456 OA
ENDROOT
BRANCH   1  12
ATOM     12  C   UNL     1      24.205  29.562   4.887  1.00  0.00     0.021 A 
ATOM     13  C   UNL     1      24.452  30.027   3.585  1.00  0.00     0.016 A 
ATOM     14  C   UNL     1      23.771  31.138   3.088  1.00  0.00     0.051 A 
ATOM     15  C   UNL     1      22.836  31.816   3.877  1.00  0.00     0.157 A 
ATOM     16  C   UNL     1      23.277  30.253   5.688  1.00  0.00     0.062 A 
ATOM     17  C   UNL     1      22.590  31.371   5.197  1.00  0.00     0.158 A 
BRANCH  15  18
ATOM     18  O   UNL     1      22.185  32.917   3.317  1.00  0.00    -0.504 OA
ATOM     19  H   UNL     1      22.607  33.830   3.214  1.00  0.00     0.293 HD
ENDBRANCH  15  18
BRANCH  17  20
ATOM     20  O   UNL     1      21.684  32.006   6.049  1.00  0.00    -0.504 OA
ATOM     21  H   UNL     1      21.524  31.733   7.008  1.00  0.00     0.293 HD
ENDBRANCH  17  20
ENDBRANCH   1  12
BRANCH   6  22
ATOM     22  O   UNL     1      28.119  24.779   7.341  1.00  0.00    -0.507 OA
ATOM     23  H   UNL     1      28.197  24.463   8.295  1.00  0.00     0.293 HD
ENDBRANCH   6  22
BRANCH   8  24
ATOM     24  O   UNL     1      24.660  22.402   5.042  1.00  0.00    -0.508 OA
ATOM     25  H   UNL     1      23.771  22.076   5.402  1.00  0.00     0.293 HD
ENDBRANCH   8  24
TORSDOF 5
ENDMDL
MODEL 3
REMARK VINA RESULT:    -4.206      3.298      6.987
REMARK INTER + INTRA:          -5.242
REMARK INTER:                  -4.932
REMARK INTRA:                  -0.310
REMARK UNBOUND:                -0.298
REMARK SMILES O=c1cc(-c2ccc(O)c(O)c2)oc2cc(O)cc(O)c12
REMARK SMILES IDX 4 1 3 2 2 3 1 4 21 5 19 6 18 7 16 8 15 9 14 10 13 11 5 12
REMARK SMILES IDX 6 13 7 14 8 15 12 16 10 17 9 18 11 20 20 22 17 24
REMARK H PARENT 9 19 11 21 20 23 17 25
REMARK Flexibility Score: inf
ROOT
ATOM      1  C   UNL     1      24.467  29.397   6.750  1.00  0.00     0.138 A 
ATOM      2  C   UNL     1      25.721  29.188   7.339  1.00  0.00     0.100 A 
ATOM      3  C   UNL     1      26.514  28.120   6.916  1.00  0.00     0.197 A 
ATOM      4  O   UNL     1      27.606  27.921   7.507  1.00  0.00    -0.289 OA
ATOM      5  C   UNL     1      26.060  27.278   5.872  1.00  0.00     0.107 A 
ATOM      6  C   UNL     1      26.800  26.185   5.330  1.00  0.00     0.134 A 
ATOM      7  C   UNL     1      26.201  25.350   4.379  1.00  0.00     0.093 A 
ATOM      8  C   UNL     1      24.914  25.603   3.907  1.00  0.00     0.123 A 
ATOM      9  C   UNL     1      24.200  26.701   4.391  1.00  0.00     0.094 A 
ATOM     10  C   UNL     1      24.758  27.533   5.364  1.00  0.00     0.146 A 
ATOM     11  O   UNL     1      24.040  28.559   5.810  1.00  0.00    -0.456 OA
ENDROOT
BRANCH   1  12
ATOM     12  C   UNL     1      23.584  30.517   7.162  1.00  0.00     0.021 A 
ATOM     13  C   UNL     1      23.724  31.073   8.444  1.00  0.00     0.016 A 
ATOM     14  C   UNL     1      22.901  32.121   8.857  1.00  0.00     0.051 A 
ATOM     15  C   UNL     1      21.915  32.633   8.008  1.00  0.00     0.157 A 
ATOM     16  C   UNL     1      22.581  31.020   6.313  1.00  0.00     0.062 A 
ATOM     17  C   UNL     1      21.749  32.071   6.721  1.00  0.00     0.158 A 
BRANCH  15  18
ATOM     18  O   UNL     1      21.129  33.686   8.481  1.00  0.00    -0.504 OA
ATOM     19  H   UNL     1      21.398  34.658   8.429  1.00  0.00     0.293 HD
ENDBRANCH  15  18
BRANCH  17  20
ATOM     20  O   UNL     1      20.776  32.518   5.824  1.00  0.00    -0.504 OA
ATOM     21  H   UNL     1      20.776  33.434   5.400  1.00  0.00     0.293 HD
ENDBRANCH  17  20
ENDBRANCH   1  12
BRANCH   6  22
ATOM     22  O   UNL     1      28.125  25.894   5.670  1.00  0.00    -0.507 OA
ATOM     23  H   UNL     1      28.468  24.980   5.920  1.00  0.00     0.293 HD
ENDBRANCH   6  22
BRANCH   8  24
ATOM     24  O   UNL     1      24.355  24.760   2.950  1.00  0.00    -0.508 OA
ATOM     25  H   UNL     1      24.152  25.084   2.011  1.00  0.00     0.293 HD
ENDBRANCH   8  24
TORSDOF 5
ENDMDL
MODEL 4
REMARK VINA RESULT:    -4.189      2.068      3.536
REMARK INTER + INTRA:          -5.222
REMARK INTER:                  -4.913
REMARK INTRA:                  -0.310
REMARK UNBOUND:                -0.298
REMARK SMILES O=c1cc(-c2ccc(O)c(O)c2)oc2cc(O)cc(O)c12
REMARK SMILES IDX 4 1 3 2 2 3 1 4 21 5 19 6 18 7 16 8 15 9 14 10 13 11 5 12
REMARK SMILES IDX 6 13 7 14 8 15 12 16 10 17 9 18 11 20 20 22 17 24
REMARK H PARENT 9 19 11 21 20 23 17 25
REMARK Flexibility Score: inf
ROOT
ATOM      1  C   UNL     1      23.252  25.358   4.687  1.00  0.00     0.138 A 
ATOM      2  C   UNL     1      22.308  26.079   3.944  1.00  0.00     0.100 A 
ATOM      3  C   UNL     1      22.201  27.460   4.117  1.00  0.00     0.197 A 
ATOM      4  O   UNL     1      21.303  28.069   3.483  1.00  0.00    -0.289 OA
ATOM      5  C   UNL     1      23.068  28.125   5.017  1.00  0.00     0.107 A 
ATOM      6  C   UNL     1      23.079  29.533   5.244  1.00  0.00     0.134 A 
ATOM      7  C   UNL     1      23.902  30.065   6.243  1.00  0.00     0.093 A 
ATOM      8  C   UNL     1      24.759  29.249   6.981  1.00  0.00     0.123 A 
ATOM      9  C   UNL     1      24.796  27.876   6.731  1.00  0.00     0.094 A 
ATOM     10  C   UNL     1      23.962  27.312   5.764  1.00  0.00     0.146 A 
ATOM     11  O   UNL     1      24.018  25.998   5.566  1.00  0.00    -0.456 OA
ENDROOT
BRANCH   1  12
ATOM     12  C   UNL     1      23.408  23.888   4.542  1.00  0.00     0.021 A 
ATOM     13  C   UNL     1      22.326  23.119   4.086  1.00  0.00     0.016 A 
ATOM     14  C   UNL     1      22.446  21.736   3.948  1.00  0.00     0.051 A 
ATOM     15  C   UNL     1      23.642  21.087   4.270  1.00  0.00     0.157 A 
ATOM     16  C   UNL     1      24.608  23.234   4.882  1.00  0.00     0.062 A 
ATOM     17  C   UNL     1      24.735  21.846   4.748  1.00  0.00     0.158 A 
BRANCH  15  18
ATOM     18  O   UNL     1      23.697  19.702   4.104  1.00  0.00    -0.504 OA
ATOM     19  H   UNL     1      24.513  19.141   4.307  1.00  0.00     0.293 HD
ENDBRANCH  15  18
BRANCH  17  20
ATOM     20  O   UNL     1      25.955  21.266   5.105  1.00  0.00    -0.504 OA
ATOM     21  H   UNL     1      26.390  20.509   4.598  1.00  0.00     0.293 HD
ENDBRANCH  17  20
ENDBRANCH   1  12
BRANCH   6  22
ATOM     22  O   UNL     1      22.324  30.449   4.504  1.00  0.00    -0.507 OA
ATOM     23  H   UNL     1      21.468  30.878   4.818  1.00  0.00     0.293 HD
ENDBRANCH   6  22
BRANCH   8  24
ATOM     24  O   UNL     1      25.575  29.815   7.958  1.00  0.00    -0.508 OA
ATOM     25  H   UNL     1      25.748  30.813   7.992  1.00  0.00     0.293 HD
ENDBRANCH   8  24
TORSDOF 5
ENDMDL
MODEL 5
REMARK VINA RESULT:    -4.184      1.748      6.744
REMARK INTER + INTRA:          -5.216
REMARK INTER:                  -4.924
REMARK INTRA:                  -0.292
REMARK UNBOUND:                -0.298
REMARK SMILES O=c1cc(-c2ccc(O)c(O)c2)oc2cc(O)cc(O)c12
REMARK SMILES IDX 4 1 3 2 2 3 1 4 21 5 19 6 18 7 16 8 15 9 14 10 13 11 5 12
REMARK SMILES IDX 6 13 7 14 8 15 12 16 10 17 9 18 11 20 20 22 17 24
REMARK H PARENT 9 19 11 21 20 23 17 25
REMARK Flexibility Score: inf
ROOT
ATOM      1  C   UNL     1      24.410  25.709   5.588  1.00  0.00     0.138 A 
ATOM      2  C   UNL     1      25.569  25.073   6.053  1.00  0.00     0.100 A 
ATOM      3  C   UNL     1      25.737  23.704   5.842  1.00  0.00     0.197 A 
ATOM      4  O   UNL     1      26.757  23.150   6.326  1.00  0.00    -0.289 OA
ATOM      5  C   UNL     1      24.753  22.976   5.132  1.00  0.00     0.107 A 
ATOM      6  C   UNL     1      24.837  21.586   4.821  1.00  0.00     0.134 A 
ATOM      7  C   UNL     1      23.749  20.947   4.214  1.00  0.00     0.093 A 
ATOM      8  C   UNL     1      22.606  21.659   3.853  1.00  0.00     0.123 A 
ATOM      9  C   UNL     1      22.534  23.030   4.104  1.00  0.00     0.094 A 
ATOM     10  C   UNL     1      23.590  23.689   4.738  1.00  0.00     0.146 A 
ATOM     11  O   UNL     1      23.476  24.993   4.972  1.00  0.00    -0.456 OA
ENDROOT
BRANCH   1  12
ATOM     12  C   UNL     1      24.181  27.163   5.786  1.00  0.00     0.021 A 
ATOM     13  C   UNL     1      23.270  27.838   4.957  1.00  0.00     0.016 A 
ATOM     14  C   UNL     1      23.043  29.205   5.119  1.00  0.00     0.051 A 
ATOM     15  C   UNL     1      23.723  29.932   6.101  1.00  0.00     0.157 A 
ATOM     16  C   UNL     1      24.878  27.896   6.764  1.00  0.00     0.062 A 
ATOM     17  C   UNL     1      24.657  29.269   6.931  1.00  0.00     0.158 A 
BRANCH  15  18
ATOM     18  O   UNL     1      23.445  31.296   6.214  1.00  0.00    -0.504 OA
ATOM     19  H   UNL     1      22.894  31.816   5.546  1.00  0.00     0.293 HD
ENDBRANCH  15  18
BRANCH  17  20
ATOM     20  O   UNL     1      25.386  29.931   7.923  1.00  0.00    -0.504 OA
ATOM     21  H   UNL     1      24.967  30.415   8.703  1.00  0.00     0.293 HD
ENDBRANCH  17  20
ENDBRANCH   1  12
BRANCH   6  22
ATOM     22  O   UNL     1      25.968  20.799   5.061  1.00  0.00    -0.507 OA
ATOM     23  H   UNL     1      26.108  19.866   4.705  1.00  0.00     0.293 HD
ENDBRANCH   6  22
BRANCH   8  24
ATOM     24  O   UNL     1      21.548  20.993   3.237  1.00  0.00    -0.508 OA
ATOM     25  H   UNL     1      21.328  21.139   2.259  1.00  0.00     0.293 HD
ENDBRANCH   8  24
TORSDOF 5
ENDMDL
MODEL 6
REMARK VINA RESULT:    -4.151      1.435      2.820
REMARK INTER + INTRA:          -5.177
REMARK INTER:                  -4.914
REMARK INTRA:                  -0.264
REMARK UNBOUND:                -0.298
REMARK SMILES O=c1cc(-c2ccc(O)c(O)c2)oc2cc(O)cc(O)c12
REMARK SMILES IDX 4 1 3 2 2 3 1 4 21 5 19 6 18 7 16 8 15 9 14 10 13 11 5 12
REMARK SMILES IDX 6 13 7 14 8 15 12 16 10 17 9 18 11 20 20 22 17 24
REMARK H PARENT 9 19 11 21 20 23 17 25
REMARK Flexibility Score: inf
ROOT
ATOM      1  C   UNL     1      22.326  26.148   4.302  1.00  0.00     0.138 A 
ATOM      2  C   UNL     1      21.829  27.231   3.564  1.00  0.00     0.100 A 
ATOM      3  C   UNL     1      22.270  28.523   3.851  1.00  0.00     0.197 A 
ATOM      4  O   UNL     1      21.759  29.480   3.215  1.00  0.00    -0.289 OA
ATOM      5  C   UNL     1      23.239  28.727   4.862  1.00  0.00     0.107 A 
ATOM      6  C   UNL     1      23.794  29.994   5.214  1.00  0.00     0.134 A 
ATOM      7  C   UNL     1      24.660  30.089   6.309  1.00  0.00     0.093 A 
ATOM      8  C   UNL     1      25.039  28.956   7.028  1.00  0.00     0.123 A 
ATOM      9  C   UNL     1      24.545  27.703   6.660  1.00  0.00     0.094 A 
ATOM     10  C   UNL     1      23.653  27.581   5.592  1.00  0.00     0.146 A 
ATOM     11  O   UNL     1      23.195  26.372   5.283  1.00  0.00    -0.456 OA
ENDROOT
BRANCH   1  12
ATOM     12  C   UNL     1      21.891  24.754   4.037  1.00  0.00     0.021 A 
ATOM     13  C   UNL     1      22.627  23.957   3.145  1.00  0.00     0.016 A 
ATOM     14  C   UNL     1      22.234  22.646   2.876  1.00  0.00     0.051 A 
ATOM     15  C   UNL     1      21.096  22.101   3.480  1.00  0.00     0.157 A 
ATOM     16  C   UNL     1      20.736  24.213   4.634  1.00  0.00     0.062 A 
ATOM     17  C   UNL     1      20.334  22.898   4.366  1.00  0.00     0.158 A 
BRANCH  15  18
ATOM     18  O   UNL     1      20.761  20.781   3.171  1.00  0.00    -0.504 OA
ATOM     19  H   UNL     1      20.196  20.513   2.377  1.00  0.00     0.293 HD
ENDBRANCH  15  18
BRANCH  17  20
ATOM     20  O   UNL     1      19.178  22.429   4.995  1.00  0.00    -0.504 OA
ATOM     21  H   UNL     1      18.773  21.520   4.827  1.00  0.00     0.293 HD
ENDBRANCH  17  20
ENDBRANCH   1  12
BRANCH   6  22
ATOM     22  O   UNL     1      23.547  31.177   4.509  1.00  0.00    -0.507 OA
ATOM     23  H   UNL     1      22.935  31.256   3.713  1.00  0.00     0.293 HD
ENDBRANCH   6  22
BRANCH   8  24
ATOM     24  O   UNL     1      25.915  29.085   8.103  1.00  0.00    -0.508 OA
ATOM     25  H   UNL     1      26.855  29.445   7.982  1.00  0.00     0.293 HD
ENDBRANCH   8  24
TORSDOF 5
ENDMDL
MODEL 7
REMARK VINA RESULT:    -4.049      2.484      6.964
REMARK INTER + INTRA:          -5.057
REMARK INTER:                  -4.741
REMARK INTRA:                  -0.316
REMARK UNBOUND:                -0.298
REMARK SMILES O=c1cc(-c2ccc(O)c(O)c2)oc2cc(O)cc(O)c12
REMARK SMILES IDX 4 1 3 2 2 3 1 4 21 5 19 6 18 7 16 8 15 9 14 10 13 11 5 12
REMARK SMILES IDX 6 13 7 14 8 15 12 16 10 17 9 18 11 20 20 22 17 24
REMARK H PARENT 9 19 11 21 20 23 17 25
REMARK Flexibility Score: inf
ROOT
ATOM      1  C   UNL     1      25.070  24.307   5.484  1.00  0.00     0.138 A 
ATOM      2  C   UNL     1      26.172  23.507   5.814  1.00  0.00     0.100 A 
ATOM      3  C   UNL     1      26.160  22.149   5.494  1.00  0.00     0.197 A 
ATOM      4  O   UNL     1      27.136  21.445   5.860  1.00  0.00    -0.289 OA
ATOM      5  C   UNL     1      25.052  21.598   4.808  1.00  0.00     0.107 A 
ATOM      6  C   UNL     1      24.948  20.237   4.393  1.00  0.00     0.134 A 
ATOM      7  C   UNL     1      23.754  19.777   3.825  1.00  0.00     0.093 A 
ATOM      8  C   UNL     1      22.683  20.642   3.601  1.00  0.00     0.123 A 
ATOM      9  C   UNL     1      22.792  21.988   3.955  1.00  0.00     0.094 A 
ATOM     10  C   UNL     1      23.959  22.469   4.554  1.00  0.00     0.146 A 
ATOM     11  O   UNL     1      24.018  23.754   4.889  1.00  0.00    -0.456 OA
ENDROOT
BRANCH   1  12
ATOM     12  C   UNL     1      25.030  25.757   5.801  1.00  0.00     0.021 A 
ATOM     13  C   UNL     1      26.203  26.406   6.218  1.00  0.00     0.016 A 
ATOM     14  C   UNL     1      26.189  27.766   6.529  1.00  0.00     0.051 A 
ATOM     15  C   UNL     1      25.006  28.508   6.441  1.00  0.00     0.157 A 
ATOM     16  C   UNL     1      23.836  26.498   5.728  1.00  0.00     0.062 A 
ATOM     17  C   UNL     1      23.813  27.863   6.040  1.00  0.00     0.158 A 
BRANCH  15  18
ATOM     18  O   UNL     1      25.062  29.866   6.761  1.00  0.00    -0.504 OA
ATOM     19  H   UNL     1      25.919  30.398   6.813  1.00  0.00     0.293 HD
ENDBRANCH  15  18
BRANCH  17  20
ATOM     20  O   UNL     1      22.591  28.534   5.945  1.00  0.00    -0.504 OA
ATOM     21  H   UNL     1      22.481  29.452   5.542  1.00  0.00     0.293 HD
ENDBRANCH  17  20
ENDBRANCH   1  12
BRANCH   6  22
ATOM     22  O   UNL     1      25.989  19.308   4.492  1.00  0.00    -0.507 OA
ATOM     23  H   UNL     1      26.075  18.477   3.929  1.00  0.00     0.293 HD
ENDBRANCH   6  22
BRANCH   8  24
ATOM     24  O   UNL     1      21.515  20.154   3.020  1.00  0.00    -0.508 OA
ATOM     25  H   UNL     1      21.507  19.289   2.492  1.00  0.00     0.293 HD
ENDBRANCH   8  24
TORSDOF 5
ENDMDL
MODEL 8
REMARK VINA RESULT:    -4.025      0.605      1.444
REMARK INTER + INTRA:          -5.029
REMARK INTER:                  -4.735
REMARK INTRA:                  -0.293
REMARK UNBOUND:                -0.298
REMARK SMILES O=c1cc(-c2ccc(O)c(O)c2)oc2cc(O)cc(O)c12
REMARK SMILES IDX 4 1 3 2 2 3 1 4 21 5 19 6 18 7 16 8 15 9 14 10 13 11 5 12
REMARK SMILES IDX 6 13 7 14 8 15 12 16 10 17 9 18 11 20 20 22 17 24
REMARK H PARENT 9 19 11 21 20 23 17 25
REMARK Flexibility Score: inf
ROOT
ATOM      1  C   UNL     1      23.193  25.087   5.178  1.00  0.00     0.138 A 
ATOM      2  C   UNL     1      24.461  24.750   5.669  1.00  0.00     0.100 A 
ATOM      3  C   UNL     1      25.304  25.753   6.150  1.00  0.00     0.197 A 
ATOM      4  O   UNL     1      26.459  25.428   6.526  1.00  0.00    -0.289 OA
ATOM      5  C   UNL     1      24.859  27.097   6.168  1.00  0.00     0.107 A 
ATOM      6  C   UNL     1      25.615  28.196   6.674  1.00  0.00     0.134 A 
ATOM      7  C   UNL     1      25.119  29.498   6.533  1.00  0.00     0.093 A 
ATOM      8  C   UNL     1      23.870  29.735   5.961  1.00  0.00     0.123 A 
ATOM      9  C   UNL     1      23.098  28.662   5.511  1.00  0.00     0.094 A 
ATOM     10  C   UNL     1      23.580  27.355   5.608  1.00  0.00     0.146 A 
ATOM     11  O   UNL     1      22.820  26.363   5.155  1.00  0.00    -0.456 OA
ENDROOT
BRANCH   1  12
ATOM     12  C   UNL     1      22.257  24.060   4.655  1.00  0.00     0.021 A 
ATOM     13  C   UNL     1      20.891  24.365   4.536  1.00  0.00     0.016 A 
ATOM     14  C   UNL     1      19.991  23.415   4.054  1.00  0.00     0.051 A 
ATOM     15  C   UNL     1      20.427  22.137   3.689  1.00  0.00     0.157 A 
ATOM     16  C   UNL     1      22.695  22.770   4.303  1.00  0.00     0.062 A 
ATOM     17  C   UNL     1      21.797  21.809   3.820  1.00  0.00     0.158 A 
BRANCH  15  18
ATOM     18  O   UNL     1      19.476  21.235   3.209  1.00  0.00    -0.504 OA
ATOM     19  H   UNL     1      19.679  20.498   2.549  1.00  0.00     0.293 HD
ENDBRANCH  15  18
BRANCH  17  20
ATOM     20  O   UNL     1      22.304  20.550   3.491  1.00  0.00    -0.504 OA
ATOM     21  H   UNL     1      23.267  20.375   3.244  1.00  0.00     0.293 HD
ENDBRANCH  17  20
ENDBRANCH   1  12
BRANCH   6  22
ATOM     22  O   UNL     1      26.838  28.063   7.340  1.00  0.00    -0.507 OA
ATOM     23  H   UNL     1      27.159  28.667   8.080  1.00  0.00     0.293 HD
ENDBRANCH   6  22
BRANCH   8  24
ATOM     24  O   UNL     1      23.402  31.042   5.851  1.00  0.00    -0.508 OA
ATOM     25  H   UNL     1      23.107  31.426   4.960  1.00  0.00     0.293 HD
ENDBRANCH   8  24
TORSDOF 5
ENDMDL
MODEL 9
REMARK VINA RESULT:    -4.022      1.520      7.366
REMARK INTER + INTRA:          -5.025
REMARK INTER:                  -4.729
REMARK INTRA:                  -0.296
REMARK UNBOUND:                -0.298
REMARK SMILES O=c1cc(-c2ccc(O)c(O)c2)oc2cc(O)cc(O)c12
REMARK SMILES IDX 4 1 3 2 2 3 1 4 21 5 19 6 18 7 16 8 15 9 14 10 13 11 5 12
REMARK SMILES IDX 6 13 7 14 8 15 12 16 10 17 9 18 11 20 20 22 17 24
REMARK H PARENT 9 19 11 21 20 23 17 25
REMARK Flexibility Score: inf
ROOT
ATOM      1  C   UNL     1      22.502  25.028   4.726  1.00  0.00     0.138 A 
ATOM      2  C   UNL     1      21.121  25.044   4.487  1.00  0.00     0.100 A 
ATOM      3  C   UNL     1      20.494  23.903   3.983  1.00  0.00     0.197 A 
ATOM      4  O   UNL     1      19.266  23.969   3.720  1.00  0.00    -0.289 OA
ATOM      5  C   UNL     1      21.251  22.731   3.748  1.00  0.00     0.107 A 
ATOM      6  C   UNL     1      20.712  21.497   3.276  1.00  0.00     0.134 A 
ATOM      7  C   UNL     1      21.576  20.438   2.970  1.00  0.00     0.093 A 
ATOM      8  C   UNL     1      22.950  20.548   3.176  1.00  0.00     0.123 A 
ATOM      9  C   UNL     1      23.483  21.732   3.689  1.00  0.00     0.094 A 
ATOM     10  C   UNL     1      22.651  22.817   3.972  1.00  0.00     0.146 A 
ATOM     11  O   UNL     1      23.199  23.931   4.445  1.00  0.00    -0.456 OA
ENDROOT
BRANCH   1  12
ATOM     12  C   UNL     1      23.219  26.213   5.261  1.00  0.00     0.021 A 
ATOM     13  C   UNL     1      24.550  26.081   5.689  1.00  0.00     0.016 A 
ATOM     14  C   UNL     1      25.242  27.178   6.202  1.00  0.00     0.051 A 
ATOM     15  C   UNL     1      24.623  28.428   6.310  1.00  0.00     0.157 A 
ATOM     16  C   UNL     1      22.589  27.466   5.384  1.00  0.00     0.062 A 
ATOM     17  C   UNL     1      23.277  28.572   5.900  1.00  0.00     0.158 A 
BRANCH  15  18
ATOM     18  O   UNL     1      25.374  29.485   6.827  1.00  0.00    -0.504 OA
ATOM     19  H   UNL     1      25.263  29.851   7.762  1.00  0.00     0.293 HD
ENDBRANCH  15  18
BRANCH  17  20
ATOM     20  O   UNL     1      22.588  29.783   5.993  1.00  0.00    -0.504 OA
ATOM     21  H   UNL     1      21.644  29.923   5.661  1.00  0.00     0.293 HD
ENDBRANCH  17  20
ENDBRANCH   1  12
BRANCH   6  22
ATOM     22  O   UNL     1      19.344  21.252   3.115  1.00  0.00    -0.507 OA
ATOM     23  H   UNL     1      18.718  21.820   2.566  1.00  0.00     0.293 HD
ENDBRANCH   6  22
BRANCH   8  24
ATOM     24  O   UNL     1      23.778  19.469   2.875  1.00  0.00    -0.508 OA
ATOM     25  H   UNL     1      24.520  19.178   3.502  1.00  0.00     0.293 HD
ENDBRANCH   8  24
TORSDOF 5
ENDMDL
