MODEL 1
REMARK VINA RESULT:    -4.664      0.000      0.000
REMARK INTER + INTRA:          -5.210
REMARK INTER:                  -5.073
REMARK INTRA:                  -0.136
REMARK UNBOUND:                -0.136
REMARK SMILES C=C(C)[C@H]1CC=C(C)[C@H](O)C1
REMARK SMILES IDX 8 1 7 2 6 3 5 4 4 5 11 6 9 7 10 8 2 10 1 11 3 12
REMARK H PARENT 10 9
REMARK Flexibility Score: inf
ROOT
ATOM      1  C   UNL     1     109.672 119.226 125.134  1.00  0.00     0.042 C 
ATOM      2  C   UNL     1     109.724 118.449 126.423  1.00  0.00    -0.049 C 
ATOM      3  C   UNL     1     109.603 117.110 126.420  1.00  0.00    -0.025 C 
ATOM      4  C   UNL     1     109.722 116.352 127.713  1.00  0.00     0.035 C 
ATOM      5  C   UNL     1     110.952 116.841 128.515  1.00  0.00     0.021 C 
ATOM      6  C   UNL     1     111.129 118.394 128.500  1.00  0.00     0.044 C 
ATOM      7  C   UNL     1     110.008 119.140 127.745  1.00  0.00     0.140 C 
ENDROOT
BRANCH   7   8
ATOM      8  O   UNL     1     110.379 120.479 127.537  1.00  0.00    -0.389 OA
ATOM      9  H   UNL     1     111.358 120.530 127.685  1.00  0.00     0.211 HD
ENDBRANCH   7   8
BRANCH   5  10
ATOM     10  C   UNL     1     110.907 116.293 129.934  1.00  0.00    -0.077 C 
ATOM     11  C   UNL     1     110.000 116.750 130.812  1.00  0.00     0.008 C 
ATOM     12  C   UNL     1     111.897 115.251 130.389  1.00  0.00     0.039 C 
ENDBRANCH   5  10
TORSDOF 2
ENDMDL
MODEL 2
REMARK VINA RESULT:    -4.635     11.705     13.025
REMARK INTER + INTRA:          -5.177
REMARK INTER:                  -5.060
REMARK INTRA:                  -0.117
REMARK UNBOUND:                -0.136
REMARK SMILES C=C(C)[C@H]1CC=C(C)[C@H](O)C1
REMARK SMILES IDX 8 1 7 2 6 3 5 4 4 5 11 6 9 7 10 8 2 10 1 11 3 12
REMARK H PARENT 10 9
REMARK Flexibility Score: inf
ROOT
ATOM      1  C   UNL     1     117.882 131.720 125.145  1.00  0.00     0.042 C 
ATOM      2  C   UNL     1     117.362 130.308 125.220  1.00  0.00    -0.049 C 
ATOM      3  C   UNL     1     118.184 129.293 125.541  1.00  0.00    -0.025 C 
ATOM      4  C   UNL     1     117.628 127.903 125.671  1.00  0.00     0.035 C 
ATOM      5  C   UNL     1     116.333 127.916 126.519  1.00  0.00     0.021 C 
ATOM      6  C   UNL     1     115.381 129.110 126.184  1.00  0.00     0.044 C 
ATOM      7  C   UNL     1     115.887 130.005 125.031  1.00  0.00     0.140 C 
ENDROOT
BRANCH   7   8
ATOM      8  O   UNL     1     115.138 131.191 124.981  1.00  0.00    -0.389 OA
ATOM      9  H   UNL     1     114.968 131.462 125.920  1.00  0.00     0.211 HD
ENDBRANCH   7   8
BRANCH   5  10
ATOM     10  C   UNL     1     115.616 126.578 126.407  1.00  0.00    -0.077 C 
ATOM     11  C   UNL     1     116.014 125.665 125.506  1.00  0.00     0.008 C 
ATOM     12  C   UNL     1     114.431 126.263 127.284  1.00  0.00     0.039 C 
ENDBRANCH   5  10
TORSDOF 2
ENDMDL
MODEL 3
REMARK VINA RESULT:    -4.632     16.089     17.587
REMARK INTER + INTRA:          -5.175
REMARK INTER:                  -5.052
REMARK INTRA:                  -0.123
REMARK UNBOUND:                -0.136
REMARK SMILES C=C(C)[C@H]1CC=C(C)[C@H](O)C1
REMARK SMILES IDX 8 1 7 2 6 3 5 4 4 5 11 6 9 7 10 8 2 10 1 11 3 12
REMARK H PARENT 10 9
REMARK Flexibility Score: inf
ROOT
ATOM      1  C   UNL     1     119.362 116.231 115.802  1.00  0.00     0.042 C 
ATOM      2  C   UNL     1     120.599 117.037 115.498  1.00  0.00    -0.049 C 
ATOM      3  C   UNL     1     120.498 118.290 115.021  1.00  0.00    -0.025 C 
ATOM      4  C   UNL     1     121.745 119.096 114.786  1.00  0.00     0.035 C 
ATOM      5  C   UNL     1     122.692 118.994 116.006  1.00  0.00     0.021 C 
ATOM      6  C   UNL     1     122.794 117.550 116.598  1.00  0.00     0.044 C 
ATOM      7  C   UNL     1     121.983 116.497 115.811  1.00  0.00     0.140 C 
ENDROOT
BRANCH   7   8
ATOM      8  O   UNL     1     121.898 115.307 116.551  1.00  0.00    -0.389 OA
ATOM      9  H   UNL     1     122.680 115.293 117.160  1.00  0.00     0.211 HD
ENDBRANCH   7   8
BRANCH   5  10
ATOM     10  C   UNL     1     124.062 119.557 115.659  1.00  0.00    -0.077 C 
ATOM     11  C   UNL     1     124.179 120.782 115.123  1.00  0.00     0.008 C 
ATOM     12  C   UNL     1     125.310 118.741 115.883  1.00  0.00     0.039 C 
ENDBRANCH   5  10
TORSDOF 2
ENDMDL
MODEL 4
REMARK VINA RESULT:    -4.623      1.372      4.189
REMARK INTER + INTRA:          -5.165
REMARK INTER:                  -5.048
REMARK INTRA:                  -0.117
REMARK UNBOUND:                -0.136
REMARK SMILES C=C(C)[C@H]1CC=C(C)[C@H](O)C1
REMARK SMILES IDX 8 1 7 2 6 3 5 4 4 5 11 6 9 7 10 8 2 10 1 11 3 12
REMARK H PARENT 10 9
REMARK Flexibility Score: inf
ROOT
ATOM      1  C   UNL     1     110.286 116.943 130.765  1.00  0.00     0.042 C 
ATOM      2  C   UNL     1     110.341 116.823 129.264  1.00  0.00    -0.049 C 
ATOM      3  C   UNL     1     109.563 115.937 128.619  1.00  0.00    -0.025 C 
ATOM      4  C   UNL     1     109.590 115.880 127.117  1.00  0.00     0.035 C 
ATOM      5  C   UNL     1     109.496 117.306 126.521  1.00  0.00     0.021 C 
ATOM      6  C   UNL     1     110.368 118.358 127.281  1.00  0.00     0.044 C 
ATOM      7  C   UNL     1     111.202 117.759 128.434  1.00  0.00     0.140 C 
ENDROOT
BRANCH   7   8
ATOM      8  O   UNL     1     111.728 118.788 129.230  1.00  0.00    -0.389 OA
ATOM      9  H   UNL     1     111.177 118.822 130.054  1.00  0.00     0.211 HD
ENDBRANCH   7   8
BRANCH   5  10
ATOM     10  C   UNL     1     109.817 117.278 125.034  1.00  0.00    -0.077 C 
ATOM     11  C   UNL     1     109.596 116.169 124.311  1.00  0.00     0.008 C 
ATOM     12  C   UNL     1     110.413 118.482 124.352  1.00  0.00     0.039 C 
ENDBRANCH   5  10
TORSDOF 2
ENDMDL
MODEL 5
REMARK VINA RESULT:    -4.598      1.629      2.171
REMARK INTER + INTRA:          -5.137
REMARK INTER:                  -5.002
REMARK INTRA:                  -0.136
REMARK UNBOUND:                -0.136
REMARK SMILES C=C(C)[C@H]1CC=C(C)[C@H](O)C1
REMARK SMILES IDX 8 1 7 2 6 3 5 4 4 5 11 6 9 7 10 8 2 10 1 11 3 12
REMARK H PARENT 10 9
REMARK Flexibility Score: inf
ROOT
ATOM      1  C   UNL     1     109.204 118.300 122.971  1.00  0.00     0.042 C 
ATOM      2  C   UNL     1     109.309 117.655 124.328  1.00  0.00    -0.049 C 
ATOM      3  C   UNL     1     109.696 116.373 124.449  1.00  0.00    -0.025 C 
ATOM      4  C   UNL     1     109.854 115.772 125.817  1.00  0.00     0.035 C 
ATOM      5  C   UNL     1     110.651 116.727 126.739  1.00  0.00     0.021 C 
ATOM      6  C   UNL     1     110.239 118.228 126.586  1.00  0.00     0.044 C 
ATOM      7  C   UNL     1     109.075 118.456 125.597  1.00  0.00     0.140 C 
ENDROOT
BRANCH   7   8
ATOM      8  O   UNL     1     108.954 119.824 125.306  1.00  0.00    -0.389 OA
ATOM      9  H   UNL     1     108.106 120.130 125.719  1.00  0.00     0.211 HD
ENDBRANCH   7   8
BRANCH   5  10
ATOM     10  C   UNL     1     110.559 116.263 128.185  1.00  0.00    -0.077 C 
ATOM     11  C   UNL     1     109.377 115.910 128.714  1.00  0.00     0.008 C 
ATOM     12  C   UNL     1     111.787 116.218 129.059  1.00  0.00     0.039 C 
ENDBRANCH   5  10
TORSDOF 2
ENDMDL
MODEL 6
REMARK VINA RESULT:    -4.523      1.687      4.839
REMARK INTER + INTRA:          -5.056
REMARK INTER:                  -4.938
REMARK INTRA:                  -0.118
REMARK UNBOUND:                -0.136
REMARK SMILES C=C(C)[C@H]1CC=C(C)[C@H](O)C1
REMARK SMILES IDX 8 1 7 2 6 3 5 4 4 5 11 6 9 7 10 8 2 10 1 11 3 12
REMARK H PARENT 10 9
REMARK Flexibility Score: inf
ROOT
ATOM      1  C   UNL     1     109.733 116.087 128.946  1.00  0.00     0.042 C 
ATOM      2  C   UNL     1     109.979 116.563 127.537  1.00  0.00    -0.049 C 
ATOM      3  C   UNL     1     109.963 115.696 126.510  1.00  0.00    -0.025 C 
ATOM      4  C   UNL     1     110.148 116.204 125.108  1.00  0.00     0.035 C 
ATOM      5  C   UNL     1     109.254 117.443 124.860  1.00  0.00     0.021 C 
ATOM      6  C   UNL     1     109.232 118.446 126.059  1.00  0.00     0.044 C 
ATOM      7  C   UNL     1     110.156 118.039 127.228  1.00  0.00     0.140 C 
ENDROOT
BRANCH   7   8
ATOM      8  O   UNL     1     109.873 118.822 128.358  1.00  0.00    -0.389 OA
ATOM      9  H   UNL     1     110.562 118.603 129.037  1.00  0.00     0.211 HD
ENDBRANCH   7   8
BRANCH   5  10
ATOM     10  C   UNL     1     109.651 118.129 123.560  1.00  0.00    -0.077 C 
ATOM     11  C   UNL     1     110.120 117.411 122.528  1.00  0.00     0.008 C 
ATOM     12  C   UNL     1     109.553 119.627 123.418  1.00  0.00     0.039 C 
ENDBRANCH   5  10
TORSDOF 2
ENDMDL
MODEL 7
REMARK VINA RESULT:    -4.490      2.001      2.529
REMARK INTER + INTRA:          -5.020
REMARK INTER:                  -4.892
REMARK INTRA:                  -0.128
REMARK UNBOUND:                -0.136
REMARK SMILES C=C(C)[C@H]1CC=C(C)[C@H](O)C1
REMARK SMILES IDX 8 1 7 2 6 3 5 4 4 5 11 6 9 7 10 8 2 10 1 11 3 12
REMARK H PARENT 10 9
REMARK Flexibility Score: inf
ROOT
ATOM      1  C   UNL     1     109.437 117.562 124.367  1.00  0.00     0.042 C 
ATOM      2  C   UNL     1     109.944 117.370 125.773  1.00  0.00    -0.049 C 
ATOM      3  C   UNL     1     109.987 118.403 126.632  1.00  0.00    -0.025 C 
ATOM      4  C   UNL     1     110.437 118.172 128.047  1.00  0.00     0.035 C 
ATOM      5  C   UNL     1     109.735 116.928 128.642  1.00  0.00     0.021 C 
ATOM      6  C   UNL     1     109.644 115.727 127.644  1.00  0.00     0.044 C 
ATOM      7  C   UNL     1     110.330 115.994 126.286  1.00  0.00     0.140 C 
ENDROOT
BRANCH   7   8
ATOM      8  O   UNL     1     109.968 114.999 125.363  1.00  0.00    -0.389 OA
ATOM      9  H   UNL     1     108.994 114.848 125.473  1.00  0.00     0.211 HD
ENDBRANCH   7   8
BRANCH   5  10
ATOM     10  C   UNL     1     110.398 116.522 129.950  1.00  0.00    -0.077 C 
ATOM     11  C   UNL     1     109.900 116.940 131.124  1.00  0.00     0.008 C 
ATOM     12  C   UNL     1     111.642 115.670 129.952  1.00  0.00     0.039 C 
ENDBRANCH   5  10
TORSDOF 2
ENDMDL
MODEL 8
REMARK VINA RESULT:    -4.371      2.006      4.474
REMARK INTER + INTRA:          -4.891
REMARK INTER:                  -4.763
REMARK INTRA:                  -0.127
REMARK UNBOUND:                -0.136
REMARK SMILES C=C(C)[C@H]1CC=C(C)[C@H](O)C1
REMARK SMILES IDX 8 1 7 2 6 3 5 4 4 5 11 6 9 7 10 8 2 10 1 11 3 12
REMARK H PARENT 10 9
REMARK Flexibility Score: inf
ROOT
ATOM      1  C   UNL     1     112.575 116.005 131.106  1.00  0.00     0.042 C 
ATOM      2  C   UNL     1     111.927 116.500 129.839  1.00  0.00    -0.049 C 
ATOM      3  C   UNL     1     112.563 116.396 128.659  1.00  0.00    -0.025 C 
ATOM      4  C   UNL     1     111.870 116.838 127.401  1.00  0.00     0.035 C 
ATOM      5  C   UNL     1     110.427 116.280 127.354  1.00  0.00     0.021 C 
ATOM      6  C   UNL     1     109.683 116.360 128.727  1.00  0.00     0.044 C 
ATOM      7  C   UNL     1     110.507 117.039 129.843  1.00  0.00     0.140 C 
ENDROOT
BRANCH   7   8
ATOM      8  O   UNL     1     109.897 116.823 131.089  1.00  0.00    -0.389 OA
ATOM      9  H   UNL     1     109.158 117.481 131.163  1.00  0.00     0.211 HD
ENDBRANCH   7   8
BRANCH   5  10
ATOM     10  C   UNL     1     109.635 116.958 126.245  1.00  0.00    -0.077 C 
ATOM     11  C   UNL     1     109.623 116.443 125.005  1.00  0.00     0.008 C 
ATOM     12  C   UNL     1     108.875 118.233 126.509  1.00  0.00     0.039 C 
ENDBRANCH   5  10
TORSDOF 2
ENDMDL
MODEL 9
REMARK VINA RESULT:    -4.343      2.073      4.645
REMARK INTER + INTRA:          -4.860
REMARK INTER:                  -4.742
REMARK INTRA:                  -0.118
REMARK UNBOUND:                -0.136
REMARK SMILES C=C(C)[C@H]1CC=C(C)[C@H](O)C1
REMARK SMILES IDX 8 1 7 2 6 3 5 4 4 5 11 6 9 7 10 8 2 10 1 11 3 12
REMARK H PARENT 10 9
REMARK Flexibility Score: inf
ROOT
ATOM      1  C   UNL     1     110.730 117.103 130.363  1.00  0.00     0.042 C 
ATOM      2  C   UNL     1     110.484 117.412 128.909  1.00  0.00    -0.049 C 
ATOM      3  C   UNL     1     111.270 118.283 128.252  1.00  0.00    -0.025 C 
ATOM      4  C   UNL     1     111.044 118.527 126.786  1.00  0.00     0.035 C 
ATOM      5  C   UNL     1     110.881 117.183 126.035  1.00  0.00     0.021 C 
ATOM      6  C   UNL     1     109.999 116.143 126.800  1.00  0.00     0.044 C 
ATOM      7  C   UNL     1     109.410 116.682 128.123  1.00  0.00     0.140 C 
ENDROOT
BRANCH   7   8
ATOM      8  O   UNL     1     108.876 115.623 128.875  1.00  0.00    -0.389 OA
ATOM      9  H   UNL     1     108.844 114.834 128.276  1.00  0.00     0.211 HD
ENDBRANCH   7   8
BRANCH   5  10
ATOM     10  C   UNL     1     110.364 117.428 124.624  1.00  0.00    -0.077 C 
ATOM     11  C   UNL     1     109.625 116.498 123.999  1.00  0.00     0.008 C 
ATOM     12  C   UNL     1     110.697 118.703 123.892  1.00  0.00     0.039 C 
ENDBRANCH   5  10
TORSDOF 2
ENDMDL
