MODEL 1
REMARK VINA RESULT:    -4.797      0.000      0.000
REMARK INTER + INTRA:         -13.813
REMARK INTER:                 -10.405
REMARK INTRA:                  -3.407
REMARK UNBOUND:                -3.407
REMARK SMILES CCCCCCCCCCCCCCCCCCCCCC(=O)[O-]
REMARK SMILES IDX 12 1 11 2 10 3 9 4 8 5 7 6 6 7 5 8 4 9 3 10 2 11 1 12 13 13
REMARK SMILES IDX 14 14 15 15 16 16 17 17 18 18 19 19 20 20 21 21 22 22 23 23
REMARK SMILES IDX 24 24
REMARK H PARENT
REMARK Flexibility Score: inf
ROOT
ATOM      1  C   UNL     1      14.718 -33.430  23.596  1.00  0.00     0.000 C 
ENDROOT
BRANCH   1   2
ATOM      2  C   UNL     1      16.241 -33.313  23.785  1.00  0.00     0.000 C 
BRANCH   2   3
ATOM      3  C   UNL     1      16.789 -34.108  24.988  1.00  0.00     0.000 C 
BRANCH   3   4
ATOM      4  C   UNL     1      17.238 -35.531  24.608  1.00  0.00    -0.000 C 
BRANCH   4   5
ATOM      5  C   UNL     1      18.694 -35.567  24.111  1.00  0.00    -0.000 C 
BRANCH   5   6
ATOM      6  C   UNL     1      18.882 -36.539  22.934  1.00  0.00    -0.000 C 
BRANCH   6   7
ATOM      7  C   UNL     1      18.239 -35.986  21.652  1.00  0.00    -0.000 C 
BRANCH   7   8
ATOM      8  C   UNL     1      17.629 -37.097  20.780  1.00  0.00    -0.000 C 
BRANCH   8   9
ATOM      9  C   UNL     1      16.898 -36.565  19.524  1.00  0.00    -0.000 C 
BRANCH   9  10
ATOM     10  C   UNL     1      16.415 -35.108  19.662  1.00  0.00    -0.000 C 
BRANCH  10  11
ATOM     11  C   UNL     1      15.008 -34.960  20.263  1.00  0.00    -0.003 C 
ATOM     12  C   UNL     1      14.384 -33.591  19.983  1.00  0.00     0.004 C 
ENDBRANCH  10  11
ENDBRANCH   9  10
ENDBRANCH   8   9
ENDBRANCH   7   8
ENDBRANCH   6   7
ENDBRANCH   5   6
ENDBRANCH   4   5
ENDBRANCH   3   4
ENDBRANCH   2   3
ENDBRANCH   1   2
BRANCH   1  13
ATOM     13  C   UNL     1      13.901 -32.219  24.085  1.00  0.00     0.000 C 
BRANCH  13  14
ATOM     14  C   UNL     1      13.184 -31.423  22.978  1.00  0.00     0.000 C 
BRANCH  14  15
ATOM     15  C   UNL     1      13.860 -30.078  22.673  1.00  0.00     0.000 C 
BRANCH  15  16
ATOM     16  C   UNL     1      14.977 -30.245  21.635  1.00  0.00     0.000 C 
BRANCH  16  17
ATOM     17  C   UNL     1      16.358 -30.027  22.272  1.00  0.00     0.000 C 
BRANCH  17  18
ATOM     18  C   UNL     1      17.520 -30.335  21.310  1.00  0.00     0.000 C 
BRANCH  18  19
ATOM     19  C   UNL     1      17.496 -31.745  20.690  1.00  0.00     0.000 C 
BRANCH  19  20
ATOM     20  C   UNL     1      18.795 -32.530  20.944  1.00  0.00     0.006 C 
BRANCH  20  21
ATOM     21  C   UNL     1      19.672 -31.871  22.018  1.00  0.00     0.053 C 
BRANCH  21  22
ATOM     22  C   UNL     1      21.016 -31.483  21.483  1.00  0.00     0.041 C 
ATOM     23  O   UNL     1      22.035 -32.158  21.782  1.00  0.00    -0.550 OA
ATOM     24  O   UNL     1      21.135 -30.398  20.624  1.00  0.00    -0.550 OA
ENDBRANCH  21  22
ENDBRANCH  20  21
ENDBRANCH  19  20
ENDBRANCH  18  19
ENDBRANCH  17  18
ENDBRANCH  16  17
ENDBRANCH  15  16
ENDBRANCH  14  15
ENDBRANCH  13  14
ENDBRANCH   1  13
TORSDOF 20
ENDMDL
MODEL 2
REMARK VINA RESULT:    -4.791      2.854      5.293
REMARK INTER + INTRA:         -13.800
REMARK INTER:                 -11.412
REMARK INTRA:                  -2.387
REMARK UNBOUND:                -3.407
REMARK SMILES CCCCCCCCCCCCCCCCCCCCCC(=O)[O-]
REMARK SMILES IDX 12 1 11 2 10 3 9 4 8 5 7 6 6 7 5 8 4 9 3 10 2 11 1 12 13 13
REMARK SMILES IDX 14 14 15 15 16 16 17 17 18 18 19 19 20 20 21 21 22 22 23 23
REMARK SMILES IDX 24 24
REMARK H PARENT
REMARK Flexibility Score: inf
ROOT
ATOM      1  C   UNL     1      16.520 -30.202  22.198  1.00  0.00     0.000 C 
ENDROOT
BRANCH   1   2
ATOM      2  C   UNL     1      15.198 -29.647  21.639  1.00  0.00     0.000 C 
BRANCH   2   3
ATOM      3  C   UNL     1      14.247 -29.083  22.716  1.00  0.00     0.000 C 
BRANCH   3   4
ATOM      4  C   UNL     1      12.973 -29.931  22.891  1.00  0.00    -0.000 C 
BRANCH   4   5
ATOM      5  C   UNL     1      13.227 -31.424  22.621  1.00  0.00    -0.000 C 
BRANCH   5   6
ATOM      6  C   UNL     1      13.719 -32.166  23.874  1.00  0.00    -0.000 C 
BRANCH   6   7
ATOM      7  C   UNL     1      14.700 -33.290  23.502  1.00  0.00    -0.000 C 
BRANCH   7   8
ATOM      8  C   UNL     1      14.713 -33.575  21.990  1.00  0.00    -0.000 C 
BRANCH   8   9
ATOM      9  C   UNL     1      15.634 -34.754  21.592  1.00  0.00    -0.000 C 
BRANCH   9  10
ATOM     10  C   UNL     1      15.583 -35.099  20.091  1.00  0.00    -0.000 C 
BRANCH  10  11
ATOM     11  C   UNL     1      16.393 -34.150  19.194  1.00  0.00    -0.003 C 
ATOM     12  C   UNL     1      17.837 -34.614  18.991  1.00  0.00     0.004 C 
ENDBRANCH  10  11
ENDBRANCH   9  10
ENDBRANCH   8   9
ENDBRANCH   7   8
ENDBRANCH   6   7
ENDBRANCH   5   6
ENDBRANCH   4   5
ENDBRANCH   3   4
ENDBRANCH   2   3
ENDBRANCH   1   2
BRANCH   1  13
ATOM     13  C   UNL     1      17.303 -31.122  21.242  1.00  0.00     0.000 C 
BRANCH  13  14
ATOM     14  C   UNL     1      18.054 -32.283  21.920  1.00  0.00     0.000 C 
BRANCH  14  15
ATOM     15  C   UNL     1      19.577 -32.084  21.938  1.00  0.00     0.000 C 
BRANCH  15  16
ATOM     16  C   UNL     1      19.937 -30.593  21.973  1.00  0.00     0.000 C 
BRANCH  16  17
ATOM     17  C   UNL     1      21.188 -30.310  21.126  1.00  0.00     0.000 C 
BRANCH  17  18
ATOM     18  C   UNL     1      21.276 -28.847  20.655  1.00  0.00     0.000 C 
BRANCH  18  19
ATOM     19  C   UNL     1      19.976 -28.034  20.804  1.00  0.00     0.000 C 
BRANCH  19  20
ATOM     20  C   UNL     1      20.226 -26.592  21.280  1.00  0.00     0.006 C 
BRANCH  20  21
ATOM     21  C   UNL     1      20.741 -25.689  20.151  1.00  0.00     0.053 C 
BRANCH  21  22
ATOM     22  C   UNL     1      22.177 -25.310  20.349  1.00  0.00     0.041 C 
ATOM     23  O   UNL     1      22.858 -24.882  19.381  1.00  0.00    -0.550 OA
ATOM     24  O   UNL     1      22.751 -25.395  21.611  1.00  0.00    -0.550 OA
ENDBRANCH  21  22
ENDBRANCH  20  21
ENDBRANCH  19  20
ENDBRANCH  18  19
ENDBRANCH  17  18
ENDBRANCH  16  17
ENDBRANCH  15  16
ENDBRANCH  14  15
ENDBRANCH  13  14
ENDBRANCH   1  13
TORSDOF 20
ENDMDL
MODEL 3
REMARK VINA RESULT:    -4.721      2.409      5.706
REMARK INTER + INTRA:         -13.648
REMARK INTER:                  -9.862
REMARK INTRA:                  -3.786
REMARK UNBOUND:                -3.407
REMARK SMILES CCCCCCCCCCCCCCCCCCCCCC(=O)[O-]
REMARK SMILES IDX 12 1 11 2 10 3 9 4 8 5 7 6 6 7 5 8 4 9 3 10 2 11 1 12 13 13
REMARK SMILES IDX 14 14 15 15 16 16 17 17 18 18 19 19 20 20 21 21 22 22 23 23
REMARK SMILES IDX 24 24
REMARK H PARENT
REMARK Flexibility Score: inf
ROOT
ATOM      1  C   UNL     1      14.927 -33.016  23.662  1.00  0.00     0.000 C 
ENDROOT
BRANCH   1   2
ATOM      2  C   UNL     1      13.678 -32.124  23.775  1.00  0.00     0.000 C 
BRANCH   2   3
ATOM      3  C   UNL     1      13.958 -30.620  23.571  1.00  0.00     0.000 C 
BRANCH   3   4
ATOM      4  C   UNL     1      13.529 -30.118  22.179  1.00  0.00    -0.000 C 
BRANCH   4   5
ATOM      5  C   UNL     1      14.736 -29.793  21.281  1.00  0.00    -0.000 C 
BRANCH   5   6
ATOM      6  C   UNL     1      16.047 -29.708  22.078  1.00  0.00    -0.000 C 
BRANCH   6   7
ATOM      7  C   UNL     1      17.118 -30.637  21.482  1.00  0.00    -0.000 C 
BRANCH   7   8
ATOM      8  C   UNL     1      17.717 -31.587  22.533  1.00  0.00    -0.000 C 
BRANCH   8   9
ATOM      9  C   UNL     1      19.257 -31.713  22.446  1.00  0.00    -0.000 C 
BRANCH   9  10
ATOM     10  C   UNL     1      19.808 -31.558  21.015  1.00  0.00    -0.000 C 
BRANCH  10  11
ATOM     11  C   UNL     1      21.030 -30.632  20.902  1.00  0.00    -0.003 C 
ATOM     12  C   UNL     1      20.657 -29.149  20.949  1.00  0.00     0.004 C 
ENDBRANCH  10  11
ENDBRANCH   9  10
ENDBRANCH   8   9
ENDBRANCH   7   8
ENDBRANCH   6   7
ENDBRANCH   5   6
ENDBRANCH   4   5
ENDBRANCH   3   4
ENDBRANCH   2   3
ENDBRANCH   1   2
BRANCH   1  13
ATOM     13  C   UNL     1      14.917 -34.015  22.489  1.00  0.00     0.000 C 
BRANCH  13  14
ATOM     14  C   UNL     1      14.600 -33.403  21.111  1.00  0.00     0.000 C 
BRANCH  14  15
ATOM     15  C   UNL     1      15.538 -33.903  20.002  1.00  0.00     0.000 C 
BRANCH  15  16
ATOM     16  C   UNL     1      15.542 -35.435  19.934  1.00  0.00     0.000 C 
BRANCH  16  17
ATOM     17  C   UNL     1      16.967 -35.989  20.096  1.00  0.00     0.000 C 
BRANCH  17  18
ATOM     18  C   UNL     1      18.005 -34.897  20.409  1.00  0.00     0.000 C 
BRANCH  18  19
ATOM     19  C   UNL     1      18.832 -35.131  21.687  1.00  0.00     0.000 C 
BRANCH  19  20
ATOM     20  C   UNL     1      18.008 -35.758  22.825  1.00  0.00     0.006 C 
BRANCH  20  21
ATOM     21  C   UNL     1      18.199 -35.018  24.157  1.00  0.00     0.053 C 
BRANCH  21  22
ATOM     22  C   UNL     1      17.962 -35.913  25.334  1.00  0.00     0.041 C 
ATOM     23  O   UNL     1      18.919 -36.549  25.848  1.00  0.00    -0.550 OA
ATOM     24  O   UNL     1      16.691 -36.016  25.884  1.00  0.00    -0.550 OA
ENDBRANCH  21  22
ENDBRANCH  20  21
ENDBRANCH  19  20
ENDBRANCH  18  19
ENDBRANCH  17  18
ENDBRANCH  16  17
ENDBRANCH  15  16
ENDBRANCH  14  15
ENDBRANCH  13  14
ENDBRANCH   1  13
TORSDOF 20
ENDMDL
MODEL 4
REMARK VINA RESULT:    -4.705      2.564      5.155
REMARK INTER + INTRA:         -13.614
REMARK INTER:                 -10.304
REMARK INTRA:                  -3.310
REMARK UNBOUND:                -3.407
REMARK SMILES CCCCCCCCCCCCCCCCCCCCCC(=O)[O-]
REMARK SMILES IDX 12 1 11 2 10 3 9 4 8 5 7 6 6 7 5 8 4 9 3 10 2 11 1 12 13 13
REMARK SMILES IDX 14 14 15 15 16 16 17 17 18 18 19 19 20 20 21 21 22 22 23 23
REMARK SMILES IDX 24 24
REMARK H PARENT
REMARK Flexibility Score: inf
ROOT
ATOM      1  C   UNL     1      17.378 -30.644  22.611  1.00  0.00     0.000 C 
ENDROOT
BRANCH   1   2
ATOM      2  C   UNL     1      17.183 -31.121  21.160  1.00  0.00     0.000 C 
BRANCH   2   3
ATOM      3  C   UNL     1      18.006 -32.374  20.794  1.00  0.00     0.000 C 
BRANCH   3   4
ATOM      4  C   UNL     1      17.134 -33.525  20.259  1.00  0.00    -0.000 C 
BRANCH   4   5
ATOM      5  C   UNL     1      16.526 -34.369  21.393  1.00  0.00    -0.000 C 
BRANCH   5   6
ATOM      6  C   UNL     1      15.010 -34.159  21.525  1.00  0.00    -0.000 C 
BRANCH   6   7
ATOM      7  C   UNL     1      14.434 -33.479  20.272  1.00  0.00    -0.000 C 
BRANCH   7   8
ATOM      8  C   UNL     1      13.476 -32.327  20.623  1.00  0.00    -0.000 C 
BRANCH   8   9
ATOM      9  C   UNL     1      13.646 -31.801  22.068  1.00  0.00    -0.000 C 
BRANCH   9  10
ATOM     10  C   UNL     1      12.719 -30.617  22.407  1.00  0.00    -0.000 C 
BRANCH  10  11
ATOM     11  C   UNL     1      13.118 -29.840  23.672  1.00  0.00    -0.003 C 
ATOM     12  C   UNL     1      12.137 -28.715  24.011  1.00  0.00     0.004 C 
ENDBRANCH  10  11
ENDBRANCH   9  10
ENDBRANCH   8   9
ENDBRANCH   7   8
ENDBRANCH   6   7
ENDBRANCH   5   6
ENDBRANCH   4   5
ENDBRANCH   3   4
ENDBRANCH   2   3
ENDBRANCH   1   2
BRANCH   1  13
ATOM     13  C   UNL     1      16.762 -31.555  23.690  1.00  0.00     0.000 C 
BRANCH  13  14
ATOM     14  C   UNL     1      17.767 -32.446  24.445  1.00  0.00     0.000 C 
BRANCH  14  15
ATOM     15  C   UNL     1      19.125 -31.763  24.669  1.00  0.00     0.000 C 
BRANCH  15  16
ATOM     16  C   UNL     1      20.280 -32.702  24.300  1.00  0.00     0.000 C 
BRANCH  16  17
ATOM     17  C   UNL     1      20.874 -32.332  22.931  1.00  0.00     0.000 C 
BRANCH  17  18
ATOM     18  C   UNL     1      21.103 -30.819  22.764  1.00  0.00     0.000 C 
BRANCH  18  19
ATOM     19  C   UNL     1      20.892 -30.282  21.336  1.00  0.00     0.000 C 
BRANCH  19  20
ATOM     20  C   UNL     1      21.225 -28.785  21.206  1.00  0.00     0.006 C 
BRANCH  20  21
ATOM     21  C   UNL     1      19.993 -27.946  20.839  1.00  0.00     0.053 C 
BRANCH  21  22
ATOM     22  C   UNL     1      20.256 -26.477  20.975  1.00  0.00     0.041 C 
ATOM     23  O   UNL     1      20.244 -25.735  19.959  1.00  0.00    -0.550 OA
ATOM     24  O   UNL     1      20.476 -25.924  22.230  1.00  0.00    -0.550 OA
ENDBRANCH  21  22
ENDBRANCH  20  21
ENDBRANCH  19  20
ENDBRANCH  18  19
ENDBRANCH  17  18
ENDBRANCH  16  17
ENDBRANCH  15  16
ENDBRANCH  14  15
ENDBRANCH  13  14
ENDBRANCH   1  13
TORSDOF 20
ENDMDL
MODEL 5
REMARK VINA RESULT:    -4.696      3.028      6.133
REMARK INTER + INTRA:         -13.593
REMARK INTER:                 -10.082
REMARK INTRA:                  -3.511
REMARK UNBOUND:                -3.407
REMARK SMILES CCCCCCCCCCCCCCCCCCCCCC(=O)[O-]
REMARK SMILES IDX 12 1 11 2 10 3 9 4 8 5 7 6 6 7 5 8 4 9 3 10 2 11 1 12 13 13
REMARK SMILES IDX 14 14 15 15 16 16 17 17 18 18 19 19 20 20 21 21 22 22 23 23
REMARK SMILES IDX 24 24
REMARK H PARENT
REMARK Flexibility Score: inf
ROOT
ATOM      1  C   UNL     1      18.073 -36.204  22.109  1.00  0.00     0.000 C 
ENDROOT
BRANCH   1   2
ATOM      2  C   UNL     1      19.520 -35.930  22.557  1.00  0.00     0.000 C 
BRANCH   2   3
ATOM      3  C   UNL     1      20.076 -34.569  22.089  1.00  0.00     0.000 C 
BRANCH   3   4
ATOM      4  C   UNL     1      18.982 -33.633  21.544  1.00  0.00    -0.000 C 
BRANCH   4   5
ATOM      5  C   UNL     1      19.501 -32.202  21.316  1.00  0.00    -0.000 C 
BRANCH   5   6
ATOM      6  C   UNL     1      18.862 -31.191  22.281  1.00  0.00    -0.000 C 
BRANCH   6   7
ATOM      7  C   UNL     1      17.942 -31.896  23.291  1.00  0.00    -0.000 C 
BRANCH   7   8
ATOM      8  C   UNL     1      18.171 -31.404  24.730  1.00  0.00    -0.000 C 
BRANCH   8   9
ATOM      9  C   UNL     1      18.152 -32.541  25.781  1.00  0.00    -0.000 C 
BRANCH   9  10
ATOM     10  C   UNL     1      18.101 -33.952  25.163  1.00  0.00    -0.000 C 
BRANCH  10  11
ATOM     11  C   UNL     1      16.845 -34.759  25.527  1.00  0.00    -0.003 C 
ATOM     12  C   UNL     1      17.138 -36.244  25.750  1.00  0.00     0.004 C 
ENDBRANCH  10  11
ENDBRANCH   9  10
ENDBRANCH   8   9
ENDBRANCH   7   8
ENDBRANCH   6   7
ENDBRANCH   5   6
ENDBRANCH   4   5
ENDBRANCH   3   4
ENDBRANCH   2   3
ENDBRANCH   1   2
BRANCH   1  13
ATOM     13  C   UNL     1      17.921 -37.244  20.983  1.00  0.00     0.000 C 
BRANCH  13  14
ATOM     14  C   UNL     1      17.407 -36.686  19.642  1.00  0.00     0.000 C 
BRANCH  14  15
ATOM     15  C   UNL     1      15.989 -36.103  19.738  1.00  0.00     0.000 C 
BRANCH  15  16
ATOM     16  C   UNL     1      16.019 -34.571  19.680  1.00  0.00     0.000 C 
BRANCH  16  17
ATOM     17  C   UNL     1      14.697 -33.975  20.188  1.00  0.00     0.000 C 
BRANCH  17  18
ATOM     18  C   UNL     1      14.896 -32.937  21.307  1.00  0.00     0.000 C 
BRANCH  18  19
ATOM     19  C   UNL     1      14.910 -33.512  22.736  1.00  0.00     0.000 C 
BRANCH  19  20
ATOM     20  C   UNL     1      14.142 -32.634  23.740  1.00  0.00     0.006 C 
BRANCH  20  21
ATOM     21  C   UNL     1      14.371 -31.136  23.495  1.00  0.00     0.053 C 
BRANCH  21  22
ATOM     22  C   UNL     1      13.080 -30.384  23.379  1.00  0.00     0.041 C 
ATOM     23  O   UNL     1      12.777 -29.511  24.233  1.00  0.00    -0.550 OA
ATOM     24  O   UNL     1      12.231 -30.623  22.306  1.00  0.00    -0.550 OA
ENDBRANCH  21  22
ENDBRANCH  20  21
ENDBRANCH  19  20
ENDBRANCH  18  19
ENDBRANCH  17  18
ENDBRANCH  16  17
ENDBRANCH  15  16
ENDBRANCH  14  15
ENDBRANCH  13  14
ENDBRANCH   1  13
TORSDOF 20
ENDMDL
MODEL 6
REMARK VINA RESULT:    -4.695      2.174      5.789
REMARK INTER + INTRA:         -13.593
REMARK INTER:                 -10.111
REMARK INTRA:                  -3.481
REMARK UNBOUND:                -3.407
REMARK SMILES CCCCCCCCCCCCCCCCCCCCCC(=O)[O-]
REMARK SMILES IDX 12 1 11 2 10 3 9 4 8 5 7 6 6 7 5 8 4 9 3 10 2 11 1 12 13 13
REMARK SMILES IDX 14 14 15 15 16 16 17 17 18 18 19 19 20 20 21 21 22 22 23 23
REMARK SMILES IDX 24 24
REMARK H PARENT
REMARK Flexibility Score: inf
ROOT
ATOM      1  C   UNL     1      17.449 -35.110  19.286  1.00  0.00     0.000 C 
ENDROOT
BRANCH   1   2
ATOM      2  C   UNL     1      18.019 -33.701  19.525  1.00  0.00     0.000 C 
BRANCH   2   3
ATOM      3  C   UNL     1      18.715 -33.527  20.891  1.00  0.00     0.000 C 
BRANCH   3   4
ATOM      4  C   UNL     1      18.713 -32.067  21.380  1.00  0.00    -0.000 C 
BRANCH   4   5
ATOM      5  C   UNL     1      17.444 -31.311  20.949  1.00  0.00    -0.000 C 
BRANCH   5   6
ATOM      6  C   UNL     1      16.723 -30.659  22.140  1.00  0.00    -0.000 C 
BRANCH   6   7
ATOM      7  C   UNL     1      15.686 -29.629  21.662  1.00  0.00    -0.000 C 
BRANCH   7   8
ATOM      8  C   UNL     1      14.242 -30.129  21.843  1.00  0.00    -0.000 C 
BRANCH   8   9
ATOM      9  C   UNL     1      13.725 -30.009  23.297  1.00  0.00    -0.000 C 
BRANCH   9  10
ATOM     10  C   UNL     1      12.328 -29.367  23.404  1.00  0.00    -0.000 C 
BRANCH  10  11
ATOM     11  C   UNL     1      12.338 -27.831  23.454  1.00  0.00    -0.003 C 
ATOM     12  C   UNL     1      13.479 -27.271  24.306  1.00  0.00     0.004 C 
ENDBRANCH  10  11
ENDBRANCH   9  10
ENDBRANCH   8   9
ENDBRANCH   7   8
ENDBRANCH   6   7
ENDBRANCH   5   6
ENDBRANCH   4   5
ENDBRANCH   3   4
ENDBRANCH   2   3
ENDBRANCH   1   2
BRANCH   1  13
ATOM     13  C   UNL     1      16.023 -35.341  19.822  1.00  0.00     0.000 C 
BRANCH  13  14
ATOM     14  C   UNL     1      15.080 -34.127  19.718  1.00  0.00     0.000 C 
BRANCH  14  15
ATOM     15  C   UNL     1      14.538 -33.668  21.080  1.00  0.00     0.000 C 
BRANCH  15  16
ATOM     16  C   UNL     1      15.392 -34.222  22.227  1.00  0.00     0.000 C 
BRANCH  16  17
ATOM     17  C   UNL     1      15.052 -33.524  23.553  1.00  0.00     0.000 C 
BRANCH  17  18
ATOM     18  C   UNL     1      16.033 -33.873  24.686  1.00  0.00     0.000 C 
BRANCH  18  19
ATOM     19  C   UNL     1      17.234 -34.741  24.264  1.00  0.00     0.000 C 
BRANCH  19  20
ATOM     20  C   UNL     1      18.466 -34.533  25.163  1.00  0.00     0.006 C 
BRANCH  20  21
ATOM     21  C   UNL     1      19.309 -33.327  24.724  1.00  0.00     0.053 C 
BRANCH  21  22
ATOM     22  C   UNL     1      19.091 -32.140  25.610  1.00  0.00     0.041 C 
ATOM     23  O   UNL     1      18.196 -31.300  25.335  1.00  0.00    -0.550 OA
ATOM     24  O   UNL     1      19.854 -31.982  26.761  1.00  0.00    -0.550 OA
ENDBRANCH  21  22
ENDBRANCH  20  21
ENDBRANCH  19  20
ENDBRANCH  18  19
ENDBRANCH  17  18
ENDBRANCH  16  17
ENDBRANCH  15  16
ENDBRANCH  14  15
ENDBRANCH  13  14
ENDBRANCH   1  13
TORSDOF 20
ENDMDL
MODEL 7
REMARK VINA RESULT:    -4.692      3.439      6.895
REMARK INTER + INTRA:         -13.585
REMARK INTER:                 -10.651
REMARK INTRA:                  -2.935
REMARK UNBOUND:                -3.407
REMARK SMILES CCCCCCCCCCCCCCCCCCCCCC(=O)[O-]
REMARK SMILES IDX 12 1 11 2 10 3 9 4 8 5 7 6 6 7 5 8 4 9 3 10 2 11 1 12 13 13
REMARK SMILES IDX 14 14 15 15 16 16 17 17 18 18 19 19 20 20 21 21 22 22 23 23
REMARK SMILES IDX 24 24
REMARK H PARENT
REMARK Flexibility Score: inf
ROOT
ATOM      1  C   UNL     1      18.607 -36.343  21.617  1.00  0.00     0.000 C 
ENDROOT
BRANCH   1   2
ATOM      2  C   UNL     1      18.052 -35.602  22.847  1.00  0.00     0.000 C 
BRANCH   2   3
ATOM      3  C   UNL     1      18.499 -34.128  22.947  1.00  0.00     0.000 C 
BRANCH   3   4
ATOM      4  C   UNL     1      19.406 -33.699  21.779  1.00  0.00    -0.000 C 
BRANCH   4   5
ATOM      5  C   UNL     1      19.350 -32.182  21.526  1.00  0.00    -0.000 C 
BRANCH   5   6
ATOM      6  C   UNL     1      17.908 -31.666  21.401  1.00  0.00    -0.000 C 
BRANCH   6   7
ATOM      7  C   UNL     1      17.880 -30.141  21.205  1.00  0.00    -0.000 C 
BRANCH   7   8
ATOM      8  C   UNL     1      19.290 -29.526  21.226  1.00  0.00    -0.000 C 
BRANCH   8   9
ATOM      9  C   UNL     1      19.349 -28.097  20.635  1.00  0.00    -0.000 C 
BRANCH   9  10
ATOM     10  C   UNL     1      20.512 -27.249  21.184  1.00  0.00    -0.000 C 
BRANCH  10  11
ATOM     11  C   UNL     1      20.571 -25.816  20.630  1.00  0.00    -0.003 C 
ATOM     12  C   UNL     1      21.927 -25.475  20.010  1.00  0.00     0.004 C 
ENDBRANCH  10  11
ENDBRANCH   9  10
ENDBRANCH   8   9
ENDBRANCH   7   8
ENDBRANCH   6   7
ENDBRANCH   5   6
ENDBRANCH   4   5
ENDBRANCH   3   4
ENDBRANCH   2   3
ENDBRANCH   1   2
BRANCH   1  13
ATOM     13  C   UNL     1      17.639 -37.345  20.962  1.00  0.00     0.000 C 
BRANCH  13  14
ATOM     14  C   UNL     1      16.909 -36.826  19.709  1.00  0.00     0.000 C 
BRANCH  14  15
ATOM     15  C   UNL     1      17.487 -35.504  19.182  1.00  0.00     0.000 C 
BRANCH  15  16
ATOM     16  C   UNL     1      16.448 -34.378  19.261  1.00  0.00     0.000 C 
BRANCH  16  17
ATOM     17  C   UNL     1      15.282 -34.770  20.183  1.00  0.00     0.000 C 
BRANCH  17  18
ATOM     18  C   UNL     1      14.725 -33.581  20.986  1.00  0.00     0.000 C 
BRANCH  18  19
ATOM     19  C   UNL     1      14.910 -33.681  22.512  1.00  0.00     0.000 C 
BRANCH  19  20
ATOM     20  C   UNL     1      14.688 -32.338  23.229  1.00  0.00     0.006 C 
BRANCH  20  21
ATOM     21  C   UNL     1      14.159 -31.253  22.281  1.00  0.00     0.053 C 
BRANCH  21  22
ATOM     22  C   UNL     1      12.977 -30.535  22.855  1.00  0.00     0.041 C 
ATOM     23  O   UNL     1      13.036 -30.043  24.012  1.00  0.00    -0.550 OA
ATOM     24  O   UNL     1      11.823 -30.377  22.098  1.00  0.00    -0.550 OA
ENDBRANCH  21  22
ENDBRANCH  20  21
ENDBRANCH  19  20
ENDBRANCH  18  19
ENDBRANCH  17  18
ENDBRANCH  16  17
ENDBRANCH  15  16
ENDBRANCH  14  15
ENDBRANCH  13  14
ENDBRANCH   1  13
TORSDOF 20
ENDMDL
MODEL 8
REMARK VINA RESULT:    -4.671      3.089      5.261
REMARK INTER + INTRA:         -13.540
REMARK INTER:                  -9.851
REMARK INTRA:                  -3.690
REMARK UNBOUND:                -3.407
REMARK SMILES CCCCCCCCCCCCCCCCCCCCCC(=O)[O-]
REMARK SMILES IDX 12 1 11 2 10 3 9 4 8 5 7 6 6 7 5 8 4 9 3 10 2 11 1 12 13 13
REMARK SMILES IDX 14 14 15 15 16 16 17 17 18 18 19 19 20 20 21 21 22 22 23 23
REMARK SMILES IDX 24 24
REMARK H PARENT
REMARK Flexibility Score: inf
ROOT
ATOM      1  C   UNL     1      17.768 -35.157  24.787  1.00  0.00     0.000 C 
ENDROOT
BRANCH   1   2
ATOM      2  C   UNL     1      18.130 -35.777  23.425  1.00  0.00     0.000 C 
BRANCH   2   3
ATOM      3  C   UNL     1      18.259 -34.749  22.281  1.00  0.00     0.000 C 
BRANCH   3   4
ATOM      4  C   UNL     1      18.187 -35.399  20.886  1.00  0.00    -0.000 C 
BRANCH   4   5
ATOM      5  C   UNL     1      18.272 -34.358  19.755  1.00  0.00    -0.000 C 
BRANCH   5   6
ATOM      6  C   UNL     1      16.910 -34.113  19.087  1.00  0.00    -0.000 C 
BRANCH   6   7
ATOM      7  C   UNL     1      15.798 -34.907  19.790  1.00  0.00    -0.000 C 
BRANCH   7   8
ATOM      8  C   UNL     1      14.491 -34.103  19.905  1.00  0.00    -0.000 C 
BRANCH   8   9
ATOM      9  C   UNL     1      14.453 -33.158  21.130  1.00  0.00    -0.000 C 
BRANCH   9  10
ATOM     10  C   UNL     1      14.963 -33.811  22.429  1.00  0.00    -0.000 C 
BRANCH  10  11
ATOM     11  C   UNL     1      14.987 -32.871  23.645  1.00  0.00    -0.003 C 
ATOM     12  C   UNL     1      13.619 -32.736  24.318  1.00  0.00     0.004 C 
ENDBRANCH  10  11
ENDBRANCH   9  10
ENDBRANCH   8   9
ENDBRANCH   7   8
ENDBRANCH   6   7
ENDBRANCH   5   6
ENDBRANCH   4   5
ENDBRANCH   3   4
ENDBRANCH   2   3
ENDBRANCH   1   2
BRANCH   1  13
ATOM     13  C   UNL     1      18.822 -34.199  25.374  1.00  0.00     0.000 C 
BRANCH  13  14
ATOM     14  C   UNL     1      18.376 -32.730  25.496  1.00  0.00     0.000 C 
BRANCH  14  15
ATOM     15  C   UNL     1      18.960 -31.831  24.396  1.00  0.00     0.000 C 
BRANCH  15  16
ATOM     16  C   UNL     1      17.845 -31.161  23.583  1.00  0.00     0.000 C 
BRANCH  16  17
ATOM     17  C   UNL     1      18.134 -31.248  22.076  1.00  0.00     0.000 C 
BRANCH  17  18
ATOM     18  C   UNL     1      16.984 -30.703  21.211  1.00  0.00     0.000 C 
BRANCH  18  19
ATOM     19  C   UNL     1      16.220 -29.510  21.817  1.00  0.00     0.000 C 
BRANCH  19  20
ATOM     20  C   UNL     1      14.693 -29.683  21.749  1.00  0.00     0.006 C 
BRANCH  20  21
ATOM     21  C   UNL     1      14.001 -29.255  23.051  1.00  0.00     0.053 C 
BRANCH  21  22
ATOM     22  C   UNL     1      12.516 -29.433  22.980  1.00  0.00     0.041 C 
ATOM     23  O   UNL     1      12.019 -30.324  22.243  1.00  0.00    -0.550 OA
ATOM     24  O   UNL     1      11.682 -28.638  23.758  1.00  0.00    -0.550 OA
ENDBRANCH  21  22
ENDBRANCH  20  21
ENDBRANCH  19  20
ENDBRANCH  18  19
ENDBRANCH  17  18
ENDBRANCH  16  17
ENDBRANCH  15  16
ENDBRANCH  14  15
ENDBRANCH  13  14
ENDBRANCH   1  13
TORSDOF 20
ENDMDL
MODEL 9
REMARK VINA RESULT:    -4.670      2.837      5.215
REMARK INTER + INTRA:         -13.537
REMARK INTER:                 -10.922
REMARK INTRA:                  -2.614
REMARK UNBOUND:                -3.407
REMARK SMILES CCCCCCCCCCCCCCCCCCCCCC(=O)[O-]
REMARK SMILES IDX 12 1 11 2 10 3 9 4 8 5 7 6 6 7 5 8 4 9 3 10 2 11 1 12 13 13
REMARK SMILES IDX 14 14 15 15 16 16 17 17 18 18 19 19 20 20 21 21 22 22 23 23
REMARK SMILES IDX 24 24
REMARK H PARENT
REMARK Flexibility Score: inf
ROOT
ATOM      1  C   UNL     1      18.050 -34.985  22.922  1.00  0.00     0.000 C 
ENDROOT
BRANCH   1   2
ATOM      2  C   UNL     1      18.312 -36.198  22.013  1.00  0.00     0.000 C 
BRANCH   2   3
ATOM      3  C   UNL     1      17.339 -36.313  20.821  1.00  0.00     0.000 C 
BRANCH   3   4
ATOM      4  C   UNL     1      17.492 -35.158  19.813  1.00  0.00    -0.000 C 
BRANCH   4   5
ATOM      5  C   UNL     1      16.133 -34.596  19.362  1.00  0.00    -0.000 C 
BRANCH   5   6
ATOM      6  C   UNL     1      15.094 -34.606  20.495  1.00  0.00    -0.000 C 
BRANCH   6   7
ATOM      7  C   UNL     1      15.066 -33.257  21.232  1.00  0.00    -0.000 C 
BRANCH   7   8
ATOM      8  C   UNL     1      14.752 -33.416  22.729  1.00  0.00    -0.000 C 
BRANCH   8   9
ATOM      9  C   UNL     1      14.910 -32.106  23.537  1.00  0.00    -0.000 C 
BRANCH   9  10
ATOM     10  C   UNL     1      13.578 -31.376  23.796  1.00  0.00    -0.000 C 
BRANCH  10  11
ATOM     11  C   UNL     1      13.529 -29.935  23.262  1.00  0.00    -0.003 C 
ATOM     12  C   UNL     1      12.478 -29.076  23.969  1.00  0.00     0.004 C 
ENDBRANCH  10  11
ENDBRANCH   9  10
ENDBRANCH   8   9
ENDBRANCH   7   8
ENDBRANCH   6   7
ENDBRANCH   5   6
ENDBRANCH   4   5
ENDBRANCH   3   4
ENDBRANCH   2   3
ENDBRANCH   1   2
BRANCH   1  13
ATOM     13  C   UNL     1      19.056 -33.827  22.778  1.00  0.00     0.000 C 
BRANCH  13  14
ATOM     14  C   UNL     1      18.437 -32.417  22.788  1.00  0.00     0.000 C 
BRANCH  14  15
ATOM     15  C   UNL     1      18.408 -31.764  21.398  1.00  0.00     0.000 C 
BRANCH  15  16
ATOM     16  C   UNL     1      17.566 -30.482  21.409  1.00  0.00     0.000 C 
BRANCH  16  17
ATOM     17  C   UNL     1      18.426 -29.257  21.059  1.00  0.00     0.000 C 
BRANCH  17  18
ATOM     18  C   UNL     1      19.937 -29.530  21.171  1.00  0.00     0.000 C 
BRANCH  18  19
ATOM     19  C   UNL     1      20.840 -28.307  20.926  1.00  0.00     0.000 C 
BRANCH  19  20
ATOM     20  C   UNL     1      20.106 -26.971  21.135  1.00  0.00     0.006 C 
BRANCH  20  21
ATOM     21  C   UNL     1      20.536 -25.906  20.116  1.00  0.00     0.053 C 
BRANCH  21  22
ATOM     22  C   UNL     1      21.843 -25.274  20.484  1.00  0.00     0.041 C 
ATOM     23  O   UNL     1      22.071 -24.940  21.676  1.00  0.00    -0.550 OA
ATOM     24  O   UNL     1      22.822 -25.088  19.517  1.00  0.00    -0.550 OA
ENDBRANCH  21  22
ENDBRANCH  20  21
ENDBRANCH  19  20
ENDBRANCH  18  19
ENDBRANCH  17  18
ENDBRANCH  16  17
ENDBRANCH  15  16
ENDBRANCH  14  15
ENDBRANCH  13  14
ENDBRANCH   1  13
TORSDOF 20
ENDMDL
