MODEL 1
REMARK VINA RESULT:    -3.214      0.000      0.000
REMARK INTER + INTRA:          -5.377
REMARK INTER:                  -4.904
REMARK INTRA:                  -0.472
REMARK UNBOUND:                -0.472
REMARK SMILES CCCCCCCCCCC(=O)[O-]
REMARK SMILES IDX 7 1 8 2 9 3 10 4 11 5 12 6 13 7 6 8 5 9 4 10 3 11 2 12 1 13
REMARK H PARENT
REMARK Flexibility Score: inf
ROOT
ATOM      1  C   UNL     1       8.115   2.009  -1.336  1.00  0.00     0.000 C 
ENDROOT
BRANCH   1   2
ATOM      2  C   UNL     1       8.672   1.313  -0.081  1.00  0.00     0.000 C 
BRANCH   2   3
ATOM      3  C   UNL     1       9.001   2.300   1.052  1.00  0.00     0.006 C 
BRANCH   3   4
ATOM      4  C   UNL     1       8.028   2.171   2.232  1.00  0.00     0.053 C 
BRANCH   4   5
ATOM      5  C   UNL     1       7.160   3.384   2.368  1.00  0.00     0.041 C 
ATOM      6  O   UNL     1       6.928   3.874   3.504  1.00  0.00    -0.550 OA
ATOM      7  O   UNL     1       6.636   3.994   1.235  1.00  0.00    -0.550 OA
ENDBRANCH   4   5
ENDBRANCH   3   4
ENDBRANCH   2   3
ENDBRANCH   1   2
BRANCH   1   8
ATOM      8  C   UNL     1       7.363   1.082  -2.313  1.00  0.00     0.000 C 
BRANCH   8   9
ATOM      9  C   UNL     1       7.692  -0.419  -2.177  1.00  0.00    -0.000 C 
BRANCH   9  10
ATOM     10  C   UNL     1       7.086  -1.317  -3.270  1.00  0.00    -0.000 C 
BRANCH  10  11
ATOM     11  C   UNL     1       7.530  -2.782  -3.150  1.00  0.00    -0.000 C 
BRANCH  11  12
ATOM     12  C   UNL     1       8.696  -2.924  -2.164  1.00  0.00    -0.003 C 
ATOM     13  C   UNL     1       8.661  -4.275  -1.459  1.00  0.00     0.004 C 
ENDBRANCH  11  12
ENDBRANCH  10  11
ENDBRANCH   9  10
ENDBRANCH   8   9
ENDBRANCH   1   8
TORSDOF 9
ENDMDL
MODEL 2
REMARK VINA RESULT:    -3.093      1.126      1.974
REMARK INTER + INTRA:          -5.193
REMARK INTER:                  -4.672
REMARK INTRA:                  -0.521
REMARK UNBOUND:                -0.472
REMARK SMILES CCCCCCCCCCC(=O)[O-]
REMARK SMILES IDX 7 1 8 2 9 3 10 4 11 5 12 6 13 7 6 8 5 9 4 10 3 11 2 12 1 13
REMARK H PARENT
REMARK Flexibility Score: inf
ROOT
ATOM      1  C   UNL     1       9.824   1.464   0.400  1.00  0.00     0.000 C 
ENDROOT
BRANCH   1   2
ATOM      2  C   UNL     1       9.502   0.800   1.752  1.00  0.00     0.000 C 
BRANCH   2   3
ATOM      3  C   UNL     1       8.203   1.331   2.382  1.00  0.00     0.006 C 
BRANCH   3   4
ATOM      4  C   UNL     1       8.433   2.625   3.174  1.00  0.00     0.053 C 
BRANCH   4   5
ATOM      5  C   UNL     1       7.318   3.604   2.967  1.00  0.00     0.041 C 
ATOM      6  O   UNL     1       6.792   3.736   1.830  1.00  0.00    -0.550 OA
ATOM      7  O   UNL     1       6.836   4.345   4.038  1.00  0.00    -0.550 OA
ENDBRANCH   4   5
ENDBRANCH   3   4
ENDBRANCH   2   3
ENDBRANCH   1   2
BRANCH   1   8
ATOM      8  C   UNL     1       8.622   1.607  -0.555  1.00  0.00     0.000 C 
BRANCH   8   9
ATOM      9  C   UNL     1       8.270   0.340  -1.361  1.00  0.00    -0.000 C 
BRANCH   9  10
ATOM     10  C   UNL     1       7.249   0.553  -2.493  1.00  0.00    -0.000 C 
BRANCH  10  11
ATOM     11  C   UNL     1       6.956  -0.732  -3.281  1.00  0.00    -0.000 C 
BRANCH  11  12
ATOM     12  C   UNL     1       7.588  -1.950  -2.597  1.00  0.00    -0.003 C 
ATOM     13  C   UNL     1       7.486  -3.191  -3.478  1.00  0.00     0.004 C 
ENDBRANCH  11  12
ENDBRANCH  10  11
ENDBRANCH   9  10
ENDBRANCH   8   9
ENDBRANCH   1   8
TORSDOF 9
ENDMDL
MODEL 3
REMARK VINA RESULT:    -3.091      4.014      5.849
REMARK INTER + INTRA:          -5.189
REMARK INTER:                  -4.734
REMARK INTRA:                  -0.455
REMARK UNBOUND:                -0.472
REMARK SMILES CCCCCCCCCCC(=O)[O-]
REMARK SMILES IDX 7 1 8 2 9 3 10 4 11 5 12 6 13 7 6 8 5 9 4 10 3 11 2 12 1 13
REMARK H PARENT
REMARK Flexibility Score: inf
ROOT
ATOM      1  C   UNL     1       8.687  -3.723  -1.727  1.00  0.00     0.000 C 
ENDROOT
BRANCH   1   2
ATOM      2  C   UNL     1       9.213  -4.017  -0.309  1.00  0.00     0.000 C 
BRANCH   2   3
ATOM      3  C   UNL     1       9.253  -2.766   0.583  1.00  0.00     0.006 C 
BRANCH   3   4
ATOM      4  C   UNL     1       8.458  -2.956   1.882  1.00  0.00     0.053 C 
BRANCH   4   5
ATOM      5  C   UNL     1       8.879  -4.196   2.610  1.00  0.00     0.041 C 
ATOM      6  O   UNL     1      10.015  -4.260   3.151  1.00  0.00    -0.550 OA
ATOM      7  O   UNL     1       8.004  -5.269   2.719  1.00  0.00    -0.550 OA
ENDBRANCH   4   5
ENDBRANCH   3   4
ENDBRANCH   2   3
ENDBRANCH   1   2
BRANCH   1   8
ATOM      8  C   UNL     1       8.264  -2.260  -1.970  1.00  0.00     0.000 C 
BRANCH   8   9
ATOM      9  C   UNL     1       7.284  -2.047  -3.142  1.00  0.00    -0.000 C 
BRANCH   9  10
ATOM     10  C   UNL     1       6.919  -0.578  -3.425  1.00  0.00    -0.000 C 
BRANCH  10  11
ATOM     11  C   UNL     1       7.394   0.377  -2.321  1.00  0.00    -0.000 C 
BRANCH  11  12
ATOM     12  C   UNL     1       7.002   1.824  -2.640  1.00  0.00    -0.003 C 
ATOM     13  C   UNL     1       7.491   2.780  -1.558  1.00  0.00     0.004 C 
ENDBRANCH  11  12
ENDBRANCH  10  11
ENDBRANCH   9  10
ENDBRANCH   8   9
ENDBRANCH   1   8
TORSDOF 9
ENDMDL
MODEL 4
REMARK VINA RESULT:    -3.068      1.601      2.897
REMARK INTER + INTRA:          -5.154
REMARK INTER:                  -4.690
REMARK INTRA:                  -0.465
REMARK UNBOUND:                -0.472
REMARK SMILES CCCCCCCCCCC(=O)[O-]
REMARK SMILES IDX 7 1 8 2 9 3 10 4 11 5 12 6 13 7 6 8 5 9 4 10 3 11 2 12 1 13
REMARK H PARENT
REMARK Flexibility Score: inf
ROOT
ATOM      1  C   UNL     1       8.754  -0.702   2.289  1.00  0.00     0.000 C 
ENDROOT
BRANCH   1   2
ATOM      2  C   UNL     1       9.103   0.723   2.758  1.00  0.00     0.000 C 
BRANCH   2   3
ATOM      3  C   UNL     1       7.957   1.392   3.535  1.00  0.00     0.006 C 
BRANCH   3   4
ATOM      4  C   UNL     1       8.292   2.837   3.928  1.00  0.00     0.053 C 
BRANCH   4   5
ATOM      5  C   UNL     1       7.265   3.800   3.417  1.00  0.00     0.041 C 
ATOM      6  O   UNL     1       6.740   4.641   4.195  1.00  0.00    -0.550 OA
ATOM      7  O   UNL     1       6.912   3.793   2.074  1.00  0.00    -0.550 OA
ENDBRANCH   4   5
ENDBRANCH   3   4
ENDBRANCH   2   3
ENDBRANCH   1   2
BRANCH   1   8
ATOM      8  C   UNL     1       9.117  -1.009   0.821  1.00  0.00     0.000 C 
BRANCH   8   9
ATOM      9  C   UNL     1       9.119   0.210  -0.123  1.00  0.00    -0.000 C 
BRANCH   9  10
ATOM     10  C   UNL     1       8.242   0.061  -1.379  1.00  0.00    -0.000 C 
BRANCH  10  11
ATOM     11  C   UNL     1       8.176  -1.385  -1.890  1.00  0.00    -0.000 C 
BRANCH  11  12
ATOM     12  C   UNL     1       7.266  -1.491  -3.119  1.00  0.00    -0.003 C 
ATOM     13  C   UNL     1       6.667  -0.136  -3.481  1.00  0.00     0.004 C 
ENDBRANCH  11  12
ENDBRANCH  10  11
ENDBRANCH   9  10
ENDBRANCH   8   9
ENDBRANCH   1   8
TORSDOF 9
ENDMDL
MODEL 5
REMARK VINA RESULT:    -3.042      4.573      6.109
REMARK INTER + INTRA:          -5.115
REMARK INTER:                  -4.677
REMARK INTRA:                  -0.438
REMARK UNBOUND:                -0.472
REMARK SMILES CCCCCCCCCCC(=O)[O-]
REMARK SMILES IDX 7 1 8 2 9 3 10 4 11 5 12 6 13 7 6 8 5 9 4 10 3 11 2 12 1 13
REMARK H PARENT
REMARK Flexibility Score: inf
ROOT
ATOM      1  C   UNL     1       8.473  -3.152  -1.823  1.00  0.00     0.000 C 
ENDROOT
BRANCH   1   2
ATOM      2  C   UNL     1       9.035  -2.833  -0.425  1.00  0.00     0.000 C 
BRANCH   2   3
ATOM      3  C   UNL     1       9.140  -4.078   0.473  1.00  0.00     0.006 C 
BRANCH   3   4
ATOM      4  C   UNL     1       8.403  -3.892   1.806  1.00  0.00     0.053 C 
BRANCH   4   5
ATOM      5  C   UNL     1       8.466  -5.130   2.648  1.00  0.00     0.041 C 
ATOM      6  O   UNL     1       8.137  -6.245   2.164  1.00  0.00    -0.550 OA
ATOM      7  O   UNL     1       8.921  -5.057   3.959  1.00  0.00    -0.550 OA
ENDBRANCH   4   5
ENDBRANCH   3   4
ENDBRANCH   2   3
ENDBRANCH   1   2
BRANCH   1   8
ATOM      8  C   UNL     1       7.672  -2.007  -2.476  1.00  0.00     0.000 C 
BRANCH   8   9
ATOM      9  C   UNL     1       8.076  -0.587  -2.031  1.00  0.00    -0.000 C 
BRANCH   9  10
ATOM     10  C   UNL     1       7.135   0.535  -2.508  1.00  0.00    -0.000 C 
BRANCH  10  11
ATOM     11  C   UNL     1       6.950   0.549  -4.032  1.00  0.00    -0.000 C 
BRANCH  11  12
ATOM     12  C   UNL     1       5.473   0.381  -4.407  1.00  0.00    -0.003 C 
ATOM     13  C   UNL     1       5.222  -0.972  -5.064  1.00  0.00     0.004 C 
ENDBRANCH  11  12
ENDBRANCH  10  11
ENDBRANCH   9  10
ENDBRANCH   8   9
ENDBRANCH   1   8
TORSDOF 9
ENDMDL
MODEL 6
REMARK VINA RESULT:    -3.040      3.821      5.511
REMARK INTER + INTRA:          -5.112
REMARK INTER:                  -4.240
REMARK INTRA:                  -0.871
REMARK UNBOUND:                -0.472
REMARK SMILES CCCCCCCCCCC(=O)[O-]
REMARK SMILES IDX 7 1 8 2 9 3 10 4 11 5 12 6 13 7 6 8 5 9 4 10 3 11 2 12 1 13
REMARK H PARENT
REMARK Flexibility Score: inf
ROOT
ATOM      1  C   UNL     1       8.882  -2.696  -2.200  1.00  0.00     0.000 C 
ENDROOT
BRANCH   1   2
ATOM      2  C   UNL     1       8.758  -3.313  -0.794  1.00  0.00     0.000 C 
BRANCH   2   3
ATOM      3  C   UNL     1       9.324  -2.402   0.308  1.00  0.00     0.006 C 
BRANCH   3   4
ATOM      4  C   UNL     1       8.545  -2.537   1.624  1.00  0.00     0.053 C 
BRANCH   4   5
ATOM      5  C   UNL     1       8.743  -3.885   2.246  1.00  0.00     0.041 C 
ATOM      6  O   UNL     1       7.779  -4.690   2.338  1.00  0.00    -0.550 OA
ATOM      7  O   UNL     1      10.002  -4.266   2.694  1.00  0.00    -0.550 OA
ENDBRANCH   4   5
ENDBRANCH   3   4
ENDBRANCH   2   3
ENDBRANCH   1   2
BRANCH   1   8
ATOM      8  C   UNL     1       7.540  -2.417  -2.907  1.00  0.00     0.000 C 
BRANCH   8   9
ATOM      9  C   UNL     1       7.164  -0.927  -3.036  1.00  0.00    -0.000 C 
BRANCH   9  10
ATOM     10  C   UNL     1       8.210   0.057  -2.482  1.00  0.00    -0.000 C 
BRANCH  10  11
ATOM     11  C   UNL     1       7.579   1.310  -1.860  1.00  0.00    -0.000 C 
BRANCH  11  12
ATOM     12  C   UNL     1       8.357   1.758  -0.617  1.00  0.00    -0.003 C 
ATOM     13  C   UNL     1       9.731   1.100  -0.560  1.00  0.00     0.004 C 
ENDBRANCH  11  12
ENDBRANCH  10  11
ENDBRANCH   9  10
ENDBRANCH   8   9
ENDBRANCH   1   8
TORSDOF 9
ENDMDL
MODEL 7
REMARK VINA RESULT:    -3.033      1.356      2.614
REMARK INTER + INTRA:          -5.101
REMARK INTER:                  -4.445
REMARK INTRA:                  -0.656
REMARK UNBOUND:                -0.472
REMARK SMILES CCCCCCCCCCC(=O)[O-]
REMARK SMILES IDX 7 1 8 2 9 3 10 4 11 5 12 6 13 7 6 8 5 9 4 10 3 11 2 12 1 13
REMARK H PARENT
REMARK Flexibility Score: inf
ROOT
ATOM      1  C   UNL     1       8.912  -0.794   1.547  1.00  0.00     0.000 C 
ENDROOT
BRANCH   1   2
ATOM      2  C   UNL     1       8.838   0.667   2.028  1.00  0.00     0.000 C 
BRANCH   2   3
ATOM      3  C   UNL     1       8.657   1.665   0.872  1.00  0.00     0.006 C 
BRANCH   3   4
ATOM      4  C   UNL     1       8.671   3.121   1.359  1.00  0.00     0.053 C 
BRANCH   4   5
ATOM      5  C   UNL     1       7.288   3.624   1.636  1.00  0.00     0.041 C 
ATOM      6  O   UNL     1       6.809   3.559   2.799  1.00  0.00    -0.550 OA
ATOM      7  O   UNL     1       6.538   4.196   0.615  1.00  0.00    -0.550 OA
ENDBRANCH   4   5
ENDBRANCH   3   4
ENDBRANCH   2   3
ENDBRANCH   1   2
BRANCH   1   8
ATOM      8  C   UNL     1       9.210  -0.969   0.044  1.00  0.00     0.000 C 
BRANCH   8   9
ATOM      9  C   UNL     1       8.673  -2.271  -0.584  1.00  0.00    -0.000 C 
BRANCH   9  10
ATOM     10  C   UNL     1       8.713  -2.314  -2.122  1.00  0.00    -0.000 C 
BRANCH  10  11
ATOM     11  C   UNL     1       7.414  -1.808  -2.766  1.00  0.00    -0.000 C 
BRANCH  11  12
ATOM     12  C   UNL     1       7.623  -0.435  -3.417  1.00  0.00    -0.003 C 
ATOM     13  C   UNL     1       7.214   0.691  -2.474  1.00  0.00     0.004 C 
ENDBRANCH  11  12
ENDBRANCH  10  11
ENDBRANCH   9  10
ENDBRANCH   8   9
ENDBRANCH   1   8
TORSDOF 9
ENDMDL
MODEL 8
REMARK VINA RESULT:    -3.032      3.984      4.795
REMARK INTER + INTRA:          -5.100
REMARK INTER:                  -4.107
REMARK INTRA:                  -0.993
REMARK UNBOUND:                -0.472
REMARK SMILES CCCCCCCCCCC(=O)[O-]
REMARK SMILES IDX 7 1 8 2 9 3 10 4 11 5 12 6 13 7 6 8 5 9 4 10 3 11 2 12 1 13
REMARK H PARENT
REMARK Flexibility Score: inf
ROOT
ATOM      1  C   UNL     1      10.101   0.191  -0.284  1.00  0.00     0.000 C 
ENDROOT
BRANCH   1   2
ATOM      2  C   UNL     1      10.137  -1.311   0.056  1.00  0.00     0.000 C 
BRANCH   2   3
ATOM      3  C   UNL     1       8.765  -1.859   0.482  1.00  0.00     0.006 C 
BRANCH   3   4
ATOM      4  C   UNL     1       8.846  -2.675   1.779  1.00  0.00     0.053 C 
BRANCH   4   5
ATOM      5  C   UNL     1       8.541  -4.122   1.540  1.00  0.00     0.041 C 
ATOM      6  O   UNL     1       7.806  -4.757   2.341  1.00  0.00    -0.550 OA
ATOM      7  O   UNL     1       9.042  -4.761   0.412  1.00  0.00    -0.550 OA
ENDBRANCH   4   5
ENDBRANCH   3   4
ENDBRANCH   2   3
ENDBRANCH   1   2
BRANCH   1   8
ATOM      8  C   UNL     1       8.689   0.809  -0.340  1.00  0.00     0.000 C 
BRANCH   8   9
ATOM      9  C   UNL     1       8.199   1.199  -1.749  1.00  0.00    -0.000 C 
BRANCH   9  10
ATOM     10  C   UNL     1       7.287   0.162  -2.430  1.00  0.00    -0.000 C 
BRANCH  10  11
ATOM     11  C   UNL     1       8.073  -0.978  -3.094  1.00  0.00    -0.000 C 
BRANCH  11  12
ATOM     12  C   UNL     1       7.283  -2.291  -3.044  1.00  0.00    -0.003 C 
ATOM     13  C   UNL     1       8.182  -3.462  -2.663  1.00  0.00     0.004 C 
ENDBRANCH  11  12
ENDBRANCH  10  11
ENDBRANCH   9  10
ENDBRANCH   8   9
ENDBRANCH   1   8
TORSDOF 9
ENDMDL
MODEL 9
REMARK VINA RESULT:    -2.976      2.007      3.688
REMARK INTER + INTRA:          -5.014
REMARK INTER:                  -4.302
REMARK INTRA:                  -0.712
REMARK UNBOUND:                -0.472
REMARK SMILES CCCCCCCCCCC(=O)[O-]
REMARK SMILES IDX 7 1 8 2 9 3 10 4 11 5 12 6 13 7 6 8 5 9 4 10 3 11 2 12 1 13
REMARK H PARENT
REMARK Flexibility Score: inf
ROOT
ATOM      1  C   UNL     1       9.362  -2.128  -0.329  1.00  0.00     0.000 C 
ENDROOT
BRANCH   1   2
ATOM      2  C   UNL     1       8.908  -2.408   1.116  1.00  0.00     0.000 C 
BRANCH   2   3
ATOM      3  C   UNL     1       8.911  -1.147   1.996  1.00  0.00     0.006 C 
BRANCH   3   4
ATOM      4  C   UNL     1       8.965   0.140   1.162  1.00  0.00     0.053 C 
BRANCH   4   5
ATOM      5  C   UNL     1       8.742   1.356   2.007  1.00  0.00     0.041 C 
ATOM      6  O   UNL     1       9.491   2.361   1.885  1.00  0.00    -0.550 OA
ATOM      7  O   UNL     1       7.684   1.393   2.907  1.00  0.00    -0.550 OA
ENDBRANCH   4   5
ENDBRANCH   3   4
ENDBRANCH   2   3
ENDBRANCH   1   2
BRANCH   1   8
ATOM      8  C   UNL     1       8.711  -3.027  -1.399  1.00  0.00     0.000 C 
BRANCH   8   9
ATOM      9  C   UNL     1       7.958  -2.277  -2.516  1.00  0.00    -0.000 C 
BRANCH   9  10
ATOM     10  C   UNL     1       7.619  -0.810  -2.199  1.00  0.00    -0.000 C 
BRANCH  10  11
ATOM     11  C   UNL     1       6.865  -0.112  -3.340  1.00  0.00    -0.000 C 
BRANCH  11  12
ATOM     12  C   UNL     1       6.800   1.402  -3.109  1.00  0.00    -0.003 C 
ATOM     13  C   UNL     1       7.653   1.816  -1.915  1.00  0.00     0.004 C 
ENDBRANCH  11  12
ENDBRANCH  10  11
ENDBRANCH   9  10
ENDBRANCH   8   9
ENDBRANCH   1   8
TORSDOF 9
ENDMDL
