MODEL 1
REMARK VINA RESULT:    -6.378      0.000      0.000
REMARK INTER + INTRA:          -7.039
REMARK INTER:                  -6.751
REMARK INTRA:                  -0.289
REMARK UNBOUND:                -0.289
REMARK SMILES CC1=CC[C@H]2[C@H]3[C@@H]1[C@]2(C)CC[C@H]3C(C)C
REMARK SMILES IDX 1 1 2 2 3 3 4 4 5 5 6 6 7 7 8 8 10 9 11 10 12 11 9 12 13 13
REMARK SMILES IDX 14 14 15 15
REMARK H PARENT
REMARK Flexibility Score: inf
ROOT
ATOM      1  C   UNL     1       0.622  12.470  -1.041  1.00  0.00     0.039 C 
ATOM      2  C   UNL     1       0.526  13.390   0.140  1.00  0.00    -0.073 C 
ATOM      3  C   UNL     1      -0.552  14.200   0.316  1.00  0.00    -0.027 C 
ATOM      4  C   UNL     1      -0.584  15.137   1.528  1.00  0.00     0.031 C 
ATOM      5  C   UNL     1       0.699  14.943   2.401  1.00  0.00     0.003 C 
ATOM      6  C   UNL     1       0.908  13.422   2.580  1.00  0.00     0.004 C 
ATOM      7  C   UNL     1       1.622  13.447   1.207  1.00  0.00     0.024 C 
ATOM      8  C   UNL     1       1.978  14.919   1.531  1.00  0.00    -0.022 C 
ATOM      9  C   UNL     1       3.222  14.989   2.462  1.00  0.00     0.008 C 
ATOM     10  C   UNL     1       3.291  13.808   3.466  1.00  0.00     0.005 C 
ATOM     11  C   UNL     1       1.911  13.118   3.737  1.00  0.00    -0.005 C 
ATOM     12  C   UNL     1       2.103  15.931   0.368  1.00  0.00     0.012 C 
ENDROOT
BRANCH  11  13
ATOM     13  C   UNL     1       1.355  13.466   5.159  1.00  0.00    -0.014 C 
ATOM     14  C   UNL     1       0.261  12.491   5.631  1.00  0.00     0.007 C 
ATOM     15  C   UNL     1       2.485  13.477   6.205  1.00  0.00     0.007 C 
ENDBRANCH  11  13
TORSDOF 1
ENDMDL
MODEL 2
REMARK VINA RESULT:    -6.255      1.226      4.640
REMARK INTER + INTRA:          -6.909
REMARK INTER:                  -6.636
REMARK INTRA:                  -0.273
REMARK UNBOUND:                -0.289
REMARK SMILES CC1=CC[C@H]2[C@H]3[C@@H]1[C@]2(C)CC[C@H]3C(C)C
REMARK SMILES IDX 1 1 2 2 3 3 4 4 5 5 6 6 7 7 8 8 10 9 11 10 12 11 9 12 13 13
REMARK SMILES IDX 14 14 15 15
REMARK H PARENT
REMARK Flexibility Score: inf
ROOT
ATOM      1  C   UNL     1       1.378  13.655   6.075  1.00  0.00     0.039 C 
ATOM      2  C   UNL     1       1.983  13.323   4.743  1.00  0.00    -0.073 C 
ATOM      3  C   UNL     1       2.698  12.182   4.558  1.00  0.00    -0.027 C 
ATOM      4  C   UNL     1       3.313  11.908   3.181  1.00  0.00     0.031 C 
ATOM      5  C   UNL     1       2.948  13.055   2.182  1.00  0.00     0.003 C 
ATOM      6  C   UNL     1       1.435  13.331   2.334  1.00  0.00     0.004 C 
ATOM      7  C   UNL     1       1.809  14.240   3.529  1.00  0.00     0.024 C 
ATOM      8  C   UNL     1       3.168  14.449   2.815  1.00  0.00    -0.022 C 
ATOM      9  C   UNL     1       3.044  15.531   1.706  1.00  0.00     0.008 C 
ATOM     10  C   UNL     1       1.657  15.523   1.009  1.00  0.00     0.005 C 
ATOM     11  C   UNL     1       0.886  14.165   1.134  1.00  0.00    -0.005 C 
ATOM     12  C   UNL     1       4.434  14.683   3.673  1.00  0.00     0.012 C 
ENDROOT
BRANCH  11  13
ATOM     13  C   UNL     1       0.866  13.381  -0.221  1.00  0.00    -0.014 C 
ATOM     14  C   UNL     1      -0.559  13.050  -0.702  1.00  0.00     0.007 C 
ATOM     15  C   UNL     1       1.584  14.173  -1.327  1.00  0.00     0.007 C 
ENDBRANCH  11  13
TORSDOF 1
ENDMDL
MODEL 3
REMARK VINA RESULT:    -5.707      1.657      3.878
REMARK INTER + INTRA:          -6.329
REMARK INTER:                  -6.036
REMARK INTRA:                  -0.293
REMARK UNBOUND:                -0.289
REMARK SMILES CC1=CC[C@H]2[C@H]3[C@@H]1[C@]2(C)CC[C@H]3C(C)C
REMARK SMILES IDX 1 1 2 2 3 3 4 4 5 5 6 6 7 7 8 8 10 9 11 10 12 11 9 12 13 13
REMARK SMILES IDX 14 14 15 15
REMARK H PARENT
REMARK Flexibility Score: inf
ROOT
ATOM      1  C   UNL     1       4.830  15.258   3.528  1.00  0.00     0.039 C 
ATOM      2  C   UNL     1       3.872  14.105   3.546  1.00  0.00    -0.073 C 
ATOM      3  C   UNL     1       4.314  12.820   3.507  1.00  0.00    -0.027 C 
ATOM      4  C   UNL     1       3.287  11.682   3.503  1.00  0.00     0.031 C 
ATOM      5  C   UNL     1       1.835  12.258   3.583  1.00  0.00     0.003 C 
ATOM      6  C   UNL     1       1.827  13.330   4.696  1.00  0.00     0.004 C 
ATOM      7  C   UNL     1       2.358  14.317   3.629  1.00  0.00     0.024 C 
ATOM      8  C   UNL     1       1.634  13.426   2.589  1.00  0.00    -0.022 C 
ATOM      9  C   UNL     1       0.121  13.778   2.525  1.00  0.00     0.008 C 
ATOM     10  C   UNL     1      -0.458  14.201   3.902  1.00  0.00     0.005 C 
ATOM     11  C   UNL     1       0.371  13.689   5.129  1.00  0.00    -0.005 C 
ATOM     12  C   UNL     1       2.231  13.302   1.167  1.00  0.00     0.012 C 
ENDROOT
BRANCH  11  13
ATOM     13  C   UNL     1      -0.364  12.532   5.886  1.00  0.00    -0.014 C 
ATOM     14  C   UNL     1       0.339  12.131   7.196  1.00  0.00     0.007 C 
ATOM     15  C   UNL     1      -1.818  12.921   6.210  1.00  0.00     0.007 C 
ENDBRANCH  11  13
TORSDOF 1
ENDMDL
MODEL 4
REMARK VINA RESULT:    -5.209      1.215      2.884
REMARK INTER + INTRA:          -5.802
REMARK INTER:                  -5.514
REMARK INTRA:                  -0.289
REMARK UNBOUND:                -0.289
REMARK SMILES CC1=CC[C@H]2[C@H]3[C@@H]1[C@]2(C)CC[C@H]3C(C)C
REMARK SMILES IDX 1 1 2 2 3 3 4 4 5 5 6 6 7 7 8 8 10 9 11 10 12 11 9 12 13 13
REMARK SMILES IDX 14 14 15 15
REMARK H PARENT
REMARK Flexibility Score: inf
ROOT
ATOM      1  C   UNL     1       2.491  16.786  -1.042  1.00  0.00     0.039 C 
ATOM      2  C   UNL     1       1.953  15.482  -0.532  1.00  0.00    -0.073 C 
ATOM      3  C   UNL     1       1.924  14.376  -1.322  1.00  0.00    -0.027 C 
ATOM      4  C   UNL     1       1.340  13.077  -0.755  1.00  0.00     0.031 C 
ATOM      5  C   UNL     1       0.890  13.282   0.728  1.00  0.00     0.003 C 
ATOM      6  C   UNL     1       2.035  14.021   1.458  1.00  0.00     0.004 C 
ATOM      7  C   UNL     1       1.430  15.331   0.898  1.00  0.00     0.024 C 
ATOM      8  C   UNL     1       0.072  14.585   0.898  1.00  0.00    -0.022 C 
ATOM      9  C   UNL     1      -0.563  14.601   2.317  1.00  0.00     0.008 C 
ATOM     10  C   UNL     1       0.495  14.536   3.451  1.00  0.00     0.005 C 
ATOM     11  C   UNL     1       1.872  13.934   3.008  1.00  0.00    -0.005 C 
ATOM     12  C   UNL     1      -0.978  14.947  -0.180  1.00  0.00     0.012 C 
ENDROOT
BRANCH  11  13
ATOM     13  C   UNL     1       2.091  12.495   3.584  1.00  0.00    -0.014 C 
ATOM     14  C   UNL     1       3.566  12.195   3.905  1.00  0.00     0.007 C 
ATOM     15  C   UNL     1       1.259  12.281   4.862  1.00  0.00     0.007 C 
ENDBRANCH  11  13
TORSDOF 1
ENDMDL
MODEL 5
REMARK VINA RESULT:    -5.114      1.274      2.239
REMARK INTER + INTRA:          -5.701
REMARK INTER:                  -5.415
REMARK INTRA:                  -0.286
REMARK UNBOUND:                -0.289
REMARK SMILES CC1=CC[C@H]2[C@H]3[C@@H]1[C@]2(C)CC[C@H]3C(C)C
REMARK SMILES IDX 1 1 2 2 3 3 4 4 5 5 6 6 7 7 8 8 10 9 11 10 12 11 9 12 13 13
REMARK SMILES IDX 14 14 15 15
REMARK H PARENT
REMARK Flexibility Score: inf
ROOT
ATOM      1  C   UNL     1      -1.449  12.625  -1.440  1.00  0.00     0.039 C 
ATOM      2  C   UNL     1      -1.166  13.428  -0.206  1.00  0.00    -0.073 C 
ATOM      3  C   UNL     1      -2.119  13.616   0.746  1.00  0.00    -0.027 C 
ATOM      4  C   UNL     1      -1.780  14.466   1.975  1.00  0.00     0.031 C 
ATOM      5  C   UNL     1      -0.297  14.959   1.906  1.00  0.00     0.003 C 
ATOM      6  C   UNL     1       0.574  13.742   1.520  1.00  0.00     0.004 C 
ATOM      7  C   UNL     1       0.206  14.056   0.050  1.00  0.00     0.024 C 
ATOM      8  C   UNL     1       0.047  15.526   0.509  1.00  0.00    -0.022 C 
ATOM      9  C   UNL     1       1.430  16.232   0.578  1.00  0.00     0.008 C 
ATOM     10  C   UNL     1       2.573  15.277   1.013  1.00  0.00     0.005 C 
ATOM     11  C   UNL     1       2.085  14.012   1.800  1.00  0.00    -0.005 C 
ATOM     12  C   UNL     1      -0.994  16.423  -0.204  1.00  0.00     0.012 C 
ENDROOT
BRANCH  11  13
ATOM     13  C   UNL     1       2.437  14.102   3.323  1.00  0.00    -0.014 C 
ATOM     14  C   UNL     1       1.828  12.955   4.148  1.00  0.00     0.007 C 
ATOM     15  C   UNL     1       3.962  14.104   3.537  1.00  0.00     0.007 C 
ENDBRANCH  11  13
TORSDOF 1
ENDMDL
MODEL 6
REMARK VINA RESULT:    -4.825      1.911      3.747
REMARK INTER + INTRA:          -5.395
REMARK INTER:                  -5.108
REMARK INTRA:                  -0.288
REMARK UNBOUND:                -0.289
REMARK SMILES CC1=CC[C@H]2[C@H]3[C@@H]1[C@]2(C)CC[C@H]3C(C)C
REMARK SMILES IDX 1 1 2 2 3 3 4 4 5 5 6 6 7 7 8 8 10 9 11 10 12 11 9 12 13 13
REMARK SMILES IDX 14 14 15 15
REMARK H PARENT
REMARK Flexibility Score: inf
ROOT
ATOM      1  C   UNL     1      -1.803  16.417  -0.611  1.00  0.00     0.039 C 
ATOM      2  C   UNL     1      -0.392  15.911  -0.661  1.00  0.00    -0.073 C 
ATOM      3  C   UNL     1       0.331  15.956  -1.811  1.00  0.00    -0.027 C 
ATOM      4  C   UNL     1       1.760  15.402  -1.809  1.00  0.00     0.031 C 
ATOM      5  C   UNL     1       2.144  14.888  -0.383  1.00  0.00     0.003 C 
ATOM      6  C   UNL     1       1.714  15.974   0.628  1.00  0.00     0.004 C 
ATOM      7  C   UNL     1       0.303  15.340   0.577  1.00  0.00     0.024 C 
ATOM      8  C   UNL     1       1.022  14.014   0.226  1.00  0.00    -0.022 C 
ATOM      9  C   UNL     1       1.560  13.325   1.511  1.00  0.00     0.008 C 
ATOM     10  C   UNL     1       2.028  14.340   2.588  1.00  0.00     0.005 C 
ATOM     11  C   UNL     1       2.387  15.755   2.020  1.00  0.00    -0.005 C 
ATOM     12  C   UNL     1       0.300  12.993  -0.686  1.00  0.00     0.012 C 
ENDROOT
BRANCH  11  13
ATOM     13  C   UNL     1       3.932  16.008   2.018  1.00  0.00    -0.014 C 
ATOM     14  C   UNL     1       4.295  17.503   2.066  1.00  0.00     0.007 C 
ATOM     15  C   UNL     1       4.607  15.302   3.208  1.00  0.00     0.007 C 
ENDBRANCH  11  13
TORSDOF 1
ENDMDL
MODEL 7
REMARK VINA RESULT:    -4.802      1.461      4.305
REMARK INTER + INTRA:          -5.372
REMARK INTER:                  -5.270
REMARK INTRA:                  -0.101
REMARK UNBOUND:                -0.289
REMARK SMILES CC1=CC[C@H]2[C@H]3[C@@H]1[C@]2(C)CC[C@H]3C(C)C
REMARK SMILES IDX 1 1 2 2 3 3 4 4 5 5 6 6 7 7 8 8 10 9 11 10 12 11 9 12 13 13
REMARK SMILES IDX 14 14 15 15
REMARK H PARENT
REMARK Flexibility Score: inf
ROOT
ATOM      1  C   UNL     1       5.002  15.305   3.893  1.00  0.00     0.039 C 
ATOM      2  C   UNL     1       3.783  14.431   3.886  1.00  0.00    -0.073 C 
ATOM      3  C   UNL     1       3.457  13.668   4.963  1.00  0.00    -0.027 C 
ATOM      4  C   UNL     1       2.213  12.776   4.890  1.00  0.00     0.031 C 
ATOM      5  C   UNL     1       1.497  12.950   3.511  1.00  0.00     0.003 C 
ATOM      6  C   UNL     1       1.401  14.468   3.232  1.00  0.00     0.004 C 
ATOM      7  C   UNL     1       2.844  14.369   2.679  1.00  0.00     0.024 C 
ATOM      8  C   UNL     1       2.505  12.896   2.338  1.00  0.00    -0.022 C 
ATOM      9  C   UNL     1       1.717  12.811   1.000  1.00  0.00     0.008 C 
ATOM     10  C   UNL     1       0.773  14.023   0.779  1.00  0.00     0.005 C 
ATOM     11  C   UNL     1       0.376  14.774   2.096  1.00  0.00    -0.005 C 
ATOM     12  C   UNL     1       3.636  11.841   2.379  1.00  0.00     0.012 C 
ENDROOT
BRANCH  11  13
ATOM     13  C   UNL     1      -1.111  14.496   2.499  1.00  0.00    -0.014 C 
ATOM     14  C   UNL     1      -1.335  14.520   4.021  1.00  0.00     0.007 C 
ATOM     15  C   UNL     1      -2.059  15.520   1.848  1.00  0.00     0.007 C 
ENDBRANCH  11  13
TORSDOF 1
ENDMDL
MODEL 8
REMARK VINA RESULT:    -4.730      1.465      4.926
REMARK INTER + INTRA:          -5.296
REMARK INTER:                  -5.008
REMARK INTRA:                  -0.288
REMARK UNBOUND:                -0.289
REMARK SMILES CC1=CC[C@H]2[C@H]3[C@@H]1[C@]2(C)CC[C@H]3C(C)C
REMARK SMILES IDX 1 1 2 2 3 3 4 4 5 5 6 6 7 7 8 8 10 9 11 10 12 11 9 12 13 13
REMARK SMILES IDX 14 14 15 15
REMARK H PARENT
REMARK Flexibility Score: inf
ROOT
ATOM      1  C   UNL     1       3.610  11.494   3.510  1.00  0.00     0.039 C 
ATOM      2  C   UNL     1       3.145  12.840   3.040  1.00  0.00    -0.073 C 
ATOM      3  C   UNL     1       3.793  13.977   3.408  1.00  0.00    -0.027 C 
ATOM      4  C   UNL     1       3.257  15.327   2.916  1.00  0.00     0.031 C 
ATOM      5  C   UNL     1       2.006  15.117   2.001  1.00  0.00     0.003 C 
ATOM      6  C   UNL     1       2.352  13.990   1.002  1.00  0.00     0.004 C 
ATOM      7  C   UNL     1       1.936  12.996   2.113  1.00  0.00     0.024 C 
ATOM      8  C   UNL     1       1.005  14.120   2.631  1.00  0.00    -0.022 C 
ATOM      9  C   UNL     1      -0.319  14.153   1.816  1.00  0.00     0.008 C 
ATOM     10  C   UNL     1      -0.119  13.771   0.325  1.00  0.00     0.005 C 
ATOM     11  C   UNL     1       1.348  13.961  -0.193  1.00  0.00    -0.005 C 
ATOM     12  C   UNL     1       0.720  14.213   4.149  1.00  0.00     0.012 C 
ENDROOT
BRANCH  11  13
ATOM     13  C   UNL     1       1.472  15.195  -1.149  1.00  0.00    -0.014 C 
ATOM     14  C   UNL     1       2.657  15.081  -2.125  1.00  0.00     0.007 C 
ATOM     15  C   UNL     1       0.182  15.390  -1.966  1.00  0.00     0.007 C 
ENDBRANCH  11  13
TORSDOF 1
ENDMDL
MODEL 9
REMARK VINA RESULT:    -4.574      1.851      4.717
REMARK INTER + INTRA:          -5.130
REMARK INTER:                  -4.835
REMARK INTRA:                  -0.295
REMARK UNBOUND:                -0.289
REMARK SMILES CC1=CC[C@H]2[C@H]3[C@@H]1[C@]2(C)CC[C@H]3C(C)C
REMARK SMILES IDX 1 1 2 2 3 3 4 4 5 5 6 6 7 7 8 8 10 9 11 10 12 11 9 12 13 13
REMARK SMILES IDX 14 14 15 15
REMARK H PARENT
REMARK Flexibility Score: inf
ROOT
ATOM      1  C   UNL     1       2.840  16.683   0.204  1.00  0.00     0.039 C 
ATOM      2  C   UNL     1       1.846  15.773   0.861  1.00  0.00    -0.073 C 
ATOM      3  C   UNL     1       2.103  15.206   2.070  1.00  0.00    -0.027 C 
ATOM      4  C   UNL     1       1.060  14.264   2.682  1.00  0.00     0.031 C 
ATOM      5  C   UNL     1      -0.191  14.156   1.751  1.00  0.00     0.003 C 
ATOM      6  C   UNL     1      -0.573  15.592   1.326  1.00  0.00     0.004 C 
ATOM      7  C   UNL     1       0.496  15.454   0.215  1.00  0.00     0.024 C 
ATOM      8  C   UNL     1       0.218  13.931   0.276  1.00  0.00    -0.022 C 
ATOM      9  C   UNL     1      -1.050  13.573  -0.550  1.00  0.00     0.008 C 
ATOM     10  C   UNL     1      -2.133  14.684  -0.505  1.00  0.00     0.005 C 
ATOM     11  C   UNL     1      -2.014  15.644   0.727  1.00  0.00    -0.005 C 
ATOM     12  C   UNL     1       1.372  12.949  -0.033  1.00  0.00     0.012 C 
ENDROOT
BRANCH  11  13
ATOM     13  C   UNL     1      -3.143  15.382   1.780  1.00  0.00    -0.014 C 
ATOM     14  C   UNL     1      -3.093  16.360   2.968  1.00  0.00     0.007 C 
ATOM     15  C   UNL     1      -4.535  15.474   1.129  1.00  0.00     0.007 C 
ENDBRANCH  11  13
TORSDOF 1
ENDMDL
