MODEL 1
REMARK VINA RESULT:    -2.991      0.000      0.000
REMARK INTER + INTRA:          -7.021
REMARK INTER:                  -5.090
REMARK INTRA:                  -1.931
REMARK UNBOUND:                -1.931
REMARK SMILES CCCCCCCCCCCCCC(=O)[O-]
REMARK SMILES IDX 8 1 9 2 10 3 11 4 12 5 13 6 14 7 15 8 16 9 7 10 6 11 5 12
REMARK SMILES IDX 4 13 3 14 2 15 1 16
REMARK H PARENT
REMARK Flexibility Score: inf
ROOT
ATOM      1  C   UNL     1     165.710 168.566 152.697  1.00  0.00     0.000 C 
ENDROOT
BRANCH   1   2
ATOM      2  C   UNL     1     167.145 168.674 153.252  1.00  0.00     0.000 C 
BRANCH   2   3
ATOM      3  C   UNL     1     167.615 170.105 153.573  1.00  0.00     0.000 C 
BRANCH   3   4
ATOM      4  C   UNL     1     168.557 170.678 152.500  1.00  0.00     0.000 C 
BRANCH   4   5
ATOM      5  C   UNL     1     168.969 169.630 151.450  1.00  0.00     0.006 C 
BRANCH   5   6
ATOM      6  C   UNL     1     169.764 170.197 150.263  1.00  0.00     0.053 C 
BRANCH   6   7
ATOM      7  C   UNL     1     170.478 169.125 149.499  1.00  0.00     0.041 C 
ATOM      8  O   UNL     1     171.679 168.854 149.761  1.00  0.00    -0.550 OA
ATOM      9  O   UNL     1     169.807 168.402 148.521  1.00  0.00    -0.550 OA
ENDBRANCH   6   7
ENDBRANCH   5   6
ENDBRANCH   4   5
ENDBRANCH   3   4
ENDBRANCH   2   3
ENDBRANCH   1   2
BRANCH   1  10
ATOM     10  C   UNL     1     164.752 169.695 153.127  1.00  0.00     0.000 C 
BRANCH  10  11
ATOM     11  C   UNL     1     164.070 170.445 151.968  1.00  0.00    -0.000 C 
BRANCH  11  12
ATOM     12  C   UNL     1     165.073 171.125 151.024  1.00  0.00    -0.000 C 
BRANCH  12  13
ATOM     13  C   UNL     1     164.907 170.612 149.586  1.00  0.00    -0.000 C 
BRANCH  13  14
ATOM     14  C   UNL     1     166.200 170.001 149.023  1.00  0.00    -0.000 C 
BRANCH  14  15
ATOM     15  C   UNL     1     166.219 168.468 149.115  1.00  0.00    -0.003 C 
ATOM     16  C   UNL     1     164.871 167.876 148.713  1.00  0.00     0.004 C 
ENDBRANCH  14  15
ENDBRANCH  13  14
ENDBRANCH  12  13
ENDBRANCH  11  12
ENDBRANCH  10  11
ENDBRANCH   1  10
TORSDOF 12
ENDMDL
MODEL 2
REMARK VINA RESULT:    -2.900      2.053      4.331
REMARK INTER + INTRA:          -6.866
REMARK INTER:                  -5.200
REMARK INTRA:                  -1.666
REMARK UNBOUND:                -1.931
REMARK SMILES CCCCCCCCCCCCCC(=O)[O-]
REMARK SMILES IDX 8 1 9 2 10 3 11 4 12 5 13 6 14 7 15 8 16 9 7 10 6 11 5 12
REMARK SMILES IDX 4 13 3 14 2 15 1 16
REMARK H PARENT
REMARK Flexibility Score: inf
ROOT
ATOM      1  C   UNL     1     164.329 168.943 155.156  1.00  0.00     0.000 C 
ENDROOT
BRANCH   1   2
ATOM      2  C   UNL     1     163.424 169.619 154.106  1.00  0.00     0.000 C 
BRANCH   2   3
ATOM      3  C   UNL     1     164.089 169.883 152.742  1.00  0.00     0.000 C 
BRANCH   3   4
ATOM      4  C   UNL     1     164.522 168.591 152.029  1.00  0.00     0.000 C 
BRANCH   4   5
ATOM      5  C   UNL     1     164.439 168.701 150.495  1.00  0.00     0.006 C 
BRANCH   5   6
ATOM      6  C   UNL     1     165.758 168.404 149.764  1.00  0.00     0.053 C 
BRANCH   6   7
ATOM      7  C   UNL     1     166.317 169.621 149.093  1.00  0.00     0.041 C 
ATOM      8  O   UNL     1     166.029 170.770 149.521  1.00  0.00    -0.550 OA
ATOM      9  O   UNL     1     167.184 169.486 148.015  1.00  0.00    -0.550 OA
ENDBRANCH   6   7
ENDBRANCH   5   6
ENDBRANCH   4   5
ENDBRANCH   3   4
ENDBRANCH   2   3
ENDBRANCH   1   2
BRANCH   1  10
ATOM     10  C   UNL     1     164.925 169.890 156.216  1.00  0.00     0.000 C 
BRANCH  10  11
ATOM     11  C   UNL     1     166.052 170.809 155.708  1.00  0.00    -0.000 C 
BRANCH  11  12
ATOM     12  C   UNL     1     167.231 170.030 155.107  1.00  0.00    -0.000 C 
BRANCH  12  13
ATOM     13  C   UNL     1     168.036 170.912 154.141  1.00  0.00    -0.000 C 
BRANCH  13  14
ATOM     14  C   UNL     1     167.796 170.547 152.668  1.00  0.00    -0.000 C 
BRANCH  14  15
ATOM     15  C   UNL     1     168.256 169.122 152.327  1.00  0.00    -0.003 C 
ATOM     16  C   UNL     1     169.282 169.131 151.198  1.00  0.00     0.004 C 
ENDBRANCH  14  15
ENDBRANCH  13  14
ENDBRANCH  12  13
ENDBRANCH  11  12
ENDBRANCH  10  11
ENDBRANCH   1  10
TORSDOF 12
ENDMDL
MODEL 3
REMARK VINA RESULT:    -2.886      1.600      2.589
REMARK INTER + INTRA:          -6.842
REMARK INTER:                  -5.192
REMARK INTRA:                  -1.649
REMARK UNBOUND:                -1.931
REMARK SMILES CCCCCCCCCCCCCC(=O)[O-]
REMARK SMILES IDX 8 1 9 2 10 3 11 4 12 5 13 6 14 7 15 8 16 9 7 10 6 11 5 12
REMARK SMILES IDX 4 13 3 14 2 15 1 16
REMARK H PARENT
REMARK Flexibility Score: inf
ROOT
ATOM      1  C   UNL     1     168.251 169.098 152.249  1.00  0.00     0.000 C 
ENDROOT
BRANCH   1   2
ATOM      2  C   UNL     1     169.128 169.062 150.981  1.00  0.00     0.000 C 
BRANCH   2   3
ATOM      3  C   UNL     1     169.795 170.400 150.610  1.00  0.00     0.000 C 
BRANCH   3   4
ATOM      4  C   UNL     1     169.081 171.122 149.454  1.00  0.00     0.000 C 
BRANCH   4   5
ATOM      5  C   UNL     1     169.474 170.568 148.073  1.00  0.00     0.006 C 
BRANCH   5   6
ATOM      6  C   UNL     1     170.980 170.623 147.771  1.00  0.00     0.053 C 
BRANCH   6   7
ATOM      7  C   UNL     1     171.534 169.277 147.415  1.00  0.00     0.041 C 
ATOM      8  O   UNL     1     171.347 168.293 148.178  1.00  0.00    -0.550 OA
ATOM      9  O   UNL     1     172.227 169.102 146.224  1.00  0.00    -0.550 OA
ENDBRANCH   6   7
ENDBRANCH   5   6
ENDBRANCH   4   5
ENDBRANCH   3   4
ENDBRANCH   2   3
ENDBRANCH   1   2
BRANCH   1  10
ATOM     10  C   UNL     1     168.131 170.477 152.927  1.00  0.00     0.000 C 
BRANCH  10  11
ATOM     11  C   UNL     1     166.721 171.095 152.898  1.00  0.00    -0.000 C 
BRANCH  11  12
ATOM     12  C   UNL     1     165.757 170.340 151.971  1.00  0.00    -0.000 C 
BRANCH  12  13
ATOM     13  C   UNL     1     165.633 171.048 150.614  1.00  0.00    -0.000 C 
BRANCH  13  14
ATOM     14  C   UNL     1     165.014 170.149 149.532  1.00  0.00    -0.000 C 
BRANCH  14  15
ATOM     15  C   UNL     1     166.044 169.220 148.873  1.00  0.00    -0.003 C 
ATOM     16  C   UNL     1     165.357 168.131 148.053  1.00  0.00     0.004 C 
ENDBRANCH  14  15
ENDBRANCH  13  14
ENDBRANCH  12  13
ENDBRANCH  11  12
ENDBRANCH  10  11
ENDBRANCH   1  10
TORSDOF 12
ENDMDL
MODEL 4
REMARK VINA RESULT:    -2.871      1.537      2.682
REMARK INTER + INTRA:          -6.816
REMARK INTER:                  -4.936
REMARK INTRA:                  -1.880
REMARK UNBOUND:                -1.931
REMARK SMILES CCCCCCCCCCCCCC(=O)[O-]
REMARK SMILES IDX 8 1 9 2 10 3 11 4 12 5 13 6 14 7 15 8 16 9 7 10 6 11 5 12
REMARK SMILES IDX 4 13 3 14 2 15 1 16
REMARK H PARENT
REMARK Flexibility Score: inf
ROOT
ATOM      1  C   UNL     1     165.497 171.085 152.558  1.00  0.00     0.000 C 
ENDROOT
BRANCH   1   2
ATOM      2  C   UNL     1     165.935 169.941 153.495  1.00  0.00     0.000 C 
BRANCH   2   3
ATOM      3  C   UNL     1     167.451 169.672 153.535  1.00  0.00     0.000 C 
BRANCH   3   4
ATOM      4  C   UNL     1     167.956 168.920 152.292  1.00  0.00     0.000 C 
BRANCH   4   5
ATOM      5  C   UNL     1     168.958 169.745 151.463  1.00  0.00     0.006 C 
BRANCH   5   6
ATOM      6  C   UNL     1     169.844 168.912 150.523  1.00  0.00     0.053 C 
BRANCH   6   7
ATOM      7  C   UNL     1     169.601 169.241 149.082  1.00  0.00     0.041 C 
ATOM      8  O   UNL     1     168.483 168.996 148.556  1.00  0.00    -0.550 OA
ATOM      9  O   UNL     1     170.597 169.850 148.329  1.00  0.00    -0.550 OA
ENDBRANCH   6   7
ENDBRANCH   5   6
ENDBRANCH   4   5
ENDBRANCH   3   4
ENDBRANCH   2   3
ENDBRANCH   1   2
BRANCH   1  10
ATOM     10  C   UNL     1     164.571 170.666 151.399  1.00  0.00     0.000 C 
BRANCH  10  11
ATOM     11  C   UNL     1     165.293 170.287 150.093  1.00  0.00    -0.000 C 
BRANCH  11  12
ATOM     12  C   UNL     1     164.918 168.885 149.590  1.00  0.00    -0.000 C 
BRANCH  12  13
ATOM     13  C   UNL     1     164.190 168.087 150.682  1.00  0.00    -0.000 C 
BRANCH  13  14
ATOM     14  C   UNL     1     165.031 166.921 151.224  1.00  0.00    -0.000 C 
BRANCH  14  15
ATOM     15  C   UNL     1     164.773 166.646 152.712  1.00  0.00    -0.003 C 
ATOM     16  C   UNL     1     165.976 165.969 153.363  1.00  0.00     0.004 C 
ENDBRANCH  14  15
ENDBRANCH  13  14
ENDBRANCH  12  13
ENDBRANCH  11  12
ENDBRANCH  10  11
ENDBRANCH   1  10
TORSDOF 12
ENDMDL
MODEL 5
REMARK VINA RESULT:    -2.786      2.665      5.045
REMARK INTER + INTRA:          -6.671
REMARK INTER:                  -4.904
REMARK INTRA:                  -1.767
REMARK UNBOUND:                -1.931
REMARK SMILES CCCCCCCCCCCCCC(=O)[O-]
REMARK SMILES IDX 8 1 9 2 10 3 11 4 12 5 13 6 14 7 15 8 16 9 7 10 6 11 5 12
REMARK SMILES IDX 4 13 3 14 2 15 1 16
REMARK H PARENT
REMARK Flexibility Score: inf
ROOT
ATOM      1  C   UNL     1     164.486 170.400 151.779  1.00  0.00     0.000 C 
ENDROOT
BRANCH   1   2
ATOM      2  C   UNL     1     165.054 171.125 150.543  1.00  0.00     0.000 C 
BRANCH   2   3
ATOM      3  C   UNL     1     165.613 170.202 149.443  1.00  0.00     0.000 C 
BRANCH   3   4
ATOM      4  C   UNL     1     165.585 168.716 149.840  1.00  0.00     0.000 C 
BRANCH   4   5
ATOM      5  C   UNL     1     165.026 167.813 148.725  1.00  0.00     0.006 C 
BRANCH   5   6
ATOM      6  C   UNL     1     163.797 166.985 149.133  1.00  0.00     0.053 C 
BRANCH   6   7
ATOM      7  C   UNL     1     163.747 166.740 150.610  1.00  0.00     0.041 C 
ATOM      8  O   UNL     1     162.911 167.351 151.326  1.00  0.00    -0.550 OA
ATOM      9  O   UNL     1     164.600 165.809 151.190  1.00  0.00    -0.550 OA
ENDBRANCH   6   7
ENDBRANCH   5   6
ENDBRANCH   4   5
ENDBRANCH   3   4
ENDBRANCH   2   3
ENDBRANCH   1   2
BRANCH   1  10
ATOM     10  C   UNL     1     165.269 170.620 153.089  1.00  0.00     0.000 C 
BRANCH  10  11
ATOM     11  C   UNL     1     165.906 169.352 153.687  1.00  0.00    -0.000 C 
BRANCH  11  12
ATOM     12  C   UNL     1     167.373 169.169 153.273  1.00  0.00    -0.000 C 
BRANCH  12  13
ATOM     13  C   UNL     1     168.034 170.524 152.981  1.00  0.00    -0.000 C 
BRANCH  13  14
ATOM     14  C   UNL     1     168.837 170.520 151.670  1.00  0.00    -0.000 C 
BRANCH  14  15
ATOM     15  C   UNL     1     169.128 169.102 151.158  1.00  0.00    -0.003 C 
ATOM     16  C   UNL     1     169.435 169.110 149.663  1.00  0.00     0.004 C 
ENDBRANCH  14  15
ENDBRANCH  13  14
ENDBRANCH  12  13
ENDBRANCH  11  12
ENDBRANCH  10  11
ENDBRANCH   1  10
TORSDOF 12
ENDMDL
MODEL 6
REMARK VINA RESULT:    -2.780      1.491      2.059
REMARK INTER + INTRA:          -6.661
REMARK INTER:                  -5.120
REMARK INTRA:                  -1.541
REMARK UNBOUND:                -1.931
REMARK SMILES CCCCCCCCCCCCCC(=O)[O-]
REMARK SMILES IDX 8 1 9 2 10 3 11 4 12 5 13 6 14 7 15 8 16 9 7 10 6 11 5 12
REMARK SMILES IDX 4 13 3 14 2 15 1 16
REMARK H PARENT
REMARK Flexibility Score: inf
ROOT
ATOM      1  C   UNL     1     164.260 169.776 154.311  1.00  0.00     0.000 C 
ENDROOT
BRANCH   1   2
ATOM      2  C   UNL     1     165.426 169.532 155.290  1.00  0.00     0.000 C 
BRANCH   2   3
ATOM      3  C   UNL     1     166.540 170.595 155.259  1.00  0.00     0.000 C 
BRANCH   3   4
ATOM      4  C   UNL     1     167.848 170.070 154.643  1.00  0.00     0.000 C 
BRANCH   4   5
ATOM      5  C   UNL     1     167.927 170.306 153.123  1.00  0.00     0.006 C 
BRANCH   5   6
ATOM      6  C   UNL     1     168.160 169.034 152.293  1.00  0.00     0.053 C 
BRANCH   6   7
ATOM      7  C   UNL     1     169.015 169.294 151.091  1.00  0.00     0.041 C 
ATOM      8  O   UNL     1     170.019 168.570 150.860  1.00  0.00    -0.550 OA
ATOM      9  O   UNL     1     168.683 170.313 150.207  1.00  0.00    -0.550 OA
ENDBRANCH   6   7
ENDBRANCH   5   6
ENDBRANCH   4   5
ENDBRANCH   3   4
ENDBRANCH   2   3
ENDBRANCH   1   2
BRANCH   1  10
ATOM     10  C   UNL     1     163.856 168.560 153.454  1.00  0.00     0.000 C 
BRANCH  10  11
ATOM     11  C   UNL     1     164.411 168.564 152.017  1.00  0.00    -0.000 C 
BRANCH  11  12
ATOM     12  C   UNL     1     164.573 169.980 151.444  1.00  0.00    -0.000 C 
BRANCH  12  13
ATOM     13  C   UNL     1     165.110 169.931 150.006  1.00  0.00    -0.000 C 
BRANCH  13  14
ATOM     14  C   UNL     1     165.619 168.536 149.611  1.00  0.00    -0.000 C 
BRANCH  14  15
ATOM     15  C   UNL     1     165.304 168.182 148.150  1.00  0.00    -0.003 C 
ATOM     16  C   UNL     1     165.287 166.670 147.942  1.00  0.00     0.004 C 
ENDBRANCH  14  15
ENDBRANCH  13  14
ENDBRANCH  12  13
ENDBRANCH  11  12
ENDBRANCH  10  11
ENDBRANCH   1  10
TORSDOF 12
ENDMDL
MODEL 7
REMARK VINA RESULT:    -2.757      7.868      9.830
REMARK INTER + INTRA:          -6.622
REMARK INTER:                  -4.592
REMARK INTRA:                  -2.030
REMARK UNBOUND:                -1.931
REMARK SMILES CCCCCCCCCCCCCC(=O)[O-]
REMARK SMILES IDX 8 1 9 2 10 3 11 4 12 5 13 6 14 7 15 8 16 9 7 10 6 11 5 12
REMARK SMILES IDX 4 13 3 14 2 15 1 16
REMARK H PARENT
REMARK Flexibility Score: inf
ROOT
ATOM      1  C   UNL     1     169.254 162.984 145.600  1.00  0.00     0.000 C 
ENDROOT
BRANCH   1   2
ATOM      2  C   UNL     1     170.007 163.824 146.651  1.00  0.00     0.000 C 
BRANCH   2   3
ATOM      3  C   UNL     1     170.683 165.097 146.108  1.00  0.00     0.000 C 
BRANCH   3   4
ATOM      4  C   UNL     1     172.155 165.221 146.539  1.00  0.00     0.000 C 
BRANCH   4   5
ATOM      5  C   UNL     1     173.036 165.884 145.464  1.00  0.00     0.006 C 
BRANCH   5   6
ATOM      6  C   UNL     1     172.255 166.659 144.391  1.00  0.00     0.053 C 
BRANCH   6   7
ATOM      7  C   UNL     1     172.355 168.142 144.582  1.00  0.00     0.041 C 
ATOM      8  O   UNL     1     172.204 168.644 145.726  1.00  0.00    -0.550 OA
ATOM      9  O   UNL     1     172.650 168.965 143.502  1.00  0.00    -0.550 OA
ENDBRANCH   6   7
ENDBRANCH   5   6
ENDBRANCH   4   5
ENDBRANCH   3   4
ENDBRANCH   2   3
ENDBRANCH   1   2
BRANCH   1  10
ATOM     10  C   UNL     1     169.658 161.498 145.533  1.00  0.00     0.000 C 
BRANCH  10  11
ATOM     11  C   UNL     1     170.877 161.117 146.393  1.00  0.00    -0.000 C 
BRANCH  11  12
ATOM     12  C   UNL     1     172.098 160.716 145.552  1.00  0.00    -0.000 C 
BRANCH  12  13
ATOM     13  C   UNL     1     172.856 161.958 145.060  1.00  0.00    -0.000 C 
BRANCH  13  14
ATOM     14  C   UNL     1     173.123 161.927 143.547  1.00  0.00    -0.000 C 
BRANCH  14  15
ATOM     15  C   UNL     1     172.825 163.271 142.865  1.00  0.00    -0.003 C 
ATOM     16  C   UNL     1     171.324 163.472 142.679  1.00  0.00     0.004 C 
ENDBRANCH  14  15
ENDBRANCH  13  14
ENDBRANCH  12  13
ENDBRANCH  11  12
ENDBRANCH  10  11
ENDBRANCH   1  10
TORSDOF 12
ENDMDL
MODEL 8
REMARK VINA RESULT:    -2.747      3.510      5.261
REMARK INTER + INTRA:          -6.605
REMARK INTER:                  -5.000
REMARK INTRA:                  -1.604
REMARK UNBOUND:                -1.931
REMARK SMILES CCCCCCCCCCCCCC(=O)[O-]
REMARK SMILES IDX 8 1 9 2 10 3 11 4 12 5 13 6 14 7 15 8 16 9 7 10 6 11 5 12
REMARK SMILES IDX 4 13 3 14 2 15 1 16
REMARK H PARENT
REMARK Flexibility Score: inf
ROOT
ATOM      1  C   UNL     1     168.943 170.622 151.200  1.00  0.00     0.000 C 
ENDROOT
BRANCH   1   2
ATOM      2  C   UNL     1     168.649 169.225 151.782  1.00  0.00     0.000 C 
BRANCH   2   3
ATOM      3  C   UNL     1     167.685 169.207 152.984  1.00  0.00     0.000 C 
BRANCH   3   4
ATOM      4  C   UNL     1     167.880 170.410 153.922  1.00  0.00     0.000 C 
BRANCH   4   5
ATOM      5  C   UNL     1     166.894 170.407 155.105  1.00  0.00     0.006 C 
BRANCH   5   6
ATOM      6  C   UNL     1     165.424 170.614 154.708  1.00  0.00     0.053 C 
BRANCH   6   7
ATOM      7  C   UNL     1     164.517 169.624 155.372  1.00  0.00     0.041 C 
ATOM      8  O   UNL     1     164.926 168.461 155.627  1.00  0.00    -0.550 OA
ATOM      9  O   UNL     1     163.230 169.997 155.741  1.00  0.00    -0.550 OA
ENDBRANCH   6   7
ENDBRANCH   5   6
ENDBRANCH   4   5
ENDBRANCH   3   4
ENDBRANCH   2   3
ENDBRANCH   1   2
BRANCH   1  10
ATOM     10  C   UNL     1     168.952 170.704 149.660  1.00  0.00     0.000 C 
BRANCH  10  11
ATOM     11  C   UNL     1     168.813 169.352 148.936  1.00  0.00    -0.000 C 
BRANCH  11  12
ATOM     12  C   UNL     1     167.755 169.377 147.823  1.00  0.00    -0.000 C 
BRANCH  12  13
ATOM     13  C   UNL     1     166.594 168.426 148.148  1.00  0.00    -0.000 C 
BRANCH  13  14
ATOM     14  C   UNL     1     165.897 168.772 149.473  1.00  0.00    -0.000 C 
BRANCH  14  15
ATOM     15  C   UNL     1     165.134 170.103 149.411  1.00  0.00    -0.003 C 
ATOM     16  C   UNL     1     165.043 170.751 150.790  1.00  0.00     0.004 C 
ENDBRANCH  14  15
ENDBRANCH  13  14
ENDBRANCH  12  13
ENDBRANCH  11  12
ENDBRANCH  10  11
ENDBRANCH   1  10
TORSDOF 12
ENDMDL
MODEL 9
REMARK VINA RESULT:    -2.722     14.725     16.238
REMARK INTER + INTRA:          -6.562
REMARK INTER:                  -4.549
REMARK INTRA:                  -2.013
REMARK UNBOUND:                -1.931
REMARK SMILES CCCCCCCCCCCCCC(=O)[O-]
REMARK SMILES IDX 8 1 9 2 10 3 11 4 12 5 13 6 14 7 15 8 16 9 7 10 6 11 5 12
REMARK SMILES IDX 4 13 3 14 2 15 1 16
REMARK H PARENT
REMARK Flexibility Score: inf
ROOT
ATOM      1  C   UNL     1     171.631 154.529 150.748  1.00  0.00     0.000 C 
ENDROOT
BRANCH   1   2
ATOM      2  C   UNL     1     170.126 154.851 150.828  1.00  0.00     0.000 C 
BRANCH   2   3
ATOM      3  C   UNL     1     169.769 156.117 151.629  1.00  0.00     0.000 C 
BRANCH   3   4
ATOM      4  C   UNL     1     171.011 156.894 152.100  1.00  0.00     0.000 C 
BRANCH   4   5
ATOM      5  C   UNL     1     171.057 157.073 153.628  1.00  0.00     0.006 C 
BRANCH   5   6
ATOM      6  C   UNL     1     172.438 156.830 154.256  1.00  0.00     0.053 C 
BRANCH   6   7
ATOM      7  C   UNL     1     172.397 156.896 155.752  1.00  0.00     0.041 C 
ATOM      8  O   UNL     1     171.977 157.933 156.329  1.00  0.00    -0.550 OA
ATOM      9  O   UNL     1     172.791 155.799 156.508  1.00  0.00    -0.550 OA
ENDBRANCH   6   7
ENDBRANCH   5   6
ENDBRANCH   4   5
ENDBRANCH   3   4
ENDBRANCH   2   3
ENDBRANCH   1   2
BRANCH   1  10
ATOM     10  C   UNL     1     171.977 153.035 150.589  1.00  0.00     0.000 C 
BRANCH  10  11
ATOM     11  C   UNL     1     172.828 152.439 151.725  1.00  0.00    -0.000 C 
BRANCH  11  12
ATOM     12  C   UNL     1     173.125 153.452 152.841  1.00  0.00    -0.000 C 
BRANCH  12  13
ATOM     13  C   UNL     1     172.903 152.824 154.225  1.00  0.00    -0.000 C 
BRANCH  13  14
ATOM     14  C   UNL     1     171.453 152.359 154.438  1.00  0.00    -0.000 C 
BRANCH  14  15
ATOM     15  C   UNL     1     170.434 153.492 154.252  1.00  0.00    -0.003 C 
ATOM     16  C   UNL     1     169.916 153.992 155.597  1.00  0.00     0.004 C 
ENDBRANCH  14  15
ENDBRANCH  13  14
ENDBRANCH  12  13
ENDBRANCH  11  12
ENDBRANCH  10  11
ENDBRANCH   1  10
TORSDOF 12
ENDMDL
