MODEL 1
REMARK VINA RESULT:    -4.944      0.000      0.000
REMARK INTER + INTRA:          -7.448
REMARK INTER:                  -7.255
REMARK INTRA:                  -0.193
REMARK UNBOUND:                -0.193
REMARK SMILES O=C([O-])CCCCCCCC(=O)[O-]
REMARK SMILES IDX 7 1 6 2 5 3 4 4 2 5 1 6 3 7 8 8 9 9 10 10 11 11 12 12 13 13
REMARK H PARENT
REMARK Flexibility Score: inf
ROOT
ATOM      1  C   UNL     1      19.988  27.757  36.442  1.00  0.00     0.000 C 
ENDROOT
BRANCH   1   2
ATOM      2  C   UNL     1      20.461  29.073  37.083  1.00  0.00     0.000 C 
BRANCH   2   3
ATOM      3  C   UNL     1      21.138  30.018  36.073  1.00  0.00     0.006 C 
BRANCH   3   4
ATOM      4  C   UNL     1      21.024  31.510  36.425  1.00  0.00     0.053 C 
BRANCH   4   5
ATOM      5  C   UNL     1      21.791  32.373  35.470  1.00  0.00     0.041 C 
ATOM      6  O   UNL     1      21.185  33.197  34.736  1.00  0.00    -0.550 OA
ATOM      7  O   UNL     1      23.170  32.244  35.368  1.00  0.00    -0.550 OA
ENDBRANCH   4   5
ENDBRANCH   3   4
ENDBRANCH   2   3
ENDBRANCH   1   2
BRANCH   1   8
ATOM      8  C   UNL     1      18.472  27.546  36.577  1.00  0.00     0.000 C 
BRANCH   8   9
ATOM      9  C   UNL     1      18.052  26.085  36.335  1.00  0.00     0.006 C 
BRANCH   9  10
ATOM     10  C   UNL     1      19.251  25.127  36.360  1.00  0.00     0.053 C 
BRANCH  10  11
ATOM     11  C   UNL     1      19.570  24.601  34.994  1.00  0.00     0.041 C 
ATOM     12  O   UNL     1      18.647  24.199  34.239  1.00  0.00    -0.550 OA
ATOM     13  O   UNL     1      20.884  24.590  34.542  1.00  0.00    -0.550 OA
ENDBRANCH  10  11
ENDBRANCH   9  10
ENDBRANCH   8   9
ENDBRANCH   1   8
TORSDOF 8
ENDMDL
MODEL 2
REMARK VINA RESULT:    -4.897      0.352      6.745
REMARK INTER + INTRA:          -7.380
REMARK INTER:                  -7.132
REMARK INTRA:                  -0.248
REMARK UNBOUND:                -0.193
REMARK SMILES O=C([O-])CCCCCCCC(=O)[O-]
REMARK SMILES IDX 7 1 6 2 5 3 4 4 2 5 1 6 3 7 8 8 9 9 10 10 11 11 12 12 13 13
REMARK H PARENT
REMARK Flexibility Score: inf
ROOT
ATOM      1  C   UNL     1      19.703  28.084  36.765  1.00  0.00     0.000 C 
ENDROOT
BRANCH   1   2
ATOM      2  C   UNL     1      18.218  27.740  36.556  1.00  0.00     0.000 C 
BRANCH   2   3
ATOM      3  C   UNL     1      17.973  26.227  36.401  1.00  0.00     0.006 C 
BRANCH   3   4
ATOM      4  C   UNL     1      19.252  25.374  36.405  1.00  0.00     0.053 C 
BRANCH   4   5
ATOM      5  C   UNL     1      19.484  24.703  35.085  1.00  0.00     0.041 C 
ATOM      6  O   UNL     1      20.651  24.605  34.622  1.00  0.00    -0.550 OA
ATOM      7  O   UNL     1      18.409  24.216  34.353  1.00  0.00    -0.550 OA
ENDBRANCH   4   5
ENDBRANCH   3   4
ENDBRANCH   2   3
ENDBRANCH   1   2
BRANCH   1   8
ATOM      8  C   UNL     1      19.920  29.563  37.125  1.00  0.00     0.000 C 
BRANCH   8   9
ATOM      9  C   UNL     1      21.101  30.191  36.364  1.00  0.00     0.006 C 
BRANCH   9  10
ATOM     10  C   UNL     1      21.046  31.725  36.374  1.00  0.00     0.053 C 
BRANCH  10  11
ATOM     11  C   UNL     1      21.874  32.319  35.275  1.00  0.00     0.041 C 
ATOM     12  O   UNL     1      21.328  33.007  34.373  1.00  0.00    -0.550 OA
ATOM     13  O   UNL     1      23.251  32.141  35.267  1.00  0.00    -0.550 OA
ENDBRANCH  10  11
ENDBRANCH   9  10
ENDBRANCH   8   9
ENDBRANCH   1   8
TORSDOF 8
ENDMDL
MODEL 3
REMARK VINA RESULT:    -4.401     15.236     16.897
REMARK INTER + INTRA:          -6.653
REMARK INTER:                  -5.893
REMARK INTRA:                  -0.760
REMARK UNBOUND:                -0.193
REMARK SMILES O=C([O-])CCCCCCCC(=O)[O-]
REMARK SMILES IDX 7 1 6 2 5 3 4 4 2 5 1 6 3 7 8 8 9 9 10 10 11 11 12 12 13 13
REMARK H PARENT
REMARK Flexibility Score: inf
ROOT
ATOM      1  C   UNL     1      20.820  24.837  18.620  1.00  0.00     0.000 C 
ENDROOT
BRANCH   1   2
ATOM      2  C   UNL     1      21.349  23.727  17.696  1.00  0.00     0.000 C 
BRANCH   2   3
ATOM      3  C   UNL     1      21.584  22.397  18.435  1.00  0.00     0.006 C 
BRANCH   3   4
ATOM      4  C   UNL     1      22.593  22.483  19.592  1.00  0.00     0.053 C 
BRANCH   4   5
ATOM      5  C   UNL     1      22.006  22.011  20.887  1.00  0.00     0.041 C 
ATOM      6  O   UNL     1      21.399  20.909  20.942  1.00  0.00    -0.550 OA
ATOM      7  O   UNL     1      22.101  22.803  22.024  1.00  0.00    -0.550 OA
ENDBRANCH   4   5
ENDBRANCH   3   4
ENDBRANCH   2   3
ENDBRANCH   1   2
BRANCH   1   8
ATOM      8  C   UNL     1      19.342  24.638  18.994  1.00  0.00     0.000 C 
BRANCH   8   9
ATOM      9  C   UNL     1      19.156  24.167  20.448  1.00  0.00     0.006 C 
BRANCH   9  10
ATOM     10  C   UNL     1      18.442  22.811  20.530  1.00  0.00     0.053 C 
BRANCH  10  11
ATOM     11  C   UNL     1      18.178  22.407  21.949  1.00  0.00     0.041 C 
ATOM     12  O   UNL     1      18.446  23.196  22.892  1.00  0.00    -0.550 OA
ATOM     13  O   UNL     1      17.604  21.172  22.226  1.00  0.00    -0.550 OA
ENDBRANCH  10  11
ENDBRANCH   9  10
ENDBRANCH   8   9
ENDBRANCH   1   8
TORSDOF 8
ENDMDL
MODEL 4
REMARK VINA RESULT:    -4.288     16.281     17.989
REMARK INTER + INTRA:          -6.487
REMARK INTER:                  -6.066
REMARK INTRA:                  -0.421
REMARK UNBOUND:                -0.193
REMARK SMILES O=C([O-])CCCCCCCC(=O)[O-]
REMARK SMILES IDX 7 1 6 2 5 3 4 4 2 5 1 6 3 7 8 8 9 9 10 10 11 11 12 12 13 13
REMARK H PARENT
REMARK Flexibility Score: inf
ROOT
ATOM      1  C   UNL     1      22.464  22.371  19.769  1.00  0.00     0.000 C 
ENDROOT
BRANCH   1   2
ATOM      2  C   UNL     1      21.847  21.568  20.927  1.00  0.00     0.000 C 
BRANCH   2   3
ATOM      3  C   UNL     1      22.872  20.668  21.641  1.00  0.00     0.006 C 
BRANCH   3   4
ATOM      4  C   UNL     1      22.837  19.195  21.203  1.00  0.00     0.053 C 
BRANCH   4   5
ATOM      5  C   UNL     1      24.198  18.684  20.840  1.00  0.00     0.041 C 
ATOM      6  O   UNL     1      24.719  18.999  19.737  1.00  0.00    -0.550 OA
ATOM      7  O   UNL     1      24.876  17.833  21.703  1.00  0.00    -0.550 OA
ENDBRANCH   4   5
ENDBRANCH   3   4
ENDBRANCH   2   3
ENDBRANCH   1   2
BRANCH   1   8
ATOM      8  C   UNL     1      21.506  22.516  18.576  1.00  0.00     0.000 C 
BRANCH   8   9
ATOM      9  C   UNL     1      21.308  23.982  18.149  1.00  0.00     0.006 C 
BRANCH   9  10
ATOM     10  C   UNL     1      19.889  24.485  18.450  1.00  0.00     0.053 C 
BRANCH  10  11
ATOM     11  C   UNL     1      19.588  24.454  19.918  1.00  0.00     0.041 C 
ATOM     12  O   UNL     1      20.108  25.303  20.689  1.00  0.00    -0.550 OA
ATOM     13  O   UNL     1      18.706  23.509  20.428  1.00  0.00    -0.550 OA
ENDBRANCH  10  11
ENDBRANCH   9  10
ENDBRANCH   8   9
ENDBRANCH   1   8
TORSDOF 8
ENDMDL
MODEL 5
REMARK VINA RESULT:    -4.246     15.671     16.962
REMARK INTER + INTRA:          -6.424
REMARK INTER:                  -5.906
REMARK INTRA:                  -0.519
REMARK UNBOUND:                -0.193
REMARK SMILES O=C([O-])CCCCCCCC(=O)[O-]
REMARK SMILES IDX 7 1 6 2 5 3 4 4 2 5 1 6 3 7 8 8 9 9 10 10 11 11 12 12 13 13
REMARK H PARENT
REMARK Flexibility Score: inf
ROOT
ATOM      1  C   UNL     1      21.606  22.685  18.607  1.00  0.00     0.000 C 
ENDROOT
BRANCH   1   2
ATOM      2  C   UNL     1      21.349  24.182  18.363  1.00  0.00     0.000 C 
BRANCH   2   3
ATOM      3  C   UNL     1      20.453  24.816  19.443  1.00  0.00     0.006 C 
BRANCH   3   4
ATOM      4  C   UNL     1      19.087  24.132  19.617  1.00  0.00     0.053 C 
BRANCH   4   5
ATOM      5  C   UNL     1      18.924  23.541  20.984  1.00  0.00     0.041 C 
ATOM      6  O   UNL     1      19.633  23.951  21.940  1.00  0.00    -0.550 OA
ATOM      7  O   UNL     1      18.013  22.514  21.194  1.00  0.00    -0.550 OA
ENDBRANCH   4   5
ENDBRANCH   3   4
ENDBRANCH   2   3
ENDBRANCH   1   2
BRANCH   1   8
ATOM      8  C   UNL     1      22.426  22.427  19.880  1.00  0.00     0.000 C 
BRANCH   8   9
ATOM      9  C   UNL     1      21.782  21.372  20.798  1.00  0.00     0.006 C 
BRANCH   9  10
ATOM     10  C   UNL     1      22.816  20.669  21.687  1.00  0.00     0.053 C 
BRANCH  10  11
ATOM     11  C   UNL     1      22.825  19.187  21.464  1.00  0.00     0.041 C 
ATOM     12  O   UNL     1      23.902  18.594  21.193  1.00  0.00    -0.550 OA
ATOM     13  O   UNL     1      21.650  18.456  21.592  1.00  0.00    -0.550 OA
ENDBRANCH  10  11
ENDBRANCH   9  10
ENDBRANCH   8   9
ENDBRANCH   1   8
TORSDOF 8
ENDMDL
MODEL 6
REMARK VINA RESULT:    -4.232     15.527     17.371
REMARK INTER + INTRA:          -6.404
REMARK INTER:                  -5.903
REMARK INTRA:                  -0.500
REMARK UNBOUND:                -0.193
REMARK SMILES O=C([O-])CCCCCCCC(=O)[O-]
REMARK SMILES IDX 7 1 6 2 5 3 4 4 2 5 1 6 3 7 8 8 9 9 10 10 11 11 12 12 13 13
REMARK H PARENT
REMARK Flexibility Score: inf
ROOT
ATOM      1  C   UNL     1      21.460  22.751  18.740  1.00  0.00     0.000 C 
ENDROOT
BRANCH   1   2
ATOM      2  C   UNL     1      22.401  22.420  19.911  1.00  0.00     0.000 C 
BRANCH   2   3
ATOM      3  C   UNL     1      21.829  21.339  20.847  1.00  0.00     0.006 C 
BRANCH   3   4
ATOM      4  C   UNL     1      22.892  20.474  21.542  1.00  0.00     0.053 C 
BRANCH   4   5
ATOM      5  C   UNL     1      22.581  19.012  21.442  1.00  0.00     0.041 C 
ATOM      6  O   UNL     1      21.385  18.620  21.419  1.00  0.00    -0.550 OA
ATOM      7  O   UNL     1      23.612  18.082  21.408  1.00  0.00    -0.550 OA
ENDBRANCH   4   5
ENDBRANCH   3   4
ENDBRANCH   2   3
ENDBRANCH   1   2
BRANCH   1   8
ATOM      8  C   UNL     1      21.247  24.263  18.564  1.00  0.00     0.000 C 
BRANCH   8   9
ATOM      9  C   UNL     1      20.240  24.842  19.575  1.00  0.00     0.006 C 
BRANCH   9  10
ATOM     10  C   UNL     1      19.011  23.937  19.749  1.00  0.00     0.053 C 
BRANCH  10  11
ATOM     11  C   UNL     1      18.885  23.437  21.156  1.00  0.00     0.041 C 
ATOM     12  O   UNL     1      18.036  22.551  21.439  1.00  0.00    -0.550 OA
ATOM     13  O   UNL     1      19.729  23.923  22.147  1.00  0.00    -0.550 OA
ENDBRANCH  10  11
ENDBRANCH   9  10
ENDBRANCH   8   9
ENDBRANCH   1   8
TORSDOF 8
ENDMDL
MODEL 7
REMARK VINA RESULT:    -4.143     16.262     18.058
REMARK INTER + INTRA:          -6.273
REMARK INTER:                  -5.418
REMARK INTRA:                  -0.855
REMARK UNBOUND:                -0.193
REMARK SMILES O=C([O-])CCCCCCCC(=O)[O-]
REMARK SMILES IDX 7 1 6 2 5 3 4 4 2 5 1 6 3 7 8 8 9 9 10 10 11 11 12 12 13 13
REMARK H PARENT
REMARK Flexibility Score: inf
ROOT
ATOM      1  C   UNL     1      19.450  23.855  17.398  1.00  0.00     0.000 C 
ENDROOT
BRANCH   1   2
ATOM      2  C   UNL     1      19.026  22.443  16.959  1.00  0.00     0.000 C 
BRANCH   2   3
ATOM      3  C   UNL     1      18.072  21.768  17.961  1.00  0.00     0.006 C 
BRANCH   3   4
ATOM      4  C   UNL     1      18.777  20.999  19.090  1.00  0.00     0.053 C 
BRANCH   4   5
ATOM      5  C   UNL     1      18.379  21.499  20.446  1.00  0.00     0.041 C 
ATOM      6  O   UNL     1      18.047  20.685  21.347  1.00  0.00    -0.550 OA
ATOM      7  O   UNL     1      18.344  22.863  20.702  1.00  0.00    -0.550 OA
ENDBRANCH   4   5
ENDBRANCH   3   4
ENDBRANCH   2   3
ENDBRANCH   1   2
BRANCH   1   8
ATOM      8  C   UNL     1      20.966  23.972  17.624  1.00  0.00     0.000 C 
BRANCH   8   9
ATOM      9  C   UNL     1      21.354  23.865  19.109  1.00  0.00     0.006 C 
BRANCH   9  10
ATOM     10  C   UNL     1      22.102  22.561  19.419  1.00  0.00     0.053 C 
BRANCH  10  11
ATOM     11  C   UNL     1      22.024  22.208  20.874  1.00  0.00     0.041 C 
ATOM     12  O   UNL     1      21.478  22.998  21.688  1.00  0.00    -0.550 OA
ATOM     13  O   UNL     1      22.523  20.992  21.323  1.00  0.00    -0.550 OA
ENDBRANCH  10  11
ENDBRANCH   9  10
ENDBRANCH   8   9
ENDBRANCH   1   8
TORSDOF 8
ENDMDL
MODEL 8
REMARK VINA RESULT:    -4.124     15.642     17.647
REMARK INTER + INTRA:          -6.246
REMARK INTER:                  -5.453
REMARK INTRA:                  -0.793
REMARK UNBOUND:                -0.193
REMARK SMILES O=C([O-])CCCCCCCC(=O)[O-]
REMARK SMILES IDX 7 1 6 2 5 3 4 4 2 5 1 6 3 7 8 8 9 9 10 10 11 11 12 12 13 13
REMARK H PARENT
REMARK Flexibility Score: inf
ROOT
ATOM      1  C   UNL     1      21.699  22.727  18.056  1.00  0.00     0.000 C 
ENDROOT
BRANCH   1   2
ATOM      2  C   UNL     1      22.366  22.637  19.439  1.00  0.00     0.000 C 
BRANCH   2   3
ATOM      3  C   UNL     1      21.407  22.129  20.531  1.00  0.00     0.006 C 
BRANCH   3   4
ATOM      4  C   UNL     1      21.241  23.084  21.724  1.00  0.00     0.053 C 
BRANCH   4   5
ATOM      5  C   UNL     1      19.935  23.817  21.681  1.00  0.00     0.041 C 
ATOM      6  O   UNL     1      19.813  24.852  20.974  1.00  0.00    -0.550 OA
ATOM      7  O   UNL     1      18.863  23.375  22.445  1.00  0.00    -0.550 OA
ENDBRANCH   4   5
ENDBRANCH   3   4
ENDBRANCH   2   3
ENDBRANCH   1   2
BRANCH   1   8
ATOM      8  C   UNL     1      20.964  24.060  17.842  1.00  0.00     0.000 C 
BRANCH   8   9
ATOM      9  C   UNL     1      19.454  23.874  17.605  1.00  0.00     0.006 C 
BRANCH   9  10
ATOM     10  C   UNL     1      19.106  22.434  17.201  1.00  0.00     0.053 C 
BRANCH  10  11
ATOM     11  C   UNL     1      18.031  21.858  18.072  1.00  0.00     0.041 C 
ATOM     12  O   UNL     1      18.096  21.982  19.323  1.00  0.00    -0.550 OA
ATOM     13  O   UNL     1      16.940  21.216  17.499  1.00  0.00    -0.550 OA
ENDBRANCH  10  11
ENDBRANCH   9  10
ENDBRANCH   8   9
ENDBRANCH   1   8
TORSDOF 8
ENDMDL
MODEL 9
REMARK VINA RESULT:    -4.124     16.246     17.645
REMARK INTER + INTRA:          -6.246
REMARK INTER:                  -5.468
REMARK INTRA:                  -0.778
REMARK UNBOUND:                -0.193
REMARK SMILES O=C([O-])CCCCCCCC(=O)[O-]
REMARK SMILES IDX 7 1 6 2 5 3 4 4 2 5 1 6 3 7 8 8 9 9 10 10 11 11 12 12 13 13
REMARK H PARENT
REMARK Flexibility Score: inf
ROOT
ATOM      1  C   UNL     1      19.598  23.819  17.304  1.00  0.00     0.000 C 
ENDROOT
BRANCH   1   2
ATOM      2  C   UNL     1      21.101  23.897  17.622  1.00  0.00     0.000 C 
BRANCH   2   3
ATOM      3  C   UNL     1      21.401  23.734  19.123  1.00  0.00     0.006 C 
BRANCH   3   4
ATOM      4  C   UNL     1      22.215  22.479  19.476  1.00  0.00     0.053 C 
BRANCH   4   5
ATOM      5  C   UNL     1      22.076  22.105  20.920  1.00  0.00     0.041 C 
ATOM      6  O   UNL     1      21.601  22.930  21.744  1.00  0.00    -0.550 OA
ATOM      7  O   UNL     1      22.502  20.859  21.361  1.00  0.00    -0.550 OA
ENDBRANCH   4   5
ENDBRANCH   3   4
ENDBRANCH   2   3
ENDBRANCH   1   2
BRANCH   1   8
ATOM      8  C   UNL     1      19.116  22.376  17.083  1.00  0.00     0.000 C 
BRANCH   8   9
ATOM      9  C   UNL     1      18.070  21.935  18.122  1.00  0.00     0.006 C 
BRANCH   9  10
ATOM     10  C   UNL     1      18.714  21.252  19.337  1.00  0.00     0.053 C 
BRANCH  10  11
ATOM     11  C   UNL     1      18.200  21.813  20.628  1.00  0.00     0.041 C 
ATOM     12  O   UNL     1      17.568  21.077  21.430  1.00  0.00    -0.550 OA
ATOM     13  O   UNL     1      18.450  23.139  20.959  1.00  0.00    -0.550 OA
ENDBRANCH  10  11
ENDBRANCH   9  10
ENDBRANCH   8   9
ENDBRANCH   1   8
TORSDOF 8
ENDMDL
