MODEL 1
REMARK VINA RESULT:    -5.511      0.000      0.000
REMARK INTER + INTRA:          -6.832
REMARK INTER:                  -6.639
REMARK INTRA:                  -0.193
REMARK UNBOUND:                -0.193
REMARK SMILES O=c1c(O)c(-c2ccc(O)c(O)c2)oc2cc(O)cc(O)c12
REMARK SMILES IDX 5 1 3 2 2 3 1 4 22 5 20 6 19 7 17 8 16 9 15 10 14 11 6 12
REMARK SMILES IDX 7 13 8 14 9 15 13 16 11 17 10 18 12 20 4 22 21 24 18 26
REMARK H PARENT 10 19 12 21 4 23 21 25 18 27
REMARK Flexibility Score: inf
ROOT
ATOM      1  C   UNL     1      15.600  10.514 -19.681  1.00  0.00     0.180 A 
ATOM      2  C   UNL     1      14.737   9.668 -20.396  1.00  0.00     0.208 A 
ATOM      3  C   UNL     1      15.113   8.331 -20.607  1.00  0.00     0.238 A 
ATOM      4  O   UNL     1      14.361   7.593 -21.295  1.00  0.00    -0.285 OA
ATOM      5  C   UNL     1      16.341   7.854 -20.086  1.00  0.00     0.111 A 
ATOM      6  C   UNL     1      16.803   6.510 -20.205  1.00  0.00     0.134 A 
ATOM      7  C   UNL     1      18.091   6.181 -19.765  1.00  0.00     0.093 A 
ATOM      8  C   UNL     1      18.908   7.134 -19.152  1.00  0.00     0.123 A 
ATOM      9  C   UNL     1      18.442   8.435 -18.977  1.00  0.00     0.094 A 
ATOM     10  C   UNL     1      17.174   8.802 -19.438  1.00  0.00     0.146 A 
ATOM     11  O   UNL     1      16.774  10.055 -19.261  1.00  0.00    -0.452 OA
ENDROOT
BRANCH   1  12
ATOM     12  C   UNL     1      15.262  11.927 -19.397  1.00  0.00     0.025 A 
ATOM     13  C   UNL     1      15.956  12.983 -20.015  1.00  0.00     0.016 A 
ATOM     14  C   UNL     1      15.603  14.310 -19.752  1.00  0.00     0.051 A 
ATOM     15  C   UNL     1      14.548  14.603 -18.882  1.00  0.00     0.157 A 
ATOM     16  C   UNL     1      14.188  12.225 -18.543  1.00  0.00     0.062 A 
ATOM     17  C   UNL     1      13.834  13.555 -18.277  1.00  0.00     0.158 A 
BRANCH  15  18
ATOM     18  O   UNL     1      14.220  15.935 -18.638  1.00  0.00    -0.504 OA
ATOM     19  H   UNL     1      14.175  16.623 -19.380  1.00  0.00     0.293 HD
ENDBRANCH  15  18
BRANCH  17  20
ATOM     20  O   UNL     1      12.775  13.839 -17.415  1.00  0.00    -0.504 OA
ATOM     21  H   UNL     1      11.823  13.574 -17.638  1.00  0.00     0.293 HD
ENDBRANCH  17  20
ENDBRANCH   1  12
BRANCH   2  22
ATOM     22  O   UNL     1      13.540  10.164 -20.920  1.00  0.00    -0.502 OA
ATOM     23  H   UNL     1      12.742   9.571 -21.111  1.00  0.00     0.293 HD
ENDBRANCH   2  22
BRANCH   6  24
ATOM     24  O   UNL     1      16.033   5.461 -20.718  1.00  0.00    -0.507 OA
ATOM     25  H   UNL     1      15.238   5.051 -20.252  1.00  0.00     0.293 HD
ENDBRANCH   6  24
BRANCH   8  26
ATOM     26  O   UNL     1      20.182   6.795 -18.702  1.00  0.00    -0.508 OA
ATOM     27  H   UNL     1      20.482   6.997 -17.756  1.00  0.00     0.293 HD
ENDBRANCH   8  26
TORSDOF 6
ENDMDL
MODEL 2
REMARK VINA RESULT:    -5.267     11.214     12.456
REMARK INTER + INTRA:          -6.537
REMARK INTER:                  -6.228
REMARK INTRA:                  -0.309
REMARK UNBOUND:                -0.193
REMARK SMILES O=c1c(O)c(-c2ccc(O)c(O)c2)oc2cc(O)cc(O)c12
REMARK SMILES IDX 5 1 3 2 2 3 1 4 22 5 20 6 19 7 17 8 16 9 15 10 14 11 6 12
REMARK SMILES IDX 7 13 8 14 9 15 13 16 11 17 10 18 12 20 4 22 21 24 18 26
REMARK H PARENT 10 19 12 21 4 23 21 25 18 27
REMARK Flexibility Score: inf
ROOT
ATOM      1  C   UNL     1      20.040  16.568 -28.539  1.00  0.00     0.180 A 
ATOM      2  C   UNL     1      21.411  16.507 -28.238  1.00  0.00     0.208 A 
ATOM      3  C   UNL     1      22.209  15.550 -28.885  1.00  0.00     0.238 A 
ATOM      4  O   UNL     1      23.425  15.465 -28.571  1.00  0.00    -0.285 OA
ATOM      5  C   UNL     1      21.629  14.678 -29.838  1.00  0.00     0.111 A 
ATOM      6  C   UNL     1      22.350  13.698 -30.583  1.00  0.00     0.134 A 
ATOM      7  C   UNL     1      21.652  12.802 -31.402  1.00  0.00     0.093 A 
ATOM      8  C   UNL     1      20.266  12.893 -31.553  1.00  0.00     0.123 A 
ATOM      9  C   UNL     1      19.561  13.885 -30.875  1.00  0.00     0.094 A 
ATOM     10  C   UNL     1      20.225  14.771 -30.023  1.00  0.00     0.146 A 
ATOM     11  O   UNL     1      19.513  15.694 -29.388  1.00  0.00    -0.452 OA
ENDROOT
BRANCH   1  12
ATOM     12  C   UNL     1      19.140  17.565 -27.916  1.00  0.00     0.025 A 
ATOM     13  C   UNL     1      18.381  17.252 -26.774  1.00  0.00     0.016 A 
ATOM     14  C   UNL     1      17.557  18.216 -26.187  1.00  0.00     0.051 A 
ATOM     15  C   UNL     1      17.487  19.507 -26.720  1.00  0.00     0.157 A 
ATOM     16  C   UNL     1      19.085  18.869 -28.435  1.00  0.00     0.062 A 
ATOM     17  C   UNL     1      18.257  19.838 -27.848  1.00  0.00     0.158 A 
BRANCH  15  18
ATOM     18  O   UNL     1      16.655  20.447 -26.115  1.00  0.00    -0.504 OA
ATOM     19  H   UNL     1      16.867  20.851 -25.211  1.00  0.00     0.293 HD
ENDBRANCH  15  18
BRANCH  17  20
ATOM     20  O   UNL     1      18.200  21.125 -28.381  1.00  0.00    -0.504 OA
ATOM     21  H   UNL     1      19.023  21.584 -28.750  1.00  0.00     0.293 HD
ENDBRANCH  17  20
ENDBRANCH   1  12
BRANCH   2  22
ATOM     22  O   UNL     1      21.959  17.363 -27.278  1.00  0.00    -0.502 OA
ATOM     23  H   UNL     1      22.275  17.036 -26.373  1.00  0.00     0.293 HD
ENDBRANCH   2  22
BRANCH   6  24
ATOM     24  O   UNL     1      23.744  13.581 -30.577  1.00  0.00    -0.507 OA
ATOM     25  H   UNL     1      24.296  13.256 -31.355  1.00  0.00     0.293 HD
ENDBRANCH   6  24
BRANCH   8  26
ATOM     26  O   UNL     1      19.581  12.008 -32.382  1.00  0.00    -0.508 OA
ATOM     27  H   UNL     1      19.938  11.753 -33.295  1.00  0.00     0.293 HD
ENDBRANCH   8  26
TORSDOF 6
ENDMDL
MODEL 3
REMARK VINA RESULT:    -5.165     12.943     15.063
REMARK INTER + INTRA:          -6.414
REMARK INTER:                  -6.100
REMARK INTRA:                  -0.314
REMARK UNBOUND:                -0.193
REMARK SMILES O=c1c(O)c(-c2ccc(O)c(O)c2)oc2cc(O)cc(O)c12
REMARK SMILES IDX 5 1 3 2 2 3 1 4 22 5 20 6 19 7 17 8 16 9 15 10 14 11 6 12
REMARK SMILES IDX 7 13 8 14 9 15 13 16 11 17 10 18 12 20 4 22 21 24 18 26
REMARK H PARENT 10 19 12 21 4 23 21 25 18 27
REMARK Flexibility Score: inf
ROOT
ATOM      1  C   UNL     1      21.675   9.778 -31.661  1.00  0.00     0.180 A 
ATOM      2  C   UNL     1      20.334   9.884 -32.066  1.00  0.00     0.208 A 
ATOM      3  C   UNL     1      19.686  11.126 -31.962  1.00  0.00     0.238 A 
ATOM      4  O   UNL     1      18.470  11.201 -32.275  1.00  0.00    -0.285 OA
ATOM      5  C   UNL     1      20.394  12.250 -31.470  1.00  0.00     0.111 A 
ATOM      6  C   UNL     1      19.850  13.564 -31.359  1.00  0.00     0.134 A 
ATOM      7  C   UNL     1      20.599  14.571 -30.737  1.00  0.00     0.093 A 
ATOM      8  C   UNL     1      21.895  14.326 -30.280  1.00  0.00     0.123 A 
ATOM      9  C   UNL     1      22.457  13.062 -30.438  1.00  0.00     0.094 A 
ATOM     10  C   UNL     1      21.722  12.027 -31.022  1.00  0.00     0.146 A 
ATOM     11  O   UNL     1      22.291  10.834 -31.143  1.00  0.00    -0.452 OA
ENDROOT
BRANCH   1  12
ATOM     12  C   UNL     1      22.431   8.509 -31.763  1.00  0.00     0.025 A 
ATOM     13  C   UNL     1      22.516   7.619 -30.677  1.00  0.00     0.016 A 
ATOM     14  C   UNL     1      23.214   6.415 -30.804  1.00  0.00     0.051 A 
ATOM     15  C   UNL     1      23.825   6.075 -32.015  1.00  0.00     0.157 A 
ATOM     16  C   UNL     1      23.026   8.153 -32.985  1.00  0.00     0.062 A 
ATOM     17  C   UNL     1      23.728   6.946 -33.113  1.00  0.00     0.158 A 
BRANCH  15  18
ATOM     18  O   UNL     1      24.516   4.868 -32.111  1.00  0.00    -0.504 OA
ATOM     19  H   UNL     1      25.475   4.771 -31.802  1.00  0.00     0.293 HD
ENDBRANCH  15  18
BRANCH  17  20
ATOM     20  O   UNL     1      24.326   6.610 -34.326  1.00  0.00    -0.504 OA
ATOM     21  H   UNL     1      25.333   6.580 -34.432  1.00  0.00     0.293 HD
ENDBRANCH  17  20
ENDBRANCH   1  12
BRANCH   2  22
ATOM     22  O   UNL     1      19.648   8.757 -32.528  1.00  0.00    -0.502 OA
ATOM     23  H   UNL     1      20.085   8.056 -33.114  1.00  0.00     0.293 HD
ENDBRANCH   2  22
BRANCH   6  24
ATOM     24  O   UNL     1      18.601  13.938 -31.866  1.00  0.00    -0.507 OA
ATOM     25  H   UNL     1      17.794  13.336 -31.903  1.00  0.00     0.293 HD
ENDBRANCH   6  24
BRANCH   8  26
ATOM     26  O   UNL     1      22.639  15.338 -29.677  1.00  0.00    -0.508 OA
ATOM     27  H   UNL     1      23.548  15.156 -29.268  1.00  0.00     0.293 HD
ENDBRANCH   8  26
TORSDOF 6
ENDMDL
MODEL 4
REMARK VINA RESULT:    -5.134      1.825      3.015
REMARK INTER + INTRA:          -6.377
REMARK INTER:                  -6.082
REMARK INTRA:                  -0.295
REMARK UNBOUND:                -0.193
REMARK SMILES O=c1c(O)c(-c2ccc(O)c(O)c2)oc2cc(O)cc(O)c12
REMARK SMILES IDX 5 1 3 2 2 3 1 4 22 5 20 6 19 7 17 8 16 9 15 10 14 11 6 12
REMARK SMILES IDX 7 13 8 14 9 15 13 16 11 17 10 18 12 20 4 22 21 24 18 26
REMARK H PARENT 10 19 12 21 4 23 21 25 18 27
REMARK Flexibility Score: inf
ROOT
ATOM      1  C   UNL     1      15.734  11.004 -19.646  1.00  0.00     0.180 A 
ATOM      2  C   UNL     1      16.999  11.577 -19.859  1.00  0.00     0.208 A 
ATOM      3  C   UNL     1      18.137  10.755 -19.808  1.00  0.00     0.238 A 
ATOM      4  O   UNL     1      19.271  11.283 -19.947  1.00  0.00    -0.285 OA
ATOM      5  C   UNL     1      17.993   9.368 -19.562  1.00  0.00     0.111 A 
ATOM      6  C   UNL     1      19.072   8.435 -19.530  1.00  0.00     0.134 A 
ATOM      7  C   UNL     1      18.828   7.110 -19.148  1.00  0.00     0.093 A 
ATOM      8  C   UNL     1      17.534   6.670 -18.861  1.00  0.00     0.123 A 
ATOM      9  C   UNL     1      16.466   7.559 -18.948  1.00  0.00     0.094 A 
ATOM     10  C   UNL     1      16.682   8.896 -19.292  1.00  0.00     0.146 A 
ATOM     11  O   UNL     1      15.638   9.713 -19.353  1.00  0.00    -0.452 OA
ENDROOT
BRANCH   1  12
ATOM     12  C   UNL     1      14.488  11.801 -19.707  1.00  0.00     0.025 A 
ATOM     13  C   UNL     1      13.658  11.775 -20.842  1.00  0.00     0.016 A 
ATOM     14  C   UNL     1      12.474  12.516 -20.868  1.00  0.00     0.051 A 
ATOM     15  C   UNL     1      12.093  13.282 -19.762  1.00  0.00     0.157 A 
ATOM     16  C   UNL     1      14.092  12.554 -18.590  1.00  0.00     0.062 A 
ATOM     17  C   UNL     1      12.904  13.299 -18.615  1.00  0.00     0.158 A 
BRANCH  15  18
ATOM     18  O   UNL     1      10.907  14.012 -19.818  1.00  0.00    -0.504 OA
ATOM     19  H   UNL     1      10.187  13.817 -20.502  1.00  0.00     0.293 HD
ENDBRANCH  15  18
BRANCH  17  20
ATOM     20  O   UNL     1      12.528  14.054 -17.504  1.00  0.00    -0.504 OA
ATOM     21  H   UNL     1      12.420  15.059 -17.556  1.00  0.00     0.293 HD
ENDBRANCH  17  20
ENDBRANCH   1  12
BRANCH   2  22
ATOM     22  O   UNL     1      17.121  12.952 -20.079  1.00  0.00    -0.502 OA
ATOM     23  H   UNL     1      16.497  13.628 -19.654  1.00  0.00     0.293 HD
ENDBRANCH   2  22
BRANCH   6  24
ATOM     24  O   UNL     1      20.387   8.749 -19.888  1.00  0.00    -0.507 OA
ATOM     25  H   UNL     1      21.203   8.501 -19.350  1.00  0.00     0.293 HD
ENDBRANCH   6  24
BRANCH   8  26
ATOM     26  O   UNL     1      17.297   5.346 -18.497  1.00  0.00    -0.508 OA
ATOM     27  H   UNL     1      16.406   5.052 -18.116  1.00  0.00     0.293 HD
ENDBRANCH   8  26
TORSDOF 6
ENDMDL
MODEL 5
REMARK VINA RESULT:    -5.129      1.553      7.222
REMARK INTER + INTRA:          -6.371
REMARK INTER:                  -6.053
REMARK INTRA:                  -0.318
REMARK UNBOUND:                -0.193
REMARK SMILES O=c1c(O)c(-c2ccc(O)c(O)c2)oc2cc(O)cc(O)c12
REMARK SMILES IDX 5 1 3 2 2 3 1 4 22 5 20 6 19 7 17 8 16 9 15 10 14 11 6 12
REMARK SMILES IDX 7 13 8 14 9 15 13 16 11 17 10 18 12 20 4 22 21 24 18 26
REMARK H PARENT 10 19 12 21 4 23 21 25 18 27
REMARK Flexibility Score: inf
ROOT
ATOM      1  C   UNL     1      16.071  10.965 -19.524  1.00  0.00     0.180 A 
ATOM      2  C   UNL     1      16.938  11.893 -20.124  1.00  0.00     0.208 A 
ATOM      3  C   UNL     1      16.593  13.255 -20.112  1.00  0.00     0.238 A 
ATOM      4  O   UNL     1      17.348  14.074 -20.698  1.00  0.00    -0.285 OA
ATOM      5  C   UNL     1      15.394  13.672 -19.486  1.00  0.00     0.111 A 
ATOM      6  C   UNL     1      14.965  15.029 -19.379  1.00  0.00     0.134 A 
ATOM      7  C   UNL     1      13.699  15.314 -18.854  1.00  0.00     0.093 A 
ATOM      8  C   UNL     1      12.873  14.296 -18.373  1.00  0.00     0.123 A 
ATOM      9  C   UNL     1      13.307  12.974 -18.418  1.00  0.00     0.094 A 
ATOM     10  C   UNL     1      14.551  12.654 -18.969  1.00  0.00     0.146 A 
ATOM     11  O   UNL     1      14.922  11.380 -19.002  1.00  0.00    -0.452 OA
ENDROOT
BRANCH   1  12
ATOM     12  C   UNL     1      16.377   9.517 -19.476  1.00  0.00     0.025 A 
ATOM     13  C   UNL     1      17.234   8.983 -18.497  1.00  0.00     0.016 A 
ATOM     14  C   UNL     1      17.490   7.610 -18.454  1.00  0.00     0.051 A 
ATOM     15  C   UNL     1      16.886   6.749 -19.377  1.00  0.00     0.157 A 
ATOM     16  C   UNL     1      15.755   8.647 -20.385  1.00  0.00     0.062 A 
ATOM     17  C   UNL     1      16.012   7.269 -20.346  1.00  0.00     0.158 A 
BRANCH  15  18
ATOM     18  O   UNL     1      17.161   5.385 -19.311  1.00  0.00    -0.504 OA
ATOM     19  H   UNL     1      17.272   4.817 -20.143  1.00  0.00     0.293 HD
ENDBRANCH  15  18
BRANCH  17  20
ATOM     20  O   UNL     1      15.399   6.416 -21.263  1.00  0.00    -0.504 OA
ATOM     21  H   UNL     1      14.409   6.208 -21.217  1.00  0.00     0.293 HD
ENDBRANCH  17  20
ENDBRANCH   1  12
BRANCH   2  22
ATOM     22  O   UNL     1      18.106  11.457 -20.756  1.00  0.00    -0.502 OA
ATOM     23  H   UNL     1      18.133  11.206 -21.736  1.00  0.00     0.293 HD
ENDBRANCH   2  22
BRANCH   6  24
ATOM     24  O   UNL     1      15.751  16.127 -19.744  1.00  0.00    -0.507 OA
ATOM     25  H   UNL     1      16.313  16.669 -19.107  1.00  0.00     0.293 HD
ENDBRANCH   6  24
BRANCH   8  26
ATOM     26  O   UNL     1      11.621  14.589 -17.837  1.00  0.00    -0.508 OA
ATOM     27  H   UNL     1      10.816  14.001 -18.017  1.00  0.00     0.293 HD
ENDBRANCH   8  26
TORSDOF 6
ENDMDL
MODEL 6
REMARK VINA RESULT:    -5.106      2.287      3.118
REMARK INTER + INTRA:          -6.343
REMARK INTER:                  -6.043
REMARK INTRA:                  -0.300
REMARK UNBOUND:                -0.193
REMARK SMILES O=c1c(O)c(-c2ccc(O)c(O)c2)oc2cc(O)cc(O)c12
REMARK SMILES IDX 5 1 3 2 2 3 1 4 22 5 20 6 19 7 17 8 16 9 15 10 14 11 6 12
REMARK SMILES IDX 7 13 8 14 9 15 13 16 11 17 10 18 12 20 4 22 21 24 18 26
REMARK H PARENT 10 19 12 21 4 23 21 25 18 27
REMARK Flexibility Score: inf
ROOT
ATOM      1  C   UNL     1      16.038  10.755 -19.577  1.00  0.00     0.180 A 
ATOM      2  C   UNL     1      16.043   9.398 -19.213  1.00  0.00     0.208 A 
ATOM      3  C   UNL     1      17.271   8.728 -19.097  1.00  0.00     0.238 A 
ATOM      4  O   UNL     1      17.266   7.499 -18.823  1.00  0.00    -0.285 OA
ATOM      5  C   UNL     1      18.480   9.427 -19.332  1.00  0.00     0.111 A 
ATOM      6  C   UNL     1      19.783   8.859 -19.204  1.00  0.00     0.134 A 
ATOM      7  C   UNL     1      20.903   9.607 -19.587  1.00  0.00     0.093 A 
ATOM      8  C   UNL     1      20.772  10.924 -20.031  1.00  0.00     0.123 A 
ATOM      9  C   UNL     1      19.509  11.508 -20.103  1.00  0.00     0.094 A 
ATOM     10  C   UNL     1      18.369  10.775 -19.761  1.00  0.00     0.146 A 
ATOM     11  O   UNL     1      17.184  11.366 -19.854  1.00  0.00    -0.452 OA
ENDROOT
BRANCH   1  12
ATOM     12  C   UNL     1      14.785  11.534 -19.696  1.00  0.00     0.025 A 
ATOM     13  C   UNL     1      13.988  11.465 -20.852  1.00  0.00     0.016 A 
ATOM     14  C   UNL     1      12.796  12.191 -20.933  1.00  0.00     0.051 A 
ATOM     15  C   UNL     1      12.375  12.983 -19.859  1.00  0.00     0.157 A 
ATOM     16  C   UNL     1      14.348  12.313 -18.612  1.00  0.00     0.062 A 
ATOM     17  C   UNL     1      13.153  13.042 -18.691  1.00  0.00     0.158 A 
BRANCH  15  18
ATOM     18  O   UNL     1      11.183  13.696 -19.969  1.00  0.00    -0.504 OA
ATOM     19  H   UNL     1      10.403  13.360 -20.522  1.00  0.00     0.293 HD
ENDBRANCH  15  18
BRANCH  17  20
ATOM     20  O   UNL     1      12.737  13.823 -17.614  1.00  0.00    -0.504 OA
ATOM     21  H   UNL     1      12.526  13.415 -16.711  1.00  0.00     0.293 HD
ENDBRANCH  17  20
ENDBRANCH   1  12
BRANCH   2  22
ATOM     22  O   UNL     1      14.838   8.721 -19.008  1.00  0.00    -0.502 OA
ATOM     23  H   UNL     1      13.945   9.198 -18.967  1.00  0.00     0.293 HD
ENDBRANCH   2  22
BRANCH   6  24
ATOM     24  O   UNL     1      20.032   7.585 -18.684  1.00  0.00    -0.507 OA
ATOM     25  H   UNL     1      19.490   7.146 -17.956  1.00  0.00     0.293 HD
ENDBRANCH   6  24
BRANCH   8  26
ATOM     26  O   UNL     1      21.893  11.667 -20.395  1.00  0.00    -0.508 OA
ATOM     27  H   UNL     1      22.175  12.490 -19.877  1.00  0.00     0.293 HD
ENDBRANCH   8  26
TORSDOF 6
ENDMDL
MODEL 7
REMARK VINA RESULT:    -5.075      2.789      5.314
REMARK INTER + INTRA:          -6.306
REMARK INTER:                  -6.004
REMARK INTRA:                  -0.302
REMARK UNBOUND:                -0.193
REMARK SMILES O=c1c(O)c(-c2ccc(O)c(O)c2)oc2cc(O)cc(O)c12
REMARK SMILES IDX 5 1 3 2 2 3 1 4 22 5 20 6 19 7 17 8 16 9 15 10 14 11 6 12
REMARK SMILES IDX 7 13 8 14 9 15 13 16 11 17 10 18 12 20 4 22 21 24 18 26
REMARK H PARENT 10 19 12 21 4 23 21 25 18 27
REMARK Flexibility Score: inf
ROOT
ATOM      1  C   UNL     1      14.376   8.172 -21.120  1.00  0.00     0.180 A 
ATOM      2  C   UNL     1      14.679   9.413 -20.534  1.00  0.00     0.208 A 
ATOM      3  C   UNL     1      15.902   9.569 -19.863  1.00  0.00     0.238 A 
ATOM      4  O   UNL     1      16.144  10.666 -19.295  1.00  0.00    -0.285 OA
ATOM      5  C   UNL     1      16.815   8.488 -19.801  1.00  0.00     0.111 A 
ATOM      6  C   UNL     1      18.100   8.547 -19.183  1.00  0.00     0.134 A 
ATOM      7  C   UNL     1      18.864   7.379 -19.067  1.00  0.00     0.093 A 
ATOM      8  C   UNL     1      18.418   6.170 -19.604  1.00  0.00     0.123 A 
ATOM      9  C   UNL     1      17.191   6.116 -20.262  1.00  0.00     0.094 A 
ATOM     10  C   UNL     1      16.390   7.256 -20.363  1.00  0.00     0.146 A 
ATOM     11  O   UNL     1      15.223   7.158 -20.989  1.00  0.00    -0.452 OA
ENDROOT
BRANCH   1  12
ATOM     12  C   UNL     1      13.117   7.938 -21.864  1.00  0.00     0.025 A 
ATOM     13  C   UNL     1      13.082   7.968 -23.270  1.00  0.00     0.016 A 
ATOM     14  C   UNL     1      11.888   7.720 -23.952  1.00  0.00     0.051 A 
ATOM     15  C   UNL     1      10.717   7.426 -23.246  1.00  0.00     0.157 A 
ATOM     16  C   UNL     1      11.945   7.621 -21.159  1.00  0.00     0.062 A 
ATOM     17  C   UNL     1      10.745   7.373 -21.842  1.00  0.00     0.158 A 
BRANCH  15  18
ATOM     18  O   UNL     1       9.541   7.185 -23.953  1.00  0.00    -0.504 OA
ATOM     19  H   UNL     1       9.050   7.919 -24.448  1.00  0.00     0.293 HD
ENDBRANCH  15  18
BRANCH  17  20
ATOM     20  O   UNL     1       9.585   7.072 -21.131  1.00  0.00    -0.504 OA
ATOM     21  H   UNL     1       9.429   6.155 -20.730  1.00  0.00     0.293 HD
ENDBRANCH  17  20
ENDBRANCH   1  12
BRANCH   2  22
ATOM     22  O   UNL     1      13.755  10.460 -20.589  1.00  0.00    -0.502 OA
ATOM     23  H   UNL     1      12.869  10.380 -21.073  1.00  0.00     0.293 HD
ENDBRANCH   2  22
BRANCH   6  24
ATOM     24  O   UNL     1      18.679   9.723 -18.696  1.00  0.00    -0.507 OA
ATOM     25  H   UNL     1      18.344  10.653 -18.894  1.00  0.00     0.293 HD
ENDBRANCH   6  24
BRANCH   8  26
ATOM     26  O   UNL     1      19.191   5.016 -19.498  1.00  0.00    -0.508 OA
ATOM     27  H   UNL     1      18.892   4.138 -19.903  1.00  0.00     0.293 HD
ENDBRANCH   8  26
TORSDOF 6
ENDMDL
MODEL 8
REMARK VINA RESULT:    -5.057      1.864      7.094
REMARK INTER + INTRA:          -6.285
REMARK INTER:                  -6.051
REMARK INTRA:                  -0.233
REMARK UNBOUND:                -0.193
REMARK SMILES O=c1c(O)c(-c2ccc(O)c(O)c2)oc2cc(O)cc(O)c12
REMARK SMILES IDX 5 1 3 2 2 3 1 4 22 5 20 6 19 7 17 8 16 9 15 10 14 11 6 12
REMARK SMILES IDX 7 13 8 14 9 15 13 16 11 17 10 18 12 20 4 22 21 24 18 26
REMARK H PARENT 10 19 12 21 4 23 21 25 18 27
REMARK Flexibility Score: inf
ROOT
ATOM      1  C   UNL     1      17.724   8.004 -20.261  1.00  0.00     0.180 A 
ATOM      2  C   UNL     1      16.376   7.612 -20.265  1.00  0.00     0.208 A 
ATOM      3  C   UNL     1      15.378   8.600 -20.247  1.00  0.00     0.238 A 
ATOM      4  O   UNL     1      14.172   8.242 -20.197  1.00  0.00    -0.285 OA
ATOM      5  C   UNL     1      15.743   9.969 -20.242  1.00  0.00     0.111 A 
ATOM      6  C   UNL     1      14.817  11.054 -20.264  1.00  0.00     0.134 A 
ATOM      7  C   UNL     1      15.286  12.365 -20.124  1.00  0.00     0.093 A 
ATOM      8  C   UNL     1      16.653  12.634 -20.028  1.00  0.00     0.123 A 
ATOM      9  C   UNL     1      17.569  11.586 -20.065  1.00  0.00     0.094 A 
ATOM     10  C   UNL     1      17.129  10.263 -20.168  1.00  0.00     0.146 A 
ATOM     11  O   UNL     1      18.034   9.294 -20.189  1.00  0.00    -0.452 OA
ENDROOT
BRANCH   1  12
ATOM     12  C   UNL     1      18.831   7.021 -20.303  1.00  0.00     0.025 A 
ATOM     13  C   UNL     1      19.082   6.252 -21.453  1.00  0.00     0.016 A 
ATOM     14  C   UNL     1      20.148   5.348 -21.479  1.00  0.00     0.051 A 
ATOM     15  C   UNL     1      20.984   5.207 -20.367  1.00  0.00     0.157 A 
ATOM     16  C   UNL     1      19.686   6.894 -19.197  1.00  0.00     0.062 A 
ATOM     17  C   UNL     1      20.755   5.986 -19.221  1.00  0.00     0.158 A 
BRANCH  15  18
ATOM     18  O   UNL     1      22.038   4.296 -20.422  1.00  0.00    -0.504 OA
ATOM     19  H   UNL     1      23.000   4.592 -20.531  1.00  0.00     0.293 HD
ENDBRANCH  15  18
BRANCH  17  20
ATOM     20  O   UNL     1      21.590   5.858 -18.111  1.00  0.00    -0.504 OA
ATOM     21  H   UNL     1      21.443   5.136 -17.416  1.00  0.00     0.293 HD
ENDBRANCH  17  20
ENDBRANCH   1  12
BRANCH   2  22
ATOM     22  O   UNL     1      16.038   6.256 -20.249  1.00  0.00    -0.502 OA
ATOM     23  H   UNL     1      16.534   5.564 -20.798  1.00  0.00     0.293 HD
ENDBRANCH   2  22
BRANCH   6  24
ATOM     24  O   UNL     1      13.438  10.901 -20.449  1.00  0.00    -0.507 OA
ATOM     25  H   UNL     1      12.831  10.381 -19.835  1.00  0.00     0.293 HD
ENDBRANCH   6  24
BRANCH   8  26
ATOM     26  O   UNL     1      17.113  13.944 -19.905  1.00  0.00    -0.508 OA
ATOM     27  H   UNL     1      18.018  14.224 -20.265  1.00  0.00     0.293 HD
ENDBRANCH   8  26
TORSDOF 6
ENDMDL
MODEL 9
REMARK VINA RESULT:    -4.996      3.119      8.060
REMARK INTER + INTRA:          -6.211
REMARK INTER:                  -5.892
REMARK INTRA:                  -0.319
REMARK UNBOUND:                -0.193
REMARK SMILES O=c1c(O)c(-c2ccc(O)c(O)c2)oc2cc(O)cc(O)c12
REMARK SMILES IDX 5 1 3 2 2 3 1 4 22 5 20 6 19 7 17 8 16 9 15 10 14 11 6 12
REMARK SMILES IDX 7 13 8 14 9 15 13 16 11 17 10 18 12 20 4 22 21 24 18 26
REMARK H PARENT 10 19 12 21 4 23 21 25 18 27
REMARK Flexibility Score: inf
ROOT
ATOM      1  C   UNL     1      20.394   6.998 -19.520  1.00  0.00     0.180 A 
ATOM      2  C   UNL     1      19.394   6.012 -19.500  1.00  0.00     0.208 A 
ATOM      3  C   UNL     1      18.048   6.405 -19.579  1.00  0.00     0.238 A 
ATOM      4  O   UNL     1      17.155   5.521 -19.506  1.00  0.00    -0.285 OA
ATOM      5  C   UNL     1      17.721   7.778 -19.694  1.00  0.00     0.111 A 
ATOM      6  C   UNL     1      16.394   8.287 -19.821  1.00  0.00     0.134 A 
ATOM      7  C   UNL     1      16.179   9.670 -19.796  1.00  0.00     0.093 A 
ATOM      8  C   UNL     1      17.249  10.563 -19.713  1.00  0.00     0.123 A 
ATOM      9  C   UNL     1      18.553  10.078 -19.649  1.00  0.00     0.094 A 
ATOM     10  C   UNL     1      18.797   8.701 -19.636  1.00  0.00     0.146 A 
ATOM     11  O   UNL     1      20.053   8.281 -19.562  1.00  0.00    -0.452 OA
ENDROOT
BRANCH   1  12
ATOM     12  C   UNL     1      21.835   6.660 -19.465  1.00  0.00     0.025 A 
ATOM     13  C   UNL     1      22.605   6.548 -20.636  1.00  0.00     0.016 A 
ATOM     14  C   UNL     1      23.969   6.252 -20.560  1.00  0.00     0.051 A 
ATOM     15  C   UNL     1      24.587   6.078 -19.317  1.00  0.00     0.157 A 
ATOM     16  C   UNL     1      22.463   6.507 -18.219  1.00  0.00     0.062 A 
ATOM     17  C   UNL     1      23.831   6.209 -18.140  1.00  0.00     0.158 A 
BRANCH  15  18
ATOM     18  O   UNL     1      25.948   5.782 -19.272  1.00  0.00    -0.504 OA
ATOM     19  H   UNL     1      26.531   6.048 -18.488  1.00  0.00     0.293 HD
ENDBRANCH  15  18
BRANCH  17  20
ATOM     20  O   UNL     1      24.441   6.045 -16.897  1.00  0.00    -0.504 OA
ATOM     21  H   UNL     1      24.194   5.280 -16.280  1.00  0.00     0.293 HD
ENDBRANCH  17  20
ENDBRANCH   1  12
BRANCH   2  22
ATOM     22  O   UNL     1      19.738   4.664 -19.365  1.00  0.00    -0.502 OA
ATOM     23  H   UNL     1      20.621   4.292 -19.693  1.00  0.00     0.293 HD
ENDBRANCH   2  22
BRANCH   6  24
ATOM     24  O   UNL     1      15.263   7.483 -20.002  1.00  0.00    -0.507 OA
ATOM     25  H   UNL     1      14.835   7.287 -20.893  1.00  0.00     0.293 HD
ENDBRANCH   6  24
BRANCH   8  26
ATOM     26  O   UNL     1      17.028  11.939 -19.705  1.00  0.00    -0.508 OA
ATOM     27  H   UNL     1      17.458  12.549 -20.389  1.00  0.00     0.293 HD
ENDBRANCH   8  26
TORSDOF 6
ENDMDL
