MODEL 1
REMARK VINA RESULT:    -5.564      0.000      0.000
REMARK INTER + INTRA:          -7.628
REMARK INTER:                  -7.027
REMARK INTRA:                  -0.600
REMARK UNBOUND:                -0.600
REMARK SMILES Oc1ccc(CCc2cc(O)cc(O)c2)cc1
REMARK SMILES IDX 6 1 5 2 4 3 3 4 2 5 16 6 17 7 1 8 7 10 8 11 15 12 9 13 13 14
REMARK SMILES IDX 10 15 12 16 14 17 11 19
REMARK H PARENT 1 9 14 18 11 20
REMARK Flexibility Score: inf
ROOT
ATOM      1  C   UNL     1     116.086  52.499  -0.055  1.00  0.00     0.040 C 
ENDROOT
BRANCH   1   2
ATOM      2  C   UNL     1     117.235  51.857   0.677  1.00  0.00    -0.047 A 
ATOM      3  C   UNL     1     117.425  50.467   0.617  1.00  0.00     0.007 A 
ATOM      4  C   UNL     1     118.511  49.875   1.270  1.00  0.00     0.046 A 
ATOM      5  C   UNL     1     119.421  50.667   1.982  1.00  0.00     0.115 A 
ATOM      6  C   UNL     1     118.158  52.648   1.380  1.00  0.00     0.007 A 
ATOM      7  C   UNL     1     119.242  52.054   2.033  1.00  0.00     0.046 A 
BRANCH   5   8
ATOM      8  O   UNL     1     120.505  50.090   2.637  1.00  0.00    -0.508 OA
ATOM      9  H   UNL     1     121.253  49.636   2.125  1.00  0.00     0.293 HD
ENDBRANCH   5   8
ENDBRANCH   1   2
BRANCH   1  10
ATOM     10  C   UNL     1     115.738  51.699  -1.314  1.00  0.00     0.040 C 
BRANCH  10  11
ATOM     11  C   UNL     1     116.701  52.019  -2.426  1.00  0.00    -0.040 A 
ATOM     12  C   UNL     1     117.001  51.053  -3.402  1.00  0.00     0.050 A 
ATOM     13  C   UNL     1     117.350  53.263  -2.464  1.00  0.00     0.050 A 
ATOM     14  C   UNL     1     117.922  51.339  -4.418  1.00  0.00     0.119 A 
ATOM     15  C   UNL     1     118.271  53.550  -3.479  1.00  0.00     0.119 A 
ATOM     16  C   UNL     1     118.553  52.587  -4.456  1.00  0.00     0.092 A 
BRANCH  14  17
ATOM     17  O   UNL     1     118.220  50.389  -5.394  1.00  0.00    -0.508 OA
ATOM     18  H   UNL     1     118.872  50.587  -6.144  1.00  0.00     0.293 HD
ENDBRANCH  14  17
BRANCH  15  19
ATOM     19  O   UNL     1     118.900  54.792  -3.504  1.00  0.00    -0.508 OA
ATOM     20  H   UNL     1     119.537  55.049  -4.249  1.00  0.00     0.293 HD
ENDBRANCH  15  19
ENDBRANCH  10  11
ENDBRANCH   1  10
TORSDOF 6
ENDMDL
MODEL 2
REMARK VINA RESULT:    -4.385      1.712      5.722
REMARK INTER + INTRA:          -6.139
REMARK INTER:                  -5.749
REMARK INTRA:                  -0.390
REMARK UNBOUND:                -0.600
REMARK SMILES Oc1ccc(CCc2cc(O)cc(O)c2)cc1
REMARK SMILES IDX 6 1 5 2 4 3 3 4 2 5 16 6 17 7 1 8 7 10 8 11 15 12 9 13 13 14
REMARK SMILES IDX 10 15 12 16 14 17 11 19
REMARK H PARENT 1 9 14 18 11 20
REMARK Flexibility Score: inf
ROOT
ATOM      1  C   UNL     1     116.860  51.937  -0.343  1.00  0.00     0.040 C 
ENDROOT
BRANCH   1   2
ATOM      2  C   UNL     1     117.286  52.210  -1.761  1.00  0.00    -0.047 A 
ATOM      3  C   UNL     1     118.058  53.344  -2.062  1.00  0.00     0.007 A 
ATOM      4  C   UNL     1     118.482  53.580  -3.374  1.00  0.00     0.046 A 
ATOM      5  C   UNL     1     118.148  52.680  -4.394  1.00  0.00     0.115 A 
ATOM      6  C   UNL     1     116.966  51.303  -2.784  1.00  0.00     0.007 A 
ATOM      7  C   UNL     1     117.391  51.541  -4.095  1.00  0.00     0.046 A 
BRANCH   5   8
ATOM      8  O   UNL     1     118.563  52.904  -5.703  1.00  0.00    -0.508 OA
ATOM      9  H   UNL     1     119.022  52.181  -6.245  1.00  0.00     0.293 HD
ENDBRANCH   5   8
ENDBRANCH   1   2
BRANCH   1  10
ATOM     10  C   UNL     1     117.099  50.468   0.017  1.00  0.00     0.040 C 
BRANCH  10  11
ATOM     11  C   UNL     1     118.549  50.235   0.349  1.00  0.00    -0.040 A 
ATOM     12  C   UNL     1     118.964  50.150   1.689  1.00  0.00     0.050 A 
ATOM     13  C   UNL     1     119.506  50.157  -0.676  1.00  0.00     0.050 A 
ATOM     14  C   UNL     1     120.318  49.966   1.998  1.00  0.00     0.119 A 
ATOM     15  C   UNL     1     120.859  49.973  -0.368  1.00  0.00     0.119 A 
ATOM     16  C   UNL     1     121.262  49.875   0.970  1.00  0.00     0.092 A 
BRANCH  14  17
ATOM     17  O   UNL     1     120.737  49.875   3.325  1.00  0.00    -0.508 OA
ATOM     18  H   UNL     1     120.230  49.319   4.003  1.00  0.00     0.293 HD
ENDBRANCH  14  17
BRANCH  15  19
ATOM     19  O   UNL     1     121.792  49.891  -1.398  1.00  0.00    -0.508 OA
ATOM     20  H   UNL     1     121.940  49.031  -1.912  1.00  0.00     0.293 HD
ENDBRANCH  15  19
ENDBRANCH  10  11
ENDBRANCH   1  10
TORSDOF 6
ENDMDL
MODEL 3
REMARK VINA RESULT:    -4.228      1.522      5.577
REMARK INTER + INTRA:          -5.941
REMARK INTER:                  -5.149
REMARK INTRA:                  -0.792
REMARK UNBOUND:                -0.600
REMARK SMILES Oc1ccc(CCc2cc(O)cc(O)c2)cc1
REMARK SMILES IDX 6 1 5 2 4 3 3 4 2 5 16 6 17 7 1 8 7 10 8 11 15 12 9 13 13 14
REMARK SMILES IDX 10 15 12 16 14 17 11 19
REMARK H PARENT 1 9 14 18 11 20
REMARK Flexibility Score: inf
ROOT
ATOM      1  C   UNL     1     115.634  51.077  -1.924  1.00  0.00     0.040 C 
ENDROOT
BRANCH   1   2
ATOM      2  C   UNL     1     116.673  51.253  -2.999  1.00  0.00    -0.047 A 
ATOM      3  C   UNL     1     116.916  50.225  -3.925  1.00  0.00     0.007 A 
ATOM      4  C   UNL     1     117.857  50.402  -4.944  1.00  0.00     0.046 A 
ATOM      5  C   UNL     1     118.558  51.610  -5.053  1.00  0.00     0.115 A 
ATOM      6  C   UNL     1     117.368  52.467  -3.121  1.00  0.00     0.007 A 
ATOM      7  C   UNL     1     118.309  52.642  -4.141  1.00  0.00     0.046 A 
BRANCH   5   8
ATOM      8  O   UNL     1     119.498  51.798  -6.063  1.00  0.00    -0.508 OA
ATOM      9  H   UNL     1     119.326  51.487  -7.011  1.00  0.00     0.293 HD
ENDBRANCH   5   8
ENDBRANCH   1   2
BRANCH   1  10
ATOM     10  C   UNL     1     116.107  50.059  -0.882  1.00  0.00     0.040 C 
BRANCH  10  11
ATOM     11  C   UNL     1     117.220  50.635  -0.048  1.00  0.00    -0.040 A 
ATOM     12  C   UNL     1     117.042  51.855   0.625  1.00  0.00     0.050 A 
ATOM     13  C   UNL     1     118.463  49.986   0.018  1.00  0.00     0.050 A 
ATOM     14  C   UNL     1     118.089  52.408   1.375  1.00  0.00     0.119 A 
ATOM     15  C   UNL     1     119.510  50.537   0.766  1.00  0.00     0.119 A 
ATOM     16  C   UNL     1     119.319  51.746   1.446  1.00  0.00     0.092 A 
BRANCH  14  17
ATOM     17  O   UNL     1     117.918  53.615   2.050  1.00  0.00    -0.508 OA
ATOM     18  H   UNL     1     118.509  53.872   2.832  1.00  0.00     0.293 HD
ENDBRANCH  14  17
BRANCH  15  19
ATOM     19  O   UNL     1     120.734  49.875   0.825  1.00  0.00    -0.508 OA
ATOM     20  H   UNL     1     121.590  50.315   0.510  1.00  0.00     0.293 HD
ENDBRANCH  15  19
ENDBRANCH  10  11
ENDBRANCH   1  10
TORSDOF 6
ENDMDL
MODEL 4
REMARK VINA RESULT:    -4.178      1.611      5.487
REMARK INTER + INTRA:          -5.877
REMARK INTER:                  -5.747
REMARK INTRA:                  -0.130
REMARK UNBOUND:                -0.600
REMARK SMILES Oc1ccc(CCc2cc(O)cc(O)c2)cc1
REMARK SMILES IDX 6 1 5 2 4 3 3 4 2 5 16 6 17 7 1 8 7 10 8 11 15 12 9 13 13 14
REMARK SMILES IDX 10 15 12 16 14 17 11 19
REMARK H PARENT 1 9 14 18 11 20
REMARK Flexibility Score: inf
ROOT
ATOM      1  C   UNL     1     115.984  51.417  -1.069  1.00  0.00     0.040 C 
ENDROOT
BRANCH   1   2
ATOM      2  C   UNL     1     116.741  51.812  -2.309  1.00  0.00    -0.047 A 
ATOM      3  C   UNL     1     117.408  53.046  -2.369  1.00  0.00     0.007 A 
ATOM      4  C   UNL     1     118.139  53.398  -3.508  1.00  0.00     0.046 A 
ATOM      5  C   UNL     1     118.218  52.516  -4.593  1.00  0.00     0.115 A 
ATOM      6  C   UNL     1     116.835  50.926  -3.394  1.00  0.00     0.007 A 
ATOM      7  C   UNL     1     117.566  51.280  -4.532  1.00  0.00     0.046 A 
BRANCH   5   8
ATOM      8  O   UNL     1     118.942  52.856  -5.733  1.00  0.00    -0.508 OA
ATOM      9  H   UNL     1     119.866  53.267  -5.671  1.00  0.00     0.293 HD
ENDBRANCH   5   8
ENDBRANCH   1   2
BRANCH   1  10
ATOM     10  C   UNL     1     116.377  50.006  -0.625  1.00  0.00     0.040 C 
BRANCH  10  11
ATOM     11  C   UNL     1     117.792  49.989  -0.110  1.00  0.00    -0.040 A 
ATOM     12  C   UNL     1     118.871  49.953  -1.008  1.00  0.00     0.050 A 
ATOM     13  C   UNL     1     118.041  49.952   1.271  1.00  0.00     0.050 A 
ATOM     14  C   UNL     1     120.187  49.905  -0.529  1.00  0.00     0.119 A 
ATOM     15  C   UNL     1     119.355  49.904   1.751  1.00  0.00     0.119 A 
ATOM     16  C   UNL     1     120.426  49.883   0.849  1.00  0.00     0.092 A 
BRANCH  14  17
ATOM     17  O   UNL     1     121.264  49.876  -1.413  1.00  0.00    -0.508 OA
ATOM     18  H   UNL     1     122.221  49.854  -1.081  1.00  0.00     0.293 HD
ENDBRANCH  14  17
BRANCH  15  19
ATOM     19  O   UNL     1     119.584  49.875   3.125  1.00  0.00    -0.508 OA
ATOM     20  H   UNL     1     120.452  50.209   3.525  1.00  0.00     0.293 HD
ENDBRANCH  15  19
ENDBRANCH  10  11
ENDBRANCH   1  10
TORSDOF 6
ENDMDL
MODEL 5
REMARK VINA RESULT:    -4.150      2.505      3.474
REMARK INTER + INTRA:          -5.842
REMARK INTER:                  -5.223
REMARK INTRA:                  -0.619
REMARK UNBOUND:                -0.600
REMARK SMILES Oc1ccc(CCc2cc(O)cc(O)c2)cc1
REMARK SMILES IDX 6 1 5 2 4 3 3 4 2 5 16 6 17 7 1 8 7 10 8 11 15 12 9 13 13 14
REMARK SMILES IDX 10 15 12 16 14 17 11 19
REMARK H PARENT 1 9 14 18 11 20
REMARK Flexibility Score: inf
ROOT
ATOM      1  C   UNL     1     118.802  51.163  -0.263  1.00  0.00     0.040 C 
ENDROOT
BRANCH   1   2
ATOM      2  C   UNL     1     117.300  51.142  -0.369  1.00  0.00    -0.047 A 
ATOM      3  C   UNL     1     116.563  52.326  -0.209  1.00  0.00     0.007 A 
ATOM      4  C   UNL     1     115.170  52.313  -0.340  1.00  0.00     0.046 A 
ATOM      5  C   UNL     1     114.503  51.119  -0.643  1.00  0.00     0.115 A 
ATOM      6  C   UNL     1     116.628  49.951  -0.686  1.00  0.00     0.007 A 
ATOM      7  C   UNL     1     115.236  49.940  -0.816  1.00  0.00     0.046 A 
BRANCH   5   8
ATOM      8  O   UNL     1     113.118  51.093  -0.775  1.00  0.00    -0.508 OA
ATOM      9  H   UNL     1     112.654  51.508  -1.575  1.00  0.00     0.293 HD
ENDBRANCH   5   8
ENDBRANCH   1   2
BRANCH   1  10
ATOM     10  C   UNL     1     119.440  50.670  -1.564  1.00  0.00     0.040 C 
BRANCH  10  11
ATOM     11  C   UNL     1     118.966  51.496  -2.731  1.00  0.00    -0.040 A 
ATOM     12  C   UNL     1     118.460  50.870  -3.882  1.00  0.00     0.050 A 
ATOM     13  C   UNL     1     119.079  52.895  -2.699  1.00  0.00     0.050 A 
ATOM     14  C   UNL     1     118.050  51.638  -4.981  1.00  0.00     0.119 A 
ATOM     15  C   UNL     1     118.670  53.663  -3.795  1.00  0.00     0.119 A 
ATOM     16  C   UNL     1     118.153  53.031  -4.934  1.00  0.00     0.092 A 
BRANCH  14  17
ATOM     17  O   UNL     1     117.541  51.025  -6.124  1.00  0.00    -0.508 OA
ATOM     18  H   UNL     1     117.782  51.353  -7.052  1.00  0.00     0.293 HD
ENDBRANCH  14  17
BRANCH  15  19
ATOM     19  O   UNL     1     118.783  55.050  -3.742  1.00  0.00    -0.508 OA
ATOM     20  H   UNL     1     119.350  55.509  -3.040  1.00  0.00     0.293 HD
ENDBRANCH  15  19
ENDBRANCH  10  11
ENDBRANCH   1  10
TORSDOF 6
ENDMDL
MODEL 6
REMARK VINA RESULT:    -4.063      2.435      4.011
REMARK INTER + INTRA:          -5.732
REMARK INTER:                  -5.239
REMARK INTRA:                  -0.493
REMARK UNBOUND:                -0.600
REMARK SMILES Oc1ccc(CCc2cc(O)cc(O)c2)cc1
REMARK SMILES IDX 6 1 5 2 4 3 3 4 2 5 16 6 17 7 1 8 7 10 8 11 15 12 9 13 13 14
REMARK SMILES IDX 10 15 12 16 14 17 11 19
REMARK H PARENT 1 9 14 18 11 20
REMARK Flexibility Score: inf
ROOT
ATOM      1  C   UNL     1     118.838  50.819  -0.248  1.00  0.00     0.040 C 
ENDROOT
BRANCH   1   2
ATOM      2  C   UNL     1     117.340  50.952  -0.328  1.00  0.00    -0.047 A 
ATOM      3  C   UNL     1     116.719  52.171  -0.011  1.00  0.00     0.007 A 
ATOM      4  C   UNL     1     115.331  52.304  -0.118  1.00  0.00     0.046 A 
ATOM      5  C   UNL     1     114.552  51.223  -0.552  1.00  0.00     0.115 A 
ATOM      6  C   UNL     1     116.557  49.877  -0.776  1.00  0.00     0.007 A 
ATOM      7  C   UNL     1     115.169  50.011  -0.882  1.00  0.00     0.046 A 
BRANCH   5   8
ATOM      8  O   UNL     1     113.170  51.343  -0.662  1.00  0.00    -0.508 OA
ATOM      9  H   UNL     1     112.627  51.858   0.021  1.00  0.00     0.293 HD
ENDBRANCH   5   8
ENDBRANCH   1   2
BRANCH   1  10
ATOM     10  C   UNL     1     119.402  50.287  -1.568  1.00  0.00     0.040 C 
BRANCH  10  11
ATOM     11  C   UNL     1     119.017  51.190  -2.709  1.00  0.00    -0.040 A 
ATOM     12  C   UNL     1     119.114  52.585  -2.571  1.00  0.00     0.050 A 
ATOM     13  C   UNL     1     118.506  50.648  -3.899  1.00  0.00     0.050 A 
ATOM     14  C   UNL     1     118.725  53.427  -3.622  1.00  0.00     0.119 A 
ATOM     15  C   UNL     1     118.117  51.487  -4.949  1.00  0.00     0.119 A 
ATOM     16  C   UNL     1     118.230  52.877  -4.809  1.00  0.00     0.092 A 
BRANCH  14  17
ATOM     17  O   UNL     1     118.823  54.811  -3.496  1.00  0.00    -0.508 OA
ATOM     18  H   UNL     1     118.236  55.435  -4.037  1.00  0.00     0.293 HD
ENDBRANCH  14  17
BRANCH  15  19
ATOM     19  O   UNL     1     117.619  50.931  -6.124  1.00  0.00    -0.508 OA
ATOM     20  H   UNL     1     117.302  51.511  -6.893  1.00  0.00     0.293 HD
ENDBRANCH  15  19
ENDBRANCH  10  11
ENDBRANCH   1  10
TORSDOF 6
ENDMDL
MODEL 7
REMARK VINA RESULT:    -4.054      1.680      2.565
REMARK INTER + INTRA:          -5.720
REMARK INTER:                  -5.394
REMARK INTRA:                  -0.326
REMARK UNBOUND:                -0.600
REMARK SMILES Oc1ccc(CCc2cc(O)cc(O)c2)cc1
REMARK SMILES IDX 6 1 5 2 4 3 3 4 2 5 16 6 17 7 1 8 7 10 8 11 15 12 9 13 13 14
REMARK SMILES IDX 10 15 12 16 14 17 11 19
REMARK H PARENT 1 9 14 18 11 20
REMARK Flexibility Score: inf
ROOT
ATOM      1  C   UNL     1     116.322  52.898  -1.602  1.00  0.00     0.040 C 
ENDROOT
BRANCH   1   2
ATOM      2  C   UNL     1     116.912  52.103  -0.468  1.00  0.00    -0.047 A 
ATOM      3  C   UNL     1     116.672  50.723  -0.370  1.00  0.00     0.007 A 
ATOM      4  C   UNL     1     117.247  49.979   0.666  1.00  0.00     0.046 A 
ATOM      5  C   UNL     1     118.074  50.605   1.607  1.00  0.00     0.115 A 
ATOM      6  C   UNL     1     117.753  52.723   0.470  1.00  0.00     0.007 A 
ATOM      7  C   UNL     1     118.326  51.978   1.505  1.00  0.00     0.046 A 
BRANCH   5   8
ATOM      8  O   UNL     1     118.651  49.875   2.642  1.00  0.00    -0.508 OA
ATOM      9  H   UNL     1     118.206  49.799   3.549  1.00  0.00     0.293 HD
ENDBRANCH   5   8
ENDBRANCH   1   2
BRANCH   1  10
ATOM     10  C   UNL     1     117.421  53.356  -2.565  1.00  0.00     0.040 C 
BRANCH  10  11
ATOM     11  C   UNL     1     118.147  52.170  -3.142  1.00  0.00    -0.040 A 
ATOM     12  C   UNL     1     119.292  51.664  -2.506  1.00  0.00     0.050 A 
ATOM     13  C   UNL     1     117.717  51.596  -4.349  1.00  0.00     0.050 A 
ATOM     14  C   UNL     1     119.987  50.580  -3.060  1.00  0.00     0.119 A 
ATOM     15  C   UNL     1     118.410  50.514  -4.904  1.00  0.00     0.119 A 
ATOM     16  C   UNL     1     119.543  50.006  -4.255  1.00  0.00     0.092 A 
BRANCH  14  17
ATOM     17  O   UNL     1     121.121  50.068  -2.432  1.00  0.00    -0.508 OA
ATOM     18  H   UNL     1     121.324  50.269  -1.460  1.00  0.00     0.293 HD
ENDBRANCH  14  17
BRANCH  15  19
ATOM     19  O   UNL     1     117.965  49.953  -6.099  1.00  0.00    -0.508 OA
ATOM     20  H   UNL     1     118.602  49.493  -6.738  1.00  0.00     0.293 HD
ENDBRANCH  15  19
ENDBRANCH  10  11
ENDBRANCH   1  10
TORSDOF 6
ENDMDL
