MODEL 1
REMARK VINA RESULT:    -4.432      0.000      0.000
REMARK INTER + INTRA:          -7.046
REMARK INTER:                  -6.764
REMARK INTRA:                  -0.282
REMARK UNBOUND:                -0.282
REMARK SMILES CC1=CCC[C@H](C)C(=O)C[C@@H](C(C)C)C(=O)C1
REMARK SMILES IDX 8 1 9 2 6 3 7 4 5 5 4 6 3 7 2 8 1 9 10 11 11 12 15 13 16 14
REMARK SMILES IDX 17 15 12 17 13 18 14 19
REMARK H PARENT
REMARK Flexibility Score: 70.00
ROOT
ATOM      1  C   UNL     1     -13.701 -36.518  29.211  1.00  0.00     0.136 C 
ATOM      2  O   UNL     1     -14.063 -37.077  28.184  1.00  0.00    -0.299 OA
ENDROOT
BRANCH   1   3
ATOM      3  C   UNL     1     -13.599 -37.316  30.498  1.00  0.00     0.053 C 
ATOM      4  C   UNL     1     -12.625 -38.489  30.325  1.00  0.00     0.016 C 
BRANCH   3   5
ATOM      5  C   UNL     1     -13.162 -36.405  31.667  1.00  0.00     0.015 C 
BRANCH   5   6
ATOM      6  C   UNL     1     -11.665 -36.577  31.994  1.00  0.00     0.028 C 
BRANCH   6   7
ATOM      7  C   UNL     1     -11.008 -35.305  32.468  1.00  0.00    -0.028 C 
ATOM      8  C   UNL     1     -10.391 -34.396  31.673  1.00  0.00    -0.070 CG0
ATOM      9  C   UNL     1      -9.878 -33.134  32.322  1.00  0.00     0.039 C 
ATOM     10  G   UNL     1     -10.148 -34.604  30.183  1.00  0.00     0.000 G0
ENDBRANCH   6   7
ENDBRANCH   5   6
ENDBRANCH   3   5
ENDBRANCH   1   3
BRANCH   1  11
ATOM     11  C   UNL     1     -13.383 -35.041  29.170  1.00  0.00     0.087 C 
BRANCH  11  12
ATOM     12  C   UNL     1     -12.063 -34.744  28.408  1.00  0.00     0.066 C 
BRANCH  12  13
ATOM     13  C   UNL     1     -11.109 -33.917  29.260  1.00  0.00     0.140 C 
ATOM     14  O   UNL     1     -11.101 -32.698  29.172  1.00  0.00    -0.299 OA
BRANCH  13  15
ATOM     15  C   UNL     1     -10.125 -34.606  30.174  1.00  0.00     0.106 CG0
ATOM     16  G   UNL     1     -10.408 -34.396  31.657  1.00  0.00     0.000 G0
ENDBRANCH  13  15
ENDBRANCH  12  13
BRANCH  12  17
ATOM     17  C   UNL     1     -12.287 -34.107  26.998  1.00  0.00    -0.006 C 
ATOM     18  C   UNL     1     -13.770 -33.900  26.637  1.00  0.00     0.008 C 
ATOM     19  C   UNL     1     -11.593 -34.920  25.894  1.00  0.00     0.008 C 
ENDBRANCH  12  17
ENDBRANCH  11  12
ENDBRANCH   1  11
TORSDOF 1
ENDMDL
MODEL 2
REMARK VINA RESULT:    -4.349      2.221      5.010
REMARK INTER + INTRA:          -6.920
REMARK INTER:                  -7.277
REMARK INTRA:                   0.357
REMARK UNBOUND:                -0.282
REMARK SMILES CC1=CCC[C@H](C)C(=O)C[C@@H](C(C)C)C(=O)C1
REMARK SMILES IDX 8 1 9 2 6 3 7 4 5 5 4 6 3 7 2 8 1 9 10 11 11 12 15 13 16 14
REMARK SMILES IDX 17 15 12 17 13 18 14 19
REMARK H PARENT
REMARK Flexibility Score: 70.00
ROOT
ATOM      1  C   UNL     1     -14.002 -33.060  30.909  1.00  0.00     0.136 C 
ATOM      2  O   UNL     1     -14.514 -32.027  31.320  1.00  0.00    -0.299 OA
ENDROOT
BRANCH   1   3
ATOM      3  C   UNL     1     -13.652 -33.186  29.438  1.00  0.00     0.053 C 
ATOM      4  C   UNL     1     -14.327 -32.070  28.629  1.00  0.00     0.016 C 
BRANCH   3   5
ATOM      5  C   UNL     1     -12.119 -33.159  29.242  1.00  0.00     0.015 C 
BRANCH   5   6
ATOM      6  C   UNL     1     -11.649 -34.271  28.284  1.00  0.00     0.028 C 
BRANCH   6   7
ATOM      7  C   UNL     1     -12.715 -35.300  27.996  1.00  0.00    -0.028 C 
ATOM      8  C   UNL     1     -12.961 -36.406  28.741  1.00  0.00    -0.070 CG0
ATOM      9  C   UNL     1     -14.137 -37.266  28.348  1.00  0.00     0.039 C 
ATOM     10  G   UNL     1     -12.092 -36.846  29.912  1.00  0.00     0.000 G0
ENDBRANCH   6   7
ENDBRANCH   5   6
ENDBRANCH   3   5
ENDBRANCH   1   3
BRANCH   1  11
ATOM     11  C   UNL     1     -13.750 -34.190  31.881  1.00  0.00     0.087 C 
BRANCH  11  12
ATOM     12  C   UNL     1     -12.390 -34.895  31.624  1.00  0.00     0.066 C 
BRANCH  12  13
ATOM     13  C   UNL     1     -12.590 -36.355  31.241  1.00  0.00     0.140 C 
ATOM     14  O   UNL     1     -13.105 -37.136  32.029  1.00  0.00    -0.299 OA
BRANCH  13  15
ATOM     15  C   UNL     1     -12.097 -36.858  29.906  1.00  0.00     0.106 CG0
ATOM     16  G   UNL     1     -12.952 -36.417  28.725  1.00  0.00     0.000 G0
ENDBRANCH  13  15
ENDBRANCH  12  13
BRANCH  12  17
ATOM     17  C   UNL     1     -11.374 -34.735  32.802  1.00  0.00    -0.006 C 
ATOM     18  C   UNL     1     -11.150 -33.275  33.239  1.00  0.00     0.008 C 
ATOM     19  C   UNL     1     -10.023 -35.392  32.475  1.00  0.00     0.008 C 
ENDBRANCH  12  17
ENDBRANCH  11  12
ENDBRANCH   1  11
TORSDOF 1
ENDMDL
MODEL 3
REMARK VINA RESULT:    -4.284      2.069      3.569
REMARK INTER + INTRA:          -6.821
REMARK INTER:                  -7.178
REMARK INTRA:                   0.358
REMARK UNBOUND:                -0.282
REMARK SMILES CC1=CCC[C@H](C)C(=O)C[C@@H](C(C)C)C(=O)C1
REMARK SMILES IDX 8 1 9 2 6 3 7 4 5 5 4 6 3 7 2 8 1 9 10 11 11 12 15 13 16 14
REMARK SMILES IDX 17 15 12 17 13 18 14 19
REMARK H PARENT
REMARK Flexibility Score: 70.00
ROOT
ATOM      1  C   UNL     1     -12.998 -33.952  31.567  1.00  0.00     0.136 C 
ATOM      2  O   UNL     1     -13.986 -34.454  32.086  1.00  0.00    -0.299 OA
ENDROOT
BRANCH   1   3
ATOM      3  C   UNL     1     -11.618 -34.312  32.086  1.00  0.00     0.053 C 
ATOM      4  C   UNL     1     -11.279 -33.481  33.331  1.00  0.00     0.016 C 
BRANCH   3   5
ATOM      5  C   UNL     1     -11.532 -35.824  32.392  1.00  0.00     0.015 C 
BRANCH   5   6
ATOM      6  C   UNL     1     -11.298 -36.651  31.112  1.00  0.00     0.028 C 
BRANCH   6   7
ATOM      7  C   UNL     1     -12.578 -37.084  30.440  1.00  0.00    -0.028 C 
ATOM      8  C   UNL     1     -12.923 -36.812  29.158  1.00  0.00    -0.070 CG0
ATOM      9  C   UNL     1     -14.204 -37.415  28.636  1.00  0.00     0.039 C 
ATOM     10  G   UNL     1     -12.118 -35.898  28.242  1.00  0.00     0.000 G0
ENDBRANCH   6   7
ENDBRANCH   5   6
ENDBRANCH   3   5
ENDBRANCH   1   3
BRANCH   1  11
ATOM     11  C   UNL     1     -13.185 -32.971  30.431  1.00  0.00     0.087 C 
BRANCH  11  12
ATOM     12  C   UNL     1     -13.302 -33.680  29.055  1.00  0.00     0.066 C 
BRANCH  12  13
ATOM     13  C   UNL     1     -12.034 -34.456  28.725  1.00  0.00     0.140 C 
ATOM     14  O   UNL     1     -10.940 -33.913  28.795  1.00  0.00    -0.299 OA
BRANCH  13  15
ATOM     15  C   UNL     1     -12.127 -35.885  28.249  1.00  0.00     0.106 CG0
ATOM     16  G   UNL     1     -12.934 -36.792  29.170  1.00  0.00     0.000 G0
ENDBRANCH  13  15
ENDBRANCH  12  13
BRANCH  12  17
ATOM     17  C   UNL     1     -13.716 -32.719  27.893  1.00  0.00    -0.006 C 
ATOM     18  C   UNL     1     -14.718 -31.627  28.315  1.00  0.00     0.008 C 
ATOM     19  C   UNL     1     -14.272 -33.496  26.688  1.00  0.00     0.008 C 
ENDBRANCH  12  17
ENDBRANCH  11  12
ENDBRANCH   1  11
TORSDOF 1
ENDMDL
MODEL 4
REMARK VINA RESULT:    -4.203      2.448      4.322
REMARK INTER + INTRA:          -6.697
REMARK INTER:                  -6.455
REMARK INTRA:                  -0.242
REMARK UNBOUND:                -0.282
REMARK SMILES CC1=CCC[C@H](C)C(=O)C[C@@H](C(C)C)C(=O)C1
REMARK SMILES IDX 8 1 9 2 6 3 7 4 5 5 4 6 3 7 2 8 1 9 10 11 11 12 15 13 16 14
REMARK SMILES IDX 17 15 12 17 13 18 14 19
REMARK H PARENT
REMARK Flexibility Score: 70.00
ROOT
ATOM      1  C   UNL     1     -13.109 -33.408  28.775  1.00  0.00     0.136 C 
ATOM      2  O   UNL     1     -13.262 -32.274  28.341  1.00  0.00    -0.299 OA
ENDROOT
BRANCH   1   3
ATOM      3  C   UNL     1     -11.908 -34.222  28.330  1.00  0.00     0.053 C 
ATOM      4  C   UNL     1     -11.938 -34.436  26.811  1.00  0.00     0.016 C 
BRANCH   3   5
ATOM      5  C   UNL     1     -10.595 -33.531  28.764  1.00  0.00     0.015 C 
BRANCH   5   6
ATOM      6  C   UNL     1     -10.108 -34.045  30.133  1.00  0.00     0.028 C 
BRANCH   6   7
ATOM      7  C   UNL     1     -10.497 -35.477  30.405  1.00  0.00    -0.028 C 
ATOM      8  C   UNL     1     -11.392 -35.884  31.339  1.00  0.00    -0.070 CG0
ATOM      9  C   UNL     1     -11.722 -37.355  31.394  1.00  0.00     0.039 C 
ATOM     10  G   UNL     1     -12.037 -34.950  32.355  1.00  0.00     0.000 G0
ENDBRANCH   6   7
ENDBRANCH   5   6
ENDBRANCH   3   5
ENDBRANCH   1   3
BRANCH   1  11
ATOM     11  C   UNL     1     -14.135 -33.971  29.732  1.00  0.00     0.087 C 
BRANCH  11  12
ATOM     12  C   UNL     1     -13.893 -33.509  31.194  1.00  0.00     0.066 C 
BRANCH  12  13
ATOM     13  C   UNL     1     -13.504 -34.681  32.085  1.00  0.00     0.140 C 
ATOM     14  O   UNL     1     -14.365 -35.366  32.618  1.00  0.00    -0.299 OA
BRANCH  13  15
ATOM     15  C   UNL     1     -12.047 -34.966  32.362  1.00  0.00     0.106 CG0
ATOM     16  G   UNL     1     -11.394 -35.890  31.341  1.00  0.00     0.000 G0
ENDBRANCH  13  15
ENDBRANCH  12  13
BRANCH  12  17
ATOM     17  C   UNL     1     -15.083 -32.691  31.794  1.00  0.00    -0.006 C 
ATOM     18  C   UNL     1     -15.605 -31.578  30.866  1.00  0.00     0.008 C 
ATOM     19  C   UNL     1     -14.726 -32.098  33.167  1.00  0.00     0.008 C 
ENDBRANCH  12  17
ENDBRANCH  11  12
ENDBRANCH   1  11
TORSDOF 1
ENDMDL
MODEL 5
REMARK VINA RESULT:    -4.156      2.402      4.575
REMARK INTER + INTRA:          -6.625
REMARK INTER:                  -7.020
REMARK INTRA:                   0.394
REMARK UNBOUND:                -0.282
REMARK SMILES CC1=CCC[C@H](C)C(=O)C[C@@H](C(C)C)C(=O)C1
REMARK SMILES IDX 8 1 9 2 6 3 7 4 5 5 4 6 3 7 2 8 1 9 10 11 11 12 15 13 16 14
REMARK SMILES IDX 17 15 12 17 13 18 14 19
REMARK H PARENT
REMARK Flexibility Score: 70.00
ROOT
ATOM      1  C   UNL     1     -11.840 -33.871  29.555  1.00  0.00     0.136 C 
ATOM      2  O   UNL     1     -10.719 -34.252  29.245  1.00  0.00    -0.299 OA
ENDROOT
BRANCH   1   3
ATOM      3  C   UNL     1     -13.025 -34.257  28.688  1.00  0.00     0.053 C 
ATOM      4  C   UNL     1     -13.229 -33.226  27.570  1.00  0.00     0.016 C 
BRANCH   3   5
ATOM      5  C   UNL     1     -12.830 -35.674  28.103  1.00  0.00     0.015 C 
BRANCH   5   6
ATOM      6  C   UNL     1     -13.822 -36.683  28.715  1.00  0.00     0.028 C 
BRANCH   6   7
ATOM      7  C   UNL     1     -13.176 -37.639  29.687  1.00  0.00    -0.028 C 
ATOM      8  C   UNL     1     -13.131 -37.480  31.033  1.00  0.00    -0.070 CG0
ATOM      9  C   UNL     1     -12.526 -38.596  31.848  1.00  0.00     0.039 C 
ATOM     10  G   UNL     1     -13.612 -36.226  31.752  1.00  0.00     0.000 G0
ENDBRANCH   6   7
ENDBRANCH   5   6
ENDBRANCH   3   5
ENDBRANCH   1   3
BRANCH   1  11
ATOM     11  C   UNL     1     -12.008 -33.010  30.786  1.00  0.00     0.087 C 
BRANCH  11  12
ATOM     12  C   UNL     1     -12.883 -33.696  31.869  1.00  0.00     0.066 C 
BRANCH  12  13
ATOM     13  C   UNL     1     -12.545 -35.176  31.995  1.00  0.00     0.140 C 
ATOM     14  O   UNL     1     -11.400 -35.531  32.233  1.00  0.00    -0.299 OA
BRANCH  13  15
ATOM     15  C   UNL     1     -13.616 -36.216  31.764  1.00  0.00     0.106 CG0
ATOM     16  G   UNL     1     -13.120 -37.462  31.042  1.00  0.00     0.000 G0
ENDBRANCH  13  15
ENDBRANCH  12  13
BRANCH  12  17
ATOM     17  C   UNL     1     -14.417 -33.464  31.668  1.00  0.00    -0.006 C 
ATOM     18  C   UNL     1     -14.757 -32.162  30.919  1.00  0.00     0.008 C 
ATOM     19  C   UNL     1     -15.174 -33.505  33.006  1.00  0.00     0.008 C 
ENDBRANCH  12  17
ENDBRANCH  11  12
ENDBRANCH   1  11
TORSDOF 1
ENDMDL
MODEL 6
REMARK VINA RESULT:    -4.129      2.327      4.014
REMARK INTER + INTRA:          -6.584
REMARK INTER:                  -7.545
REMARK INTRA:                   0.961
REMARK UNBOUND:                -0.282
REMARK SMILES CC1=CCC[C@H](C)C(=O)C[C@@H](C(C)C)C(=O)C1
REMARK SMILES IDX 8 1 9 2 6 3 7 4 5 5 4 6 3 7 2 8 1 9 10 11 11 12 15 13 16 14
REMARK SMILES IDX 17 15 12 17 13 18 14 19
REMARK H PARENT
REMARK Flexibility Score: 70.00
ROOT
ATOM      1  C   UNL     1     -12.306 -36.282  31.907  1.00  0.00     0.136 C 
ATOM      2  O   UNL     1     -11.208 -35.964  32.344  1.00  0.00    -0.299 OA
ENDROOT
BRANCH   1   3
ATOM      3  C   UNL     1     -12.443 -37.553  31.088  1.00  0.00     0.053 C 
ATOM      4  C   UNL     1     -12.605 -38.769  32.009  1.00  0.00     0.016 C 
BRANCH   3   5
ATOM      5  C   UNL     1     -13.634 -37.440  30.109  1.00  0.00     0.015 C 
BRANCH   5   6
ATOM      6  C   UNL     1     -13.160 -37.187  28.664  1.00  0.00     0.028 C 
BRANCH   6   7
ATOM      7  C   UNL     1     -13.641 -35.873  28.100  1.00  0.00    -0.028 C 
ATOM      8  C   UNL     1     -13.044 -34.671  28.290  1.00  0.00    -0.070 CG0
ATOM      9  C   UNL     1     -13.620 -33.482  27.562  1.00  0.00     0.039 C 
ATOM     10  G   UNL     1     -11.864 -34.453  29.229  1.00  0.00     0.000 G0
ENDBRANCH   6   7
ENDBRANCH   5   6
ENDBRANCH   3   5
ENDBRANCH   1   3
BRANCH   1  11
ATOM     11  C   UNL     1     -13.493 -35.387  32.183  1.00  0.00     0.087 C 
BRANCH  11  12
ATOM     12  C   UNL     1     -13.568 -34.189  31.199  1.00  0.00     0.066 C 
BRANCH  12  13
ATOM     13  C   UNL     1     -12.206 -33.893  30.586  1.00  0.00     0.140 C 
ATOM     14  O   UNL     1     -11.412 -33.164  31.164  1.00  0.00    -0.299 OA
BRANCH  13  15
ATOM     15  C   UNL     1     -11.853 -34.451  29.229  1.00  0.00     0.106 CG0
ATOM     16  G   UNL     1     -13.055 -34.663  28.316  1.00  0.00     0.000 G0
ENDBRANCH  13  15
ENDBRANCH  12  13
BRANCH  12  17
ATOM     17  C   UNL     1     -14.216 -32.910  31.825  1.00  0.00    -0.006 C 
ATOM     18  C   UNL     1     -15.231 -33.210  32.944  1.00  0.00     0.008 C 
ATOM     19  C   UNL     1     -14.874 -32.029  30.750  1.00  0.00     0.008 C 
ENDBRANCH  12  17
ENDBRANCH  11  12
ENDBRANCH   1  11
TORSDOF 1
ENDMDL
MODEL 7
REMARK VINA RESULT:    -4.023      2.318      4.430
REMARK INTER + INTRA:          -6.422
REMARK INTER:                  -7.211
REMARK INTRA:                   0.789
REMARK UNBOUND:                -0.282
REMARK SMILES CC1=CCC[C@H](C)C(=O)C[C@@H](C(C)C)C(=O)C1
REMARK SMILES IDX 8 1 9 2 6 3 7 4 5 5 4 6 3 7 2 8 1 9 10 11 11 12 15 13 16 14
REMARK SMILES IDX 17 15 12 17 13 18 14 19
REMARK H PARENT
REMARK Flexibility Score: 70.00
ROOT
ATOM      1  C   UNL     1     -11.090 -34.494  28.934  1.00  0.00     0.136 C 
ATOM      2  O   UNL     1     -10.177 -33.861  29.449  1.00  0.00    -0.299 OA
ENDROOT
BRANCH   1   3
ATOM      3  C   UNL     1     -11.809 -33.918  27.728  1.00  0.00     0.053 C 
ATOM      4  C   UNL     1     -11.743 -34.896  26.547  1.00  0.00     0.016 C 
BRANCH   3   5
ATOM      5  C   UNL     1     -13.274 -33.579  28.082  1.00  0.00     0.015 C 
BRANCH   5   6
ATOM      6  C   UNL     1     -13.361 -32.433  29.109  1.00  0.00     0.028 C 
BRANCH   6   7
ATOM      7  C   UNL     1     -14.340 -32.704  30.224  1.00  0.00    -0.028 C 
ATOM      8  C   UNL     1     -14.013 -33.110  31.476  1.00  0.00    -0.070 CG0
ATOM      9  C   UNL     1     -15.128 -33.235  32.484  1.00  0.00     0.039 C 
ATOM     10  G   UNL     1     -12.599 -33.490  31.898  1.00  0.00     0.000 G0
ENDBRANCH   6   7
ENDBRANCH   5   6
ENDBRANCH   3   5
ENDBRANCH   1   3
BRANCH   1  11
ATOM     11  C   UNL     1     -11.484 -35.827  29.527  1.00  0.00     0.087 C 
BRANCH  11  12
ATOM     12  C   UNL     1     -12.684 -35.705  30.504  1.00  0.00     0.066 C 
BRANCH  12  13
ATOM     13  C   UNL     1     -12.288 -34.963  31.773  1.00  0.00     0.140 C 
ATOM     14  O   UNL     1     -11.762 -35.561  32.701  1.00  0.00    -0.299 OA
BRANCH  13  15
ATOM     15  C   UNL     1     -12.599 -33.492  31.915  1.00  0.00     0.106 CG0
ATOM     16  G   UNL     1     -14.012 -33.116  31.486  1.00  0.00     0.000 G0
ENDBRANCH  13  15
ENDBRANCH  12  13
BRANCH  12  17
ATOM     17  C   UNL     1     -13.372 -37.073  30.820  1.00  0.00    -0.006 C 
ATOM     18  C   UNL     1     -12.467 -38.067  31.573  1.00  0.00     0.008 C 
ATOM     19  C   UNL     1     -13.922 -37.736  29.545  1.00  0.00     0.008 C 
ENDBRANCH  12  17
ENDBRANCH  11  12
ENDBRANCH   1  11
TORSDOF 1
ENDMDL
MODEL 8
REMARK VINA RESULT:    -3.962      2.076      2.455
REMARK INTER + INTRA:          -6.329
REMARK INTER:                  -6.473
REMARK INTRA:                   0.144
REMARK UNBOUND:                -0.282
REMARK SMILES CC1=CCC[C@H](C)C(=O)C[C@@H](C(C)C)C(=O)C1
REMARK SMILES IDX 8 1 9 2 6 3 7 4 5 5 4 6 3 7 2 8 1 9 10 11 11 12 15 13 16 14
REMARK SMILES IDX 17 15 12 17 13 18 14 19
REMARK H PARENT
REMARK Flexibility Score: 70.00
ROOT
ATOM      1  C   UNL     1     -13.262 -36.913  29.005  1.00  0.00     0.136 C 
ATOM      2  O   UNL     1     -13.390 -37.869  28.252  1.00  0.00    -0.299 OA
ENDROOT
BRANCH   1   3
ATOM      3  C   UNL     1     -12.524 -37.091  30.319  1.00  0.00     0.053 C 
ATOM      4  C   UNL     1     -11.272 -36.205  30.355  1.00  0.00     0.016 C 
BRANCH   3   5
ATOM      5  C   UNL     1     -13.456 -36.779  31.511  1.00  0.00     0.015 C 
BRANCH   5   6
ATOM      6  C   UNL     1     -12.949 -35.574  32.329  1.00  0.00     0.028 C 
BRANCH   6   7
ATOM      7  C   UNL     1     -13.959 -34.458  32.434  1.00  0.00    -0.028 C 
ATOM      8  C   UNL     1     -13.971 -33.334  31.677  1.00  0.00    -0.070 CG0
ATOM      9  C   UNL     1     -15.122 -32.377  31.864  1.00  0.00     0.039 C 
ATOM     10  G   UNL     1     -12.868 -32.968  30.692  1.00  0.00     0.000 G0
ENDBRANCH   6   7
ENDBRANCH   5   6
ENDBRANCH   3   5
ENDBRANCH   1   3
BRANCH   1  11
ATOM     11  C   UNL     1     -13.861 -35.582  28.609  1.00  0.00     0.087 C 
BRANCH  11  12
ATOM     12  C   UNL     1     -12.789 -34.464  28.497  1.00  0.00     0.066 C 
BRANCH  12  13
ATOM     13  C   UNL     1     -13.228 -33.205  29.231  1.00  0.00     0.140 C 
ATOM     14  O   UNL     1     -13.844 -32.328  28.642  1.00  0.00    -0.299 OA
BRANCH  13  15
ATOM     15  C   UNL     1     -12.851 -33.006  30.680  1.00  0.00     0.106 CG0
ATOM     16  G   UNL     1     -13.973 -33.330  31.660  1.00  0.00     0.000 G0
ENDBRANCH  13  15
ENDBRANCH  12  13
BRANCH  12  17
ATOM     17  C   UNL     1     -12.358 -34.161  27.025  1.00  0.00    -0.006 C 
ATOM     18  C   UNL     1     -13.509 -34.259  26.006  1.00  0.00     0.008 C 
ATOM     19  C   UNL     1     -11.193 -35.060  26.581  1.00  0.00     0.008 C 
ENDBRANCH  12  17
ENDBRANCH  11  12
ENDBRANCH   1  11
TORSDOF 1
ENDMDL
MODEL 9
REMARK VINA RESULT:    -3.936      2.100      3.586
REMARK INTER + INTRA:          -6.289
REMARK INTER:                  -6.819
REMARK INTRA:                   0.530
REMARK UNBOUND:                -0.282
REMARK SMILES CC1=CCC[C@H](C)C(=O)C[C@@H](C(C)C)C(=O)C1
REMARK SMILES IDX 8 1 9 2 6 3 7 4 5 5 4 6 3 7 2 8 1 9 10 11 11 12 15 13 16 14
REMARK SMILES IDX 17 15 12 17 13 18 14 19
REMARK H PARENT
REMARK Flexibility Score: 70.00
ROOT
ATOM      1  C   UNL     1     -12.697 -36.889  30.803  1.00  0.00     0.136 C 
ATOM      2  O   UNL     1     -11.787 -37.542  31.296  1.00  0.00    -0.299 OA
ENDROOT
BRANCH   1   3
ATOM      3  C   UNL     1     -12.996 -37.027  29.322  1.00  0.00     0.053 C 
ATOM      4  C   UNL     1     -14.374 -37.667  29.110  1.00  0.00     0.016 C 
BRANCH   3   5
ATOM      5  C   UNL     1     -12.914 -35.651  28.622  1.00  0.00     0.015 C 
BRANCH   5   6
ATOM      6  C   UNL     1     -11.486 -35.351  28.123  1.00  0.00     0.028 C 
BRANCH   6   7
ATOM      7  C   UNL     1     -11.001 -33.973  28.497  1.00  0.00    -0.028 C 
ATOM      8  C   UNL     1     -10.506 -33.615  29.708  1.00  0.00    -0.070 CG0
ATOM      9  C   UNL     1      -9.979 -32.210  29.860  1.00  0.00     0.039 C 
ATOM     10  G   UNL     1     -10.499 -34.535  30.922  1.00  0.00     0.000 G0
ENDBRANCH   6   7
ENDBRANCH   5   6
ENDBRANCH   3   5
ENDBRANCH   1   3
BRANCH   1  11
ATOM     11  C   UNL     1     -13.488 -35.950  31.685  1.00  0.00     0.087 C 
BRANCH  11  12
ATOM     12  C   UNL     1     -13.058 -34.469  31.503  1.00  0.00     0.066 C 
BRANCH  12  13
ATOM     13  C   UNL     1     -11.608 -34.262  31.917  1.00  0.00     0.140 C 
ATOM     14  O   UNL     1     -11.337 -33.830  33.028  1.00  0.00    -0.299 OA
BRANCH  13  15
ATOM     15  C   UNL     1     -10.496 -34.531  30.931  1.00  0.00     0.106 CG0
ATOM     16  G   UNL     1     -10.504 -33.602  29.723  1.00  0.00     0.000 G0
ENDBRANCH  13  15
ENDBRANCH  12  13
BRANCH  12  17
ATOM     17  C   UNL     1     -14.016 -33.452  32.206  1.00  0.00    -0.006 C 
ATOM     18  C   UNL     1     -15.185 -34.116  32.959  1.00  0.00     0.008 C 
ATOM     19  C   UNL     1     -14.561 -32.412  31.214  1.00  0.00     0.008 C 
ENDBRANCH  12  17
ENDBRANCH  11  12
ENDBRANCH   1  11
TORSDOF 1
ENDMDL
