MODEL 1
REMARK VINA RESULT:    -3.381      0.000      0.000
REMARK INTER + INTRA:         -12.226
REMARK INTER:                  -8.520
REMARK INTRA:                  -3.706
REMARK UNBOUND:                -3.706
REMARK SMILES CCCCCCCCCCCCCCCCCCCCCCCCCCCC(=O)[O-]
REMARK SMILES IDX 15 1 16 2 17 3 18 4 19 5 20 6 21 7 22 8 23 9 24 10 25 11
REMARK SMILES IDX 26 12 27 13 28 14 29 15 30 16 14 17 13 18 12 19 11 20 10 21
REMARK SMILES IDX 9 22 8 23 7 24 6 25 5 26 4 27 3 28 2 29 1 30
REMARK H PARENT
REMARK Flexibility Score: inf
ROOT
ATOM      1  C   UNL     1      -1.124  48.024   8.184  1.00  0.00     0.000 C 
ENDROOT
BRANCH   1   2
ATOM      2  C   UNL     1      -1.112  49.519   7.846  1.00  0.00     0.000 C 
BRANCH   2   3
ATOM      3  C   UNL     1       0.228  50.156   8.238  1.00  0.00     0.000 C 
BRANCH   3   4
ATOM      4  C   UNL     1       0.732  51.107   7.141  1.00  0.00     0.000 C 
BRANCH   4   5
ATOM      5  C   UNL     1       2.264  51.093   7.014  1.00  0.00     0.000 C 
BRANCH   5   6
ATOM      6  C   UNL     1       2.925  50.063   7.948  1.00  0.00     0.000 C 
BRANCH   6   7
ATOM      7  C   UNL     1       3.557  48.889   7.183  1.00  0.00     0.000 C 
BRANCH   7   8
ATOM      8  C   UNL     1       3.377  47.540   7.901  1.00  0.00     0.000 C 
BRANCH   8   9
ATOM      9  C   UNL     1       2.815  47.707   9.323  1.00  0.00     0.000 C 
BRANCH   9  10
ATOM     10  C   UNL     1       3.750  47.135  10.400  1.00  0.00     0.000 C 
BRANCH  10  11
ATOM     11  C   UNL     1       5.040  46.589   9.767  1.00  0.00     0.000 C 
BRANCH  11  12
ATOM     12  C   UNL     1       6.271  47.448  10.090  1.00  0.00     0.006 C 
BRANCH  12  13
ATOM     13  C   UNL     1       6.832  48.170   8.858  1.00  0.00     0.053 C 
BRANCH  13  14
ATOM     14  C   UNL     1       7.881  49.163   9.255  1.00  0.00     0.041 C 
ATOM     15  O   UNL     1       8.825  48.818  10.014  1.00  0.00    -0.550 OA
ATOM     16  O   UNL     1       7.807  50.476   8.805  1.00  0.00    -0.550 OA
ENDBRANCH  13  14
ENDBRANCH  12  13
ENDBRANCH  11  12
ENDBRANCH  10  11
ENDBRANCH   9  10
ENDBRANCH   8   9
ENDBRANCH   7   8
ENDBRANCH   6   7
ENDBRANCH   5   6
ENDBRANCH   4   5
ENDBRANCH   3   4
ENDBRANCH   2   3
ENDBRANCH   1   2
BRANCH   1  17
ATOM     17  C   UNL     1      -0.081  47.260   7.357  1.00  0.00     0.000 C 
BRANCH  17  18
ATOM     18  C   UNL     1      -0.614  45.926   6.797  1.00  0.00     0.000 C 
BRANCH  18  19
ATOM     19  C   UNL     1       0.068  44.664   7.357  1.00  0.00     0.000 C 
BRANCH  19  20
ATOM     20  C   UNL     1       0.991  44.960   8.551  1.00  0.00     0.000 C 
BRANCH  20  21
ATOM     21  C   UNL     1       1.699  43.697   9.070  1.00  0.00     0.000 C 
BRANCH  21  22
ATOM     22  C   UNL     1       3.131  43.568   8.520  1.00  0.00    -0.000 C 
BRANCH  22  23
ATOM     23  C   UNL     1       4.159  43.239   9.613  1.00  0.00    -0.000 C 
BRANCH  23  24
ATOM     24  C   UNL     1       3.496  42.768  10.919  1.00  0.00    -0.000 C 
BRANCH  24  25
ATOM     25  C   UNL     1       3.526  43.843  12.019  1.00  0.00    -0.000 C 
BRANCH  25  26
ATOM     26  C   UNL     1       2.285  43.799  12.923  1.00  0.00    -0.000 C 
BRANCH  26  27
ATOM     27  C   UNL     1       1.223  42.849  12.355  1.00  0.00    -0.000 C 
BRANCH  27  28
ATOM     28  C   UNL     1       1.008  41.645  13.285  1.00  0.00    -0.000 C 
BRANCH  28  29
ATOM     29  C   UNL     1      -0.129  41.872  14.293  1.00  0.00    -0.003 C 
ATOM     30  C   UNL     1       0.058  41.072  15.583  1.00  0.00     0.004 C 
ENDBRANCH  28  29
ENDBRANCH  27  28
ENDBRANCH  26  27
ENDBRANCH  25  26
ENDBRANCH  24  25
ENDBRANCH  23  24
ENDBRANCH  22  23
ENDBRANCH  21  22
ENDBRANCH  20  21
ENDBRANCH  19  20
ENDBRANCH  18  19
ENDBRANCH  17  18
ENDBRANCH   1  17
TORSDOF 26
ENDMDL
MODEL 2
REMARK VINA RESULT:    -3.194      1.002      2.282
REMARK INTER + INTRA:         -11.754
REMARK INTER:                  -8.752
REMARK INTRA:                  -3.002
REMARK UNBOUND:                -3.706
REMARK SMILES CCCCCCCCCCCCCCCCCCCCCCCCCCCC(=O)[O-]
REMARK SMILES IDX 15 1 16 2 17 3 18 4 19 5 20 6 21 7 22 8 23 9 24 10 25 11
REMARK SMILES IDX 26 12 27 13 28 14 29 15 30 16 14 17 13 18 12 19 11 20 10 21
REMARK SMILES IDX 9 22 8 23 7 24 6 25 5 26 4 27 3 28 2 29 1 30
REMARK H PARENT
REMARK Flexibility Score: inf
ROOT
ATOM      1  C   UNL     1       1.120  47.049   9.500  1.00  0.00     0.000 C 
ENDROOT
BRANCH   1   2
ATOM      2  C   UNL     1      -0.159  47.768   9.055  1.00  0.00     0.000 C 
BRANCH   2   3
ATOM      3  C   UNL     1      -0.181  47.945   7.531  1.00  0.00     0.000 C 
BRANCH   3   4
ATOM      4  C   UNL     1      -1.119  49.092   7.119  1.00  0.00     0.000 C 
BRANCH   4   5
ATOM      5  C   UNL     1      -0.702  50.437   7.736  1.00  0.00     0.000 C 
BRANCH   5   6
ATOM      6  C   UNL     1       0.633  50.958   7.173  1.00  0.00     0.000 C 
BRANCH   6   7
ATOM      7  C   UNL     1       1.739  51.026   8.239  1.00  0.00     0.000 C 
BRANCH   7   8
ATOM      8  C   UNL     1       3.109  50.566   7.710  1.00  0.00     0.000 C 
BRANCH   8   9
ATOM      9  C   UNL     1       3.177  49.041   7.515  1.00  0.00     0.000 C 
BRANCH   9  10
ATOM     10  C   UNL     1       4.562  48.465   7.841  1.00  0.00     0.000 C 
BRANCH  10  11
ATOM     11  C   UNL     1       4.495  47.545   9.071  1.00  0.00     0.000 C 
BRANCH  11  12
ATOM     12  C   UNL     1       5.808  47.519   9.867  1.00  0.00     0.006 C 
BRANCH  12  13
ATOM     13  C   UNL     1       7.045  47.712   8.981  1.00  0.00     0.053 C 
BRANCH  13  14
ATOM     14  C   UNL     1       7.802  48.941   9.384  1.00  0.00     0.041 C 
ATOM     15  O   UNL     1       7.563  50.044   8.823  1.00  0.00    -0.550 OA
ATOM     16  O   UNL     1       8.786  48.866  10.362  1.00  0.00    -0.550 OA
ENDBRANCH  13  14
ENDBRANCH  12  13
ENDBRANCH  11  12
ENDBRANCH  10  11
ENDBRANCH   9  10
ENDBRANCH   8   9
ENDBRANCH   7   8
ENDBRANCH   6   7
ENDBRANCH   5   6
ENDBRANCH   4   5
ENDBRANCH   3   4
ENDBRANCH   2   3
ENDBRANCH   1   2
BRANCH   1  17
ATOM     17  C   UNL     1       0.842  45.575   9.827  1.00  0.00     0.000 C 
BRANCH  17  18
ATOM     18  C   UNL     1       0.371  44.763   8.603  1.00  0.00     0.000 C 
BRANCH  18  19
ATOM     19  C   UNL     1       1.387  43.734   8.073  1.00  0.00     0.000 C 
BRANCH  19  20
ATOM     20  C   UNL     1       2.248  43.112   9.186  1.00  0.00     0.000 C 
BRANCH  20  21
ATOM     21  C   UNL     1       3.727  43.519   9.076  1.00  0.00     0.000 C 
BRANCH  21  22
ATOM     22  C   UNL     1       4.430  43.526  10.446  1.00  0.00    -0.000 C 
BRANCH  22  23
ATOM     23  C   UNL     1       3.787  44.510  11.437  1.00  0.00    -0.000 C 
BRANCH  23  24
ATOM     24  C   UNL     1       3.195  43.799  12.666  1.00  0.00    -0.000 C 
BRANCH  24  25
ATOM     25  C   UNL     1       1.688  43.527  12.524  1.00  0.00    -0.000 C 
BRANCH  25  26
ATOM     26  C   UNL     1       1.294  42.119  12.995  1.00  0.00    -0.000 C 
BRANCH  26  27
ATOM     27  C   UNL     1      -0.092  42.126  13.652  1.00  0.00    -0.000 C 
BRANCH  27  28
ATOM     28  C   UNL     1      -0.011  41.658  15.113  1.00  0.00    -0.000 C 
BRANCH  28  29
ATOM     29  C   UNL     1      -0.571  40.241  15.312  1.00  0.00    -0.003 C 
ATOM     30  C   UNL     1      -1.125  39.640  14.019  1.00  0.00     0.004 C 
ENDBRANCH  28  29
ENDBRANCH  27  28
ENDBRANCH  26  27
ENDBRANCH  25  26
ENDBRANCH  24  25
ENDBRANCH  23  24
ENDBRANCH  22  23
ENDBRANCH  21  22
ENDBRANCH  20  21
ENDBRANCH  19  20
ENDBRANCH  18  19
ENDBRANCH  17  18
ENDBRANCH   1  17
TORSDOF 26
ENDMDL
MODEL 3
REMARK VINA RESULT:    -3.177      2.114      4.630
REMARK INTER + INTRA:         -11.713
REMARK INTER:                  -8.867
REMARK INTRA:                  -2.846
REMARK UNBOUND:                -3.706
REMARK SMILES CCCCCCCCCCCCCCCCCCCCCCCCCCCC(=O)[O-]
REMARK SMILES IDX 15 1 16 2 17 3 18 4 19 5 20 6 21 7 22 8 23 9 24 10 25 11
REMARK SMILES IDX 26 12 27 13 28 14 29 15 30 16 14 17 13 18 12 19 11 20 10 21
REMARK SMILES IDX 9 22 8 23 7 24 6 25 5 26 4 27 3 28 2 29 1 30
REMARK H PARENT
REMARK Flexibility Score: inf
ROOT
ATOM      1  C   UNL     1       2.982  45.181   9.291  1.00  0.00     0.000 C 
ENDROOT
BRANCH   1   2
ATOM      2  C   UNL     1       2.006  46.198   9.894  1.00  0.00     0.000 C 
BRANCH   2   3
ATOM      3  C   UNL     1       0.559  45.702   9.773  1.00  0.00     0.000 C 
BRANCH   3   4
ATOM      4  C   UNL     1       0.275  45.161   8.362  1.00  0.00     0.000 C 
BRANCH   4   5
ATOM      5  C   UNL     1      -0.782  45.995   7.620  1.00  0.00     0.000 C 
BRANCH   5   6
ATOM      6  C   UNL     1      -0.207  47.302   7.043  1.00  0.00     0.000 C 
BRANCH   6   7
ATOM      7  C   UNL     1      -0.539  48.528   7.910  1.00  0.00     0.000 C 
BRANCH   7   8
ATOM      8  C   UNL     1       0.716  49.279   8.388  1.00  0.00     0.000 C 
BRANCH   8   9
ATOM      9  C   UNL     1       1.266  50.238   7.318  1.00  0.00     0.000 C 
BRANCH   9  10
ATOM     10  C   UNL     1       2.791  50.396   7.393  1.00  0.00     0.000 C 
BRANCH  10  11
ATOM     11  C   UNL     1       3.453  49.085   7.848  1.00  0.00     0.000 C 
BRANCH  11  12
ATOM     12  C   UNL     1       4.971  49.221   8.044  1.00  0.00     0.006 C 
BRANCH  12  13
ATOM     13  C   UNL     1       5.571  48.066   8.855  1.00  0.00     0.053 C 
BRANCH  13  14
ATOM     14  C   UNL     1       7.014  48.325   9.163  1.00  0.00     0.041 C 
ATOM     15  O   UNL     1       7.760  47.384   9.544  1.00  0.00    -0.550 OA
ATOM     16  O   UNL     1       7.534  49.609   9.050  1.00  0.00    -0.550 OA
ENDBRANCH  13  14
ENDBRANCH  12  13
ENDBRANCH  11  12
ENDBRANCH  10  11
ENDBRANCH   9  10
ENDBRANCH   8   9
ENDBRANCH   7   8
ENDBRANCH   6   7
ENDBRANCH   5   6
ENDBRANCH   4   5
ENDBRANCH   3   4
ENDBRANCH   2   3
ENDBRANCH   1   2
BRANCH   1  17
ATOM     17  C   UNL     1       4.321  45.183  10.044  1.00  0.00     0.000 C 
BRANCH  17  18
ATOM     18  C   UNL     1       4.160  45.416  11.560  1.00  0.00     0.000 C 
BRANCH  18  19
ATOM     19  C   UNL     1       3.811  44.159  12.379  1.00  0.00     0.000 C 
BRANCH  19  20
ATOM     20  C   UNL     1       3.684  42.894  11.514  1.00  0.00     0.000 C 
BRANCH  20  21
ATOM     21  C   UNL     1       2.227  42.418  11.387  1.00  0.00     0.000 C 
BRANCH  21  22
ATOM     22  C   UNL     1       1.316  43.048  12.456  1.00  0.00    -0.000 C 
BRANCH  22  23
ATOM     23  C   UNL     1       0.884  42.042  13.534  1.00  0.00    -0.000 C 
BRANCH  23  24
ATOM     24  C   UNL     1      -0.646  41.949  13.669  1.00  0.00    -0.000 C 
BRANCH  24  25
ATOM     25  C   UNL     1      -1.119  40.549  14.095  1.00  0.00    -0.000 C 
BRANCH  25  26
ATOM     26  C   UNL     1       0.045  39.569  14.303  1.00  0.00    -0.000 C 
BRANCH  26  27
ATOM     27  C   UNL     1       0.209  38.642  13.092  1.00  0.00    -0.000 C 
BRANCH  27  28
ATOM     28  C   UNL     1      -1.125  37.969  12.730  1.00  0.00    -0.000 C 
BRANCH  28  29
ATOM     29  C   UNL     1      -1.072  36.440  12.871  1.00  0.00    -0.003 C 
ATOM     30  C   UNL     1      -0.077  35.793  11.908  1.00  0.00     0.004 C 
ENDBRANCH  28  29
ENDBRANCH  27  28
ENDBRANCH  26  27
ENDBRANCH  25  26
ENDBRANCH  24  25
ENDBRANCH  23  24
ENDBRANCH  22  23
ENDBRANCH  21  22
ENDBRANCH  20  21
ENDBRANCH  19  20
ENDBRANCH  18  19
ENDBRANCH  17  18
ENDBRANCH   1  17
TORSDOF 26
ENDMDL
MODEL 4
REMARK VINA RESULT:    -2.920      4.242      9.416
REMARK INTER + INTRA:         -11.065
REMARK INTER:                  -8.724
REMARK INTRA:                  -2.341
REMARK UNBOUND:                -3.706
REMARK SMILES CCCCCCCCCCCCCCCCCCCCCCCCCCCC(=O)[O-]
REMARK SMILES IDX 15 1 16 2 17 3 18 4 19 5 20 6 21 7 22 8 23 9 24 10 25 11
REMARK SMILES IDX 26 12 27 13 28 14 29 15 30 16 14 17 13 18 12 19 11 20 10 21
REMARK SMILES IDX 9 22 8 23 7 24 6 25 5 26 4 27 3 28 2 29 1 30
REMARK H PARENT
REMARK Flexibility Score: inf
ROOT
ATOM      1  C   UNL     1       3.855  44.535   9.486  1.00  0.00     0.000 C 
ENDROOT
BRANCH   1   2
ATOM      2  C   UNL     1       3.502  43.046   9.385  1.00  0.00     0.000 C 
BRANCH   2   3
ATOM      3  C   UNL     1       3.378  42.420  10.780  1.00  0.00     0.000 C 
BRANCH   3   4
ATOM      4  C   UNL     1       3.867  43.389  11.869  1.00  0.00     0.000 C 
BRANCH   4   5
ATOM      5  C   UNL     1       2.711  43.956  12.708  1.00  0.00     0.000 C 
BRANCH   5   6
ATOM      6  C   UNL     1       1.342  43.387  12.290  1.00  0.00     0.000 C 
BRANCH   6   7
ATOM      7  C   UNL     1       0.911  42.189  13.153  1.00  0.00     0.000 C 
BRANCH   7   8
ATOM      8  C   UNL     1      -0.552  42.285  13.620  1.00  0.00     0.000 C 
BRANCH   8   9
ATOM      9  C   UNL     1      -0.729  41.832  15.080  1.00  0.00     0.000 C 
BRANCH   9  10
ATOM     10  C   UNL     1      -0.271  40.385  15.310  1.00  0.00     0.000 C 
BRANCH  10  11
ATOM     11  C   UNL     1      -0.970  39.429  14.330  1.00  0.00     0.000 C 
BRANCH  11  12
ATOM     12  C   UNL     1       0.017  38.680  13.422  1.00  0.00     0.006 C 
BRANCH  12  13
ATOM     13  C   UNL     1      -0.603  37.441  12.763  1.00  0.00     0.053 C 
BRANCH  13  14
ATOM     14  C   UNL     1       0.455  36.589  12.131  1.00  0.00     0.041 C 
ATOM     15  O   UNL     1       1.645  36.998  12.070  1.00  0.00    -0.550 OA
ATOM     16  O   UNL     1       0.124  35.353  11.588  1.00  0.00    -0.550 OA
ENDBRANCH  13  14
ENDBRANCH  12  13
ENDBRANCH  11  12
ENDBRANCH  10  11
ENDBRANCH   9  10
ENDBRANCH   8   9
ENDBRANCH   7   8
ENDBRANCH   6   7
ENDBRANCH   5   6
ENDBRANCH   4   5
ENDBRANCH   3   4
ENDBRANCH   2   3
ENDBRANCH   1   2
BRANCH   1  17
ATOM     17  C   UNL     1       2.830  45.401   8.739  1.00  0.00     0.000 C 
BRANCH  17  18
ATOM     18  C   UNL     1       1.411  45.304   9.333  1.00  0.00     0.000 C 
BRANCH  18  19
ATOM     19  C   UNL     1       0.311  46.004   8.513  1.00  0.00     0.000 C 
BRANCH  19  20
ATOM     20  C   UNL     1       0.388  47.538   8.591  1.00  0.00     0.000 C 
BRANCH  20  21
ATOM     21  C   UNL     1      -0.639  48.222   7.673  1.00  0.00     0.000 C 
BRANCH  21  22
ATOM     22  C   UNL     1      -0.467  49.751   7.649  1.00  0.00    -0.000 C 
BRANCH  22  23
ATOM     23  C   UNL     1       0.847  50.211   8.300  1.00  0.00    -0.000 C 
BRANCH  23  24
ATOM     24  C   UNL     1       1.843  50.778   7.273  1.00  0.00    -0.000 C 
BRANCH  24  25
ATOM     25  C   UNL     1       3.306  50.484   7.644  1.00  0.00    -0.000 C 
BRANCH  25  26
ATOM     26  C   UNL     1       3.649  48.989   7.562  1.00  0.00    -0.000 C 
BRANCH  26  27
ATOM     27  C   UNL     1       5.118  48.739   7.927  1.00  0.00    -0.000 C 
BRANCH  27  28
ATOM     28  C   UNL     1       5.231  47.866   9.186  1.00  0.00    -0.000 C 
BRANCH  28  29
ATOM     29  C   UNL     1       6.689  47.566   9.567  1.00  0.00    -0.003 C 
ATOM     30  C   UNL     1       7.596  48.791   9.438  1.00  0.00     0.004 C 
ENDBRANCH  28  29
ENDBRANCH  27  28
ENDBRANCH  26  27
ENDBRANCH  25  26
ENDBRANCH  24  25
ENDBRANCH  23  24
ENDBRANCH  22  23
ENDBRANCH  21  22
ENDBRANCH  20  21
ENDBRANCH  19  20
ENDBRANCH  18  19
ENDBRANCH  17  18
ENDBRANCH   1  17
TORSDOF 26
ENDMDL
MODEL 5
REMARK VINA RESULT:    -2.866      2.079      4.097
REMARK INTER + INTRA:         -10.928
REMARK INTER:                  -8.749
REMARK INTRA:                  -2.179
REMARK UNBOUND:                -3.706
REMARK SMILES CCCCCCCCCCCCCCCCCCCCCCCCCCCC(=O)[O-]
REMARK SMILES IDX 15 1 16 2 17 3 18 4 19 5 20 6 21 7 22 8 23 9 24 10 25 11
REMARK SMILES IDX 26 12 27 13 28 14 29 15 30 16 14 17 13 18 12 19 11 20 10 21
REMARK SMILES IDX 9 22 8 23 7 24 6 25 5 26 4 27 3 28 2 29 1 30
REMARK H PARENT
REMARK Flexibility Score: inf
ROOT
ATOM      1  C   UNL     1       1.720  45.818   9.564  1.00  0.00     0.000 C 
ENDROOT
BRANCH   1   2
ATOM      2  C   UNL     1       0.251  45.645   9.966  1.00  0.00     0.000 C 
BRANCH   2   3
ATOM      3  C   UNL     1      -0.644  46.620   9.190  1.00  0.00     0.000 C 
BRANCH   3   4
ATOM      4  C   UNL     1      -0.143  46.806   7.749  1.00  0.00     0.000 C 
BRANCH   4   5
ATOM      5  C   UNL     1      -0.498  48.190   7.182  1.00  0.00     0.000 C 
BRANCH   5   6
ATOM      6  C   UNL     1      -0.145  49.335   8.150  1.00  0.00     0.000 C 
BRANCH   6   7
ATOM      7  C   UNL     1       0.390  50.580   7.425  1.00  0.00     0.000 C 
BRANCH   7   8
ATOM      8  C   UNL     1       1.762  51.036   7.952  1.00  0.00     0.000 C 
BRANCH   8   9
ATOM      9  C   UNL     1       2.895  50.086   7.528  1.00  0.00     0.000 C 
BRANCH   9  10
ATOM     10  C   UNL     1       3.000  48.849   8.432  1.00  0.00     0.000 C 
BRANCH  10  11
ATOM     11  C   UNL     1       4.011  47.841   7.862  1.00  0.00     0.000 C 
BRANCH  11  12
ATOM     12  C   UNL     1       5.281  47.724   8.718  1.00  0.00     0.006 C 
BRANCH  12  13
ATOM     13  C   UNL     1       6.209  48.938   8.575  1.00  0.00     0.053 C 
BRANCH  13  14
ATOM     14  C   UNL     1       7.477  48.733   9.347  1.00  0.00     0.041 C 
ATOM     15  O   UNL     1       8.193  49.721   9.661  1.00  0.00    -0.550 OA
ATOM     16  O   UNL     1       7.880  47.452   9.701  1.00  0.00    -0.550 OA
ENDBRANCH  13  14
ENDBRANCH  12  13
ENDBRANCH  11  12
ENDBRANCH  10  11
ENDBRANCH   9  10
ENDBRANCH   8   9
ENDBRANCH   7   8
ENDBRANCH   6   7
ENDBRANCH   5   6
ENDBRANCH   4   5
ENDBRANCH   3   4
ENDBRANCH   2   3
ENDBRANCH   1   2
BRANCH   1  17
ATOM     17  C   UNL     1       2.630  45.882  10.799  1.00  0.00     0.000 C 
BRANCH  17  18
ATOM     18  C   UNL     1       3.855  44.951  10.696  1.00  0.00     0.000 C 
BRANCH  18  19
ATOM     19  C   UNL     1       3.687  43.757   9.737  1.00  0.00     0.000 C 
BRANCH  19  20
ATOM     20  C   UNL     1       2.701  42.700  10.262  1.00  0.00     0.000 C 
BRANCH  20  21
ATOM     21  C   UNL     1       2.676  42.637  11.799  1.00  0.00     0.000 C 
BRANCH  21  22
ATOM     22  C   UNL     1       1.291  42.990  12.371  1.00  0.00    -0.000 C 
BRANCH  22  23
ATOM     23  C   UNL     1       0.829  42.005  13.457  1.00  0.00    -0.000 C 
BRANCH  23  24
ATOM     24  C   UNL     1      -0.622  42.261  13.901  1.00  0.00    -0.000 C 
BRANCH  24  25
ATOM     25  C   UNL     1      -1.125  41.215  14.909  1.00  0.00    -0.000 C 
BRANCH  25  26
ATOM     26  C   UNL     1      -0.513  39.825  14.675  1.00  0.00    -0.000 C 
BRANCH  26  27
ATOM     27  C   UNL     1      -1.119  39.159  13.434  1.00  0.00    -0.000 C 
BRANCH  27  28
ATOM     28  C   UNL     1      -0.264  37.966  12.976  1.00  0.00    -0.000 C 
BRANCH  28  29
ATOM     29  C   UNL     1      -1.094  36.690  12.769  1.00  0.00    -0.003 C 
ATOM     30  C   UNL     1      -0.366  35.646  11.921  1.00  0.00     0.004 C 
ENDBRANCH  28  29
ENDBRANCH  27  28
ENDBRANCH  26  27
ENDBRANCH  25  26
ENDBRANCH  24  25
ENDBRANCH  23  24
ENDBRANCH  22  23
ENDBRANCH  21  22
ENDBRANCH  20  21
ENDBRANCH  19  20
ENDBRANCH  18  19
ENDBRANCH  17  18
ENDBRANCH   1  17
TORSDOF 26
ENDMDL
MODEL 6
REMARK VINA RESULT:    -2.770      2.919      5.422
REMARK INTER + INTRA:         -10.685
REMARK INTER:                  -8.299
REMARK INTRA:                  -2.386
REMARK UNBOUND:                -3.706
REMARK SMILES CCCCCCCCCCCCCCCCCCCCCCCCCCCC(=O)[O-]
REMARK SMILES IDX 15 1 16 2 17 3 18 4 19 5 20 6 21 7 22 8 23 9 24 10 25 11
REMARK SMILES IDX 26 12 27 13 28 14 29 15 30 16 14 17 13 18 12 19 11 20 10 21
REMARK SMILES IDX 9 22 8 23 7 24 6 25 5 26 4 27 3 28 2 29 1 30
REMARK H PARENT
REMARK Flexibility Score: inf
ROOT
ATOM      1  C   UNL     1       3.519  47.546   9.450  1.00  0.00     0.000 C 
ENDROOT
BRANCH   1   2
ATOM      2  C   UNL     1       4.136  47.818   8.073  1.00  0.00     0.000 C 
BRANCH   2   3
ATOM      3  C   UNL     1       3.822  49.246   7.608  1.00  0.00     0.000 C 
BRANCH   3   4
ATOM      4  C   UNL     1       2.462  49.718   8.146  1.00  0.00     0.000 C 
BRANCH   4   5
ATOM      5  C   UNL     1       1.657  50.498   7.094  1.00  0.00     0.000 C 
BRANCH   5   6
ATOM      6  C   UNL     1       0.364  51.106   7.670  1.00  0.00     0.000 C 
BRANCH   6   7
ATOM      7  C   UNL     1      -0.840  50.158   7.550  1.00  0.00     0.000 C 
BRANCH   7   8
ATOM      8  C   UNL     1      -0.595  48.792   8.215  1.00  0.00     0.000 C 
BRANCH   8   9
ATOM      9  C   UNL     1      -0.542  47.645   7.191  1.00  0.00     0.000 C 
BRANCH   9  10
ATOM     10  C   UNL     1       0.504  46.579   7.550  1.00  0.00     0.000 C 
BRANCH  10  11
ATOM     11  C   UNL     1       0.022  45.717   8.728  1.00  0.00     0.000 C 
BRANCH  11  12
ATOM     12  C   UNL     1       1.158  44.920   9.385  1.00  0.00     0.006 C 
BRANCH  12  13
ATOM     13  C   UNL     1       1.447  43.596   8.667  1.00  0.00     0.053 C 
BRANCH  13  14
ATOM     14  C   UNL     1       2.802  43.074   9.036  1.00  0.00     0.041 C 
ATOM     15  O   UNL     1       2.920  41.941   9.574  1.00  0.00    -0.550 OA
ATOM     16  O   UNL     1       3.935  43.847   8.808  1.00  0.00    -0.550 OA
ENDBRANCH  13  14
ENDBRANCH  12  13
ENDBRANCH  11  12
ENDBRANCH  10  11
ENDBRANCH   9  10
ENDBRANCH   8   9
ENDBRANCH   7   8
ENDBRANCH   6   7
ENDBRANCH   5   6
ENDBRANCH   4   5
ENDBRANCH   3   4
ENDBRANCH   2   3
ENDBRANCH   1   2
BRANCH   1  17
ATOM     17  C   UNL     1       4.411  46.616  10.285  1.00  0.00     0.000 C 
BRANCH  17  18
ATOM     18  C   UNL     1       3.641  45.886  11.404  1.00  0.00     0.000 C 
BRANCH  18  19
ATOM     19  C   UNL     1       4.477  44.887  12.226  1.00  0.00     0.000 C 
BRANCH  19  20
ATOM     20  C   UNL     1       3.769  43.537  12.430  1.00  0.00     0.000 C 
BRANCH  20  21
ATOM     21  C   UNL     1       2.238  43.678  12.452  1.00  0.00     0.000 C 
BRANCH  21  22
ATOM     22  C   UNL     1       1.541  42.368  12.862  1.00  0.00    -0.000 C 
BRANCH  22  23
ATOM     23  C   UNL     1       0.018  42.523  12.996  1.00  0.00    -0.000 C 
BRANCH  23  24
ATOM     24  C   UNL     1      -0.508  41.992  14.341  1.00  0.00    -0.000 C 
BRANCH  24  25
ATOM     25  C   UNL     1      -0.088  40.537  14.609  1.00  0.00    -0.000 C 
BRANCH  25  26
ATOM     26  C   UNL     1      -1.123  39.520  14.105  1.00  0.00    -0.000 C 
BRANCH  26  27
ATOM     27  C   UNL     1      -0.501  38.561  13.082  1.00  0.00    -0.000 C 
BRANCH  27  28
ATOM     28  C   UNL     1      -1.102  37.152  13.212  1.00  0.00    -0.000 C 
BRANCH  28  29
ATOM     29  C   UNL     1      -0.650  36.211  12.084  1.00  0.00    -0.003 C 
ATOM     30  C   UNL     1       0.851  36.300  11.808  1.00  0.00     0.004 C 
ENDBRANCH  28  29
ENDBRANCH  27  28
ENDBRANCH  26  27
ENDBRANCH  25  26
ENDBRANCH  24  25
ENDBRANCH  23  24
ENDBRANCH  22  23
ENDBRANCH  21  22
ENDBRANCH  20  21
ENDBRANCH  19  20
ENDBRANCH  18  19
ENDBRANCH  17  18
ENDBRANCH   1  17
TORSDOF 26
ENDMDL
MODEL 7
REMARK VINA RESULT:    -2.285      2.479      4.799
REMARK INTER + INTRA:          -9.464
REMARK INTER:                  -7.297
REMARK INTRA:                  -2.166
REMARK UNBOUND:                -3.706
REMARK SMILES CCCCCCCCCCCCCCCCCCCCCCCCCCCC(=O)[O-]
REMARK SMILES IDX 15 1 16 2 17 3 18 4 19 5 20 6 21 7 22 8 23 9 24 10 25 11
REMARK SMILES IDX 26 12 27 13 28 14 29 15 30 16 14 17 13 18 12 19 11 20 10 21
REMARK SMILES IDX 9 22 8 23 7 24 6 25 5 26 4 27 3 28 2 29 1 30
REMARK H PARENT
REMARK Flexibility Score: inf
ROOT
ATOM      1  C   UNL     1       3.371  48.026   7.671  1.00  0.00     0.000 C 
ENDROOT
BRANCH   1   2
ATOM      2  C   UNL     1       3.637  49.470   7.230  1.00  0.00     0.000 C 
BRANCH   2   3
ATOM      3  C   UNL     1       2.715  50.445   7.975  1.00  0.00     0.000 C 
BRANCH   3   4
ATOM      4  C   UNL     1       1.713  51.105   7.014  1.00  0.00     0.000 C 
BRANCH   4   5
ATOM      5  C   UNL     1       0.257  50.744   7.351  1.00  0.00     0.000 C 
BRANCH   5   6
ATOM      6  C   UNL     1       0.132  49.375   8.045  1.00  0.00     0.000 C 
BRANCH   6   7
ATOM      7  C   UNL     1      -1.122  48.601   7.605  1.00  0.00     0.000 C 
BRANCH   7   8
ATOM      8  C   UNL     1      -0.793  47.363   6.753  1.00  0.00     0.000 C 
BRANCH   8   9
ATOM      9  C   UNL     1      -0.947  46.052   7.543  1.00  0.00     0.000 C 
BRANCH   9  10
ATOM     10  C   UNL     1      -0.835  46.259   9.061  1.00  0.00     0.000 C 
BRANCH  10  11
ATOM     11  C   UNL     1       0.626  46.132   9.522  1.00  0.00     0.000 C 
BRANCH  11  12
ATOM     12  C   UNL     1       1.105  44.675   9.587  1.00  0.00     0.006 C 
BRANCH  12  13
ATOM     13  C   UNL     1       2.165  44.348   8.528  1.00  0.00     0.053 C 
BRANCH  13  14
ATOM     14  C   UNL     1       3.050  43.230   8.987  1.00  0.00     0.041 C 
ATOM     15  O   UNL     1       4.300  43.317   8.854  1.00  0.00    -0.550 OA
ATOM     16  O   UNL     1       2.497  42.083   9.541  1.00  0.00    -0.550 OA
ENDBRANCH  13  14
ENDBRANCH  12  13
ENDBRANCH  11  12
ENDBRANCH  10  11
ENDBRANCH   9  10
ENDBRANCH   8   9
ENDBRANCH   7   8
ENDBRANCH   6   7
ENDBRANCH   5   6
ENDBRANCH   4   5
ENDBRANCH   3   4
ENDBRANCH   2   3
ENDBRANCH   1   2
BRANCH   1  17
ATOM     17  C   UNL     1       3.817  47.797   9.122  1.00  0.00     0.000 C 
BRANCH  17  18
ATOM     18  C   UNL     1       4.944  46.753   9.250  1.00  0.00     0.000 C 
BRANCH  18  19
ATOM     19  C   UNL     1       5.230  46.275  10.686  1.00  0.00     0.000 C 
BRANCH  19  20
ATOM     20  C   UNL     1       3.982  45.722  11.395  1.00  0.00     0.000 C 
BRANCH  20  21
ATOM     21  C   UNL     1       4.289  44.456  12.213  1.00  0.00     0.000 C 
BRANCH  21  22
ATOM     22  C   UNL     1       3.086  44.011  13.064  1.00  0.00    -0.000 C 
BRANCH  22  23
ATOM     23  C   UNL     1       1.738  44.317  12.393  1.00  0.00    -0.000 C 
BRANCH  23  24
ATOM     24  C   UNL     1       0.907  43.046  12.141  1.00  0.00    -0.000 C 
BRANCH  24  25
ATOM     25  C   UNL     1       0.939  42.073  13.332  1.00  0.00    -0.000 C 
BRANCH  25  26
ATOM     26  C   UNL     1      -0.316  42.172  14.212  1.00  0.00    -0.000 C 
BRANCH  26  27
ATOM     27  C   UNL     1      -0.224  41.223  15.413  1.00  0.00    -0.000 C 
BRANCH  27  28
ATOM     28  C   UNL     1      -0.273  39.755  14.959  1.00  0.00    -0.000 C 
BRANCH  28  29
ATOM     29  C   UNL     1      -1.123  39.557  13.694  1.00  0.00    -0.003 C 
ATOM     30  C   UNL     1      -1.101  38.113  13.190  1.00  0.00     0.004 C 
ENDBRANCH  28  29
ENDBRANCH  27  28
ENDBRANCH  26  27
ENDBRANCH  25  26
ENDBRANCH  24  25
ENDBRANCH  23  24
ENDBRANCH  22  23
ENDBRANCH  21  22
ENDBRANCH  20  21
ENDBRANCH  19  20
ENDBRANCH  18  19
ENDBRANCH  17  18
ENDBRANCH   1  17
TORSDOF 26
ENDMDL
MODEL 8
REMARK VINA RESULT:    -1.991      3.775      8.264
REMARK INTER + INTRA:          -8.722
REMARK INTER:                  -7.568
REMARK INTRA:                  -1.155
REMARK UNBOUND:                -3.706
REMARK SMILES CCCCCCCCCCCCCCCCCCCCCCCCCCCC(=O)[O-]
REMARK SMILES IDX 15 1 16 2 17 3 18 4 19 5 20 6 21 7 22 8 23 9 24 10 25 11
REMARK SMILES IDX 26 12 27 13 28 14 29 15 30 16 14 17 13 18 12 19 11 20 10 21
REMARK SMILES IDX 9 22 8 23 7 24 6 25 5 26 4 27 3 28 2 29 1 30
REMARK H PARENT
REMARK Flexibility Score: inf
ROOT
ATOM      1  C   UNL     1       0.153  45.219   8.105  1.00  0.00     0.000 C 
ENDROOT
BRANCH   1   2
ATOM      2  C   UNL     1       0.514  45.245   9.594  1.00  0.00     0.000 C 
BRANCH   2   3
ATOM      3  C   UNL     1       1.957  45.727   9.797  1.00  0.00     0.000 C 
BRANCH   3   4
ATOM      4  C   UNL     1       2.960  44.774   9.128  1.00  0.00     0.000 C 
BRANCH   4   5
ATOM      5  C   UNL     1       2.440  43.329   9.068  1.00  0.00     0.000 C 
BRANCH   5   6
ATOM      6  C   UNL     1       2.996  42.452  10.205  1.00  0.00     0.000 C 
BRANCH   6   7
ATOM      7  C   UNL     1       4.275  43.033  10.829  1.00  0.00     0.000 C 
BRANCH   7   8
ATOM      8  C   UNL     1       4.042  43.625  12.230  1.00  0.00     0.000 C 
BRANCH   8   9
ATOM      9  C   UNL     1       2.549  43.835  12.534  1.00  0.00     0.000 C 
BRANCH   9  10
ATOM     10  C   UNL     1       1.769  42.514  12.609  1.00  0.00     0.000 C 
BRANCH  10  11
ATOM     11  C   UNL     1       0.254  42.775  12.609  1.00  0.00     0.000 C 
BRANCH  11  12
ATOM     12  C   UNL     1      -0.367  42.678  14.011  1.00  0.00     0.006 C 
BRANCH  12  13
ATOM     13  C   UNL     1      -0.711  41.237  14.410  1.00  0.00     0.053 C 
BRANCH  13  14
ATOM     14  C   UNL     1      -0.769  41.097  15.900  1.00  0.00     0.041 C 
ATOM     15  O   UNL     1      -0.996  42.103  16.623  1.00  0.00    -0.550 OA
ATOM     16  O   UNL     1      -0.550  39.860  16.495  1.00  0.00    -0.550 OA
ENDBRANCH  13  14
ENDBRANCH  12  13
ENDBRANCH  11  12
ENDBRANCH  10  11
ENDBRANCH   9  10
ENDBRANCH   8   9
ENDBRANCH   7   8
ENDBRANCH   6   7
ENDBRANCH   5   6
ENDBRANCH   4   5
ENDBRANCH   3   4
ENDBRANCH   2   3
ENDBRANCH   1   2
BRANCH   1  17
ATOM     17  C   UNL     1      -1.112  46.044   7.826  1.00  0.00     0.000 C 
BRANCH  17  18
ATOM     18  C   UNL     1      -0.896  47.137   6.759  1.00  0.00     0.000 C 
BRANCH  18  19
ATOM     19  C   UNL     1      -0.692  48.559   7.314  1.00  0.00     0.000 C 
BRANCH  19  20
ATOM     20  C   UNL     1      -0.024  48.573   8.699  1.00  0.00     0.000 C 
BRANCH  20  21
ATOM     21  C   UNL     1       1.073  49.645   8.808  1.00  0.00     0.000 C 
BRANCH  21  22
ATOM     22  C   UNL     1       1.845  49.820   7.488  1.00  0.00    -0.000 C 
BRANCH  22  23
ATOM     23  C   UNL     1       3.247  50.415   7.694  1.00  0.00    -0.000 C 
BRANCH  23  24
ATOM     24  C   UNL     1       4.349  49.341   7.673  1.00  0.00    -0.000 C 
BRANCH  24  25
ATOM     25  C   UNL     1       3.984  48.103   8.511  1.00  0.00    -0.000 C 
BRANCH  25  26
ATOM     26  C   UNL     1       5.217  47.408   9.107  1.00  0.00    -0.000 C 
BRANCH  26  27
ATOM     27  C   UNL     1       6.510  48.101   8.660  1.00  0.00    -0.000 C 
BRANCH  27  28
ATOM     28  C   UNL     1       7.510  48.204   9.823  1.00  0.00    -0.000 C 
BRANCH  28  29
ATOM     29  C   UNL     1       8.341  49.495   9.775  1.00  0.00    -0.003 C 
ATOM     30  C   UNL     1       7.780  50.521   8.790  1.00  0.00     0.004 C 
ENDBRANCH  28  29
ENDBRANCH  27  28
ENDBRANCH  26  27
ENDBRANCH  25  26
ENDBRANCH  24  25
ENDBRANCH  23  24
ENDBRANCH  22  23
ENDBRANCH  21  22
ENDBRANCH  20  21
ENDBRANCH  19  20
ENDBRANCH  18  19
ENDBRANCH  17  18
ENDBRANCH   1  17
TORSDOF 26
ENDMDL
MODEL 9
REMARK VINA RESULT:    -1.852      4.399      9.621
REMARK INTER + INTRA:          -8.373
REMARK INTER:                  -5.479
REMARK INTRA:                  -2.894
REMARK UNBOUND:                -3.706
REMARK SMILES CCCCCCCCCCCCCCCCCCCCCCCCCCCC(=O)[O-]
REMARK SMILES IDX 15 1 16 2 17 3 18 4 19 5 20 6 21 7 22 8 23 9 24 10 25 11
REMARK SMILES IDX 26 12 27 13 28 14 29 15 30 16 14 17 13 18 12 19 11 20 10 21
REMARK SMILES IDX 9 22 8 23 7 24 6 25 5 26 4 27 3 28 2 29 1 30
REMARK H PARENT
REMARK Flexibility Score: inf
ROOT
ATOM      1  C   UNL     1       4.378  43.980   9.387  1.00  0.00     0.000 C 
ENDROOT
BRANCH   1   2
ATOM      2  C   UNL     1       3.134  43.123   9.124  1.00  0.00     0.000 C 
BRANCH   2   3
ATOM      3  C   UNL     1       2.700  42.387  10.398  1.00  0.00     0.000 C 
BRANCH   3   4
ATOM      4  C   UNL     1       3.357  43.001  11.644  1.00  0.00     0.000 C 
BRANCH   4   5
ATOM      5  C   UNL     1       2.364  43.163  12.807  1.00  0.00     0.000 C 
BRANCH   5   6
ATOM      6  C   UNL     1       0.948  42.675  12.449  1.00  0.00     0.000 C 
BRANCH   6   7
ATOM      7  C   UNL     1       0.031  42.569  13.678  1.00  0.00     0.000 C 
BRANCH   7   8
ATOM      8  C   UNL     1       0.661  41.765  14.828  1.00  0.00     0.000 C 
BRANCH   8   9
ATOM      9  C   UNL     1      -0.397  41.101  15.726  1.00  0.00     0.000 C 
BRANCH   9  10
ATOM     10  C   UNL     1      -1.123  39.943  15.027  1.00  0.00     0.000 C 
BRANCH  10  11
ATOM     11  C   UNL     1      -0.186  39.227  14.040  1.00  0.00     0.000 C 
BRANCH  11  12
ATOM     12  C   UNL     1      -0.930  38.637  12.834  1.00  0.00     0.006 C 
BRANCH  12  13
ATOM     13  C   UNL     1      -1.124  37.119  12.940  1.00  0.00     0.053 C 
BRANCH  13  14
ATOM     14  C   UNL     1      -0.012  36.390  12.249  1.00  0.00     0.041 C 
ATOM     15  O   UNL     1       1.125  36.924  12.143  1.00  0.00    -0.550 OA
ATOM     16  O   UNL     1      -0.234  35.132  11.702  1.00  0.00    -0.550 OA
ENDBRANCH  13  14
ENDBRANCH  12  13
ENDBRANCH  11  12
ENDBRANCH  10  11
ENDBRANCH   9  10
ENDBRANCH   8   9
ENDBRANCH   7   8
ENDBRANCH   6   7
ENDBRANCH   5   6
ENDBRANCH   4   5
ENDBRANCH   3   4
ENDBRANCH   2   3
ENDBRANCH   1   2
BRANCH   1  17
ATOM     17  C   UNL     1       4.092  45.467   9.132  1.00  0.00     0.000 C 
BRANCH  17  18
ATOM     18  C   UNL     1       3.534  46.196  10.371  1.00  0.00     0.000 C 
BRANCH  18  19
ATOM     19  C   UNL     1       2.085  46.698  10.235  1.00  0.00     0.000 C 
BRANCH  19  20
ATOM     20  C   UNL     1       1.042  45.634  10.616  1.00  0.00     0.000 C 
BRANCH  20  21
ATOM     21  C   UNL     1       0.012  45.399   9.498  1.00  0.00     0.000 C 
BRANCH  21  22
ATOM     22  C   UNL     1      -0.481  46.719   8.879  1.00  0.00    -0.000 C 
BRANCH  22  23
ATOM     23  C   UNL     1      -0.161  46.828   7.380  1.00  0.00    -0.000 C 
BRANCH  23  24
ATOM     24  C   UNL     1      -0.177  48.283   6.881  1.00  0.00    -0.000 C 
BRANCH  24  25
ATOM     25  C   UNL     1      -0.391  49.296   8.018  1.00  0.00    -0.000 C 
BRANCH  25  26
ATOM     26  C   UNL     1       0.238  50.665   7.718  1.00  0.00    -0.000 C 
BRANCH  26  27
ATOM     27  C   UNL     1       1.691  50.512   7.249  1.00  0.00    -0.000 C 
BRANCH  27  28
ATOM     28  C   UNL     1       2.416  49.419   8.050  1.00  0.00    -0.000 C 
BRANCH  28  29
ATOM     29  C   UNL     1       3.603  48.815   7.284  1.00  0.00    -0.003 C 
ATOM     30  C   UNL     1       4.908  48.871   8.079  1.00  0.00     0.004 C 
ENDBRANCH  28  29
ENDBRANCH  27  28
ENDBRANCH  26  27
ENDBRANCH  25  26
ENDBRANCH  24  25
ENDBRANCH  23  24
ENDBRANCH  22  23
ENDBRANCH  21  22
ENDBRANCH  20  21
ENDBRANCH  19  20
ENDBRANCH  18  19
ENDBRANCH  17  18
ENDBRANCH   1  17
TORSDOF 26
ENDMDL
