MODEL 1
REMARK VINA RESULT:    -4.242      0.000      0.000
REMARK INTER + INTRA:          -5.440
REMARK INTER:                  -5.358
REMARK INTRA:                  -0.082
REMARK UNBOUND:                -0.082
REMARK SMILES CSCC[C@H]([NH3+])C(=O)[O-]
REMARK SMILES IDX 4 1 5 2 6 3 7 7 8 8 9 9 3 10 2 11 1 12
REMARK H PARENT 6 4 6 5 6 6
REMARK Flexibility Score: inf
ROOT
ATOM      1  C   UNL     1      28.493  17.906  22.510  1.00  0.00     0.082 C 
ENDROOT
BRANCH   1   2
ATOM      2  C   UNL     1      29.663  18.051  21.505  1.00  0.00     0.228 C 
BRANCH   2   3
ATOM      3  N   UNL     1      30.231  19.407  21.508  1.00  0.00    -0.350 N 
ATOM      4  H   UNL     1      29.493  20.103  21.250  1.00  0.00     0.345 HD
ATOM      5  H   UNL     1      30.573  19.640  22.468  1.00  0.00     0.345 HD
ATOM      6  H   UNL     1      31.029  19.494  20.839  1.00  0.00     0.345 HD
ENDBRANCH   2   3
BRANCH   2   7
ATOM      7  C   UNL     1      29.277  17.622  20.113  1.00  0.00     0.099 C 
ATOM      8  O   UNL     1      30.052  17.855  19.148  1.00  0.00    -0.544 OA
ATOM      9  O   UNL     1      28.095  16.925  19.886  1.00  0.00    -0.544 OA
ENDBRANCH   2   7
ENDBRANCH   1   2
BRANCH   1  10
ATOM     10  C   UNL     1      28.576  16.695  23.462  1.00  0.00     0.076 C 
BRANCH  10  11
ATOM     11  S   UNL     1      29.232  17.157  25.109  1.00  0.00    -0.165 SA
ATOM     12  C   UNL     1      28.359  15.854  26.037  1.00  0.00     0.085 C 
ENDBRANCH  10  11
ENDBRANCH   1  10
TORSDOF 5
ENDMDL
MODEL 2
REMARK VINA RESULT:    -4.175      1.872      2.512
REMARK INTER + INTRA:          -5.356
REMARK INTER:                  -5.144
REMARK INTRA:                  -0.212
REMARK UNBOUND:                -0.082
REMARK SMILES CSCC[C@H]([NH3+])C(=O)[O-]
REMARK SMILES IDX 4 1 5 2 6 3 7 7 8 8 9 9 3 10 2 11 1 12
REMARK H PARENT 6 4 6 5 6 6
REMARK Flexibility Score: inf
ROOT
ATOM      1  C   UNL     1      28.451  17.405  22.078  1.00  0.00     0.082 C 
ENDROOT
BRANCH   1   2
ATOM      2  C   UNL     1      29.630  17.821  21.163  1.00  0.00     0.228 C 
BRANCH   2   3
ATOM      3  N   UNL     1      30.011  19.228  21.356  1.00  0.00    -0.350 N 
ATOM      4  H   UNL     1      30.382  19.622  20.461  1.00  0.00     0.345 HD
ATOM      5  H   UNL     1      29.168  19.783  21.628  1.00  0.00     0.345 HD
ATOM      6  H   UNL     1      30.735  19.334  22.102  1.00  0.00     0.345 HD
ENDBRANCH   2   3
BRANCH   2   7
ATOM      7  C   UNL     1      29.360  17.521  19.712  1.00  0.00     0.099 C 
ATOM      8  O   UNL     1      28.294  16.939  19.379  1.00  0.00    -0.544 OA
ATOM      9  O   UNL     1      30.254  17.924  18.725  1.00  0.00    -0.544 OA
ENDBRANCH   2   7
ENDBRANCH   1   2
BRANCH   1  10
ATOM     10  C   UNL     1      28.663  16.115  22.896  1.00  0.00     0.076 C 
BRANCH  10  11
ATOM     11  S   UNL     1      27.859  14.665  22.117  1.00  0.00    -0.165 SA
ATOM     12  C   UNL     1      29.341  14.074  21.234  1.00  0.00     0.085 C 
ENDBRANCH  10  11
ENDBRANCH   1  10
TORSDOF 5
ENDMDL
MODEL 3
REMARK VINA RESULT:    -4.137      2.998      3.845
REMARK INTER + INTRA:          -5.307
REMARK INTER:                  -5.094
REMARK INTRA:                  -0.213
REMARK UNBOUND:                -0.082
REMARK SMILES CSCC[C@H]([NH3+])C(=O)[O-]
REMARK SMILES IDX 4 1 5 2 6 3 7 7 8 8 9 9 3 10 2 11 1 12
REMARK H PARENT 6 4 6 5 6 6
REMARK Flexibility Score: inf
ROOT
ATOM      1  C   UNL     1      30.388  16.676  21.359  1.00  0.00     0.082 C 
ENDROOT
BRANCH   1   2
ATOM      2  C   UNL     1      29.371  17.840  21.461  1.00  0.00     0.228 C 
BRANCH   2   3
ATOM      3  N   UNL     1      30.020  19.154  21.349  1.00  0.00    -0.350 N 
ATOM      4  H   UNL     1      29.549  19.839  21.985  1.00  0.00     0.345 HD
ATOM      5  H   UNL     1      31.020  19.075  21.645  1.00  0.00     0.345 HD
ATOM      6  H   UNL     1      29.989  19.520  20.371  1.00  0.00     0.345 HD
ENDBRANCH   2   3
BRANCH   2   7
ATOM      7  C   UNL     1      28.524  17.752  22.704  1.00  0.00     0.099 C 
ATOM      8  O   UNL     1      27.380  17.228  22.648  1.00  0.00    -0.544 OA
ATOM      9  O   UNL     1      29.011  18.198  23.928  1.00  0.00    -0.544 OA
ENDBRANCH   2   7
ENDBRANCH   1   2
BRANCH   1  10
ATOM     10  C   UNL     1      30.293  15.816  20.082  1.00  0.00     0.076 C 
BRANCH  10  11
ATOM     11  S   UNL     1      28.565  15.640  19.497  1.00  0.00    -0.165 SA
ATOM     12  C   UNL     1      28.095  14.333  20.678  1.00  0.00     0.085 C 
ENDBRANCH  10  11
ENDBRANCH   1  10
TORSDOF 5
ENDMDL
MODEL 4
REMARK VINA RESULT:    -4.136      3.456      4.346
REMARK INTER + INTRA:          -5.306
REMARK INTER:                  -5.115
REMARK INTRA:                  -0.191
REMARK UNBOUND:                -0.082
REMARK SMILES CSCC[C@H]([NH3+])C(=O)[O-]
REMARK SMILES IDX 4 1 5 2 6 3 7 7 8 8 9 9 3 10 2 11 1 12
REMARK H PARENT 6 4 6 5 6 6
REMARK Flexibility Score: inf
ROOT
ATOM      1  C   UNL     1      29.156  17.115  22.099  1.00  0.00     0.082 C 
ENDROOT
BRANCH   1   2
ATOM      2  C   UNL     1      27.779  16.413  21.987  1.00  0.00     0.228 C 
BRANCH   2   3
ATOM      3  N   UNL     1      26.799  16.962  22.935  1.00  0.00    -0.350 N 
ATOM      4  H   UNL     1      26.962  16.560  23.887  1.00  0.00     0.345 HD
ATOM      5  H   UNL     1      26.919  17.999  22.999  1.00  0.00     0.345 HD
ATOM      6  H   UNL     1      25.818  16.756  22.640  1.00  0.00     0.345 HD
ENDBRANCH   2   3
BRANCH   2   7
ATOM      7  C   UNL     1      27.889  14.916  22.118  1.00  0.00     0.099 C 
ATOM      8  O   UNL     1      27.606  14.178  21.137  1.00  0.00    -0.544 OA
ATOM      9  O   UNL     1      28.346  14.337  23.297  1.00  0.00    -0.544 OA
ENDBRANCH   2   7
ENDBRANCH   1   2
BRANCH   1  10
ATOM     10  C   UNL     1      29.571  17.969  20.883  1.00  0.00     0.076 C 
BRANCH  10  11
ATOM     11  S   UNL     1      29.509  17.017  19.319  1.00  0.00    -0.165 SA
ATOM     12  C   UNL     1      30.740  15.764  19.806  1.00  0.00     0.085 C 
ENDBRANCH  10  11
ENDBRANCH   1  10
TORSDOF 5
ENDMDL
MODEL 5
REMARK VINA RESULT:    -4.130      2.326      2.574
REMARK INTER + INTRA:          -5.298
REMARK INTER:                  -5.060
REMARK INTRA:                  -0.237
REMARK UNBOUND:                -0.082
REMARK SMILES CSCC[C@H]([NH3+])C(=O)[O-]
REMARK SMILES IDX 4 1 5 2 6 3 7 7 8 8 9 9 3 10 2 11 1 12
REMARK H PARENT 6 4 6 5 6 6
REMARK Flexibility Score: inf
ROOT
ATOM      1  C   UNL     1      29.264  17.991  20.718  1.00  0.00     0.082 C 
ENDROOT
BRANCH   1   2
ATOM      2  C   UNL     1      30.226  17.317  19.707  1.00  0.00     0.228 C 
BRANCH   2   3
ATOM      3  N   UNL     1      30.177  17.958  18.385  1.00  0.00    -0.350 N 
ATOM      4  H   UNL     1      31.149  18.151  18.047  1.00  0.00     0.345 HD
ATOM      5  H   UNL     1      29.720  17.312  17.701  1.00  0.00     0.345 HD
ATOM      6  H   UNL     1      29.640  18.854  18.409  1.00  0.00     0.345 HD
ENDBRANCH   2   3
BRANCH   2   7
ATOM      7  C   UNL     1      29.996  15.831  19.604  1.00  0.00     0.099 C 
ATOM      8  O   UNL     1      30.902  15.031  19.959  1.00  0.00    -0.544 OA
ATOM      9  O   UNL     1      28.776  15.329  19.166  1.00  0.00    -0.544 OA
ENDBRANCH   2   7
ENDBRANCH   1   2
BRANCH   1  10
ATOM     10  C   UNL     1      29.320  17.443  22.159  1.00  0.00     0.076 C 
BRANCH  10  11
ATOM     11  S   UNL     1      27.684  16.854  22.736  1.00  0.00    -0.165 SA
ATOM     12  C   UNL     1      28.082  15.076  22.663  1.00  0.00     0.085 C 
ENDBRANCH  10  11
ENDBRANCH   1  10
TORSDOF 5
ENDMDL
MODEL 6
REMARK VINA RESULT:    -4.099      3.205      3.976
REMARK INTER + INTRA:          -5.259
REMARK INTER:                  -5.101
REMARK INTRA:                  -0.158
REMARK UNBOUND:                -0.082
REMARK SMILES CSCC[C@H]([NH3+])C(=O)[O-]
REMARK SMILES IDX 4 1 5 2 6 3 7 7 8 8 9 9 3 10 2 11 1 12
REMARK H PARENT 6 4 6 5 6 6
REMARK Flexibility Score: inf
ROOT
ATOM      1  C   UNL     1      28.112  16.815  20.687  1.00  0.00     0.082 C 
ENDROOT
BRANCH   1   2
ATOM      2  C   UNL     1      28.161  16.887  22.234  1.00  0.00     0.228 C 
BRANCH   2   3
ATOM      3  N   UNL     1      26.819  16.989  22.826  1.00  0.00    -0.350 N 
ATOM      4  H   UNL     1      26.582  17.994  23.000  1.00  0.00     0.345 HD
ATOM      5  H   UNL     1      26.113  16.603  22.159  1.00  0.00     0.345 HD
ATOM      6  H   UNL     1      26.752  16.462  23.726  1.00  0.00     0.345 HD
ENDBRANCH   2   3
BRANCH   2   7
ATOM      7  C   UNL     1      29.062  17.990  22.726  1.00  0.00     0.099 C 
ATOM      8  O   UNL     1      29.723  18.674  21.902  1.00  0.00    -0.544 OA
ATOM      9  O   UNL     1      29.136  18.295  24.081  1.00  0.00    -0.544 OA
ENDBRANCH   2   7
ENDBRANCH   1   2
BRANCH   1  10
ATOM     10  C   UNL     1      28.175  15.398  20.082  1.00  0.00     0.076 C 
BRANCH  10  11
ATOM     11  S   UNL     1      29.352  14.318  20.978  1.00  0.00    -0.165 SA
ATOM     12  C   UNL     1      30.865  15.067  20.289  1.00  0.00     0.085 C 
ENDBRANCH  10  11
ENDBRANCH   1  10
TORSDOF 5
ENDMDL
MODEL 7
REMARK VINA RESULT:    -4.092      3.640      4.746
REMARK INTER + INTRA:          -5.250
REMARK INTER:                  -5.195
REMARK INTRA:                  -0.054
REMARK UNBOUND:                -0.082
REMARK SMILES CSCC[C@H]([NH3+])C(=O)[O-]
REMARK SMILES IDX 4 1 5 2 6 3 7 7 8 8 9 9 3 10 2 11 1 12
REMARK H PARENT 6 4 6 5 6 6
REMARK Flexibility Score: inf
ROOT
ATOM      1  C   UNL     1      28.885  17.610  21.780  1.00  0.00     0.082 C 
ENDROOT
BRANCH   1   2
ATOM      2  C   UNL     1      28.226  16.834  22.948  1.00  0.00     0.228 C 
BRANCH   2   3
ATOM      3  N   UNL     1      26.759  16.902  22.900  1.00  0.00    -0.350 N 
ATOM      4  H   UNL     1      26.354  16.471  23.764  1.00  0.00     0.345 HD
ATOM      5  H   UNL     1      26.457  17.903  22.868  1.00  0.00     0.345 HD
ATOM      6  H   UNL     1      26.376  16.411  22.062  1.00  0.00     0.345 HD
ENDBRANCH   2   3
BRANCH   2   7
ATOM      7  C   UNL     1      28.751  17.270  24.292  1.00  0.00     0.099 C 
ATOM      8  O   UNL     1      28.596  16.528  25.297  1.00  0.00    -0.544 OA
ATOM      9  O   UNL     1      29.450  18.465  24.428  1.00  0.00    -0.544 OA
ENDBRANCH   2   7
ENDBRANCH   1   2
BRANCH   1  10
ATOM     10  C   UNL     1      28.439  17.192  20.365  1.00  0.00     0.076 C 
BRANCH  10  11
ATOM     11  S   UNL     1      29.794  17.343  19.141  1.00  0.00    -0.165 SA
ATOM     12  C   UNL     1      30.719  15.873  19.694  1.00  0.00     0.085 C 
ENDBRANCH  10  11
ENDBRANCH   1  10
TORSDOF 5
ENDMDL
MODEL 8
REMARK VINA RESULT:    -4.081      3.330      4.014
REMARK INTER + INTRA:          -5.236
REMARK INTER:                  -5.066
REMARK INTRA:                  -0.170
REMARK UNBOUND:                -0.082
REMARK SMILES CSCC[C@H]([NH3+])C(=O)[O-]
REMARK SMILES IDX 4 1 5 2 6 3 7 7 8 8 9 9 3 10 2 11 1 12
REMARK H PARENT 6 4 6 5 6 6
REMARK Flexibility Score: inf
ROOT
ATOM      1  C   UNL     1      28.122  16.873  20.611  1.00  0.00     0.082 C 
ENDROOT
BRANCH   1   2
ATOM      2  C   UNL     1      28.173  16.901  22.160  1.00  0.00     0.228 C 
BRANCH   2   3
ATOM      3  N   UNL     1      26.830  16.936  22.758  1.00  0.00    -0.350 N 
ATOM      4  H   UNL     1      26.268  17.705  22.324  1.00  0.00     0.345 HD
ATOM      5  H   UNL     1      26.341  16.032  22.569  1.00  0.00     0.345 HD
ATOM      6  H   UNL     1      26.871  17.084  23.791  1.00  0.00     0.345 HD
ENDBRANCH   2   3
BRANCH   2   7
ATOM      7  C   UNL     1      29.035  18.020  22.684  1.00  0.00     0.099 C 
ATOM      8  O   UNL     1      29.081  18.250  23.921  1.00  0.00    -0.544 OA
ATOM      9  O   UNL     1      29.823  18.774  21.820  1.00  0.00    -0.544 OA
ENDBRANCH   2   7
ENDBRANCH   1   2
BRANCH   1  10
ATOM     10  C   UNL     1      28.856  15.695  19.940  1.00  0.00     0.076 C 
BRANCH  10  11
ATOM     11  S   UNL     1      28.945  14.226  21.032  1.00  0.00    -0.165 SA
ATOM     12  C   UNL     1      27.370  13.485  20.489  1.00  0.00     0.085 C 
ENDBRANCH  10  11
ENDBRANCH   1  10
TORSDOF 5
ENDMDL
MODEL 9
REMARK VINA RESULT:    -4.051      3.326      4.316
REMARK INTER + INTRA:          -5.198
REMARK INTER:                  -5.064
REMARK INTRA:                  -0.134
REMARK UNBOUND:                -0.082
REMARK SMILES CSCC[C@H]([NH3+])C(=O)[O-]
REMARK SMILES IDX 4 1 5 2 6 3 7 7 8 8 9 9 3 10 2 11 1 12
REMARK H PARENT 6 4 6 5 6 6
REMARK Flexibility Score: inf
ROOT
ATOM      1  C   UNL     1      30.363  17.009  21.814  1.00  0.00     0.082 C 
ENDROOT
BRANCH   1   2
ATOM      2  C   UNL     1      29.663  18.243  22.438  1.00  0.00     0.228 C 
BRANCH   2   3
ATOM      3  N   UNL     1      30.365  19.495  22.124  1.00  0.00    -0.350 N 
ATOM      4  H   UNL     1      31.346  19.288  21.822  1.00  0.00     0.345 HD
ATOM      5  H   UNL     1      29.880  19.977  21.332  1.00  0.00     0.345 HD
ATOM      6  H   UNL     1      30.389  20.142  22.944  1.00  0.00     0.345 HD
ENDBRANCH   2   3
BRANCH   2   7
ATOM      7  C   UNL     1      29.455  18.090  23.923  1.00  0.00     0.099 C 
ATOM      8  O   UNL     1      29.663  19.067  24.689  1.00  0.00    -0.544 OA
ATOM      9  O   UNL     1      28.987  16.894  24.455  1.00  0.00    -0.544 OA
ENDBRANCH   2   7
ENDBRANCH   1   2
BRANCH   1  10
ATOM     10  C   UNL     1      29.438  16.021  21.074  1.00  0.00     0.076 C 
BRANCH  10  11
ATOM     11  S   UNL     1      28.469  16.841  19.753  1.00  0.00    -0.165 SA
ATOM     12  C   UNL     1      29.899  17.557  18.880  1.00  0.00     0.085 C 
ENDBRANCH  10  11
ENDBRANCH   1  10
TORSDOF 5
ENDMDL
