MODEL 1
REMARK VINA RESULT:    -1.967      0.000      0.000
REMARK INTER + INTRA:          -2.628
REMARK INTER:                  -2.312
REMARK INTRA:                  -0.316
REMARK UNBOUND:                -0.316
REMARK SMILES O=c1c(O)c(-c2ccc(O)c(O)c2)oc2cc(O)ccc12
REMARK SMILES IDX 5 1 3 2 2 3 1 4 21 5 15 6 14 7 16 8 17 9 19 10 20 11 6 12
REMARK SMILES IDX 7 13 8 14 9 15 13 16 11 17 10 18 12 20 4 22 18 24
REMARK H PARENT 10 19 12 21 4 23 18 25
REMARK Flexibility Score: inf
ROOT
ATOM      1  C   UNL     1      75.769  21.715  -8.213  1.00  0.00     0.180 A 
ATOM      2  C   UNL     1      75.591  22.576  -9.315  1.00  0.00     0.208 A 
ATOM      3  C   UNL     1      76.611  23.486  -9.636  1.00  0.00     0.235 A 
ATOM      4  O   UNL     1      76.471  24.273 -10.612  1.00  0.00    -0.285 OA
ATOM      5  C   UNL     1      77.785  23.504  -8.867  1.00  0.00     0.069 A 
ATOM      6  C   UNL     1      77.896  22.594  -7.793  1.00  0.00     0.142 A 
ATOM      7  O   UNL     1      76.905  21.755  -7.519  1.00  0.00    -0.452 OA
ATOM      8  C   UNL     1      79.056  22.574  -7.010  1.00  0.00     0.094 A 
ATOM      9  C   UNL     1      80.108  23.455  -7.284  1.00  0.00     0.119 A 
ATOM     10  C   UNL     1      80.000  24.361  -8.348  1.00  0.00     0.047 A 
ATOM     11  C   UNL     1      78.846  24.387  -9.138  1.00  0.00     0.020 A 
ENDROOT
BRANCH   1  12
ATOM     12  C   UNL     1      74.733  20.741  -7.801  1.00  0.00     0.025 A 
ATOM     13  C   UNL     1      74.724  19.459  -8.373  1.00  0.00     0.016 A 
ATOM     14  C   UNL     1      73.768  18.517  -7.984  1.00  0.00     0.051 A 
ATOM     15  C   UNL     1      72.818  18.835  -7.009  1.00  0.00     0.157 A 
ATOM     16  C   UNL     1      73.790  21.052  -6.804  1.00  0.00     0.062 A 
ATOM     17  C   UNL     1      72.831  20.107  -6.411  1.00  0.00     0.158 A 
BRANCH  15  18
ATOM     18  O   UNL     1      71.875  17.875  -6.643  1.00  0.00    -0.504 OA
ATOM     19  H   UNL     1      71.109  18.085  -6.016  1.00  0.00     0.293 HD
ENDBRANCH  15  18
BRANCH  17  20
ATOM     20  O   UNL     1      71.896  20.424  -5.428  1.00  0.00    -0.504 OA
ATOM     21  H   UNL     1      71.851  21.350  -5.017  1.00  0.00     0.293 HD
ENDBRANCH  17  20
ENDBRANCH   1  12
BRANCH   2  22
ATOM     22  O   UNL     1      74.432  22.501 -10.093  1.00  0.00    -0.502 OA
ATOM     23  H   UNL     1      73.598  22.020  -9.777  1.00  0.00     0.293 HD
ENDBRANCH   2  22
BRANCH   9  24
ATOM     24  O   UNL     1      81.254  23.422  -6.494  1.00  0.00    -0.508 OA
ATOM     25  H   UNL     1      81.682  24.272  -6.145  1.00  0.00     0.293 HD
ENDBRANCH   9  24
TORSDOF 5
ENDMDL
