MODEL 1
REMARK VINA RESULT:    33.246      0.000      0.000
REMARK INTER + INTRA:          34.218
REMARK INTER:                  34.218
REMARK INTRA:                   0.000
REMARK UNBOUND:                 0.000
REMARK SMILES CC1(C)CC[C@]2(C)CC[C@]3(C)C(=CC[C@@H]4[C@]5(C)CC[C@H](O)C(C)(C)[C@H]5CC[C@@]43C)[C@H]2C1
REMARK SMILES IDX 1 1 2 2 4 3 5 4 6 5 8 6 9 7 10 8 12 9 13 10 14 11 15 12
REMARK SMILES IDX 28 13 27 14 26 15 25 16 16 17 18 18 19 19 20 20 22 21 23 22
REMARK SMILES IDX 24 23 17 24 29 25 30 26 31 27 11 28 7 29 3 30 21 31
REMARK H PARENT 21 32
REMARK Flexibility Score: inf
ROOT
ATOM      1  C   UNL     1      12.541  18.124  22.533  1.00  0.00     0.011 C 
ATOM      2  C   UNL     1      11.708  16.962  23.133  1.00  0.00    -0.035 C 
ATOM      3  C   UNL     1      10.492  17.526  23.927  1.00  0.00     0.007 C 
ATOM      4  C   UNL     1      10.872  18.125  25.298  1.00  0.00     0.008 C 
ATOM      5  C   UNL     1      11.691  17.151  26.188  1.00  0.00    -0.026 C 
ATOM      6  C   UNL     1      12.131  17.873  27.513  1.00  0.00     0.008 C 
ATOM      7  C   UNL     1      13.663  18.089  27.679  1.00  0.00     0.012 C 
ATOM      8  C   UNL     1      14.588  16.824  27.385  1.00  0.00    -0.006 C 
ATOM      9  C   UNL     1      13.895  15.976  26.325  1.00  0.00    -0.064 C 
ATOM     10  C   UNL     1      14.088  14.658  26.237  1.00  0.00    -0.027 C 
ATOM     11  C   UNL     1      14.919  13.856  27.183  1.00  0.00     0.032 C 
ATOM     12  C   UNL     1      15.658  14.599  28.347  1.00  0.00     0.006 C 
ATOM     13  C   UNL     1      14.962  15.988  28.716  1.00  0.00    -0.020 C 
ATOM     14  C   UNL     1      13.686  15.672  29.546  1.00  0.00     0.008 C 
ATOM     15  C   UNL     1      13.920  14.771  30.766  1.00  0.00     0.005 C 
ATOM     16  C   UNL     1      14.597  13.427  30.417  1.00  0.00     0.003 C 
ATOM     17  C   UNL     1      15.935  13.615  29.599  1.00  0.00    -0.025 C 
ATOM     18  C   UNL     1      16.454  12.196  29.115  1.00  0.00     0.010 C 
ATOM     19  C   UNL     1      16.013  10.993  29.989  1.00  0.00     0.033 C 
ATOM     20  C   UNL     1      15.798  11.359  31.467  1.00  0.00     0.120 C 
ATOM     21  C   UNL     1      14.657  12.417  31.652  1.00  0.00    -0.006 C 
ATOM     22  C   UNL     1      14.892  13.127  33.014  1.00  0.00     0.014 C 
ATOM     23  C   UNL     1      13.280  11.700  31.757  1.00  0.00     0.014 C 
ATOM     24  C   UNL     1      17.082  14.210  30.486  1.00  0.00     0.012 C 
ATOM     25  C   UNL     1      15.927  16.882  29.575  1.00  0.00     0.012 C 
ATOM     26  C   UNL     1      12.940  16.709  25.388  1.00  0.00     0.022 C 
ATOM     27  C   UNL     1      12.594  16.045  24.034  1.00  0.00     0.015 C 
ATOM     28  C   UNL     1      15.887  17.343  26.695  1.00  0.00     0.017 C 
ATOM     29  C   UNL     1      10.807  15.931  26.575  1.00  0.00     0.012 C 
ATOM     30  C   UNL     1      11.172  16.120  21.958  1.00  0.00     0.011 C 
ENDROOT
BRANCH  20  31
ATOM     31  O   UNL     1      15.578  10.200  32.249  1.00  0.00    -0.393 OA
ATOM     32  H   UNL     1      16.274  10.150  32.957  1.00  0.00     0.210 HD
ENDBRANCH  20  31
TORSDOF 1
ENDMDL
