MODEL 1
REMARK VINA RESULT:    -5.327      0.000      0.000
REMARK INTER + INTRA:          -6.701
REMARK INTER:                  -6.417
REMARK INTRA:                  -0.284
REMARK UNBOUND:                -0.284
REMARK SMILES Oc1cc(O)c2cc(O)c(-c3ccc(O)c(O)c3)[o+]c2c1
REMARK SMILES IDX 10 1 19 2 20 3 21 4 2 5 3 6 4 7 6 8 7 9 8 10 11 11 12 12
REMARK SMILES IDX 13 13 14 14 18 15 16 16 15 17 17 19 9 21 1 23 5 25
REMARK H PARENT 15 18 17 20 9 22 1 24 5 26
REMARK Flexibility Score: inf
ROOT
ATOM      1  C   UNL     1      43.496  18.286  -3.021  1.00  0.00     0.402 A 
ATOM      2  O   UNL     1      43.928  17.156  -2.467  1.00  0.00    -0.202 OA
ATOM      3  C   UNL     1      44.827  16.361  -3.038  1.00  0.00     0.368 A 
ATOM      4  C   UNL     1      45.216  15.191  -2.380  1.00  0.00     0.162 A 
ATOM      5  C   UNL     1      46.156  14.336  -2.957  1.00  0.00     0.128 A 
ATOM      6  C   UNL     1      46.710  14.650  -4.203  1.00  0.00     0.093 A 
ATOM      7  C   UNL     1      46.336  15.815  -4.884  1.00  0.00     0.136 A 
ATOM      8  C   UNL     1      45.383  16.689  -4.298  1.00  0.00     0.125 A 
ATOM      9  C   UNL     1      44.959  17.884  -4.901  1.00  0.00     0.078 A 
ATOM     10  C   UNL     1      44.020  18.697  -4.261  1.00  0.00     0.223 A 
ENDROOT
BRANCH   1  11
ATOM     11  C   UNL     1      42.484  19.082  -2.289  1.00  0.00     0.087 A 
ATOM     12  C   UNL     1      42.879  20.247  -1.614  1.00  0.00     0.022 A 
ATOM     13  C   UNL     1      41.945  21.003  -0.901  1.00  0.00     0.051 A 
ATOM     14  C   UNL     1      40.608  20.599  -0.839  1.00  0.00     0.157 A 
ATOM     15  C   UNL     1      41.143  18.666  -2.209  1.00  0.00     0.068 A 
ATOM     16  C   UNL     1      40.204  19.422  -1.492  1.00  0.00     0.158 A 
BRANCH  14  17
ATOM     17  O   UNL     1      39.698  21.375  -0.122  1.00  0.00    -0.504 OA
ATOM     18  H   UNL     1      39.700  21.407   0.891  1.00  0.00     0.293 HD
ENDBRANCH  14  17
BRANCH  16  19
ATOM     19  O   UNL     1      38.875  19.006  -1.422  1.00  0.00    -0.504 OA
ATOM     20  H   UNL     1      38.605  18.055  -1.643  1.00  0.00     0.293 HD
ENDBRANCH  16  19
ENDBRANCH   1  11
BRANCH  10  21
ATOM     21  O   UNL     1      43.636  19.909  -4.835  1.00  0.00    -0.500 OA
ATOM     22  H   UNL     1      42.730  20.322  -4.651  1.00  0.00     0.294 HD
ENDBRANCH  10  21
BRANCH   5  23
ATOM     23  O   UNL     1      46.532  13.175  -2.285  1.00  0.00    -0.507 OA
ATOM     24  H   UNL     1      46.089  12.284  -2.476  1.00  0.00     0.293 HD
ENDBRANCH   5  23
BRANCH   7  25
ATOM     25  O   UNL     1      46.933  16.055  -6.125  1.00  0.00    -0.507 OA
ATOM     26  H   UNL     1      47.090  16.973  -6.514  1.00  0.00     0.293 HD
ENDBRANCH   7  25
TORSDOF 6
ENDMDL
MODEL 2
REMARK VINA RESULT:    -5.253      2.409      4.627
REMARK INTER + INTRA:          -6.612
REMARK INTER:                  -6.521
REMARK INTRA:                  -0.091
REMARK UNBOUND:                -0.284
REMARK SMILES Oc1cc(O)c2cc(O)c(-c3ccc(O)c(O)c3)[o+]c2c1
REMARK SMILES IDX 10 1 19 2 20 3 21 4 2 5 3 6 4 7 6 8 7 9 8 10 11 11 12 12
REMARK SMILES IDX 13 13 14 14 18 15 16 16 15 17 17 19 9 21 1 23 5 25
REMARK H PARENT 15 18 17 20 9 22 1 24 5 26
REMARK Flexibility Score: inf
ROOT
ATOM      1  C   UNL     1      46.209  15.937  -3.761  1.00  0.00     0.402 A 
ATOM      2  O   UNL     1      47.416  16.296  -4.192  1.00  0.00    -0.202 OA
ATOM      3  C   UNL     1      48.468  15.484  -4.174  1.00  0.00     0.368 A 
ATOM      4  C   UNL     1      49.697  15.953  -4.644  1.00  0.00     0.162 A 
ATOM      5  C   UNL     1      50.819  15.124  -4.635  1.00  0.00     0.128 A 
ATOM      6  C   UNL     1      50.714  13.815  -4.150  1.00  0.00     0.093 A 
ATOM      7  C   UNL     1      49.494  13.321  -3.672  1.00  0.00     0.136 A 
ATOM      8  C   UNL     1      48.350  14.161  -3.683  1.00  0.00     0.125 A 
ATOM      9  C   UNL     1      47.084  13.747  -3.236  1.00  0.00     0.078 A 
ATOM     10  C   UNL     1      46.002  14.630  -3.283  1.00  0.00     0.223 A 
ENDROOT
BRANCH   1  11
ATOM     11  C   UNL     1      45.118  16.936  -3.824  1.00  0.00     0.087 A 
ATOM     12  C   UNL     1      44.898  17.644  -5.016  1.00  0.00     0.022 A 
ATOM     13  C   UNL     1      43.887  18.606  -5.092  1.00  0.00     0.051 A 
ATOM     14  C   UNL     1      43.092  18.885  -3.976  1.00  0.00     0.157 A 
ATOM     15  C   UNL     1      44.331  17.234  -2.696  1.00  0.00     0.068 A 
ATOM     16  C   UNL     1      43.317  18.200  -2.770  1.00  0.00     0.158 A 
BRANCH  14  17
ATOM     17  O   UNL     1      42.090  19.848  -4.083  1.00  0.00    -0.504 OA
ATOM     18  H   UNL     1      41.270  19.840  -3.488  1.00  0.00     0.293 HD
ENDBRANCH  14  17
BRANCH  16  19
ATOM     19  O   UNL     1      42.537  18.485  -1.650  1.00  0.00    -0.504 OA
ATOM     20  H   UNL     1      42.645  17.970  -0.785  1.00  0.00     0.293 HD
ENDBRANCH  16  19
ENDBRANCH   1  11
BRANCH  10  21
ATOM     21  O   UNL     1      44.734  14.204  -2.886  1.00  0.00    -0.500 OA
ATOM     22  H   UNL     1      44.604  13.576  -2.102  1.00  0.00     0.294 HD
ENDBRANCH  10  21
BRANCH   5  23
ATOM     23  O   UNL     1      52.036  15.609  -5.109  1.00  0.00    -0.507 OA
ATOM     24  H   UNL     1      52.449  15.260  -5.965  1.00  0.00     0.293 HD
ENDBRANCH   5  23
BRANCH   7  25
ATOM     25  O   UNL     1      49.472  12.005  -3.201  1.00  0.00    -0.507 OA
ATOM     26  H   UNL     1      48.913  11.266  -3.600  1.00  0.00     0.293 HD
ENDBRANCH   7  25
TORSDOF 6
ENDMDL
MODEL 3
REMARK VINA RESULT:    -5.140      2.388      3.369
REMARK INTER + INTRA:          -6.476
REMARK INTER:                  -6.127
REMARK INTRA:                  -0.349
REMARK UNBOUND:                -0.284
REMARK SMILES Oc1cc(O)c2cc(O)c(-c3ccc(O)c(O)c3)[o+]c2c1
REMARK SMILES IDX 10 1 19 2 20 3 21 4 2 5 3 6 4 7 6 8 7 9 8 10 11 11 12 12
REMARK SMILES IDX 13 13 14 14 18 15 16 16 15 17 17 19 9 21 1 23 5 25
REMARK H PARENT 15 18 17 20 9 22 1 24 5 26
REMARK Flexibility Score: inf
ROOT
ATOM      1  C   UNL     1      45.172  16.275  -3.744  1.00  0.00     0.402 A 
ATOM      2  O   UNL     1      45.885  15.240  -3.304  1.00  0.00    -0.202 OA
ATOM      3  C   UNL     1      47.143  15.015  -3.669  1.00  0.00     0.368 A 
ATOM      4  C   UNL     1      47.809  13.899  -3.156  1.00  0.00     0.162 A 
ATOM      5  C   UNL     1      49.130  13.635  -3.524  1.00  0.00     0.128 A 
ATOM      6  C   UNL     1      49.790  14.492  -4.411  1.00  0.00     0.093 A 
ATOM      7  C   UNL     1      49.144  15.617  -4.940  1.00  0.00     0.136 A 
ATOM      8  C   UNL     1      47.802  15.889  -4.566  1.00  0.00     0.125 A 
ATOM      9  C   UNL     1      47.081  17.000  -5.035  1.00  0.00     0.078 A 
ATOM     10  C   UNL     1      45.764  17.206  -4.618  1.00  0.00     0.223 A 
ENDROOT
BRANCH   1  11
ATOM     11  C   UNL     1      43.775  16.412  -3.272  1.00  0.00     0.087 A 
ATOM     12  C   UNL     1      42.734  15.843  -4.022  1.00  0.00     0.022 A 
ATOM     13  C   UNL     1      41.407  15.977  -3.608  1.00  0.00     0.051 A 
ATOM     14  C   UNL     1      41.098  16.693  -2.446  1.00  0.00     0.157 A 
ATOM     15  C   UNL     1      43.461  17.149  -2.116  1.00  0.00     0.068 A 
ATOM     16  C   UNL     1      42.129  17.287  -1.699  1.00  0.00     0.158 A 
BRANCH  14  17
ATOM     17  O   UNL     1      39.765  16.808  -2.056  1.00  0.00    -0.504 OA
ATOM     18  H   UNL     1      39.265  16.043  -1.618  1.00  0.00     0.293 HD
ENDBRANCH  14  17
BRANCH  16  19
ATOM     19  O   UNL     1      41.827  18.013  -0.547  1.00  0.00    -0.504 OA
ATOM     20  H   UNL     1      41.331  17.594   0.229  1.00  0.00     0.293 HD
ENDBRANCH  16  19
ENDBRANCH   1  11
BRANCH  10  21
ATOM     21  O   UNL     1      45.063  18.335  -5.043  1.00  0.00    -0.500 OA
ATOM     22  H   UNL     1      45.538  19.141  -5.431  1.00  0.00     0.294 HD
ENDBRANCH  10  21
BRANCH   5  23
ATOM     23  O   UNL     1      49.777  12.518  -3.001  1.00  0.00    -0.507 OA
ATOM     24  H   UNL     1      50.758  12.340  -3.182  1.00  0.00     0.293 HD
ENDBRANCH   5  23
BRANCH   7  25
ATOM     25  O   UNL     1      49.871  16.421  -5.822  1.00  0.00    -0.507 OA
ATOM     26  H   UNL     1      49.956  17.424  -5.742  1.00  0.00     0.293 HD
ENDBRANCH   7  25
TORSDOF 6
ENDMDL
MODEL 4
REMARK VINA RESULT:    -5.133      2.542      7.264
REMARK INTER + INTRA:          -6.467
REMARK INTER:                  -6.852
REMARK INTRA:                   0.385
REMARK UNBOUND:                -0.284
REMARK SMILES Oc1cc(O)c2cc(O)c(-c3ccc(O)c(O)c3)[o+]c2c1
REMARK SMILES IDX 10 1 19 2 20 3 21 4 2 5 3 6 4 7 6 8 7 9 8 10 11 11 12 12
REMARK SMILES IDX 13 13 14 14 18 15 16 16 15 17 17 19 9 21 1 23 5 25
REMARK H PARENT 15 18 17 20 9 22 1 24 5 26
REMARK Flexibility Score: inf
ROOT
ATOM      1  C   UNL     1      46.458  16.375  -4.214  1.00  0.00     0.402 A 
ATOM      2  O   UNL     1      45.550  15.979  -3.326  1.00  0.00    -0.202 OA
ATOM      3  C   UNL     1      44.334  16.507  -3.242  1.00  0.00     0.368 A 
ATOM      4  C   UNL     1      43.450  16.026  -2.272  1.00  0.00     0.162 A 
ATOM      5  C   UNL     1      42.167  16.564  -2.158  1.00  0.00     0.128 A 
ATOM      6  C   UNL     1      41.763  17.591  -3.019  1.00  0.00     0.093 A 
ATOM      7  C   UNL     1      42.630  18.091  -3.999  1.00  0.00     0.136 A 
ATOM      8  C   UNL     1      43.935  17.544  -4.119  1.00  0.00     0.125 A 
ATOM      9  C   UNL     1      44.866  17.974  -5.079  1.00  0.00     0.078 A 
ATOM     10  C   UNL     1      46.131  17.384  -5.140  1.00  0.00     0.223 A 
ENDROOT
BRANCH   1  11
ATOM     11  C   UNL     1      47.784  15.715  -4.202  1.00  0.00     0.087 A 
ATOM     12  C   UNL     1      48.871  16.339  -4.834  1.00  0.00     0.022 A 
ATOM     13  C   UNL     1      50.126  15.726  -4.853  1.00  0.00     0.051 A 
ATOM     14  C   UNL     1      50.311  14.476  -4.253  1.00  0.00     0.157 A 
ATOM     15  C   UNL     1      47.967  14.449  -3.617  1.00  0.00     0.068 A 
ATOM     16  C   UNL     1      49.226  13.831  -3.636  1.00  0.00     0.158 A 
BRANCH  14  17
ATOM     17  O   UNL     1      51.576  13.890  -4.285  1.00  0.00    -0.504 OA
ATOM     18  H   UNL     1      51.728  12.924  -4.021  1.00  0.00     0.293 HD
ENDBRANCH  14  17
BRANCH  16  19
ATOM     19  O   UNL     1      49.401  12.579  -3.049  1.00  0.00    -0.504 OA
ATOM     20  H   UNL     1      48.630  11.930  -2.946  1.00  0.00     0.293 HD
ENDBRANCH  16  19
ENDBRANCH   1  11
BRANCH  10  21
ATOM     21  O   UNL     1      47.039  17.774  -6.125  1.00  0.00    -0.500 OA
ATOM     22  H   UNL     1      47.106  18.736  -6.436  1.00  0.00     0.294 HD
ENDBRANCH  10  21
BRANCH   5  23
ATOM     23  O   UNL     1      41.299  16.071  -1.186  1.00  0.00    -0.507 OA
ATOM     24  H   UNL     1      40.724  16.688  -0.626  1.00  0.00     0.293 HD
ENDBRANCH   5  23
BRANCH   7  25
ATOM     25  O   UNL     1      42.154  19.119  -4.816  1.00  0.00    -0.507 OA
ATOM     26  H   UNL     1      42.137  19.085  -5.825  1.00  0.00     0.293 HD
ENDBRANCH   7  25
TORSDOF 6
ENDMDL
MODEL 5
REMARK VINA RESULT:    -4.918      2.238      7.462
REMARK INTER + INTRA:          -6.208
REMARK INTER:                  -6.470
REMARK INTRA:                   0.262
REMARK UNBOUND:                -0.284
REMARK SMILES Oc1cc(O)c2cc(O)c(-c3ccc(O)c(O)c3)[o+]c2c1
REMARK SMILES IDX 10 1 19 2 20 3 21 4 2 5 3 6 4 7 6 8 7 9 8 10 11 11 12 12
REMARK SMILES IDX 13 13 14 14 18 15 16 16 15 17 17 19 9 21 1 23 5 25
REMARK H PARENT 15 18 17 20 9 22 1 24 5 26
REMARK Flexibility Score: inf
ROOT
ATOM      1  C   UNL     1      45.829  16.278  -3.538  1.00  0.00     0.402 A 
ATOM      2  O   UNL     1      45.197  17.450  -3.536  1.00  0.00    -0.202 OA
ATOM      3  C   UNL     1      43.981  17.622  -3.027  1.00  0.00     0.368 A 
ATOM      4  C   UNL     1      43.397  18.890  -3.075  1.00  0.00     0.162 A 
ATOM      5  C   UNL     1      42.121  19.100  -2.551  1.00  0.00     0.128 A 
ATOM      6  C   UNL     1      41.421  18.033  -1.975  1.00  0.00     0.093 A 
ATOM      7  C   UNL     1      41.984  16.752  -1.915  1.00  0.00     0.136 A 
ATOM      8  C   UNL     1      43.283  16.537  -2.445  1.00  0.00     0.125 A 
ATOM      9  C   UNL     1      43.930  15.290  -2.417  1.00  0.00     0.078 A 
ATOM     10  C   UNL     1      45.214  15.156  -2.953  1.00  0.00     0.223 A 
ENDROOT
BRANCH   1  11
ATOM     11  C   UNL     1      47.178  16.212  -4.145  1.00  0.00     0.087 A 
ATOM     12  C   UNL     1      47.496  17.065  -5.213  1.00  0.00     0.022 A 
ATOM     13  C   UNL     1      48.756  17.006  -5.815  1.00  0.00     0.051 A 
ATOM     14  C   UNL     1      49.711  16.087  -5.368  1.00  0.00     0.157 A 
ATOM     15  C   UNL     1      48.132  15.274  -3.710  1.00  0.00     0.068 A 
ATOM     16  C   UNL     1      49.396  15.213  -4.314  1.00  0.00     0.158 A 
BRANCH  14  17
ATOM     17  O   UNL     1      50.960  16.054  -5.986  1.00  0.00    -0.504 OA
ATOM     18  H   UNL     1      51.546  15.227  -5.970  1.00  0.00     0.293 HD
ENDBRANCH  14  17
BRANCH  16  19
ATOM     19  O   UNL     1      50.339  14.284  -3.873  1.00  0.00    -0.504 OA
ATOM     20  H   UNL     1      51.000  14.508  -3.140  1.00  0.00     0.293 HD
ENDBRANCH  16  19
ENDBRANCH   1  11
BRANCH  10  21
ATOM     21  O   UNL     1      45.878  13.931  -2.881  1.00  0.00    -0.500 OA
ATOM     22  H   UNL     1      45.437  13.068  -3.177  1.00  0.00     0.294 HD
ENDBRANCH  10  21
BRANCH   5  23
ATOM     23  O   UNL     1      41.556  20.372  -2.608  1.00  0.00    -0.507 OA
ATOM     24  H   UNL     1      41.654  21.030  -1.845  1.00  0.00     0.293 HD
ENDBRANCH   5  23
BRANCH   7  25
ATOM     25  O   UNL     1      41.219  15.740  -1.328  1.00  0.00    -0.507 OA
ATOM     26  H   UNL     1      40.906  14.910  -1.809  1.00  0.00     0.293 HD
ENDBRANCH   7  25
TORSDOF 6
ENDMDL
MODEL 6
REMARK VINA RESULT:    -4.914      1.570      7.041
REMARK INTER + INTRA:          -6.203
REMARK INTER:                  -5.886
REMARK INTRA:                  -0.317
REMARK UNBOUND:                -0.284
REMARK SMILES Oc1cc(O)c2cc(O)c(-c3ccc(O)c(O)c3)[o+]c2c1
REMARK SMILES IDX 10 1 19 2 20 3 21 4 2 5 3 6 4 7 6 8 7 9 8 10 11 11 12 12
REMARK SMILES IDX 13 13 14 14 18 15 16 16 15 17 17 19 9 21 1 23 5 25
REMARK H PARENT 15 18 17 20 9 22 1 24 5 26
REMARK Flexibility Score: inf
ROOT
ATOM      1  C   UNL     1      43.858  17.495  -3.717  1.00  0.00     0.402 A 
ATOM      2  O   UNL     1      43.675  18.610  -3.013  1.00  0.00    -0.202 OA
ATOM      3  C   UNL     1      42.517  18.933  -2.447  1.00  0.00     0.368 A 
ATOM      4  C   UNL     1      42.421  20.128  -1.730  1.00  0.00     0.162 A 
ATOM      5  C   UNL     1      41.216  20.496  -1.128  1.00  0.00     0.128 A 
ATOM      6  C   UNL     1      40.097  19.663  -1.245  1.00  0.00     0.093 A 
ATOM      7  C   UNL     1      40.167  18.460  -1.959  1.00  0.00     0.136 A 
ATOM      8  C   UNL     1      41.391  18.083  -2.570  1.00  0.00     0.125 A 
ATOM      9  C   UNL     1      41.557  16.890  -3.293  1.00  0.00     0.078 A 
ATOM     10  C   UNL     1      42.796  16.583  -3.863  1.00  0.00     0.223 A 
ENDROOT
BRANCH   1  11
ATOM     11  C   UNL     1      45.194  17.251  -4.306  1.00  0.00     0.087 A 
ATOM     12  C   UNL     1      45.534  17.863  -5.523  1.00  0.00     0.022 A 
ATOM     13  C   UNL     1      46.781  17.632  -6.108  1.00  0.00     0.051 A 
ATOM     14  C   UNL     1      47.701  16.776  -5.495  1.00  0.00     0.157 A 
ATOM     15  C   UNL     1      46.113  16.374  -3.702  1.00  0.00     0.068 A 
ATOM     16  C   UNL     1      47.365  16.139  -4.289  1.00  0.00     0.158 A 
BRANCH  14  17
ATOM     17  O   UNL     1      48.939  16.567  -6.102  1.00  0.00    -0.504 OA
ATOM     18  H   UNL     1      49.210  15.664  -6.473  1.00  0.00     0.293 HD
ENDBRANCH  14  17
BRANCH  16  19
ATOM     19  O   UNL     1      48.273  15.273  -3.680  1.00  0.00    -0.504 OA
ATOM     20  H   UNL     1      48.097  14.278  -3.620  1.00  0.00     0.293 HD
ENDBRANCH  16  19
ENDBRANCH   1  11
BRANCH  10  21
ATOM     21  O   UNL     1      42.975  15.376  -4.539  1.00  0.00    -0.500 OA
ATOM     22  H   UNL     1      43.563  15.308  -5.361  1.00  0.00     0.294 HD
ENDBRANCH  10  21
BRANCH   5  23
ATOM     23  O   UNL     1      41.141  21.690  -0.416  1.00  0.00    -0.507 OA
ATOM     24  H   UNL     1      40.320  21.935   0.125  1.00  0.00     0.293 HD
ENDBRANCH   5  23
BRANCH   7  25
ATOM     25  O   UNL     1      39.005  17.687  -2.033  1.00  0.00    -0.507 OA
ATOM     26  H   UNL     1      38.069  18.053  -1.938  1.00  0.00     0.293 HD
ENDBRANCH   7  25
TORSDOF 6
ENDMDL
MODEL 7
REMARK VINA RESULT:    -4.862      1.633      7.042
REMARK INTER + INTRA:          -6.141
REMARK INTER:                  -5.865
REMARK INTRA:                  -0.276
REMARK UNBOUND:                -0.284
REMARK SMILES Oc1cc(O)c2cc(O)c(-c3ccc(O)c(O)c3)[o+]c2c1
REMARK SMILES IDX 10 1 19 2 20 3 21 4 2 5 3 6 4 7 6 8 7 9 8 10 11 11 12 12
REMARK SMILES IDX 13 13 14 14 18 15 16 16 15 17 17 19 9 21 1 23 5 25
REMARK H PARENT 15 18 17 20 9 22 1 24 5 26
REMARK Flexibility Score: inf
ROOT
ATOM      1  C   UNL     1      43.910  16.830  -3.362  1.00  0.00     0.402 A 
ATOM      2  O   UNL     1      43.769  17.880  -2.556  1.00  0.00    -0.202 OA
ATOM      3  C   UNL     1      42.617  18.520  -2.388  1.00  0.00     0.368 A 
ATOM      4  C   UNL     1      42.568  19.616  -1.522  1.00  0.00     0.162 A 
ATOM      5  C   UNL     1      41.372  20.310  -1.329  1.00  0.00     0.128 A 
ATOM      6  C   UNL     1      40.216  19.908  -2.008  1.00  0.00     0.093 A 
ATOM      7  C   UNL     1      40.239  18.814  -2.882  1.00  0.00     0.136 A 
ATOM      8  C   UNL     1      41.453  18.104  -3.078  1.00  0.00     0.125 A 
ATOM      9  C   UNL     1      41.566  16.989  -3.925  1.00  0.00     0.078 A 
ATOM     10  C   UNL     1      42.794  16.338  -4.064  1.00  0.00     0.223 A 
ENDROOT
BRANCH   1  11
ATOM     11  C   UNL     1      45.249  16.208  -3.472  1.00  0.00     0.087 A 
ATOM     12  C   UNL     1      45.498  14.988  -2.824  1.00  0.00     0.022 A 
ATOM     13  C   UNL     1      46.759  14.391  -2.896  1.00  0.00     0.051 A 
ATOM     14  C   UNL     1      47.794  15.010  -3.605  1.00  0.00     0.157 A 
ATOM     15  C   UNL     1      46.297  16.839  -4.166  1.00  0.00     0.068 A 
ATOM     16  C   UNL     1      47.564  16.243  -4.239  1.00  0.00     0.158 A 
BRANCH  14  17
ATOM     17  O   UNL     1      49.041  14.390  -3.662  1.00  0.00    -0.504 OA
ATOM     18  H   UNL     1      49.247  13.655  -4.328  1.00  0.00     0.293 HD
ENDBRANCH  14  17
BRANCH  16  19
ATOM     19  O   UNL     1      48.596  16.873  -4.935  1.00  0.00    -0.504 OA
ATOM     20  H   UNL     1      48.799  16.646  -5.901  1.00  0.00     0.293 HD
ENDBRANCH  16  19
ENDBRANCH   1  11
BRANCH  10  21
ATOM     21  O   UNL     1      42.896  15.200  -4.865  1.00  0.00    -0.500 OA
ATOM     22  H   UNL     1      43.705  14.592  -4.826  1.00  0.00     0.294 HD
ENDBRANCH  10  21
BRANCH   5  23
ATOM     23  O   UNL     1      41.343  21.398  -0.460  1.00  0.00    -0.507 OA
ATOM     24  H   UNL     1      42.121  22.043  -0.391  1.00  0.00     0.293 HD
ENDBRANCH   5  23
BRANCH   7  25
ATOM     25  O   UNL     1      39.044  18.478  -3.525  1.00  0.00    -0.507 OA
ATOM     26  H   UNL     1      38.125  18.646  -3.144  1.00  0.00     0.293 HD
ENDBRANCH   7  25
TORSDOF 6
ENDMDL
MODEL 8
REMARK VINA RESULT:    -4.771      1.870      7.328
REMARK INTER + INTRA:          -6.031
REMARK INTER:                  -6.173
REMARK INTRA:                   0.142
REMARK UNBOUND:                -0.284
REMARK SMILES Oc1cc(O)c2cc(O)c(-c3ccc(O)c(O)c3)[o+]c2c1
REMARK SMILES IDX 10 1 19 2 20 3 21 4 2 5 3 6 4 7 6 8 7 9 8 10 11 11 12 12
REMARK SMILES IDX 13 13 14 14 18 15 16 16 15 17 17 19 9 21 1 23 5 25
REMARK H PARENT 15 18 17 20 9 22 1 24 5 26
REMARK Flexibility Score: inf
ROOT
ATOM      1  C   UNL     1      44.637  15.923  -2.866  1.00  0.00     0.402 A 
ATOM      2  O   UNL     1      44.530  17.247  -2.770  1.00  0.00    -0.202 OA
ATOM      3  C   UNL     1      43.372  17.873  -2.590  1.00  0.00     0.368 A 
ATOM      4  C   UNL     1      43.359  19.268  -2.505  1.00  0.00     0.162 A 
ATOM      5  C   UNL     1      42.157  19.952  -2.320  1.00  0.00     0.128 A 
ATOM      6  C   UNL     1      40.957  19.239  -2.221  1.00  0.00     0.093 A 
ATOM      7  C   UNL     1      40.943  17.841  -2.304  1.00  0.00     0.136 A 
ATOM      8  C   UNL     1      42.164  17.141  -2.489  1.00  0.00     0.125 A 
ATOM      9  C   UNL     1      42.246  15.742  -2.570  1.00  0.00     0.078 A 
ATOM     10  C   UNL     1      43.486  15.122  -2.749  1.00  0.00     0.223 A 
ENDROOT
BRANCH   1  11
ATOM     11  C   UNL     1      45.984  15.344  -3.076  1.00  0.00     0.087 A 
ATOM     12  C   UNL     1      46.354  14.186  -2.374  1.00  0.00     0.022 A 
ATOM     13  C   UNL     1      47.626  13.633  -2.540  1.00  0.00     0.051 A 
ATOM     14  C   UNL     1      48.551  14.235  -3.399  1.00  0.00     0.157 A 
ATOM     15  C   UNL     1      46.923  15.960  -3.923  1.00  0.00     0.068 A 
ATOM     16  C   UNL     1      48.201  15.407  -4.090  1.00  0.00     0.158 A 
BRANCH  14  17
ATOM     17  O   UNL     1      49.812  13.659  -3.546  1.00  0.00    -0.504 OA
ATOM     18  H   UNL     1      50.098  13.203  -4.405  1.00  0.00     0.293 HD
ENDBRANCH  14  17
BRANCH  16  19
ATOM     19  O   UNL     1      49.124  16.020  -4.937  1.00  0.00    -0.504 OA
ATOM     20  H   UNL     1      48.998  16.028  -5.941  1.00  0.00     0.293 HD
ENDBRANCH  16  19
ENDBRANCH   1  11
BRANCH  10  21
ATOM     21  O   UNL     1      43.575  13.730  -2.779  1.00  0.00    -0.500 OA
ATOM     22  H   UNL     1      44.325  13.234  -2.312  1.00  0.00     0.294 HD
ENDBRANCH  10  21
BRANCH   5  23
ATOM     23  O   UNL     1      42.165  21.343  -2.237  1.00  0.00    -0.507 OA
ATOM     24  H   UNL     1      42.970  21.887  -2.523  1.00  0.00     0.293 HD
ENDBRANCH   5  23
BRANCH   7  25
ATOM     25  O   UNL     1      39.704  17.203  -2.199  1.00  0.00    -0.507 OA
ATOM     26  H   UNL     1      39.062  17.074  -2.967  1.00  0.00     0.293 HD
ENDBRANCH   7  25
TORSDOF 6
ENDMDL
MODEL 9
REMARK VINA RESULT:    -4.755      3.030      8.597
REMARK INTER + INTRA:          -6.011
REMARK INTER:                  -6.131
REMARK INTRA:                   0.119
REMARK UNBOUND:                -0.284
REMARK SMILES Oc1cc(O)c2cc(O)c(-c3ccc(O)c(O)c3)[o+]c2c1
REMARK SMILES IDX 10 1 19 2 20 3 21 4 2 5 3 6 4 7 6 8 7 9 8 10 11 11 12 12
REMARK SMILES IDX 13 13 14 14 18 15 16 16 15 17 17 19 9 21 1 23 5 25
REMARK H PARENT 15 18 17 20 9 22 1 24 5 26
REMARK Flexibility Score: inf
ROOT
ATOM      1  C   UNL     1      47.866  15.172  -4.056  1.00  0.00     0.402 A 
ATOM      2  O   UNL     1      47.246  16.194  -4.639  1.00  0.00    -0.202 OA
ATOM      3  C   UNL     1      46.011  16.574  -4.324  1.00  0.00     0.368 A 
ATOM      4  C   UNL     1      45.442  17.659  -4.996  1.00  0.00     0.162 A 
ATOM      5  C   UNL     1      44.146  18.077  -4.689  1.00  0.00     0.128 A 
ATOM      6  C   UNL     1      43.413  17.406  -3.703  1.00  0.00     0.093 A 
ATOM      7  C   UNL     1      43.961  16.316  -3.016  1.00  0.00     0.136 A 
ATOM      8  C   UNL     1      45.279  15.889  -3.325  1.00  0.00     0.125 A 
ATOM      9  C   UNL     1      45.913  14.815  -2.679  1.00  0.00     0.078 A 
ATOM     10  C   UNL     1      47.216  14.456  -3.033  1.00  0.00     0.223 A 
ENDROOT
BRANCH   1  11
ATOM     11  C   UNL     1      49.239  14.840  -4.501  1.00  0.00     0.087 A 
ATOM     12  C   UNL     1      49.622  13.494  -4.613  1.00  0.00     0.022 A 
ATOM     13  C   UNL     1      50.918  13.158  -5.012  1.00  0.00     0.051 A 
ATOM     14  C   UNL     1      51.854  14.159  -5.291  1.00  0.00     0.157 A 
ATOM     15  C   UNL     1      50.188  15.845  -4.762  1.00  0.00     0.068 A 
ATOM     16  C   UNL     1      51.490  15.509  -5.160  1.00  0.00     0.158 A 
BRANCH  14  17
ATOM     17  O   UNL     1      53.139  13.792  -5.690  1.00  0.00    -0.504 OA
ATOM     18  H   UNL     1      53.616  12.991  -5.295  1.00  0.00     0.293 HD
ENDBRANCH  14  17
BRANCH  16  19
ATOM     19  O   UNL     1      52.423  16.512  -5.423  1.00  0.00    -0.504 OA
ATOM     20  H   UNL     1      52.177  17.493  -5.367  1.00  0.00     0.293 HD
ENDBRANCH  16  19
ENDBRANCH   1  11
BRANCH  10  21
ATOM     21  O   UNL     1      47.865  13.422  -2.358  1.00  0.00    -0.500 OA
ATOM     22  H   UNL     1      47.607  12.452  -2.494  1.00  0.00     0.294 HD
ENDBRANCH  10  21
BRANCH   5  23
ATOM     23  O   UNL     1      43.596  19.161  -5.368  1.00  0.00    -0.507 OA
ATOM     24  H   UNL     1      43.798  19.333  -6.346  1.00  0.00     0.293 HD
ENDBRANCH   5  23
BRANCH   7  25
ATOM     25  O   UNL     1      43.163  15.697  -2.050  1.00  0.00    -0.507 OA
ATOM     26  H   UNL     1      42.618  16.191  -1.358  1.00  0.00     0.293 HD
ENDBRANCH   7  25
TORSDOF 6
ENDMDL
