MODEL 1
REMARK VINA RESULT:    -4.500      0.000      0.000
REMARK INTER + INTRA:         -14.653
REMARK INTER:                 -10.287
REMARK INTRA:                  -4.365
REMARK UNBOUND:                -4.365
REMARK SMILES CCCCCCCCCCCCCCCCCCCCCCCC(=O)[O-]
REMARK SMILES IDX 13 1 14 2 15 3 16 4 17 5 18 6 19 7 20 8 21 9 22 10 23 11
REMARK SMILES IDX 24 12 25 13 26 14 12 15 11 16 10 17 9 18 8 19 7 20 6 21 5 22
REMARK SMILES IDX 4 23 3 24 2 25 1 26
REMARK H PARENT
REMARK Flexibility Score: inf
ROOT
ATOM      1  C   UNL     1      20.627  -7.187  48.022  1.00  0.00     0.000 C 
ENDROOT
BRANCH   1   2
ATOM      2  C   UNL     1      20.117  -7.557  49.431  1.00  0.00     0.000 C 
BRANCH   2   3
ATOM      3  C   UNL     1      20.945  -6.892  50.544  1.00  0.00     0.000 C 
BRANCH   3   4
ATOM      4  C   UNL     1      22.331  -7.532  50.716  1.00  0.00     0.000 C 
BRANCH   4   5
ATOM      5  C   UNL     1      23.454  -6.490  50.823  1.00  0.00     0.000 C 
BRANCH   5   6
ATOM      6  C   UNL     1      22.897  -5.122  51.239  1.00  0.00     0.000 C 
BRANCH   6   7
ATOM      7  C   UNL     1      23.623  -3.987  50.501  1.00  0.00     0.000 C 
BRANCH   7   8
ATOM      8  C   UNL     1      22.918  -2.630  50.652  1.00  0.00     0.000 C 
BRANCH   8   9
ATOM      9  C   UNL     1      23.445  -1.575  49.663  1.00  0.00     0.000 C 
BRANCH   9  10
ATOM     10  C   UNL     1      22.691  -1.593  48.323  1.00  0.00     0.006 C 
BRANCH  10  11
ATOM     11  C   UNL     1      23.619  -1.835  47.125  1.00  0.00     0.053 C 
BRANCH  11  12
ATOM     12  C   UNL     1      22.859  -1.706  45.842  1.00  0.00     0.041 C 
ATOM     13  O   UNL     1      21.849  -0.958  45.777  1.00  0.00    -0.550 OA
ATOM     14  O   UNL     1      23.294  -2.376  44.705  1.00  0.00    -0.550 OA
ENDBRANCH  11  12
ENDBRANCH  10  11
ENDBRANCH   9  10
ENDBRANCH   8   9
ENDBRANCH   7   8
ENDBRANCH   6   7
ENDBRANCH   5   6
ENDBRANCH   4   5
ENDBRANCH   3   4
ENDBRANCH   2   3
ENDBRANCH   1   2
BRANCH   1  15
ATOM     15  C   UNL     1      20.447  -5.702  47.669  1.00  0.00     0.000 C 
BRANCH  15  16
ATOM     16  C   UNL     1      21.780  -4.969  47.451  1.00  0.00     0.000 C 
BRANCH  16  17
ATOM     17  C   UNL     1      22.923  -5.938  47.082  1.00  0.00     0.000 C 
BRANCH  17  18
ATOM     18  C   UNL     1      23.554  -5.654  45.708  1.00  0.00    -0.000 C 
BRANCH  18  19
ATOM     19  C   UNL     1      22.627  -6.015  44.537  1.00  0.00    -0.000 C 
BRANCH  19  20
ATOM     20  C   UNL     1      22.042  -7.432  44.657  1.00  0.00    -0.000 C 
BRANCH  20  21
ATOM     21  C   UNL     1      20.917  -7.728  43.641  1.00  0.00    -0.000 C 
BRANCH  21  22
ATOM     22  C   UNL     1      19.521  -7.646  44.283  1.00  0.00    -0.000 C 
BRANCH  22  23
ATOM     23  C   UNL     1      18.960  -6.213  44.325  1.00  0.00    -0.000 C 
BRANCH  23  24
ATOM     24  C   UNL     1      19.024  -5.451  42.988  1.00  0.00    -0.000 C 
BRANCH  24  25
ATOM     25  C   UNL     1      19.643  -4.053  43.124  1.00  0.00    -0.003 C 
ATOM     26  C   UNL     1      19.865  -3.692  44.591  1.00  0.00     0.004 C 
ENDBRANCH  24  25
ENDBRANCH  23  24
ENDBRANCH  22  23
ENDBRANCH  21  22
ENDBRANCH  20  21
ENDBRANCH  19  20
ENDBRANCH  18  19
ENDBRANCH  17  18
ENDBRANCH  16  17
ENDBRANCH  15  16
ENDBRANCH   1  15
TORSDOF 22
ENDMDL
MODEL 2
REMARK VINA RESULT:    -4.310      1.418      3.166
REMARK INTER + INTRA:         -14.220
REMARK INTER:                  -9.996
REMARK INTRA:                  -4.224
REMARK UNBOUND:                -4.365
REMARK SMILES CCCCCCCCCCCCCCCCCCCCCCCC(=O)[O-]
REMARK SMILES IDX 13 1 14 2 15 3 16 4 17 5 18 6 19 7 20 8 21 9 22 10 23 11
REMARK SMILES IDX 24 12 25 13 26 14 12 15 11 16 10 17 9 18 8 19 7 20 6 21 5 22
REMARK SMILES IDX 4 23 3 24 2 25 1 26
REMARK H PARENT
REMARK Flexibility Score: inf
ROOT
ATOM      1  C   UNL     1      20.868  -5.756  46.736  1.00  0.00     0.000 C 
ENDROOT
BRANCH   1   2
ATOM      2  C   UNL     1      19.788  -6.503  47.547  1.00  0.00     0.000 C 
BRANCH   2   3
ATOM      3  C   UNL     1      20.396  -7.487  48.560  1.00  0.00     0.000 C 
BRANCH   3   4
ATOM      4  C   UNL     1      20.130  -7.079  50.018  1.00  0.00     0.000 C 
BRANCH   4   5
ATOM      5  C   UNL     1      21.421  -6.954  50.841  1.00  0.00     0.000 C 
BRANCH   5   6
ATOM      6  C   UNL     1      22.626  -7.488  50.057  1.00  0.00     0.000 C 
BRANCH   6   7
ATOM      7  C   UNL     1      23.938  -6.910  50.610  1.00  0.00     0.000 C 
BRANCH   7   8
ATOM      8  C   UNL     1      24.437  -5.693  49.813  1.00  0.00     0.000 C 
BRANCH   8   9
ATOM      9  C   UNL     1      24.557  -4.426  50.680  1.00  0.00     0.000 C 
BRANCH   9  10
ATOM     10  C   UNL     1      23.344  -3.494  50.532  1.00  0.00     0.006 C 
BRANCH  10  11
ATOM     11  C   UNL     1      22.904  -3.322  49.072  1.00  0.00     0.053 C 
BRANCH  11  12
ATOM     12  C   UNL     1      22.504  -1.903  48.812  1.00  0.00     0.041 C 
ATOM     13  O   UNL     1      22.675  -1.396  47.672  1.00  0.00    -0.550 OA
ATOM     14  O   UNL     1      21.899  -1.155  49.814  1.00  0.00    -0.550 OA
ENDBRANCH  11  12
ENDBRANCH  10  11
ENDBRANCH   9  10
ENDBRANCH   8   9
ENDBRANCH   7   8
ENDBRANCH   6   7
ENDBRANCH   5   6
ENDBRANCH   4   5
ENDBRANCH   3   4
ENDBRANCH   2   3
ENDBRANCH   1   2
BRANCH   1  15
ATOM     15  C   UNL     1      22.228  -6.472  46.711  1.00  0.00     0.000 C 
BRANCH  15  16
ATOM     16  C   UNL     1      23.367  -5.582  46.190  1.00  0.00     0.000 C 
BRANCH  16  17
ATOM     17  C   UNL     1      23.045  -4.975  44.808  1.00  0.00     0.000 C 
BRANCH  17  18
ATOM     18  C   UNL     1      23.002  -3.437  44.806  1.00  0.00    -0.000 C 
BRANCH  18  19
ATOM     19  C   UNL     1      21.571  -2.879  44.741  1.00  0.00    -0.000 C 
BRANCH  19  20
ATOM     20  C   UNL     1      20.738  -3.508  43.612  1.00  0.00    -0.000 C 
BRANCH  20  21
ATOM     21  C   UNL     1      19.344  -3.995  44.066  1.00  0.00    -0.000 C 
BRANCH  21  22
ATOM     22  C   UNL     1      18.953  -5.329  43.407  1.00  0.00    -0.000 C 
BRANCH  22  23
ATOM     23  C   UNL     1      20.170  -6.149  42.938  1.00  0.00    -0.000 C 
BRANCH  23  24
ATOM     24  C   UNL     1      20.343  -7.512  43.634  1.00  0.00    -0.000 C 
BRANCH  24  25
ATOM     25  C   UNL     1      21.730  -8.129  43.406  1.00  0.00    -0.003 C 
ATOM     26  C   UNL     1      21.944  -9.343  44.305  1.00  0.00     0.004 C 
ENDBRANCH  24  25
ENDBRANCH  23  24
ENDBRANCH  22  23
ENDBRANCH  21  22
ENDBRANCH  20  21
ENDBRANCH  19  20
ENDBRANCH  18  19
ENDBRANCH  17  18
ENDBRANCH  16  17
ENDBRANCH  15  16
ENDBRANCH   1  15
TORSDOF 22
ENDMDL
MODEL 3
REMARK VINA RESULT:    -4.233      2.287      4.952
REMARK INTER + INTRA:         -14.042
REMARK INTER:                  -9.683
REMARK INTRA:                  -4.360
REMARK UNBOUND:                -4.365
REMARK SMILES CCCCCCCCCCCCCCCCCCCCCCCC(=O)[O-]
REMARK SMILES IDX 13 1 14 2 15 3 16 4 17 5 18 6 19 7 20 8 21 9 22 10 23 11
REMARK SMILES IDX 24 12 25 13 26 14 12 15 11 16 10 17 9 18 8 19 7 20 6 21 5 22
REMARK SMILES IDX 4 23 3 24 2 25 1 26
REMARK H PARENT
REMARK Flexibility Score: inf
ROOT
ATOM      1  C   UNL     1      23.388  -3.686  49.035  1.00  0.00     0.000 C 
ENDROOT
BRANCH   1   2
ATOM      2  C   UNL     1      23.237  -3.615  50.569  1.00  0.00     0.000 C 
BRANCH   2   3
ATOM      3  C   UNL     1      23.090  -5.008  51.206  1.00  0.00     0.000 C 
BRANCH   3   4
ATOM      4  C   UNL     1      23.689  -6.125  50.336  1.00  0.00     0.000 C 
BRANCH   4   5
ATOM      5  C   UNL     1      22.677  -7.239  50.027  1.00  0.00     0.000 C 
BRANCH   5   6
ATOM      6  C   UNL     1      21.316  -6.939  50.669  1.00  0.00     0.000 C 
BRANCH   6   7
ATOM      7  C   UNL     1      20.174  -7.178  49.669  1.00  0.00     0.000 C 
BRANCH   7   8
ATOM      8  C   UNL     1      20.651  -7.175  48.207  1.00  0.00     0.000 C 
BRANCH   8   9
ATOM      9  C   UNL     1      20.240  -5.898  47.452  1.00  0.00     0.000 C 
BRANCH   9  10
ATOM     10  C   UNL     1      19.951  -6.160  45.965  1.00  0.00     0.006 C 
BRANCH  10  11
ATOM     11  C   UNL     1      20.879  -7.222  45.360  1.00  0.00     0.053 C 
BRANCH  11  12
ATOM     12  C   UNL     1      20.713  -7.274  43.873  1.00  0.00     0.041 C 
ATOM     13  O   UNL     1      20.548  -8.378  43.292  1.00  0.00    -0.550 OA
ATOM     14  O   UNL     1      20.693  -6.098  43.134  1.00  0.00    -0.550 OA
ENDBRANCH  11  12
ENDBRANCH  10  11
ENDBRANCH   9  10
ENDBRANCH   8   9
ENDBRANCH   7   8
ENDBRANCH   6   7
ENDBRANCH   5   6
ENDBRANCH   4   5
ENDBRANCH   3   4
ENDBRANCH   2   3
ENDBRANCH   1   2
BRANCH   1  15
ATOM     15  C   UNL     1      24.650  -2.988  48.505  1.00  0.00     0.000 C 
BRANCH  15  16
ATOM     16  C   UNL     1      24.406  -1.524  48.106  1.00  0.00     0.000 C 
BRANCH  16  17
ATOM     17  C   UNL     1      25.329  -1.073  46.955  1.00  0.00     0.000 C 
BRANCH  17  18
ATOM     18  C   UNL     1      26.212  -2.200  46.394  1.00  0.00    -0.000 C 
BRANCH  18  19
ATOM     19  C   UNL     1      26.282  -2.198  44.859  1.00  0.00    -0.000 C 
BRANCH  19  20
ATOM     20  C   UNL     1      25.352  -3.242  44.219  1.00  0.00    -0.000 C 
BRANCH  20  21
ATOM     21  C   UNL     1      25.098  -4.477  45.111  1.00  0.00    -0.000 C 
BRANCH  21  22
ATOM     22  C   UNL     1      23.598  -4.707  45.368  1.00  0.00    -0.000 C 
BRANCH  22  23
ATOM     23  C   UNL     1      22.704  -3.643  44.706  1.00  0.00    -0.000 C 
BRANCH  23  24
ATOM     24  C   UNL     1      21.746  -2.911  45.665  1.00  0.00    -0.000 C 
BRANCH  24  25
ATOM     25  C   UNL     1      21.877  -1.383  45.591  1.00  0.00    -0.003 C 
ATOM     26  C   UNL     1      22.556  -0.953  44.293  1.00  0.00     0.004 C 
ENDBRANCH  24  25
ENDBRANCH  23  24
ENDBRANCH  22  23
ENDBRANCH  21  22
ENDBRANCH  20  21
ENDBRANCH  19  20
ENDBRANCH  18  19
ENDBRANCH  17  18
ENDBRANCH  16  17
ENDBRANCH  15  16
ENDBRANCH   1  15
TORSDOF 22
ENDMDL
MODEL 4
REMARK VINA RESULT:    -4.231      1.108      2.453
REMARK INTER + INTRA:         -14.039
REMARK INTER:                 -10.142
REMARK INTRA:                  -3.896
REMARK UNBOUND:                -4.365
REMARK SMILES CCCCCCCCCCCCCCCCCCCCCCCC(=O)[O-]
REMARK SMILES IDX 13 1 14 2 15 3 16 4 17 5 18 6 19 7 20 8 21 9 22 10 23 11
REMARK SMILES IDX 24 12 25 13 26 14 12 15 11 16 10 17 9 18 8 19 7 20 6 21 5 22
REMARK SMILES IDX 4 23 3 24 2 25 1 26
REMARK H PARENT
REMARK Flexibility Score: inf
ROOT
ATOM      1  C   UNL     1      20.234  -7.346  49.761  1.00  0.00     0.000 C 
ENDROOT
BRANCH   1   2
ATOM      2  C   UNL     1      21.368  -6.751  50.621  1.00  0.00     0.000 C 
BRANCH   2   3
ATOM      3  C   UNL     1      22.747  -7.318  50.241  1.00  0.00     0.000 C 
BRANCH   3   4
ATOM      4  C   UNL     1      23.708  -6.240  49.714  1.00  0.00     0.000 C 
BRANCH   4   5
ATOM      5  C   UNL     1      23.054  -4.853  49.637  1.00  0.00     0.000 C 
BRANCH   5   6
ATOM      6  C   UNL     1      23.587  -3.932  50.742  1.00  0.00     0.000 C 
BRANCH   6   7
ATOM      7  C   UNL     1      25.063  -3.582  50.499  1.00  0.00     0.000 C 
BRANCH   7   8
ATOM      8  C   UNL     1      25.261  -2.140  50.002  1.00  0.00     0.000 C 
BRANCH   8   9
ATOM      9  C   UNL     1      25.184  -2.027  48.469  1.00  0.00     0.000 C 
BRANCH   9  10
ATOM     10  C   UNL     1      23.827  -1.492  47.985  1.00  0.00     0.006 C 
BRANCH  10  11
ATOM     11  C   UNL     1      23.236  -2.327  46.841  1.00  0.00     0.053 C 
BRANCH  11  12
ATOM     12  C   UNL     1      23.115  -1.499  45.599  1.00  0.00     0.041 C 
ATOM     13  O   UNL     1      22.066  -0.840  45.376  1.00  0.00    -0.550 OA
ATOM     14  O   UNL     1      24.181  -1.418  44.711  1.00  0.00    -0.550 OA
ENDBRANCH  11  12
ENDBRANCH  10  11
ENDBRANCH   9  10
ENDBRANCH   8   9
ENDBRANCH   7   8
ENDBRANCH   6   7
ENDBRANCH   5   6
ENDBRANCH   4   5
ENDBRANCH   3   4
ENDBRANCH   2   3
ENDBRANCH   1   2
BRANCH   1  15
ATOM     15  C   UNL     1      20.591  -7.478  48.271  1.00  0.00     0.000 C 
BRANCH  15  16
ATOM     16  C   UNL     1      19.770  -6.541  47.371  1.00  0.00     0.000 C 
BRANCH  16  17
ATOM     17  C   UNL     1      20.545  -5.256  47.010  1.00  0.00     0.000 C 
BRANCH  17  18
ATOM     18  C   UNL     1      21.655  -5.477  45.968  1.00  0.00    -0.000 C 
BRANCH  18  19
ATOM     19  C   UNL     1      21.416  -4.698  44.665  1.00  0.00    -0.000 C 
BRANCH  19  20
ATOM     20  C   UNL     1      20.178  -3.788  44.734  1.00  0.00    -0.000 C 
BRANCH  20  21
ATOM     21  C   UNL     1      19.087  -4.143  43.701  1.00  0.00    -0.000 C 
BRANCH  21  22
ATOM     22  C   UNL     1      19.310  -5.532  43.077  1.00  0.00    -0.000 C 
BRANCH  22  23
ATOM     23  C   UNL     1      18.354  -6.603  43.635  1.00  0.00    -0.000 C 
BRANCH  23  24
ATOM     24  C   UNL     1      19.039  -7.890  44.131  1.00  0.00    -0.000 C 
BRANCH  24  25
ATOM     25  C   UNL     1      20.462  -8.062  43.580  1.00  0.00    -0.003 C 
ATOM     26  C   UNL     1      21.251  -9.075  44.405  1.00  0.00     0.004 C 
ENDBRANCH  24  25
ENDBRANCH  23  24
ENDBRANCH  22  23
ENDBRANCH  21  22
ENDBRANCH  20  21
ENDBRANCH  19  20
ENDBRANCH  18  19
ENDBRANCH  17  18
ENDBRANCH  16  17
ENDBRANCH  15  16
ENDBRANCH   1  15
TORSDOF 22
ENDMDL
MODEL 5
REMARK VINA RESULT:    -4.163      2.249      5.447
REMARK INTER + INTRA:         -13.882
REMARK INTER:                  -9.640
REMARK INTRA:                  -4.242
REMARK UNBOUND:                -4.365
REMARK SMILES CCCCCCCCCCCCCCCCCCCCCCCC(=O)[O-]
REMARK SMILES IDX 13 1 14 2 15 3 16 4 17 5 18 6 19 7 20 8 21 9 22 10 23 11
REMARK SMILES IDX 24 12 25 13 26 14 12 15 11 16 10 17 9 18 8 19 7 20 6 21 5 22
REMARK SMILES IDX 4 23 3 24 2 25 1 26
REMARK H PARENT
REMARK Flexibility Score: inf
ROOT
ATOM      1  C   UNL     1      23.797  -6.617  50.653  1.00  0.00     0.000 C 
ENDROOT
BRANCH   1   2
ATOM      2  C   UNL     1      23.992  -8.093  50.245  1.00  0.00     0.000 C 
BRANCH   2   3
ATOM      3  C   UNL     1      24.587  -8.234  48.834  1.00  0.00     0.000 C 
BRANCH   3   4
ATOM      4  C   UNL     1      23.955  -9.385  48.035  1.00  0.00     0.000 C 
BRANCH   4   5
ATOM      5  C   UNL     1      23.502  -8.951  46.633  1.00  0.00     0.000 C 
BRANCH   5   6
ATOM      6  C   UNL     1      22.681 -10.055  45.954  1.00  0.00     0.000 C 
BRANCH   6   7
ATOM      7  C   UNL     1      22.104  -9.565  44.617  1.00  0.00     0.000 C 
BRANCH   7   8
ATOM      8  C   UNL     1      21.214  -8.320  44.772  1.00  0.00     0.000 C 
BRANCH   8   9
ATOM      9  C   UNL     1      21.808  -7.079  44.083  1.00  0.00     0.000 C 
BRANCH   9  10
ATOM     10  C   UNL     1      20.821  -6.418  43.107  1.00  0.00     0.006 C 
BRANCH  10  11
ATOM     11  C   UNL     1      20.395  -5.013  43.557  1.00  0.00     0.053 C 
BRANCH  11  12
ATOM     12  C   UNL     1      19.287  -4.501  42.691  1.00  0.00     0.041 C 
ATOM     13  O   UNL     1      18.205  -4.117  43.207  1.00  0.00    -0.550 OA
ATOM     14  O   UNL     1      19.466  -4.404  41.316  1.00  0.00    -0.550 OA
ENDBRANCH  11  12
ENDBRANCH  10  11
ENDBRANCH   9  10
ENDBRANCH   8   9
ENDBRANCH   7   8
ENDBRANCH   6   7
ENDBRANCH   5   6
ENDBRANCH   4   5
ENDBRANCH   3   4
ENDBRANCH   2   3
ENDBRANCH   1   2
BRANCH   1  15
ATOM     15  C   UNL     1      22.337  -6.246  50.955  1.00  0.00     0.000 C 
BRANCH  15  16
ATOM     16  C   UNL     1      21.398  -7.463  50.969  1.00  0.00     0.000 C 
BRANCH  16  17
ATOM     17  C   UNL     1      20.221  -7.301  49.984  1.00  0.00     0.000 C 
BRANCH  17  18
ATOM     18  C   UNL     1      20.622  -7.477  48.509  1.00  0.00    -0.000 C 
BRANCH  18  19
ATOM     19  C   UNL     1      19.969  -6.438  47.584  1.00  0.00    -0.000 C 
BRANCH  19  20
ATOM     20  C   UNL     1      20.866  -5.214  47.338  1.00  0.00    -0.000 C 
BRANCH  20  21
ATOM     21  C   UNL     1      22.377  -5.536  47.361  1.00  0.00    -0.000 C 
BRANCH  21  22
ATOM     22  C   UNL     1      23.227  -4.299  47.702  1.00  0.00    -0.000 C 
BRANCH  22  23
ATOM     23  C   UNL     1      24.219  -3.924  46.585  1.00  0.00    -0.000 C 
BRANCH  23  24
ATOM     24  C   UNL     1      23.660  -4.038  45.154  1.00  0.00    -0.000 C 
BRANCH  24  25
ATOM     25  C   UNL     1      23.423  -2.672  44.494  1.00  0.00    -0.003 C 
ATOM     26  C   UNL     1      22.202  -1.979  45.092  1.00  0.00     0.004 C 
ENDBRANCH  24  25
ENDBRANCH  23  24
ENDBRANCH  22  23
ENDBRANCH  21  22
ENDBRANCH  20  21
ENDBRANCH  19  20
ENDBRANCH  18  19
ENDBRANCH  17  18
ENDBRANCH  16  17
ENDBRANCH  15  16
ENDBRANCH   1  15
TORSDOF 22
ENDMDL
MODEL 6
REMARK VINA RESULT:    -4.156      1.595      5.215
REMARK INTER + INTRA:         -13.866
REMARK INTER:                  -9.711
REMARK INTRA:                  -4.154
REMARK UNBOUND:                -4.365
REMARK SMILES CCCCCCCCCCCCCCCCCCCCCCCC(=O)[O-]
REMARK SMILES IDX 13 1 14 2 15 3 16 4 17 5 18 6 19 7 20 8 21 9 22 10 23 11
REMARK SMILES IDX 24 12 25 13 26 14 12 15 11 16 10 17 9 18 8 19 7 20 6 21 5 22
REMARK SMILES IDX 4 23 3 24 2 25 1 26
REMARK H PARENT
REMARK Flexibility Score: inf
ROOT
ATOM      1  C   UNL     1      20.232  -7.282  50.043  1.00  0.00     0.000 C 
ENDROOT
BRANCH   1   2
ATOM      2  C   UNL     1      20.419  -7.471  48.522  1.00  0.00     0.000 C 
BRANCH   2   3
ATOM      3  C   UNL     1      19.850  -6.292  47.714  1.00  0.00     0.000 C 
BRANCH   3   4
ATOM      4  C   UNL     1      19.738  -6.601  46.212  1.00  0.00     0.000 C 
BRANCH   4   5
ATOM      5  C   UNL     1      20.878  -7.498  45.708  1.00  0.00     0.000 C 
BRANCH   5   6
ATOM      6  C   UNL     1      21.686  -6.795  44.610  1.00  0.00     0.000 C 
BRANCH   6   7
ATOM      7  C   UNL     1      21.072  -5.428  44.268  1.00  0.00     0.000 C 
BRANCH   7   8
ATOM      8  C   UNL     1      21.991  -4.252  44.637  1.00  0.00     0.000 C 
BRANCH   8   9
ATOM      9  C   UNL     1      21.290  -3.209  45.526  1.00  0.00     0.000 C 
BRANCH   9  10
ATOM     10  C   UNL     1      22.239  -2.088  45.980  1.00  0.00     0.006 C 
BRANCH  10  11
ATOM     11  C   UNL     1      23.299  -1.746  44.923  1.00  0.00     0.053 C 
BRANCH  11  12
ATOM     12  C   UNL     1      24.581  -1.343  45.582  1.00  0.00     0.041 C 
ATOM     13  O   UNL     1      24.596  -1.030  46.801  1.00  0.00    -0.550 OA
ATOM     14  O   UNL     1      25.769  -1.360  44.862  1.00  0.00    -0.550 OA
ENDBRANCH  11  12
ENDBRANCH  10  11
ENDBRANCH   9  10
ENDBRANCH   8   9
ENDBRANCH   7   8
ENDBRANCH   6   7
ENDBRANCH   5   6
ENDBRANCH   4   5
ENDBRANCH   3   4
ENDBRANCH   2   3
ENDBRANCH   1   2
BRANCH   1  15
ATOM     15  C   UNL     1      21.498  -6.796  50.766  1.00  0.00     0.000 C 
BRANCH  15  16
ATOM     16  C   UNL     1      22.563  -7.894  50.917  1.00  0.00     0.000 C 
BRANCH  16  17
ATOM     17  C   UNL     1      23.994  -7.346  50.729  1.00  0.00     0.000 C 
BRANCH  17  18
ATOM     18  C   UNL     1      24.665  -7.807  49.424  1.00  0.00    -0.000 C 
BRANCH  18  19
ATOM     19  C   UNL     1      23.763  -7.631  48.193  1.00  0.00    -0.000 C 
BRANCH  19  20
ATOM     20  C   UNL     1      24.065  -6.341  47.413  1.00  0.00    -0.000 C 
BRANCH  20  21
ATOM     21  C   UNL     1      23.362  -5.090  47.984  1.00  0.00    -0.000 C 
BRANCH  21  22
ATOM     22  C   UNL     1      24.366  -4.060  48.530  1.00  0.00    -0.000 C 
BRANCH  22  23
ATOM     23  C   UNL     1      24.347  -3.955  50.066  1.00  0.00    -0.000 C 
BRANCH  23  24
ATOM     24  C   UNL     1      23.219  -3.080  50.644  1.00  0.00    -0.000 C 
BRANCH  24  25
ATOM     25  C   UNL     1      23.325  -1.609  50.219  1.00  0.00    -0.003 C 
ATOM     26  C   UNL     1      22.000  -1.105  49.654  1.00  0.00     0.004 C 
ENDBRANCH  24  25
ENDBRANCH  23  24
ENDBRANCH  22  23
ENDBRANCH  21  22
ENDBRANCH  20  21
ENDBRANCH  19  20
ENDBRANCH  18  19
ENDBRANCH  17  18
ENDBRANCH  16  17
ENDBRANCH  15  16
ENDBRANCH   1  15
TORSDOF 22
ENDMDL
MODEL 7
REMARK VINA RESULT:    -4.151      1.316      3.734
REMARK INTER + INTRA:         -13.855
REMARK INTER:                  -9.929
REMARK INTRA:                  -3.926
REMARK UNBOUND:                -4.365
REMARK SMILES CCCCCCCCCCCCCCCCCCCCCCCC(=O)[O-]
REMARK SMILES IDX 13 1 14 2 15 3 16 4 17 5 18 6 19 7 20 8 21 9 22 10 23 11
REMARK SMILES IDX 24 12 25 13 26 14 12 15 11 16 10 17 9 18 8 19 7 20 6 21 5 22
REMARK SMILES IDX 4 23 3 24 2 25 1 26
REMARK H PARENT
REMARK Flexibility Score: inf
ROOT
ATOM      1  C   UNL     1      22.711  -5.017  51.533  1.00  0.00     0.000 C 
ENDROOT
BRANCH   1   2
ATOM      2  C   UNL     1      23.255  -3.766  50.810  1.00  0.00     0.000 C 
BRANCH   2   3
ATOM      3  C   UNL     1      23.762  -4.085  49.393  1.00  0.00     0.000 C 
BRANCH   3   4
ATOM      4  C   UNL     1      22.858  -3.504  48.294  1.00  0.00     0.000 C 
BRANCH   4   5
ATOM      5  C   UNL     1      22.558  -4.517  47.179  1.00  0.00     0.000 C 
BRANCH   5   6
ATOM      6  C   UNL     1      23.751  -5.453  46.951  1.00  0.00     0.000 C 
BRANCH   6   7
ATOM      7  C   UNL     1      24.770  -4.818  45.993  1.00  0.00     0.000 C 
BRANCH   7   8
ATOM      8  C   UNL     1      24.151  -4.419  44.643  1.00  0.00     0.000 C 
BRANCH   8   9
ATOM      9  C   UNL     1      24.340  -2.925  44.324  1.00  0.00     0.000 C 
BRANCH   9  10
ATOM     10  C   UNL     1      24.824  -2.119  45.540  1.00  0.00     0.006 C 
BRANCH  10  11
ATOM     11  C   UNL     1      24.281  -0.683  45.553  1.00  0.00     0.053 C 
BRANCH  11  12
ATOM     12  C   UNL     1      22.854  -0.662  45.103  1.00  0.00     0.041 C 
ATOM     13  O   UNL     1      21.970  -1.262  45.769  1.00  0.00    -0.550 OA
ATOM     14  O   UNL     1      22.491   0.062  43.974  1.00  0.00    -0.550 OA
ENDBRANCH  11  12
ENDBRANCH  10  11
ENDBRANCH   9  10
ENDBRANCH   8   9
ENDBRANCH   7   8
ENDBRANCH   6   7
ENDBRANCH   5   6
ENDBRANCH   4   5
ENDBRANCH   3   4
ENDBRANCH   2   3
ENDBRANCH   1   2
BRANCH   1  15
ATOM     15  C   UNL     1      23.076  -6.339  50.839  1.00  0.00     0.000 C 
BRANCH  15  16
ATOM     16  C   UNL     1      22.033  -7.444  51.064  1.00  0.00     0.000 C 
BRANCH  16  17
ATOM     17  C   UNL     1      20.736  -7.190  50.267  1.00  0.00     0.000 C 
BRANCH  17  18
ATOM     18  C   UNL     1      20.938  -7.192  48.742  1.00  0.00    -0.000 C 
BRANCH  18  19
ATOM     19  C   UNL     1      19.739  -6.609  47.979  1.00  0.00    -0.000 C 
BRANCH  19  20
ATOM     20  C   UNL     1      19.764  -6.951  46.480  1.00  0.00    -0.000 C 
BRANCH  20  21
ATOM     21  C   UNL     1      20.966  -7.827  46.063  1.00  0.00    -0.000 C 
BRANCH  21  22
ATOM     22  C   UNL     1      21.550  -7.400  44.705  1.00  0.00    -0.000 C 
BRANCH  22  23
ATOM     23  C   UNL     1      20.475  -7.217  43.618  1.00  0.00    -0.000 C 
BRANCH  23  24
ATOM     24  C   UNL     1      20.536  -5.875  42.863  1.00  0.00    -0.000 C 
BRANCH  24  25
ATOM     25  C   UNL     1      19.550  -4.834  43.413  1.00  0.00    -0.003 C 
ATOM     26  C   UNL     1      20.274  -3.781  44.247  1.00  0.00     0.004 C 
ENDBRANCH  24  25
ENDBRANCH  23  24
ENDBRANCH  22  23
ENDBRANCH  21  22
ENDBRANCH  20  21
ENDBRANCH  19  20
ENDBRANCH  18  19
ENDBRANCH  17  18
ENDBRANCH  16  17
ENDBRANCH  15  16
ENDBRANCH   1  15
TORSDOF 22
ENDMDL
MODEL 8
REMARK VINA RESULT:    -4.092      1.295      2.320
REMARK INTER + INTRA:         -13.719
REMARK INTER:                  -9.943
REMARK INTRA:                  -3.776
REMARK UNBOUND:                -4.365
REMARK SMILES CCCCCCCCCCCCCCCCCCCCCCCC(=O)[O-]
REMARK SMILES IDX 13 1 14 2 15 3 16 4 17 5 18 6 19 7 20 8 21 9 22 10 23 11
REMARK SMILES IDX 24 12 25 13 26 14 12 15 11 16 10 17 9 18 8 19 7 20 6 21 5 22
REMARK SMILES IDX 4 23 3 24 2 25 1 26
REMARK H PARENT
REMARK Flexibility Score: inf
ROOT
ATOM      1  C   UNL     1      19.892  -6.548  48.521  1.00  0.00     0.000 C 
ENDROOT
BRANCH   1   2
ATOM      2  C   UNL     1      20.252  -7.501  49.681  1.00  0.00     0.000 C 
BRANCH   2   3
ATOM      3  C   UNL     1      21.118  -6.815  50.752  1.00  0.00     0.000 C 
BRANCH   3   4
ATOM      4  C   UNL     1      22.582  -7.281  50.719  1.00  0.00     0.000 C 
BRANCH   4   5
ATOM      5  C   UNL     1      23.574  -6.109  50.675  1.00  0.00     0.000 C 
BRANCH   5   6
ATOM      6  C   UNL     1      22.885  -4.791  51.052  1.00  0.00     0.000 C 
BRANCH   6   7
ATOM      7  C   UNL     1      23.791  -3.590  50.737  1.00  0.00     0.000 C 
BRANCH   7   8
ATOM      8  C   UNL     1      22.998  -2.324  50.372  1.00  0.00     0.000 C 
BRANCH   8   9
ATOM      9  C   UNL     1      22.936  -2.082  48.853  1.00  0.00     0.000 C 
BRANCH   9  10
ATOM     10  C   UNL     1      24.329  -2.056  48.203  1.00  0.00     0.006 C 
BRANCH  10  11
ATOM     11  C   UNL     1      24.379  -1.177  46.946  1.00  0.00     0.053 C 
BRANCH  11  12
ATOM     12  C   UNL     1      25.611  -1.474  46.150  1.00  0.00     0.041 C 
ATOM     13  O   UNL     1      26.712  -1.659  46.731  1.00  0.00    -0.550 OA
ATOM     14  O   UNL     1      25.535  -1.594  44.768  1.00  0.00    -0.550 OA
ENDBRANCH  11  12
ENDBRANCH  10  11
ENDBRANCH   9  10
ENDBRANCH   8   9
ENDBRANCH   7   8
ENDBRANCH   6   7
ENDBRANCH   5   6
ENDBRANCH   4   5
ENDBRANCH   3   4
ENDBRANCH   2   3
ENDBRANCH   1   2
BRANCH   1  15
ATOM     15  C   UNL     1      20.975  -6.462  47.433  1.00  0.00     0.000 C 
BRANCH  15  16
ATOM     16  C   UNL     1      21.785  -5.158  47.493  1.00  0.00     0.000 C 
BRANCH  16  17
ATOM     17  C   UNL     1      23.084  -5.242  46.663  1.00  0.00     0.000 C 
BRANCH  17  18
ATOM     18  C   UNL     1      22.887  -4.911  45.174  1.00  0.00    -0.000 C 
BRANCH  18  19
ATOM     19  C   UNL     1      22.462  -3.454  44.935  1.00  0.00    -0.000 C 
BRANCH  19  20
ATOM     20  C   UNL     1      21.245  -3.334  44.003  1.00  0.00    -0.000 C 
BRANCH  20  21
ATOM     21  C   UNL     1      19.916  -3.772  44.658  1.00  0.00    -0.000 C 
BRANCH  21  22
ATOM     22  C   UNL     1      18.851  -4.147  43.613  1.00  0.00    -0.000 C 
BRANCH  22  23
ATOM     23  C   UNL     1      19.017  -5.579  43.072  1.00  0.00    -0.000 C 
BRANCH  23  24
ATOM     24  C   UNL     1      18.764  -6.696  44.102  1.00  0.00    -0.000 C 
BRANCH  24  25
ATOM     25  C   UNL     1      19.883  -7.747  44.131  1.00  0.00    -0.003 C 
ATOM     26  C   UNL     1      21.071  -7.307  43.281  1.00  0.00     0.004 C 
ENDBRANCH  24  25
ENDBRANCH  23  24
ENDBRANCH  22  23
ENDBRANCH  21  22
ENDBRANCH  20  21
ENDBRANCH  19  20
ENDBRANCH  18  19
ENDBRANCH  17  18
ENDBRANCH  16  17
ENDBRANCH  15  16
ENDBRANCH   1  15
TORSDOF 22
ENDMDL
MODEL 9
REMARK VINA RESULT:    -4.091      2.283      5.779
REMARK INTER + INTRA:         -13.718
REMARK INTER:                  -9.290
REMARK INTRA:                  -4.428
REMARK UNBOUND:                -4.365
REMARK SMILES CCCCCCCCCCCCCCCCCCCCCCCC(=O)[O-]
REMARK SMILES IDX 13 1 14 2 15 3 16 4 17 5 18 6 19 7 20 8 21 9 22 10 23 11
REMARK SMILES IDX 24 12 25 13 26 14 12 15 11 16 10 17 9 18 8 19 7 20 6 21 5 22
REMARK SMILES IDX 4 23 3 24 2 25 1 26
REMARK H PARENT
REMARK Flexibility Score: inf
ROOT
ATOM      1  C   UNL     1      24.804  -4.272  50.760  1.00  0.00     0.000 C 
ENDROOT
BRANCH   1   2
ATOM      2  C   UNL     1      23.403  -3.758  50.366  1.00  0.00     0.000 C 
BRANCH   2   3
ATOM      3  C   UNL     1      23.312  -2.223  50.408  1.00  0.00     0.000 C 
BRANCH   3   4
ATOM      4  C   UNL     1      22.439  -1.648  49.282  1.00  0.00     0.000 C 
BRANCH   4   5
ATOM      5  C   UNL     1      23.076  -1.821  47.894  1.00  0.00     0.000 C 
BRANCH   5   6
ATOM      6  C   UNL     1      22.386  -2.943  47.109  1.00  0.00     0.000 C 
BRANCH   6   7
ATOM      7  C   UNL     1      23.040  -3.128  45.730  1.00  0.00     0.000 C 
BRANCH   7   8
ATOM      8  C   UNL     1      22.049  -3.619  44.661  1.00  0.00     0.000 C 
BRANCH   8   9
ATOM      9  C   UNL     1      20.587  -3.570  45.142  1.00  0.00     0.000 C 
BRANCH   9  10
ATOM     10  C   UNL     1      19.792  -4.822  44.738  1.00  0.00     0.006 C 
BRANCH  10  11
ATOM     11  C   UNL     1      20.475  -5.621  43.620  1.00  0.00     0.053 C 
BRANCH  11  12
ATOM     12  C   UNL     1      19.887  -6.995  43.527  1.00  0.00     0.041 C 
ATOM     13  O   UNL     1      20.636  -7.996  43.385  1.00  0.00    -0.550 OA
ATOM     14  O   UNL     1      18.515  -7.174  43.646  1.00  0.00    -0.550 OA
ENDBRANCH  11  12
ENDBRANCH  10  11
ENDBRANCH   9  10
ENDBRANCH   8   9
ENDBRANCH   7   8
ENDBRANCH   6   7
ENDBRANCH   5   6
ENDBRANCH   4   5
ENDBRANCH   3   4
ENDBRANCH   2   3
ENDBRANCH   1   2
BRANCH   1  15
ATOM     15  C   UNL     1      25.407  -5.260  49.747  1.00  0.00     0.000 C 
BRANCH  15  16
ATOM     16  C   UNL     1      25.411  -4.719  48.309  1.00  0.00     0.000 C 
BRANCH  16  17
ATOM     17  C   UNL     1      25.109  -5.822  47.272  1.00  0.00     0.000 C 
BRANCH  17  18
ATOM     18  C   UNL     1      23.897  -6.696  47.637  1.00  0.00    -0.000 C 
BRANCH  18  19
ATOM     19  C   UNL     1      22.869  -6.797  46.500  1.00  0.00    -0.000 C 
BRANCH  19  20
ATOM     20  C   UNL     1      21.477  -7.230  46.993  1.00  0.00    -0.000 C 
BRANCH  20  21
ATOM     21  C   UNL     1      20.880  -6.293  48.065  1.00  0.00    -0.000 C 
BRANCH  21  22
ATOM     22  C   UNL     1      19.893  -7.027  48.991  1.00  0.00    -0.000 C 
BRANCH  22  23
ATOM     23  C   UNL     1      20.522  -7.440  50.334  1.00  0.00    -0.000 C 
BRANCH  23  24
ATOM     24  C   UNL     1      21.804  -6.676  50.714  1.00  0.00    -0.000 C 
BRANCH  24  25
ATOM     25  C   UNL     1      22.764  -7.509  51.576  1.00  0.00    -0.003 C 
ATOM     26  C   UNL     1      23.537  -8.510  50.722  1.00  0.00     0.004 C 
ENDBRANCH  24  25
ENDBRANCH  23  24
ENDBRANCH  22  23
ENDBRANCH  21  22
ENDBRANCH  20  21
ENDBRANCH  19  20
ENDBRANCH  18  19
ENDBRANCH  17  18
ENDBRANCH  16  17
ENDBRANCH  15  16
ENDBRANCH   1  15
TORSDOF 22
ENDMDL
