MODEL 1
REMARK VINA RESULT:    -4.390      0.000      0.000
REMARK INTER + INTRA:          -5.122
REMARK INTER:                  -4.904
REMARK INTRA:                  -0.218
REMARK UNBOUND:                -0.218
REMARK SMILES CC(C)c1ccc(C(=O)[O-])cc1
REMARK SMILES IDX 7 1 6 2 11 3 5 4 12 5 4 6 8 7 9 8 10 9 2 10 1 11 3 12
REMARK H PARENT
REMARK Flexibility Score: inf
ROOT
ATOM      1  C   UNL     1      63.012  31.371  61.129  1.00  0.00    -0.003 A 
ATOM      2  C   UNL     1      61.699  31.839  60.950  1.00  0.00     0.010 A 
ATOM      3  C   UNL     1      64.073  32.291  61.087  1.00  0.00     0.010 A 
ATOM      4  C   UNL     1      61.454  33.198  60.733  1.00  0.00     0.004 A 
ATOM      5  C   UNL     1      63.828  33.650  60.870  1.00  0.00     0.004 A 
ATOM      6  C   UNL     1      62.515  34.119  60.691  1.00  0.00    -0.045 A 
ENDROOT
BRANCH   1   7
ATOM      7  C   UNL     1      63.267  29.933  61.358  1.00  0.00     0.071 C 
ATOM      8  O   UNL     1      64.410  29.444  61.152  1.00  0.00    -0.545 OA
ATOM      9  O   UNL     1      62.248  29.097  61.804  1.00  0.00    -0.545 OA
ENDBRANCH   1   7
BRANCH   6  10
ATOM     10  C   UNL     1      62.263  35.597  60.456  1.00  0.00     0.013 C 
ATOM     11  C   UNL     1      60.761  35.903  60.426  1.00  0.00     0.012 C 
ATOM     12  C   UNL     1      62.979  36.454  61.506  1.00  0.00     0.012 C 
ENDBRANCH   6  10
TORSDOF 2
ENDMDL
MODEL 2
REMARK VINA RESULT:    -4.384      0.081      1.399
REMARK INTER + INTRA:          -5.115
REMARK INTER:                  -4.897
REMARK INTRA:                  -0.219
REMARK UNBOUND:                -0.218
REMARK SMILES CC(C)c1ccc(C(=O)[O-])cc1
REMARK SMILES IDX 7 1 6 2 11 3 5 4 12 5 4 6 8 7 9 8 10 9 2 10 1 11 3 12
REMARK H PARENT
REMARK Flexibility Score: inf
ROOT
ATOM      1  C   UNL     1      63.005  31.311  61.142  1.00  0.00    -0.003 A 
ATOM      2  C   UNL     1      64.083  32.206  61.038  1.00  0.00     0.010 A 
ATOM      3  C   UNL     1      61.696  31.804  61.008  1.00  0.00     0.010 A 
ATOM      4  C   UNL     1      63.856  33.566  60.807  1.00  0.00     0.004 A 
ATOM      5  C   UNL     1      61.469  33.163  60.776  1.00  0.00     0.004 A 
ATOM      6  C   UNL     1      62.546  34.060  60.673  1.00  0.00    -0.045 A 
ENDROOT
BRANCH   1   7
ATOM      7  C   UNL     1      63.250  29.873  61.387  1.00  0.00     0.071 C 
ATOM      8  O   UNL     1      64.405  29.388  61.250  1.00  0.00    -0.545 OA
ATOM      9  O   UNL     1      62.208  29.035  61.770  1.00  0.00    -0.545 OA
ENDBRANCH   1   7
BRANCH   6  10
ATOM     10  C   UNL     1      62.286  35.534  60.421  1.00  0.00     0.013 C 
ATOM     11  C   UNL     1      60.782  35.832  60.392  1.00  0.00     0.012 C 
ATOM     12  C   UNL     1      63.001  36.407  61.458  1.00  0.00     0.012 C 
ENDBRANCH   6  10
TORSDOF 2
ENDMDL
MODEL 3
REMARK VINA RESULT:    -4.313     12.983     13.956
REMARK INTER + INTRA:          -5.035
REMARK INTER:                  -4.823
REMARK INTRA:                  -0.212
REMARK UNBOUND:                -0.218
REMARK SMILES CC(C)c1ccc(C(=O)[O-])cc1
REMARK SMILES IDX 7 1 6 2 11 3 5 4 12 5 4 6 8 7 9 8 10 9 2 10 1 11 3 12
REMARK H PARENT
REMARK Flexibility Score: inf
ROOT
ATOM      1  C   UNL     1      58.318  27.754  50.169  1.00  0.00    -0.003 A 
ATOM      2  C   UNL     1      57.418  28.829  50.265  1.00  0.00     0.010 A 
ATOM      3  C   UNL     1      57.808  26.450  50.045  1.00  0.00     0.010 A 
ATOM      4  C   UNL     1      56.039  28.605  50.239  1.00  0.00     0.004 A 
ATOM      5  C   UNL     1      56.429  26.226  50.018  1.00  0.00     0.004 A 
ATOM      6  C   UNL     1      55.529  27.301  50.115  1.00  0.00    -0.045 A 
ENDROOT
BRANCH   1   7
ATOM      7  C   UNL     1      59.777  27.996  50.198  1.00  0.00     0.071 C 
ATOM      8  O   UNL     1      60.362  28.250  51.284  1.00  0.00    -0.545 OA
ATOM      9  O   UNL     1      60.523  27.948  49.025  1.00  0.00    -0.545 OA
ENDBRANCH   1   7
BRANCH   6  10
ATOM     10  C   UNL     1      54.033  27.043  50.084  1.00  0.00     0.013 C 
ATOM     11  C   UNL     1      53.256  28.332  49.793  1.00  0.00     0.012 C 
ATOM     12  C   UNL     1      53.682  25.946  49.072  1.00  0.00     0.012 C 
ENDBRANCH   6  10
TORSDOF 2
ENDMDL
MODEL 4
REMARK VINA RESULT:    -4.296     12.974     13.925
REMARK INTER + INTRA:          -5.017
REMARK INTER:                  -4.805
REMARK INTRA:                  -0.212
REMARK UNBOUND:                -0.218
REMARK SMILES CC(C)c1ccc(C(=O)[O-])cc1
REMARK SMILES IDX 7 1 6 2 11 3 5 4 12 5 4 6 8 7 9 8 10 9 2 10 1 11 3 12
REMARK H PARENT
REMARK Flexibility Score: inf
ROOT
ATOM      1  C   UNL     1      58.278  27.763  50.140  1.00  0.00    -0.003 A 
ATOM      2  C   UNL     1      57.739  26.469  50.040  1.00  0.00     0.010 A 
ATOM      3  C   UNL     1      57.403  28.858  50.238  1.00  0.00     0.010 A 
ATOM      4  C   UNL     1      56.355  26.276  50.035  1.00  0.00     0.004 A 
ATOM      5  C   UNL     1      56.019  28.665  50.235  1.00  0.00     0.004 A 
ATOM      6  C   UNL     1      55.479  27.371  50.133  1.00  0.00    -0.045 A 
ENDROOT
BRANCH   1   7
ATOM      7  C   UNL     1      59.743  27.963  50.144  1.00  0.00     0.071 C 
ATOM      8  O   UNL     1      60.378  28.068  49.061  1.00  0.00    -0.545 OA
ATOM      9  O   UNL     1      60.442  28.038  51.345  1.00  0.00    -0.545 OA
ENDBRANCH   1   7
BRANCH   6  10
ATOM     10  C   UNL     1      53.974  27.175  50.130  1.00  0.00     0.013 C 
ATOM     11  C   UNL     1      53.246  28.491  49.831  1.00  0.00     0.012 C 
ATOM     12  C   UNL     1      53.561  26.079  49.142  1.00  0.00     0.012 C 
ENDBRANCH   6  10
TORSDOF 2
ENDMDL
MODEL 5
REMARK VINA RESULT:    -4.257      1.202      1.444
REMARK INTER + INTRA:          -4.972
REMARK INTER:                  -4.760
REMARK INTRA:                  -0.212
REMARK UNBOUND:                -0.218
REMARK SMILES CC(C)c1ccc(C(=O)[O-])cc1
REMARK SMILES IDX 7 1 6 2 11 3 5 4 12 5 4 6 8 7 9 8 10 9 2 10 1 11 3 12
REMARK H PARENT
REMARK Flexibility Score: inf
ROOT
ATOM      1  C   UNL     1      62.498  32.048  60.736  1.00  0.00    -0.003 A 
ATOM      2  C   UNL     1      61.483  33.005  60.570  1.00  0.00     0.010 A 
ATOM      3  C   UNL     1      63.809  32.485  60.995  1.00  0.00     0.010 A 
ATOM      4  C   UNL     1      61.773  34.370  60.660  1.00  0.00     0.004 A 
ATOM      5  C   UNL     1      64.098  33.849  61.086  1.00  0.00     0.004 A 
ATOM      6  C   UNL     1      63.084  34.807  60.919  1.00  0.00    -0.045 A 
ENDROOT
BRANCH   1   7
ATOM      7  C   UNL     1      62.187  30.606  60.640  1.00  0.00     0.071 C 
ATOM      8  O   UNL     1      62.128  30.037  59.517  1.00  0.00    -0.545 OA
ATOM      9  O   UNL     1      61.955  29.856  61.788  1.00  0.00    -0.545 OA
ENDBRANCH   1   7
BRANCH   6  10
ATOM     10  C   UNL     1      63.412  36.285  61.020  1.00  0.00     0.013 C 
ATOM     11  C   UNL     1      62.155  37.111  61.319  1.00  0.00     0.012 C 
ATOM     12  C   UNL     1      64.501  36.540  62.068  1.00  0.00     0.012 C 
ENDBRANCH   6  10
TORSDOF 2
ENDMDL
MODEL 6
REMARK VINA RESULT:    -4.186     13.379     14.305
REMARK INTER + INTRA:          -4.894
REMARK INTER:                  -4.694
REMARK INTRA:                  -0.200
REMARK UNBOUND:                -0.218
REMARK SMILES CC(C)c1ccc(C(=O)[O-])cc1
REMARK SMILES IDX 7 1 6 2 11 3 5 4 12 5 4 6 8 7 9 8 10 9 2 10 1 11 3 12
REMARK H PARENT
REMARK Flexibility Score: inf
ROOT
ATOM      1  C   UNL     1      54.656  26.719  49.913  1.00  0.00    -0.003 A 
ATOM      2  C   UNL     1      55.965  26.207  49.939  1.00  0.00     0.010 A 
ATOM      3  C   UNL     1      54.463  28.101  50.077  1.00  0.00     0.010 A 
ATOM      4  C   UNL     1      57.056  27.060  50.125  1.00  0.00     0.004 A 
ATOM      5  C   UNL     1      55.555  28.954  50.262  1.00  0.00     0.004 A 
ATOM      6  C   UNL     1      56.864  28.443  50.289  1.00  0.00    -0.045 A 
ENDROOT
BRANCH   1   7
ATOM      7  C   UNL     1      53.504  25.813  49.716  1.00  0.00     0.071 C 
ATOM      8  O   UNL     1      52.887  25.792  48.617  1.00  0.00    -0.545 OA
ATOM      9  O   UNL     1      53.084  24.972  50.740  1.00  0.00    -0.545 OA
ENDBRANCH   1   7
BRANCH   6  10
ATOM     10  C   UNL     1      58.040  29.380  50.492  1.00  0.00     0.013 C 
ATOM     11  C   UNL     1      58.952  28.886  51.622  1.00  0.00     0.012 C 
ATOM     12  C   UNL     1      58.828  29.569  49.190  1.00  0.00     0.012 C 
ENDBRANCH   6  10
TORSDOF 2
ENDMDL
MODEL 7
REMARK VINA RESULT:    -4.168     12.810     13.495
REMARK INTER + INTRA:          -4.873
REMARK INTER:                  -4.661
REMARK INTRA:                  -0.212
REMARK UNBOUND:                -0.218
REMARK SMILES CC(C)c1ccc(C(=O)[O-])cc1
REMARK SMILES IDX 7 1 6 2 11 3 5 4 12 5 4 6 8 7 9 8 10 9 2 10 1 11 3 12
REMARK H PARENT
REMARK Flexibility Score: inf
ROOT
ATOM      1  C   UNL     1      58.666  27.027  49.880  1.00  0.00    -0.003 A 
ATOM      2  C   UNL     1      58.538  28.426  49.916  1.00  0.00     0.010 A 
ATOM      3  C   UNL     1      57.514  26.235  50.025  1.00  0.00     0.010 A 
ATOM      4  C   UNL     1      57.285  29.020  50.094  1.00  0.00     0.004 A 
ATOM      5  C   UNL     1      56.261  26.829  50.202  1.00  0.00     0.004 A 
ATOM      6  C   UNL     1      56.132  28.228  50.239  1.00  0.00    -0.045 A 
ENDROOT
BRANCH   1   7
ATOM      7  C   UNL     1      59.993  26.403  49.692  1.00  0.00     0.071 C 
ATOM      8  O   UNL     1      61.003  27.111  49.434  1.00  0.00    -0.545 OA
ATOM      9  O   UNL     1      60.146  25.025  49.795  1.00  0.00    -0.545 OA
ENDBRANCH   1   7
BRANCH   6  10
ATOM     10  C   UNL     1      54.766  28.860  50.433  1.00  0.00     0.013 C 
ATOM     11  C   UNL     1      53.669  28.014  49.777  1.00  0.00     0.012 C 
ATOM     12  C   UNL     1      54.470  29.092  51.919  1.00  0.00     0.012 C 
ENDBRANCH   6  10
TORSDOF 2
ENDMDL
MODEL 8
REMARK VINA RESULT:    -4.033     13.302     14.293
REMARK INTER + INTRA:          -4.723
REMARK INTER:                  -4.505
REMARK INTRA:                  -0.217
REMARK UNBOUND:                -0.218
REMARK SMILES CC(C)c1ccc(C(=O)[O-])cc1
REMARK SMILES IDX 7 1 6 2 11 3 5 4 12 5 4 6 8 7 9 8 10 9 2 10 1 11 3 12
REMARK H PARENT
REMARK Flexibility Score: inf
ROOT
ATOM      1  C   UNL     1      55.078  27.685  50.184  1.00  0.00    -0.003 A 
ATOM      2  C   UNL     1      55.903  28.815  50.306  1.00  0.00     0.010 A 
ATOM      3  C   UNL     1      55.673  26.419  50.051  1.00  0.00     0.010 A 
ATOM      4  C   UNL     1      57.294  28.682  50.294  1.00  0.00     0.004 A 
ATOM      5  C   UNL     1      57.065  26.286  50.040  1.00  0.00     0.004 A 
ATOM      6  C   UNL     1      57.891  27.416  50.161  1.00  0.00    -0.045 A 
ENDROOT
BRANCH   1   7
ATOM      7  C   UNL     1      53.606  27.830  50.197  1.00  0.00     0.071 C 
ATOM      8  O   UNL     1      52.875  26.906  50.644  1.00  0.00    -0.545 OA
ATOM      9  O   UNL     1      53.007  28.989  49.715  1.00  0.00    -0.545 OA
ENDBRANCH   1   7
BRANCH   6  10
ATOM     10  C   UNL     1      59.400  27.257  50.147  1.00  0.00     0.013 C 
ATOM     11  C   UNL     1      59.801  25.816  49.810  1.00  0.00     0.012 C 
ATOM     12  C   UNL     1      60.052  28.252  49.179  1.00  0.00     0.012 C 
ENDBRANCH   6  10
TORSDOF 2
ENDMDL
MODEL 9
REMARK VINA RESULT:    -3.926      3.268      5.133
REMARK INTER + INTRA:          -4.603
REMARK INTER:                  -4.385
REMARK INTRA:                  -0.218
REMARK UNBOUND:                -0.218
REMARK SMILES CC(C)c1ccc(C(=O)[O-])cc1
REMARK SMILES IDX 7 1 6 2 11 3 5 4 12 5 4 6 8 7 9 8 10 9 2 10 1 11 3 12
REMARK H PARENT
REMARK Flexibility Score: inf
ROOT
ATOM      1  C   UNL     1      62.568  34.772  60.930  1.00  0.00    -0.003 A 
ATOM      2  C   UNL     1      61.476  33.930  60.661  1.00  0.00     0.010 A 
ATOM      3  C   UNL     1      63.841  34.202  61.101  1.00  0.00     0.010 A 
ATOM      4  C   UNL     1      61.653  32.547  60.567  1.00  0.00     0.004 A 
ATOM      5  C   UNL     1      64.018  32.819  61.005  1.00  0.00     0.004 A 
ATOM      6  C   UNL     1      62.926  31.975  60.738  1.00  0.00    -0.045 A 
ENDROOT
BRANCH   1   7
ATOM      7  C   UNL     1      62.375  36.235  61.029  1.00  0.00     0.071 C 
ATOM      8  O   UNL     1      61.294  36.766  60.659  1.00  0.00    -0.545 OA
ATOM      9  O   UNL     1      63.386  37.047  61.532  1.00  0.00    -0.545 OA
ENDBRANCH   1   7
BRANCH   6  10
ATOM     10  C   UNL     1      63.133  30.475  60.637  1.00  0.00     0.013 C 
ATOM     11  C   UNL     1      64.609  30.107  60.824  1.00  0.00     0.012 C 
ATOM     12  C   UNL     1      62.246  29.727  61.639  1.00  0.00     0.012 C 
ENDBRANCH   6  10
TORSDOF 2
ENDMDL
