MODEL 1
REMARK VINA RESULT:    -5.006      0.000      0.000
REMARK INTER + INTRA:          -6.886
REMARK INTER:                  -6.616
REMARK INTRA:                  -0.270
REMARK UNBOUND:                -0.270
REMARK SMILES C=C[C@H](O)CCCCC
REMARK SMILES IDX 6 1 7 2 8 3 9 4 5 5 3 6 2 7 1 8 4 9
REMARK H PARENT 4 10
REMARK Flexibility Score: inf
ROOT
ATOM      1  C   UNL     1     133.880 132.450 137.632  1.00  0.00     0.003 C 
ENDROOT
BRANCH   1   2
ATOM      2  C   UNL     1     132.361 132.628 137.784  1.00  0.00    -0.000 C 
BRANCH   2   3
ATOM      3  C   UNL     1     131.563 131.487 137.135  1.00  0.00    -0.003 C 
ATOM      4  C   UNL     1     131.968 130.135 137.717  1.00  0.00     0.004 C 
ENDBRANCH   2   3
ENDBRANCH   1   2
BRANCH   1   5
ATOM      5  C   UNL     1     134.610 133.779 137.371  1.00  0.00     0.036 C 
BRANCH   5   6
ATOM      6  C   UNL     1     135.422 134.245 138.596  1.00  0.00     0.136 C 
BRANCH   6   7
ATOM      7  C   UNL     1     134.727 135.376 139.320  1.00  0.00    -0.004 C 
ATOM      8  C   UNL     1     133.638 135.973 138.824  1.00  0.00     0.007 C 
ENDBRANCH   6   7
BRANCH   6   9
ATOM      9  O   UNL     1     136.707 134.653 138.204  1.00  0.00    -0.389 OA
ATOM     10  H   UNL     1     136.757 135.639 138.310  1.00  0.00     0.211 HD
ENDBRANCH   6   9
ENDBRANCH   5   6
ENDBRANCH   1   5
TORSDOF 6
ENDMDL
MODEL 2
REMARK VINA RESULT:    -4.762      1.558      2.476
REMARK INTER + INTRA:          -6.563
REMARK INTER:                  -6.440
REMARK INTRA:                  -0.123
REMARK UNBOUND:                -0.270
REMARK SMILES C=C[C@H](O)CCCCC
REMARK SMILES IDX 6 1 7 2 8 3 9 4 5 5 3 6 2 7 1 8 4 9
REMARK H PARENT 4 10
REMARK Flexibility Score: inf
ROOT
ATOM      1  C   UNL     1     133.408 134.249 139.265  1.00  0.00     0.003 C 
ENDROOT
BRANCH   1   2
ATOM      2  C   UNL     1     133.128 133.785 137.826  1.00  0.00    -0.000 C 
BRANCH   2   3
ATOM      3  C   UNL     1     133.311 132.270 137.647  1.00  0.00    -0.003 C 
ATOM      4  C   UNL     1     131.966 131.575 137.451  1.00  0.00     0.004 C 
ENDBRANCH   2   3
ENDBRANCH   1   2
BRANCH   1   5
ATOM      5  C   UNL     1     134.753 134.984 139.398  1.00  0.00     0.036 C 
BRANCH   5   6
ATOM      6  C   UNL     1     135.951 134.058 139.105  1.00  0.00     0.136 C 
BRANCH   6   7
ATOM      7  C   UNL     1     136.747 133.774 140.360  1.00  0.00    -0.004 C 
ATOM      8  C   UNL     1     138.082 133.723 140.357  1.00  0.00     0.007 C 
ENDBRANCH   6   7
BRANCH   6   9
ATOM      9  O   UNL     1     136.787 134.634 138.135  1.00  0.00    -0.389 OA
ATOM     10  H   UNL     1     137.271 135.390 138.561  1.00  0.00     0.211 HD
ENDBRANCH   6   9
ENDBRANCH   5   6
ENDBRANCH   1   5
TORSDOF 6
ENDMDL
MODEL 3
REMARK VINA RESULT:    -4.703      1.660      4.619
REMARK INTER + INTRA:          -6.486
REMARK INTER:                  -6.219
REMARK INTRA:                  -0.267
REMARK UNBOUND:                -0.270
REMARK SMILES C=C[C@H](O)CCCCC
REMARK SMILES IDX 6 1 7 2 8 3 9 4 5 5 3 6 2 7 1 8 4 9
REMARK H PARENT 4 10
REMARK Flexibility Score: inf
ROOT
ATOM      1  C   UNL     1     134.556 133.796 137.245  1.00  0.00     0.003 C 
ENDROOT
BRANCH   1   2
ATOM      2  C   UNL     1     135.561 134.227 138.326  1.00  0.00    -0.000 C 
BRANCH   2   3
ATOM      3  C   UNL     1     134.904 135.034 139.456  1.00  0.00    -0.003 C 
ATOM      4  C   UNL     1     133.978 136.109 138.895  1.00  0.00     0.004 C 
ENDBRANCH   2   3
ENDBRANCH   1   2
BRANCH   1   5
ATOM      5  C   UNL     1     133.925 132.424 137.536  1.00  0.00     0.036 C 
BRANCH   5   6
ATOM      6  C   UNL     1     132.447 132.544 137.962  1.00  0.00     0.136 C 
BRANCH   6   7
ATOM      7  C   UNL     1     131.622 131.402 137.413  1.00  0.00    -0.004 C 
ATOM      8  C   UNL     1     131.888 130.127 137.710  1.00  0.00     0.007 C 
ENDBRANCH   6   7
BRANCH   6   9
ATOM      9  O   UNL     1     131.912 133.767 137.527  1.00  0.00    -0.389 OA
ATOM     10  H   UNL     1     131.402 134.161 138.284  1.00  0.00     0.211 HD
ENDBRANCH   6   9
ENDBRANCH   5   6
ENDBRANCH   1   5
TORSDOF 6
ENDMDL
MODEL 4
REMARK VINA RESULT:    -4.694      1.543      1.977
REMARK INTER + INTRA:          -6.473
REMARK INTER:                  -6.209
REMARK INTRA:                  -0.264
REMARK UNBOUND:                -0.270
REMARK SMILES C=C[C@H](O)CCCCC
REMARK SMILES IDX 6 1 7 2 8 3 9 4 5 5 3 6 2 7 1 8 4 9
REMARK H PARENT 4 10
REMARK Flexibility Score: inf
ROOT
ATOM      1  C   UNL     1     133.867 133.087 137.178  1.00  0.00     0.003 C 
ENDROOT
BRANCH   1   2
ATOM      2  C   UNL     1     133.322 131.650 137.147  1.00  0.00    -0.000 C 
BRANCH   2   3
ATOM      3  C   UNL     1     131.807 131.587 137.391  1.00  0.00    -0.003 C 
ATOM      4  C   UNL     1     131.418 130.290 138.095  1.00  0.00     0.004 C 
ENDBRANCH   2   3
ENDBRANCH   1   2
BRANCH   1   5
ATOM      5  C   UNL     1     133.079 133.999 138.134  1.00  0.00     0.036 C 
BRANCH   5   6
ATOM      6  C   UNL     1     134.007 134.892 138.982  1.00  0.00     0.136 C 
BRANCH   6   7
ATOM      7  C   UNL     1     135.463 134.567 138.731  1.00  0.00    -0.004 C 
ATOM      8  C   UNL     1     136.277 134.153 139.707  1.00  0.00     0.007 C 
ENDBRANCH   6   7
BRANCH   6   9
ATOM      9  O   UNL     1     133.717 134.739 140.347  1.00  0.00    -0.389 OA
ATOM     10  H   UNL     1     134.349 134.068 140.718  1.00  0.00     0.211 HD
ENDBRANCH   6   9
ENDBRANCH   5   6
ENDBRANCH   1   5
TORSDOF 6
ENDMDL
MODEL 5
REMARK VINA RESULT:    -4.398      3.200      5.370
REMARK INTER + INTRA:          -6.082
REMARK INTER:                  -6.004
REMARK INTRA:                  -0.078
REMARK UNBOUND:                -0.270
REMARK SMILES C=C[C@H](O)CCCCC
REMARK SMILES IDX 6 1 7 2 8 3 9 4 5 5 3 6 2 7 1 8 4 9
REMARK H PARENT 4 10
REMARK Flexibility Score: inf
ROOT
ATOM      1  C   UNL     1     136.841 133.451 140.435  1.00  0.00     0.003 C 
ENDROOT
BRANCH   1   2
ATOM      2  C   UNL     1     138.347 133.758 140.445  1.00  0.00    -0.000 C 
BRANCH   2   3
ATOM      3  C   UNL     1     139.203 132.509 140.702  1.00  0.00    -0.003 C 
ATOM      4  C   UNL     1     140.582 132.890 141.237  1.00  0.00     0.004 C 
ENDBRANCH   2   3
ENDBRANCH   1   2
BRANCH   1   5
ATOM      5  C   UNL     1     136.069 134.300 139.410  1.00  0.00     0.036 C 
BRANCH   5   6
ATOM      6  C   UNL     1     134.552 134.027 139.456  1.00  0.00     0.136 C 
BRANCH   6   7
ATOM      7  C   UNL     1     133.962 133.966 138.065  1.00  0.00    -0.004 C 
ATOM      8  C   UNL     1     132.676 133.671 137.852  1.00  0.00     0.007 C 
ENDBRANCH   6   7
BRANCH   6   9
ATOM      9  O   UNL     1     133.900 135.021 140.204  1.00  0.00    -0.389 OA
ATOM     10  H   UNL     1     134.452 135.846 140.158  1.00  0.00     0.211 HD
ENDBRANCH   6   9
ENDBRANCH   5   6
ENDBRANCH   1   5
TORSDOF 6
ENDMDL
MODEL 6
REMARK VINA RESULT:    -4.354      2.027      3.162
REMARK INTER + INTRA:          -6.025
REMARK INTER:                  -5.906
REMARK INTRA:                  -0.119
REMARK UNBOUND:                -0.270
REMARK SMILES C=C[C@H](O)CCCCC
REMARK SMILES IDX 6 1 7 2 8 3 9 4 5 5 3 6 2 7 1 8 4 9
REMARK H PARENT 4 10
REMARK Flexibility Score: inf
ROOT
ATOM      1  C   UNL     1     131.676 130.581 138.056  1.00  0.00     0.003 C 
ENDROOT
BRANCH   1   2
ATOM      2  C   UNL     1     131.534 129.086 137.727  1.00  0.00    -0.000 C 
BRANCH   2   3
ATOM      3  C   UNL     1     130.821 128.302 138.839  1.00  0.00    -0.003 C 
ATOM      4  C   UNL     1     130.808 126.806 138.533  1.00  0.00     0.004 C 
ENDBRANCH   2   3
ENDBRANCH   1   2
BRANCH   1   5
ATOM      5  C   UNL     1     132.444 131.356 136.971  1.00  0.00     0.036 C 
BRANCH   5   6
ATOM      6  C   UNL     1     133.490 132.315 137.574  1.00  0.00     0.136 C 
BRANCH   6   7
ATOM      7  C   UNL     1     132.832 133.529 138.192  1.00  0.00    -0.004 C 
ATOM      8  C   UNL     1     133.523 134.424 138.905  1.00  0.00     0.007 C 
ENDBRANCH   6   7
BRANCH   6   9
ATOM      9  O   UNL     1     134.404 132.722 136.588  1.00  0.00    -0.389 OA
ATOM     10  H   UNL     1     135.302 132.387 136.851  1.00  0.00     0.211 HD
ENDBRANCH   6   9
ENDBRANCH   5   6
ENDBRANCH   1   5
TORSDOF 6
ENDMDL
MODEL 7
REMARK VINA RESULT:    -4.335      0.963      1.436
REMARK INTER + INTRA:          -5.999
REMARK INTER:                  -5.817
REMARK INTRA:                  -0.183
REMARK UNBOUND:                -0.270
REMARK SMILES C=C[C@H](O)CCCCC
REMARK SMILES IDX 6 1 7 2 8 3 9 4 5 5 3 6 2 7 1 8 4 9
REMARK H PARENT 4 10
REMARK Flexibility Score: inf
ROOT
ATOM      1  C   UNL     1     132.383 132.446 137.754  1.00  0.00     0.003 C 
ENDROOT
BRANCH   1   2
ATOM      2  C   UNL     1     131.863 131.059 137.341  1.00  0.00    -0.000 C 
BRANCH   2   3
ATOM      3  C   UNL     1     131.145 130.332 138.487  1.00  0.00    -0.003 C 
ATOM      4  C   UNL     1     131.147 128.822 138.266  1.00  0.00     0.004 C 
ENDBRANCH   2   3
ENDBRANCH   1   2
BRANCH   1   5
ATOM      5  C   UNL     1     133.911 132.569 137.621  1.00  0.00     0.036 C 
BRANCH   5   6
ATOM      6  C   UNL     1     134.463 133.787 138.388  1.00  0.00     0.136 C 
BRANCH   6   7
ATOM      7  C   UNL     1     133.426 134.882 138.504  1.00  0.00    -0.004 C 
ATOM      8  C   UNL     1     133.743 136.123 138.884  1.00  0.00     0.007 C 
ENDBRANCH   6   7
BRANCH   6   9
ATOM      9  O   UNL     1     135.610 134.287 137.750  1.00  0.00    -0.389 OA
ATOM     10  H   UNL     1     135.423 135.227 137.484  1.00  0.00     0.211 HD
ENDBRANCH   6   9
ENDBRANCH   5   6
ENDBRANCH   1   5
TORSDOF 6
ENDMDL
MODEL 8
REMARK VINA RESULT:    -4.301      2.169      4.744
REMARK INTER + INTRA:          -5.954
REMARK INTER:                  -5.808
REMARK INTRA:                  -0.146
REMARK UNBOUND:                -0.270
REMARK SMILES C=C[C@H](O)CCCCC
REMARK SMILES IDX 6 1 7 2 8 3 9 4 5 5 3 6 2 7 1 8 4 9
REMARK H PARENT 4 10
REMARK Flexibility Score: inf
ROOT
ATOM      1  C   UNL     1     134.633 135.012 139.005  1.00  0.00     0.003 C 
ENDROOT
BRANCH   1   2
ATOM      2  C   UNL     1     135.613 134.365 139.997  1.00  0.00    -0.000 C 
BRANCH   2   3
ATOM      3  C   UNL     1     136.980 134.065 139.366  1.00  0.00    -0.003 C 
ATOM      4  C   UNL     1     137.998 133.661 140.429  1.00  0.00     0.004 C 
ENDBRANCH   2   3
ENDBRANCH   1   2
BRANCH   1   5
ATOM      5  C   UNL     1     134.221 134.058 137.871  1.00  0.00     0.036 C 
BRANCH   5   6
ATOM      6  C   UNL     1     132.854 133.396 138.138  1.00  0.00     0.136 C 
BRANCH   6   7
ATOM      7  C   UNL     1     132.829 131.967 137.645  1.00  0.00    -0.004 C 
ATOM      8  C   UNL     1     131.706 131.385 137.211  1.00  0.00     0.007 C 
ENDBRANCH   6   7
BRANCH   6   9
ATOM      9  O   UNL     1     131.828 134.128 137.519  1.00  0.00    -0.389 OA
ATOM     10  H   UNL     1     130.965 133.832 137.912  1.00  0.00     0.211 HD
ENDBRANCH   6   9
ENDBRANCH   5   6
ENDBRANCH   1   5
TORSDOF 6
ENDMDL
MODEL 9
REMARK VINA RESULT:    -4.247      3.493      6.369
REMARK INTER + INTRA:          -5.882
REMARK INTER:                  -5.736
REMARK INTRA:                  -0.146
REMARK UNBOUND:                -0.270
REMARK SMILES C=C[C@H](O)CCCCC
REMARK SMILES IDX 6 1 7 2 8 3 9 4 5 5 3 6 2 7 1 8 4 9
REMARK H PARENT 4 10
REMARK Flexibility Score: inf
ROOT
ATOM      1  C   UNL     1     131.988 130.560 137.477  1.00  0.00     0.003 C 
ENDROOT
BRANCH   1   2
ATOM      2  C   UNL     1     132.174 132.073 137.677  1.00  0.00    -0.000 C 
BRANCH   2   3
ATOM      3  C   UNL     1     133.653 132.480 137.757  1.00  0.00    -0.003 C 
ATOM      4  C   UNL     1     133.813 133.829 138.454  1.00  0.00     0.004 C 
ENDBRANCH   2   3
ENDBRANCH   1   2
BRANCH   1   5
ATOM      5  C   UNL     1     130.831 129.990 138.317  1.00  0.00     0.036 C 
BRANCH   5   6
ATOM      6  C   UNL     1     131.146 128.579 138.855  1.00  0.00     0.136 C 
BRANCH   6   7
ATOM      7  C   UNL     1     130.631 127.507 137.921  1.00  0.00    -0.004 C 
ATOM      8  C   UNL     1     131.453 126.688 137.258  1.00  0.00     0.007 C 
ENDBRANCH   6   7
BRANCH   6   9
ATOM      9  O   UNL     1     130.585 128.406 140.130  1.00  0.00    -0.389 OA
ATOM     10  H   UNL     1     129.777 127.837 140.031  1.00  0.00     0.211 HD
ENDBRANCH   6   9
ENDBRANCH   5   6
ENDBRANCH   1   5
TORSDOF 6
ENDMDL
