MODEL 1
REMARK VINA RESULT:    -2.462      0.000      0.000
REMARK INTER + INTRA:          -3.495
REMARK INTER:                  -3.326
REMARK INTRA:                  -0.169
REMARK UNBOUND:                -0.169
REMARK SMILES CCCCCCCC(=O)[O-]
REMARK SMILES IDX 5 1 6 2 7 3 8 4 9 5 10 6 4 7 3 8 2 9 1 10
REMARK H PARENT
REMARK Flexibility Score: inf
ROOT
ATOM      1  C   UNL     1     -32.297  19.353 -10.448  1.00  0.00     0.000 C 
ENDROOT
BRANCH   1   2
ATOM      2  C   UNL     1     -31.470  18.059 -10.430  1.00  0.00     0.006 C 
BRANCH   2   3
ATOM      3  C   UNL     1     -30.005  18.343 -10.774  1.00  0.00     0.053 C 
BRANCH   3   4
ATOM      4  C   UNL     1     -29.425  17.217 -11.571  1.00  0.00     0.041 C 
ATOM      5  O   UNL     1     -29.443  16.043 -11.116  1.00  0.00    -0.550 OA
ATOM      6  O   UNL     1     -28.817  17.472 -12.794  1.00  0.00    -0.550 OA
ENDBRANCH   3   4
ENDBRANCH   2   3
ENDBRANCH   1   2
BRANCH   1   7
ATOM      7  C   UNL     1     -31.427  20.616 -10.336  1.00  0.00     0.000 C 
BRANCH   7   8
ATOM      8  C   UNL     1     -32.173  21.889 -10.773  1.00  0.00    -0.000 C 
BRANCH   8   9
ATOM      9  C   UNL     1     -31.792  23.114  -9.926  1.00  0.00    -0.003 C 
ATOM     10  C   UNL     1     -32.933  24.122  -9.795  1.00  0.00     0.004 C 
ENDBRANCH   8   9
ENDBRANCH   7   8
ENDBRANCH   1   7
TORSDOF 6
ENDMDL
MODEL 2
REMARK VINA RESULT:    -2.385      0.135      1.030
REMARK INTER + INTRA:          -3.390
REMARK INTER:                  -3.219
REMARK INTRA:                  -0.171
REMARK UNBOUND:                -0.169
REMARK SMILES CCCCCCCC(=O)[O-]
REMARK SMILES IDX 5 1 6 2 7 3 8 4 9 5 10 6 4 7 3 8 2 9 1 10
REMARK H PARENT
REMARK Flexibility Score: inf
ROOT
ATOM      1  C   UNL     1     -32.283  19.383 -10.375  1.00  0.00     0.000 C 
ENDROOT
BRANCH   1   2
ATOM      2  C   UNL     1     -31.462  18.085 -10.370  1.00  0.00     0.006 C 
BRANCH   2   3
ATOM      3  C   UNL     1     -30.003  18.360 -10.746  1.00  0.00     0.053 C 
BRANCH   3   4
ATOM      4  C   UNL     1     -29.437  17.215 -11.526  1.00  0.00     0.041 C 
ATOM      5  O   UNL     1     -28.807  17.426 -12.595  1.00  0.00    -0.550 OA
ATOM      6  O   UNL     1     -29.650  15.910 -11.098  1.00  0.00    -0.550 OA
ENDBRANCH   3   4
ENDBRANCH   2   3
ENDBRANCH   1   2
BRANCH   1   7
ATOM      7  C   UNL     1     -31.401  20.642 -10.363  1.00  0.00     0.000 C 
BRANCH   7   8
ATOM      8  C   UNL     1     -32.181  21.915 -10.736  1.00  0.00    -0.000 C 
BRANCH   8   9
ATOM      9  C   UNL     1     -31.683  23.155  -9.976  1.00  0.00    -0.003 C 
ATOM     10  C   UNL     1     -32.810  24.125  -9.621  1.00  0.00     0.004 C 
ENDBRANCH   8   9
ENDBRANCH   7   8
ENDBRANCH   1   7
TORSDOF 6
ENDMDL
MODEL 3
REMARK VINA RESULT:    -1.859      3.780      5.955
REMARK INTER + INTRA:          -2.679
REMARK INTER:                  -2.478
REMARK INTRA:                  -0.202
REMARK UNBOUND:                -0.169
REMARK SMILES CCCCCCCC(=O)[O-]
REMARK SMILES IDX 5 1 6 2 7 3 8 4 9 5 10 6 4 7 3 8 2 9 1 10
REMARK H PARENT
REMARK Flexibility Score: inf
ROOT
ATOM      1  C   UNL     1     -31.357  19.788 -10.411  1.00  0.00     0.000 C 
ENDROOT
BRANCH   1   2
ATOM      2  C   UNL     1     -32.286  20.975 -10.120  1.00  0.00     0.006 C 
BRANCH   2   3
ATOM      3  C   UNL     1     -31.718  22.271 -10.707  1.00  0.00     0.053 C 
BRANCH   3   4
ATOM      4  C   UNL     1     -32.285  23.461  -9.999  1.00  0.00     0.041 C 
ATOM      5  O   UNL     1     -31.571  24.125  -9.203  1.00  0.00    -0.550 OA
ATOM      6  O   UNL     1     -33.619  23.807 -10.180  1.00  0.00    -0.550 OA
ENDBRANCH   3   4
ENDBRANCH   2   3
ENDBRANCH   1   2
BRANCH   1   7
ATOM      7  C   UNL     1     -32.084  18.435 -10.347  1.00  0.00     0.000 C 
BRANCH   7   8
ATOM      8  C   UNL     1     -31.134  17.242 -10.551  1.00  0.00    -0.000 C 
BRANCH   8   9
ATOM      9  C   UNL     1     -29.673  17.680 -10.747  1.00  0.00    -0.003 C 
ATOM     10  C   UNL     1     -29.023  17.042 -11.974  1.00  0.00     0.004 C 
ENDBRANCH   8   9
ENDBRANCH   7   8
ENDBRANCH   1   7
TORSDOF 6
ENDMDL
MODEL 4
REMARK VINA RESULT:    -1.794      0.991      1.343
REMARK INTER + INTRA:          -2.593
REMARK INTER:                  -2.621
REMARK INTRA:                   0.028
REMARK UNBOUND:                -0.169
REMARK SMILES CCCCCCCC(=O)[O-]
REMARK SMILES IDX 5 1 6 2 7 3 8 4 9 5 10 6 4 7 3 8 2 9 1 10
REMARK H PARENT
REMARK Flexibility Score: inf
ROOT
ATOM      1  C   UNL     1     -31.984  20.219  -9.934  1.00  0.00     0.000 C 
ENDROOT
BRANCH   1   2
ATOM      2  C   UNL     1     -32.261  19.002 -10.830  1.00  0.00     0.006 C 
BRANCH   2   3
ATOM      3  C   UNL     1     -31.535  17.760 -10.304  1.00  0.00     0.053 C 
BRANCH   3   4
ATOM      4  C   UNL     1     -30.126  17.724 -10.804  1.00  0.00     0.041 C 
ATOM      5  O   UNL     1     -29.619  16.639 -11.193  1.00  0.00    -0.550 OA
ATOM      6  O   UNL     1     -29.354  18.879 -10.792  1.00  0.00    -0.550 OA
ENDBRANCH   3   4
ENDBRANCH   2   3
ENDBRANCH   1   2
BRANCH   1   7
ATOM      7  C   UNL     1     -32.250  21.554 -10.649  1.00  0.00     0.000 C 
BRANCH   7   8
ATOM      8  C   UNL     1     -31.236  22.645 -10.260  1.00  0.00    -0.000 C 
BRANCH   8   9
ATOM      9  C   UNL     1     -31.911  23.891  -9.666  1.00  0.00    -0.003 C 
ATOM     10  C   UNL     1     -33.410  23.951  -9.960  1.00  0.00     0.004 C 
ENDBRANCH   8   9
ENDBRANCH   7   8
ENDBRANCH   1   7
TORSDOF 6
ENDMDL
MODEL 5
REMARK VINA RESULT:    -1.015      3.522      5.847
REMARK INTER + INTRA:          -1.540
REMARK INTER:                  -1.319
REMARK INTRA:                  -0.221
REMARK UNBOUND:                -0.169
REMARK SMILES CCCCCCCC(=O)[O-]
REMARK SMILES IDX 5 1 6 2 7 3 8 4 9 5 10 6 4 7 3 8 2 9 1 10
REMARK H PARENT
REMARK Flexibility Score: inf
ROOT
ATOM      1  C   UNL     1     -32.230  19.454 -10.722  1.00  0.00     0.000 C 
ENDROOT
BRANCH   1   2
ATOM      2  C   UNL     1     -31.611  20.833 -10.448  1.00  0.00     0.006 C 
BRANCH   2   3
ATOM      3  C   UNL     1     -32.548  21.692  -9.594  1.00  0.00     0.053 C 
BRANCH   3   4
ATOM      4  C   UNL     1     -32.435  23.134  -9.979  1.00  0.00     0.041 C 
ATOM      5  O   UNL     1     -33.471  23.834 -10.126  1.00  0.00    -0.550 OA
ATOM      6  O   UNL     1     -31.186  23.691 -10.226  1.00  0.00    -0.550 OA
ENDBRANCH   3   4
ENDBRANCH   2   3
ENDBRANCH   1   2
BRANCH   1   7
ATOM      7  C   UNL     1     -31.276  18.297 -10.383  1.00  0.00     0.000 C 
BRANCH   7   8
ATOM      8  C   UNL     1     -29.813  18.611 -10.744  1.00  0.00    -0.000 C 
BRANCH   8   9
ATOM      9  C   UNL     1     -29.166  17.506 -11.593  1.00  0.00    -0.003 C 
ATOM     10  C   UNL     1     -29.696  16.112 -11.256  1.00  0.00     0.004 C 
ENDBRANCH   8   9
ENDBRANCH   7   8
ENDBRANCH   1   7
TORSDOF 6
ENDMDL
MODEL 6
REMARK VINA RESULT:    -0.053     20.361     22.065
REMARK INTER + INTRA:          -0.241
REMARK INTER:                   0.038
REMARK INTRA:                  -0.279
REMARK UNBOUND:                -0.169
REMARK SMILES CCCCCCCC(=O)[O-]
REMARK SMILES IDX 5 1 6 2 7 3 8 4 9 5 10 6 4 7 3 8 2 9 1 10
REMARK H PARENT
REMARK Flexibility Score: inf
ROOT
ATOM      1  C   UNL     1     -17.928   5.177 -18.951  1.00  0.00     0.000 C 
ENDROOT
BRANCH   1   2
ATOM      2  C   UNL     1     -19.248   5.247 -19.732  1.00  0.00     0.006 C 
BRANCH   2   3
ATOM      3  C   UNL     1     -19.950   3.885 -19.741  1.00  0.00     0.053 C 
BRANCH   3   4
ATOM      4  C   UNL     1     -21.155   3.910 -18.853  1.00  0.00     0.041 C 
ATOM      5  O   UNL     1     -22.307   4.010 -19.350  1.00  0.00    -0.550 OA
ATOM      6  O   UNL     1     -21.001   3.875 -17.472  1.00  0.00    -0.550 OA
ENDBRANCH   3   4
ENDBRANCH   2   3
ENDBRANCH   1   2
BRANCH   1   7
ATOM      7  C   UNL     1     -17.106   3.922 -19.286  1.00  0.00     0.000 C 
BRANCH   7   8
ATOM      8  C   UNL     1     -15.853   4.241 -20.121  1.00  0.00    -0.000 C 
BRANCH   8   9
ATOM      9  C   UNL     1     -14.747   4.912 -19.291  1.00  0.00    -0.003 C 
ATOM     10  C   UNL     1     -14.149   3.981 -18.237  1.00  0.00     0.004 C 
ENDBRANCH   8   9
ENDBRANCH   7   8
ENDBRANCH   1   7
TORSDOF 6
ENDMDL
