MODEL 1
REMARK VINA RESULT:    -3.629      0.000      0.000
REMARK INTER + INTRA:          -4.957
REMARK INTER:                  -4.478
REMARK INTRA:                  -0.480
REMARK UNBOUND:                -0.480
REMARK SMILES C=CC[C@H](C)C(=O)CC
REMARK SMILES IDX 4 1 5 2 6 3 7 4 8 5 9 6 3 7 2 8 1 9
REMARK H PARENT
REMARK Flexibility Score: inf
ROOT
ATOM      1  C   UNL     1     137.638 185.670 190.948  1.00  0.00     0.057 C 
ATOM      2  C   UNL     1     138.816 186.616 190.697  1.00  0.00     0.016 C 
ENDROOT
BRANCH   1   3
ATOM      3  C   UNL     1     137.355 185.575 192.434  1.00  0.00     0.135 C 
ATOM      4  O   UNL     1     138.039 184.842 193.136  1.00  0.00    -0.299 OA
BRANCH   3   5
ATOM      5  C   UNL     1     136.233 186.357 193.064  1.00  0.00     0.072 C 
ATOM      6  C   UNL     1     135.004 186.362 192.161  1.00  0.00     0.012 C 
ENDBRANCH   3   5
ENDBRANCH   1   3
BRANCH   1   7
ATOM      7  C   UNL     1     137.921 184.278 190.346  1.00  0.00     0.038 C 
BRANCH   7   8
ATOM      8  C   UNL     1     136.654 183.539 190.005  1.00  0.00    -0.034 C 
ATOM      9  C   UNL     1     135.674 184.108 189.298  1.00  0.00     0.004 C 
ENDBRANCH   7   8
ENDBRANCH   1   7
TORSDOF 4
ENDMDL
MODEL 2
REMARK VINA RESULT:    -3.583      1.408      1.709
REMARK INTER + INTRA:          -4.901
REMARK INTER:                  -4.401
REMARK INTRA:                  -0.500
REMARK UNBOUND:                -0.480
REMARK SMILES C=CC[C@H](C)C(=O)CC
REMARK SMILES IDX 4 1 5 2 6 3 7 4 8 5 9 6 3 7 2 8 1 9
REMARK H PARENT
REMARK Flexibility Score: inf
ROOT
ATOM      1  C   UNL     1     137.900 185.074 191.762  1.00  0.00     0.057 C 
ATOM      2  C   UNL     1     137.553 184.064 192.861  1.00  0.00     0.016 C 
ENDROOT
BRANCH   1   3
ATOM      3  C   UNL     1     136.941 186.247 191.813  1.00  0.00     0.135 C 
ATOM      4  O   UNL     1     137.037 187.145 190.988  1.00  0.00    -0.299 OA
BRANCH   3   5
ATOM      5  C   UNL     1     135.877 186.334 192.875  1.00  0.00     0.072 C 
ATOM      6  C   UNL     1     134.486 186.303 192.250  1.00  0.00     0.012 C 
ENDBRANCH   3   5
ENDBRANCH   1   3
BRANCH   1   7
ATOM      7  C   UNL     1     137.877 184.397 190.376  1.00  0.00     0.038 C 
BRANCH   7   8
ATOM      8  C   UNL     1     136.605 183.625 190.142  1.00  0.00    -0.034 C 
ATOM      9  C   UNL     1     135.682 184.035 189.268  1.00  0.00     0.004 C 
ENDBRANCH   7   8
ENDBRANCH   1   7
TORSDOF 4
ENDMDL
MODEL 3
REMARK VINA RESULT:    -3.570      2.035      3.724
REMARK INTER + INTRA:          -4.884
REMARK INTER:                  -4.539
REMARK INTRA:                  -0.345
REMARK UNBOUND:                -0.480
REMARK SMILES C=CC[C@H](C)C(=O)CC
REMARK SMILES IDX 4 1 5 2 6 3 7 4 8 5 9 6 3 7 2 8 1 9
REMARK H PARENT
REMARK Flexibility Score: inf
ROOT
ATOM      1  C   UNL     1     137.028 184.222 190.737  1.00  0.00     0.057 C 
ATOM      2  C   UNL     1     136.793 183.499 192.068  1.00  0.00     0.016 C 
ENDROOT
BRANCH   1   3
ATOM      3  C   UNL     1     137.060 183.220 189.601  1.00  0.00     0.135 C 
ATOM      4  O   UNL     1     138.124 182.718 189.265  1.00  0.00    -0.299 OA
BRANCH   3   5
ATOM      5  C   UNL     1     135.803 182.840 188.863  1.00  0.00     0.072 C 
ATOM      6  C   UNL     1     134.935 184.067 188.608  1.00  0.00     0.012 C 
ENDBRANCH   3   5
ENDBRANCH   1   3
BRANCH   1   7
ATOM      7  C   UNL     1     138.330 185.046 190.790  1.00  0.00     0.038 C 
BRANCH   7   8
ATOM      8  C   UNL     1     138.063 186.525 190.887  1.00  0.00    -0.034 C 
ATOM      9  C   UNL     1     136.825 187.010 191.013  1.00  0.00     0.004 C 
ENDBRANCH   7   8
ENDBRANCH   1   7
TORSDOF 4
ENDMDL
MODEL 4
REMARK VINA RESULT:    -3.531      1.701      2.129
REMARK INTER + INTRA:          -4.837
REMARK INTER:                  -4.558
REMARK INTRA:                  -0.279
REMARK UNBOUND:                -0.480
REMARK SMILES C=CC[C@H](C)C(=O)CC
REMARK SMILES IDX 4 1 5 2 6 3 7 4 8 5 9 6 3 7 2 8 1 9
REMARK H PARENT
REMARK Flexibility Score: inf
ROOT
ATOM      1  C   UNL     1     136.567 185.165 190.307  1.00  0.00     0.057 C 
ATOM      2  C   UNL     1     137.733 184.344 190.867  1.00  0.00     0.016 C 
ENDROOT
BRANCH   1   3
ATOM      3  C   UNL     1     136.264 186.331 191.227  1.00  0.00     0.135 C 
ATOM      4  O   UNL     1     137.053 187.263 191.305  1.00  0.00    -0.299 OA
BRANCH   3   5
ATOM      5  C   UNL     1     135.012 186.357 192.063  1.00  0.00     0.072 C 
ATOM      6  C   UNL     1     135.345 186.185 193.541  1.00  0.00     0.012 C 
ENDBRANCH   3   5
ENDBRANCH   1   3
BRANCH   1   7
ATOM      7  C   UNL     1     135.322 184.276 190.109  1.00  0.00     0.038 C 
BRANCH   7   8
ATOM      8  C   UNL     1     135.049 183.999 188.654  1.00  0.00    -0.034 C 
ATOM      9  C   UNL     1     135.313 182.812 188.101  1.00  0.00     0.004 C 
ENDBRANCH   7   8
ENDBRANCH   1   7
TORSDOF 4
ENDMDL
MODEL 5
REMARK VINA RESULT:    -3.494      1.925      3.276
REMARK INTER + INTRA:          -4.791
REMARK INTER:                  -4.593
REMARK INTRA:                  -0.198
REMARK UNBOUND:                -0.480
REMARK SMILES C=CC[C@H](C)C(=O)CC
REMARK SMILES IDX 4 1 5 2 6 3 7 4 8 5 9 6 3 7 2 8 1 9
REMARK H PARENT
REMARK Flexibility Score: inf
ROOT
ATOM      1  C   UNL     1     136.301 183.728 189.950  1.00  0.00     0.057 C 
ATOM      2  C   UNL     1     135.277 184.028 188.850  1.00  0.00     0.016 C 
ENDROOT
BRANCH   1   3
ATOM      3  C   UNL     1     136.841 185.023 190.524  1.00  0.00     0.135 C 
ATOM      4  O   UNL     1     136.076 185.949 190.756  1.00  0.00    -0.299 OA
BRANCH   3   5
ATOM      5  C   UNL     1     138.311 185.198 190.800  1.00  0.00     0.072 C 
ATOM      6  C   UNL     1     138.708 186.667 190.708  1.00  0.00     0.012 C 
ENDBRANCH   3   5
ENDBRANCH   1   3
BRANCH   1   7
ATOM      7  C   UNL     1     137.440 182.844 189.405  1.00  0.00     0.038 C 
BRANCH   7   8
ATOM      8  C   UNL     1     136.922 181.702 188.570  1.00  0.00    -0.034 C 
ATOM      9  C   UNL     1     137.648 180.602 188.353  1.00  0.00     0.004 C 
ENDBRANCH   7   8
ENDBRANCH   1   7
TORSDOF 4
ENDMDL
MODEL 6
REMARK VINA RESULT:    -3.443      1.287      3.465
REMARK INTER + INTRA:          -4.728
REMARK INTER:                  -4.271
REMARK INTRA:                  -0.457
REMARK UNBOUND:                -0.480
REMARK SMILES C=CC[C@H](C)C(=O)CC
REMARK SMILES IDX 4 1 5 2 6 3 7 4 8 5 9 6 3 7 2 8 1 9
REMARK H PARENT
REMARK Flexibility Score: inf
ROOT
ATOM      1  C   UNL     1     135.776 184.994 190.285  1.00  0.00     0.057 C 
ATOM      2  C   UNL     1     135.365 184.151 189.074  1.00  0.00     0.016 C 
ENDROOT
BRANCH   1   3
ATOM      3  C   UNL     1     137.071 184.466 190.870  1.00  0.00     0.135 C 
ATOM      4  O   UNL     1     137.062 183.440 191.536  1.00  0.00    -0.299 OA
BRANCH   3   5
ATOM      5  C   UNL     1     138.373 185.193 190.658  1.00  0.00     0.072 C 
ATOM      6  C   UNL     1     138.202 186.689 190.899  1.00  0.00     0.012 C 
ENDBRANCH   3   5
ENDBRANCH   1   3
BRANCH   1   7
ATOM      7  C   UNL     1     134.653 185.008 191.343  1.00  0.00     0.038 C 
BRANCH   7   8
ATOM      8  C   UNL     1     134.684 186.254 192.188  1.00  0.00    -0.034 C 
ATOM      9  C   UNL     1     135.151 186.245 193.439  1.00  0.00     0.004 C 
ENDBRANCH   7   8
ENDBRANCH   1   7
TORSDOF 4
ENDMDL
MODEL 7
REMARK VINA RESULT:    -3.443      1.617      2.500
REMARK INTER + INTRA:          -4.727
REMARK INTER:                  -4.324
REMARK INTRA:                  -0.404
REMARK UNBOUND:                -0.480
REMARK SMILES C=CC[C@H](C)C(=O)CC
REMARK SMILES IDX 4 1 5 2 6 3 7 4 8 5 9 6 3 7 2 8 1 9
REMARK H PARENT
REMARK Flexibility Score: inf
ROOT
ATOM      1  C   UNL     1     137.075 183.374 190.746  1.00  0.00     0.057 C 
ATOM      2  C   UNL     1     135.931 183.309 191.762  1.00  0.00     0.016 C 
ENDROOT
BRANCH   1   3
ATOM      3  C   UNL     1     137.836 184.676 190.901  1.00  0.00     0.135 C 
ATOM      4  O   UNL     1     138.838 184.876 190.230  1.00  0.00    -0.299 OA
BRANCH   3   5
ATOM      5  C   UNL     1     137.386 185.726 191.883  1.00  0.00     0.072 C 
ATOM      6  C   UNL     1     136.801 186.931 191.154  1.00  0.00     0.012 C 
ENDBRANCH   3   5
ENDBRANCH   1   3
BRANCH   1   7
ATOM      7  C   UNL     1     136.536 183.213 189.310  1.00  0.00     0.038 C 
BRANCH   7   8
ATOM      8  C   UNL     1     135.359 184.114 189.041  1.00  0.00    -0.034 C 
ATOM      9  C   UNL     1     134.408 183.788 188.163  1.00  0.00     0.004 C 
ENDBRANCH   7   8
ENDBRANCH   1   7
TORSDOF 4
ENDMDL
MODEL 8
REMARK VINA RESULT:    -3.421      1.044      3.044
REMARK INTER + INTRA:          -4.701
REMARK INTER:                  -4.236
REMARK INTRA:                  -0.465
REMARK UNBOUND:                -0.480
REMARK SMILES C=CC[C@H](C)C(=O)CC
REMARK SMILES IDX 4 1 5 2 6 3 7 4 8 5 9 6 3 7 2 8 1 9
REMARK H PARENT
REMARK Flexibility Score: inf
ROOT
ATOM      1  C   UNL     1     137.124 186.325 192.419  1.00  0.00     0.057 C 
ATOM      2  C   UNL     1     136.970 187.168 191.149  1.00  0.00     0.016 C 
ENDROOT
BRANCH   1   3
ATOM      3  C   UNL     1     137.570 184.921 192.060  1.00  0.00     0.135 C 
ATOM      4  O   UNL     1     137.636 184.065 192.931  1.00  0.00    -0.299 OA
BRANCH   3   5
ATOM      5  C   UNL     1     137.949 184.563 190.647  1.00  0.00     0.072 C 
ATOM      6  C   UNL     1     136.934 183.599 190.043  1.00  0.00     0.012 C 
ENDBRANCH   3   5
ENDBRANCH   1   3
BRANCH   1   7
ATOM      7  C   UNL     1     135.805 186.302 193.218  1.00  0.00     0.038 C 
BRANCH   7   8
ATOM      8  C   UNL     1     134.597 186.386 192.322  1.00  0.00    -0.034 C 
ATOM      9  C   UNL     1     133.807 185.332 192.103  1.00  0.00     0.004 C 
ENDBRANCH   7   8
ENDBRANCH   1   7
TORSDOF 4
ENDMDL
MODEL 9
REMARK VINA RESULT:    -3.408      1.987      2.757
REMARK INTER + INTRA:          -4.685
REMARK INTER:                  -4.467
REMARK INTRA:                  -0.218
REMARK UNBOUND:                -0.480
REMARK SMILES C=CC[C@H](C)C(=O)CC
REMARK SMILES IDX 4 1 5 2 6 3 7 4 8 5 9 6 3 7 2 8 1 9
REMARK H PARENT
REMARK Flexibility Score: inf
ROOT
ATOM      1  C   UNL     1     136.124 184.647 189.873  1.00  0.00     0.057 C 
ATOM      2  C   UNL     1     137.180 183.611 190.272  1.00  0.00     0.016 C 
ENDROOT
BRANCH   1   3
ATOM      3  C   UNL     1     135.374 185.123 191.102  1.00  0.00     0.135 C 
ATOM      4  O   UNL     1     134.372 184.525 191.469  1.00  0.00    -0.299 OA
BRANCH   3   5
ATOM      5  C   UNL     1     135.833 186.331 191.874  1.00  0.00     0.072 C 
ATOM      6  C   UNL     1     136.886 187.106 191.088  1.00  0.00     0.012 C 
ENDBRANCH   3   5
ENDBRANCH   1   3
BRANCH   1   7
ATOM      7  C   UNL     1     135.158 184.061 188.824  1.00  0.00     0.038 C 
BRANCH   7   8
ATOM      8  C   UNL     1     135.579 182.689 188.368  1.00  0.00    -0.034 C 
ATOM      9  C   UNL     1     135.067 182.123 187.272  1.00  0.00     0.004 C 
ENDBRANCH   7   8
ENDBRANCH   1   7
TORSDOF 4
ENDMDL
