MODEL 1
REMARK VINA RESULT:    -5.472      0.000      0.000
REMARK INTER + INTRA:          -6.320
REMARK INTER:                  -6.112
REMARK INTRA:                  -0.208
REMARK UNBOUND:                -0.208
REMARK SMILES CC(C)c1ccc(C(=O)[O-])cc1
REMARK SMILES IDX 7 1 6 2 11 3 5 4 12 5 4 6 8 7 9 8 10 9 2 10 1 11 3 12
REMARK H PARENT
REMARK Flexibility Score: inf
ROOT
ATOM      1  C   UNL     1      -4.994  36.542  22.980  1.00  0.00    -0.003 A 
ATOM      2  C   UNL     1      -4.628  35.437  22.192  1.00  0.00     0.010 A 
ATOM      3  C   UNL     1      -4.972  37.824  22.405  1.00  0.00     0.010 A 
ATOM      4  C   UNL     1      -4.247  35.611  20.859  1.00  0.00     0.004 A 
ATOM      5  C   UNL     1      -4.591  37.998  21.071  1.00  0.00     0.004 A 
ATOM      6  C   UNL     1      -4.226  36.895  20.282  1.00  0.00    -0.045 A 
ENDROOT
BRANCH   1   7
ATOM      7  C   UNL     1      -5.395  36.352  24.391  1.00  0.00     0.071 C 
ATOM      8  O   UNL     1      -6.125  35.380  24.723  1.00  0.00    -0.545 OA
ATOM      9  O   UNL     1      -4.973  37.244  25.371  1.00  0.00    -0.545 OA
ENDBRANCH   1   7
BRANCH   6  10
ATOM     10  C   UNL     1      -3.815  37.098  18.836  1.00  0.00     0.013 C 
ATOM     11  C   UNL     1      -2.377  37.619  18.737  1.00  0.00     0.012 C 
ATOM     12  C   UNL     1      -3.991  35.808  18.025  1.00  0.00     0.012 C 
ENDBRANCH   6  10
TORSDOF 2
ENDMDL
MODEL 2
REMARK VINA RESULT:    -5.409      1.998      2.992
REMARK INTER + INTRA:          -6.250
REMARK INTER:                  -6.040
REMARK INTRA:                  -0.210
REMARK UNBOUND:                -0.208
REMARK SMILES CC(C)c1ccc(C(=O)[O-])cc1
REMARK SMILES IDX 7 1 6 2 11 3 5 4 12 5 4 6 8 7 9 8 10 9 2 10 1 11 3 12
REMARK H PARENT
REMARK Flexibility Score: inf
ROOT
ATOM      1  C   UNL     1      -4.678  36.182  20.157  1.00  0.00    -0.003 A 
ATOM      2  C   UNL     1      -4.955  35.112  19.288  1.00  0.00     0.010 A 
ATOM      3  C   UNL     1      -3.897  37.253  19.691  1.00  0.00     0.010 A 
ATOM      4  C   UNL     1      -4.460  35.115  17.981  1.00  0.00     0.004 A 
ATOM      5  C   UNL     1      -3.403  37.255  18.383  1.00  0.00     0.004 A 
ATOM      6  C   UNL     1      -3.678  36.187  17.513  1.00  0.00    -0.045 A 
ENDROOT
BRANCH   1   7
ATOM      7  C   UNL     1      -5.204  36.175  21.540  1.00  0.00     0.071 C 
ATOM      8  O   UNL     1      -6.124  35.380  21.871  1.00  0.00    -0.545 OA
ATOM      9  O   UNL     1      -4.690  37.045  22.495  1.00  0.00    -0.545 OA
ENDBRANCH   1   7
BRANCH   6  10
ATOM     10  C   UNL     1      -3.135  36.201  16.097  1.00  0.00     0.013 C 
ATOM     11  C   UNL     1      -3.500  37.504  15.377  1.00  0.00     0.012 C 
ATOM     12  C   UNL     1      -1.619  35.969  16.084  1.00  0.00     0.012 C 
ENDBRANCH   6  10
TORSDOF 2
ENDMDL
MODEL 3
REMARK VINA RESULT:    -5.383      4.185      5.984
REMARK INTER + INTRA:          -6.221
REMARK INTER:                  -6.013
REMARK INTRA:                  -0.208
REMARK UNBOUND:                -0.208
REMARK SMILES CC(C)c1ccc(C(=O)[O-])cc1
REMARK SMILES IDX 7 1 6 2 11 3 5 4 12 5 4 6 8 7 9 8 10 9 2 10 1 11 3 12
REMARK H PARENT
REMARK Flexibility Score: inf
ROOT
ATOM      1  C   UNL     1      -3.477  36.286  17.504  1.00  0.00    -0.003 A 
ATOM      2  C   UNL     1      -3.204  37.397  18.320  1.00  0.00     0.010 A 
ATOM      3  C   UNL     1      -4.336  35.283  17.985  1.00  0.00     0.010 A 
ATOM      4  C   UNL     1      -3.777  37.502  19.590  1.00  0.00     0.004 A 
ATOM      5  C   UNL     1      -4.908  35.389  19.256  1.00  0.00     0.004 A 
ATOM      6  C   UNL     1      -4.637  36.498  20.073  1.00  0.00    -0.045 A 
ENDROOT
BRANCH   1   7
ATOM      7  C   UNL     1      -2.868  36.180  16.160  1.00  0.00     0.071 C 
ATOM      8  O   UNL     1      -1.726  35.670  16.014  1.00  0.00    -0.545 OA
ATOM      9  O   UNL     1      -3.549  36.640  15.038  1.00  0.00    -0.545 OA
ENDBRANCH   1   7
BRANCH   6  10
ATOM     10  C   UNL     1      -5.265  36.600  21.450  1.00  0.00     0.013 C 
ATOM     11  C   UNL     1      -4.916  35.379  22.309  1.00  0.00     0.012 C 
ATOM     12  C   UNL     1      -4.856  37.902  22.150  1.00  0.00     0.012 C 
ENDBRANCH   6  10
TORSDOF 2
ENDMDL
MODEL 4
REMARK VINA RESULT:    -5.272      2.106      3.336
REMARK INTER + INTRA:          -6.097
REMARK INTER:                  -5.887
REMARK INTRA:                  -0.209
REMARK UNBOUND:                -0.208
REMARK SMILES CC(C)c1ccc(C(=O)[O-])cc1
REMARK SMILES IDX 7 1 6 2 11 3 5 4 12 5 4 6 8 7 9 8 10 9 2 10 1 11 3 12
REMARK H PARENT
REMARK Flexibility Score: inf
ROOT
ATOM      1  C   UNL     1      -4.456  36.226  20.049  1.00  0.00    -0.003 A 
ATOM      2  C   UNL     1      -3.564  37.303  19.898  1.00  0.00     0.010 A 
ATOM      3  C   UNL     1      -4.714  35.396  18.945  1.00  0.00     0.010 A 
ATOM      4  C   UNL     1      -2.945  37.543  18.668  1.00  0.00     0.004 A 
ATOM      5  C   UNL     1      -4.093  35.637  17.716  1.00  0.00     0.004 A 
ATOM      6  C   UNL     1      -3.202  36.711  17.563  1.00  0.00    -0.045 A 
ENDROOT
BRANCH   1   7
ATOM      7  C   UNL     1      -5.109  35.976  21.353  1.00  0.00     0.071 C 
ATOM      8  O   UNL     1      -6.125  35.235  21.427  1.00  0.00    -0.545 OA
ATOM      9  O   UNL     1      -4.612  36.556  22.514  1.00  0.00    -0.545 OA
ENDBRANCH   1   7
BRANCH   6  10
ATOM     10  C   UNL     1      -2.537  36.961  16.223  1.00  0.00     0.013 C 
ATOM     11  C   UNL     1      -1.695  35.757  15.789  1.00  0.00     0.012 C 
ATOM     12  C   UNL     1      -3.571  37.326  15.151  1.00  0.00     0.012 C 
ENDBRANCH   6  10
TORSDOF 2
ENDMDL
MODEL 5
REMARK VINA RESULT:    -4.841      3.151      4.867
REMARK INTER + INTRA:          -5.615
REMARK INTER:                  -5.394
REMARK INTRA:                  -0.221
REMARK UNBOUND:                -0.208
REMARK SMILES CC(C)c1ccc(C(=O)[O-])cc1
REMARK SMILES IDX 7 1 6 2 11 3 5 4 12 5 4 6 8 7 9 8 10 9 2 10 1 11 3 12
REMARK H PARENT
REMARK Flexibility Score: inf
ROOT
ATOM      1  C   UNL     1      -4.687  35.822  19.738  1.00  0.00    -0.003 A 
ATOM      2  C   UNL     1      -5.349  35.176  20.797  1.00  0.00     0.010 A 
ATOM      3  C   UNL     1      -4.087  37.071  19.971  1.00  0.00     0.010 A 
ATOM      4  C   UNL     1      -5.409  35.768  22.061  1.00  0.00     0.004 A 
ATOM      5  C   UNL     1      -4.148  37.662  21.237  1.00  0.00     0.004 A 
ATOM      6  C   UNL     1      -4.809  37.018  22.296  1.00  0.00    -0.045 A 
ENDROOT
BRANCH   1   7
ATOM      7  C   UNL     1      -4.626  35.191  18.401  1.00  0.00     0.071 C 
ATOM      8  O   UNL     1      -5.334  34.183  18.136  1.00  0.00    -0.545 OA
ATOM      9  O   UNL     1      -3.787  35.703  17.417  1.00  0.00    -0.545 OA
ENDBRANCH   1   7
BRANCH   6  10
ATOM     10  C   UNL     1      -4.867  37.671  23.664  1.00  0.00     0.013 C 
ATOM     11  C   UNL     1      -5.089  39.183  23.546  1.00  0.00     0.012 C 
ATOM     12  C   UNL     1      -5.944  37.022  24.541  1.00  0.00     0.012 C 
ENDBRANCH   6  10
TORSDOF 2
ENDMDL
MODEL 6
REMARK VINA RESULT:    -4.789      1.153      2.219
REMARK INTER + INTRA:          -5.557
REMARK INTER:                  -5.341
REMARK INTRA:                  -0.215
REMARK UNBOUND:                -0.208
REMARK SMILES CC(C)c1ccc(C(=O)[O-])cc1
REMARK SMILES IDX 7 1 6 2 11 3 5 4 12 5 4 6 8 7 9 8 10 9 2 10 1 11 3 12
REMARK H PARENT
REMARK Flexibility Score: inf
ROOT
ATOM      1  C   UNL     1      -4.795  37.192  22.419  1.00  0.00    -0.003 A 
ATOM      2  C   UNL     1      -4.687  37.991  21.267  1.00  0.00     0.010 A 
ATOM      3  C   UNL     1      -4.638  35.800  22.300  1.00  0.00     0.010 A 
ATOM      4  C   UNL     1      -4.428  37.410  20.023  1.00  0.00     0.004 A 
ATOM      5  C   UNL     1      -4.379  35.220  21.054  1.00  0.00     0.004 A 
ATOM      6  C   UNL     1      -4.270  36.017  19.903  1.00  0.00    -0.045 A 
ENDROOT
BRANCH   1   7
ATOM      7  C   UNL     1      -5.070  37.812  23.734  1.00  0.00     0.071 C 
ATOM      8  O   UNL     1      -5.377  37.098  24.726  1.00  0.00    -0.545 OA
ATOM      9  O   UNL     1      -4.992  39.190  23.894  1.00  0.00    -0.545 OA
ENDBRANCH   1   7
BRANCH   6  10
ATOM     10  C   UNL     1      -3.989  35.374  18.558  1.00  0.00     0.013 C 
ATOM     11  C   UNL     1      -5.123  34.428  18.148  1.00  0.00     0.012 C 
ATOM     12  C   UNL     1      -3.738  36.435  17.479  1.00  0.00     0.012 C 
ENDBRANCH   6  10
TORSDOF 2
ENDMDL
MODEL 7
REMARK VINA RESULT:    -2.611      3.289      5.180
REMARK INTER + INTRA:          -3.125
REMARK INTER:                  -2.919
REMARK INTRA:                  -0.206
REMARK UNBOUND:                -0.208
REMARK SMILES CC(C)c1ccc(C(=O)[O-])cc1
REMARK SMILES IDX 7 1 6 2 11 3 5 4 12 5 4 6 8 7 9 8 10 9 2 10 1 11 3 12
REMARK H PARENT
REMARK Flexibility Score: inf
ROOT
ATOM      1  C   UNL     1      -4.103  36.601  19.603  1.00  0.00    -0.003 A 
ATOM      2  C   UNL     1      -3.976  35.449  20.398  1.00  0.00     0.010 A 
ATOM      3  C   UNL     1      -4.808  37.705  20.111  1.00  0.00     0.010 A 
ATOM      4  C   UNL     1      -4.543  35.403  21.674  1.00  0.00     0.004 A 
ATOM      5  C   UNL     1      -5.375  37.658  21.388  1.00  0.00     0.004 A 
ATOM      6  C   UNL     1      -5.249  36.508  22.184  1.00  0.00    -0.045 A 
ENDROOT
BRANCH   1   7
ATOM      7  C   UNL     1      -3.501  36.645  18.252  1.00  0.00     0.071 C 
ATOM      8  O   UNL     1      -2.716  37.577  17.932  1.00  0.00    -0.545 OA
ATOM      9  O   UNL     1      -3.793  35.659  17.317  1.00  0.00    -0.545 OA
ENDBRANCH   1   7
BRANCH   6  10
ATOM     10  C   UNL     1      -5.870  36.470  23.568  1.00  0.00     0.013 C 
ATOM     11  C   UNL     1      -6.125  35.028  24.021  1.00  0.00     0.012 C 
ATOM     12  C   UNL     1      -5.002  37.222  24.584  1.00  0.00     0.012 C 
ENDBRANCH   6  10
TORSDOF 2
ENDMDL
