MODEL 1
REMARK VINA RESULT:    -3.836      0.000      0.000
REMARK INTER + INTRA:          -5.582
REMARK INTER:                  -5.294
REMARK INTRA:                  -0.288
REMARK UNBOUND:                -0.288
REMARK SMILES OC[C@@H](O)[C@H](O)[C@@H](O)CO
REMARK SMILES IDX 5 1 7 2 9 3 10 4 8 6 3 8 2 9 1 10 4 12 6 14
REMARK H PARENT 10 5 8 7 1 11 4 13 6 15
REMARK Flexibility Score: inf
ROOT
ATOM      1  C   UNL     1       8.012  21.002  54.114  1.00  0.00     0.176 C 
ENDROOT
BRANCH   1   2
ATOM      2  C   UNL     1       8.926  19.758  53.938  1.00  0.00     0.171 C 
BRANCH   2   3
ATOM      3  C   UNL     1      10.034  19.703  55.007  1.00  0.00     0.190 C 
BRANCH   3   4
ATOM      4  O   UNL     1      10.942  20.756  54.826  1.00  0.00    -0.394 OA
ATOM      5  H   UNL     1      10.848  21.352  55.616  1.00  0.00     0.210 HD
ENDBRANCH   3   4
ENDBRANCH   2   3
BRANCH   2   6
ATOM      6  O   UNL     1       9.482  19.706  52.647  1.00  0.00    -0.388 OA
ATOM      7  H   UNL     1       9.615  20.641  52.339  1.00  0.00     0.211 HD
ENDBRANCH   2   6
ENDBRANCH   1   2
BRANCH   1   8
ATOM      8  C   UNL     1       6.654  20.664  54.787  1.00  0.00     0.171 C 
BRANCH   8   9
ATOM      9  C   UNL     1       5.450  21.307  54.068  1.00  0.00     0.190 C 
BRANCH   9  10
ATOM     10  O   UNL     1       5.259  22.623  54.518  1.00  0.00    -0.394 OA
ATOM     11  H   UNL     1       5.721  23.217  53.872  1.00  0.00     0.210 HD
ENDBRANCH   9  10
ENDBRANCH   8   9
BRANCH   8  12
ATOM     12  O   UNL     1       6.488  19.269  54.853  1.00  0.00    -0.388 OA
ATOM     13  H   UNL     1       5.511  19.085  54.864  1.00  0.00     0.211 HD
ENDBRANCH   8  12
ENDBRANCH   1   8
BRANCH   1  14
ATOM     14  O   UNL     1       7.754  21.586  52.860  1.00  0.00    -0.388 OA
ATOM     15  H   UNL     1       7.176  20.957  52.353  1.00  0.00     0.211 HD
ENDBRANCH   1  14
TORSDOF 9
ENDMDL
MODEL 2
REMARK VINA RESULT:    -3.806      1.242      1.765
REMARK INTER + INTRA:          -5.541
REMARK INTER:                  -4.608
REMARK INTRA:                  -0.933
REMARK UNBOUND:                -0.288
REMARK SMILES OC[C@@H](O)[C@H](O)[C@@H](O)CO
REMARK SMILES IDX 5 1 7 2 9 3 10 4 8 6 3 8 2 9 1 10 4 12 6 14
REMARK H PARENT 10 5 8 7 1 11 4 13 6 15
REMARK Flexibility Score: inf
ROOT
ATOM      1  C   UNL     1       7.344  19.558  53.895  1.00  0.00     0.176 C 
ENDROOT
BRANCH   1   2
ATOM      2  C   UNL     1       8.582  19.115  53.067  1.00  0.00     0.171 C 
BRANCH   2   3
ATOM      3  C   UNL     1       9.899  19.621  53.685  1.00  0.00     0.190 C 
BRANCH   3   4
ATOM      4  O   UNL     1       9.958  21.022  53.630  1.00  0.00    -0.394 OA
ATOM      5  H   UNL     1       9.032  21.351  53.779  1.00  0.00     0.210 HD
ENDBRANCH   3   4
ENDBRANCH   2   3
BRANCH   2   6
ATOM      6  O   UNL     1       8.476  19.522  51.725  1.00  0.00    -0.388 OA
ATOM      7  H   UNL     1       7.634  19.143  51.360  1.00  0.00     0.211 HD
ENDBRANCH   2   6
ENDBRANCH   1   2
BRANCH   1   8
ATOM      8  C   UNL     1       6.475  20.615  53.163  1.00  0.00     0.171 C 
BRANCH   8   9
ATOM      9  C   UNL     1       5.205  20.999  53.950  1.00  0.00     0.190 C 
BRANCH   9  10
ATOM     10  O   UNL     1       5.449  22.127  54.750  1.00  0.00    -0.394 OA
ATOM     11  H   UNL     1       5.714  22.861  54.138  1.00  0.00     0.210 HD
ENDBRANCH   9  10
ENDBRANCH   8   9
BRANCH   8  12
ATOM     12  O   UNL     1       7.242  21.763  52.895  1.00  0.00    -0.388 OA
ATOM     13  H   UNL     1       7.191  21.934  51.917  1.00  0.00     0.211 HD
ENDBRANCH   8  12
ENDBRANCH   1   8
BRANCH   1  14
ATOM     14  O   UNL     1       7.762  20.101  55.125  1.00  0.00    -0.388 OA
ATOM     15  H   UNL     1       7.021  20.665  55.468  1.00  0.00     0.211 HD
ENDBRANCH   1  14
TORSDOF 9
ENDMDL
MODEL 3
REMARK VINA RESULT:    -3.762      1.451      3.944
REMARK INTER + INTRA:          -5.480
REMARK INTER:                  -5.184
REMARK INTRA:                  -0.295
REMARK UNBOUND:                -0.288
REMARK SMILES OC[C@@H](O)[C@H](O)[C@@H](O)CO
REMARK SMILES IDX 5 1 7 2 9 3 10 4 8 6 3 8 2 9 1 10 4 12 6 14
REMARK H PARENT 10 5 8 7 1 11 4 13 6 15
REMARK Flexibility Score: inf
ROOT
ATOM      1  C   UNL     1       9.852  20.337  53.777  1.00  0.00     0.176 C 
ENDROOT
BRANCH   1   2
ATOM      2  C   UNL     1       8.499  21.060  54.025  1.00  0.00     0.171 C 
BRANCH   2   3
ATOM      3  C   UNL     1       7.427  20.102  54.577  1.00  0.00     0.190 C 
BRANCH   3   4
ATOM      4  O   UNL     1       6.358  20.827  55.124  1.00  0.00    -0.394 OA
ATOM      5  H   UNL     1       5.538  20.287  54.966  1.00  0.00     0.210 HD
ENDBRANCH   3   4
ENDBRANCH   2   3
BRANCH   2   6
ATOM      6  O   UNL     1       8.037  21.701  52.861  1.00  0.00    -0.388 OA
ATOM      7  H   UNL     1       8.832  21.966  52.328  1.00  0.00     0.211 HD
ENDBRANCH   2   6
ENDBRANCH   1   2
BRANCH   1   8
ATOM      8  C   UNL     1       9.713  18.792  53.743  1.00  0.00     0.171 C 
BRANCH   8   9
ATOM      9  C   UNL     1       9.767  18.214  52.314  1.00  0.00     0.190 C 
BRANCH   9  10
ATOM     10  O   UNL     1       9.180  19.107  51.405  1.00  0.00    -0.394 OA
ATOM     11  H   UNL     1       9.414  18.787  50.496  1.00  0.00     0.210 HD
ENDBRANCH   9  10
ENDBRANCH   8   9
BRANCH   8  12
ATOM     12  O   UNL     1      10.714  18.204  54.539  1.00  0.00    -0.388 OA
ATOM     13  H   UNL     1      11.550  18.186  54.002  1.00  0.00     0.211 HD
ENDBRANCH   8  12
ENDBRANCH   1   8
BRANCH   1  14
ATOM     14  O   UNL     1      10.769  20.680  54.789  1.00  0.00    -0.388 OA
ATOM     15  H   UNL     1      10.881  19.882  55.370  1.00  0.00     0.211 HD
ENDBRANCH   1  14
TORSDOF 9
ENDMDL
MODEL 4
REMARK VINA RESULT:    -3.750      1.376      2.583
REMARK INTER + INTRA:          -5.463
REMARK INTER:                  -4.880
REMARK INTRA:                  -0.583
REMARK UNBOUND:                -0.288
REMARK SMILES OC[C@@H](O)[C@H](O)[C@@H](O)CO
REMARK SMILES IDX 5 1 7 2 9 3 10 4 8 6 3 8 2 9 1 10 4 12 6 14
REMARK H PARENT 10 5 8 7 1 11 4 13 6 15
REMARK Flexibility Score: inf
ROOT
ATOM      1  C   UNL     1       8.733  20.476  54.047  1.00  0.00     0.176 C 
ENDROOT
BRANCH   1   2
ATOM      2  C   UNL     1       8.973  18.954  53.850  1.00  0.00     0.171 C 
BRANCH   2   3
ATOM      3  C   UNL     1       8.675  18.506  52.407  1.00  0.00     0.190 C 
BRANCH   3   4
ATOM      4  O   UNL     1       9.719  18.886  51.551  1.00  0.00    -0.394 OA
ATOM      5  H   UNL     1       9.341  18.909  50.633  1.00  0.00     0.210 HD
ENDBRANCH   3   4
ENDBRANCH   2   3
BRANCH   2   6
ATOM      6  O   UNL     1       8.227  18.192  54.768  1.00  0.00    -0.388 OA
ATOM      7  H   UNL     1       8.768  18.101  55.595  1.00  0.00     0.211 HD
ENDBRANCH   2   6
ENDBRANCH   1   2
BRANCH   1   8
ATOM      8  C   UNL     1       7.505  21.001  53.257  1.00  0.00     0.171 C 
BRANCH   8   9
ATOM      9  C   UNL     1       6.306  21.344  54.165  1.00  0.00     0.190 C 
BRANCH   9  10
ATOM     10  O   UNL     1       6.119  20.337  55.125  1.00  0.00    -0.394 OA
ATOM     11  H   UNL     1       6.995  20.194  55.567  1.00  0.00     0.210 HD
ENDBRANCH   9  10
ENDBRANCH   8   9
BRANCH   8  12
ATOM     12  O   UNL     1       7.871  22.127  52.496  1.00  0.00    -0.388 OA
ATOM     13  H   UNL     1       8.855  22.090  52.362  1.00  0.00     0.211 HD
ENDBRANCH   8  12
ENDBRANCH   1   8
BRANCH   1  14
ATOM     14  O   UNL     1       9.870  21.196  53.632  1.00  0.00    -0.388 OA
ATOM     15  H   UNL     1      10.184  21.727  54.410  1.00  0.00     0.211 HD
ENDBRANCH   1  14
TORSDOF 9
ENDMDL
MODEL 5
REMARK VINA RESULT:    -3.694      1.831      4.267
REMARK INTER + INTRA:          -5.386
REMARK INTER:                  -4.460
REMARK INTRA:                  -0.925
REMARK UNBOUND:                -0.288
REMARK SMILES OC[C@@H](O)[C@H](O)[C@@H](O)CO
REMARK SMILES IDX 5 1 7 2 9 3 10 4 8 6 3 8 2 9 1 10 4 12 6 14
REMARK H PARENT 10 5 8 7 1 11 4 13 6 15
REMARK Flexibility Score: inf
ROOT
ATOM      1  C   UNL     1       8.361  18.955  52.909  1.00  0.00     0.176 C 
ENDROOT
BRANCH   1   2
ATOM      2  C   UNL     1       7.575  19.824  53.929  1.00  0.00     0.171 C 
BRANCH   2   3
ATOM      3  C   UNL     1       7.176  21.189  53.336  1.00  0.00     0.190 C 
BRANCH   3   4
ATOM      4  O   UNL     1       8.314  21.979  53.118  1.00  0.00    -0.394 OA
ATOM      5  H   UNL     1       8.085  22.611  52.385  1.00  0.00     0.210 HD
ENDBRANCH   3   4
ENDBRANCH   2   3
BRANCH   2   6
ATOM      6  O   UNL     1       8.299  19.997  55.123  1.00  0.00    -0.388 OA
ATOM      7  H   UNL     1       8.544  20.957  55.190  1.00  0.00     0.211 HD
ENDBRANCH   2   6
ENDBRANCH   1   2
BRANCH   1   8
ATOM      8  C   UNL     1       9.838  18.723  53.324  1.00  0.00     0.171 C 
BRANCH   8   9
ATOM      9  C   UNL     1      10.580  17.747  52.388  1.00  0.00     0.190 C 
BRANCH   9  10
ATOM     10  O   UNL     1      10.651  18.276  51.090  1.00  0.00    -0.394 OA
ATOM     11  H   UNL     1      10.355  19.221  51.148  1.00  0.00     0.210 HD
ENDBRANCH   9  10
ENDBRANCH   8   9
BRANCH   8  12
ATOM     12  O   UNL     1      10.519  19.953  53.376  1.00  0.00    -0.388 OA
ATOM     13  H   UNL     1      10.012  20.599  52.816  1.00  0.00     0.211 HD
ENDBRANCH   8  12
ENDBRANCH   1   8
BRANCH   1  14
ATOM     14  O   UNL     1       8.345  19.572  51.644  1.00  0.00    -0.388 OA
ATOM     15  H   UNL     1       8.899  19.017  51.036  1.00  0.00     0.211 HD
ENDBRANCH   1  14
TORSDOF 9
ENDMDL
MODEL 6
REMARK VINA RESULT:    -3.694     12.812     13.860
REMARK INTER + INTRA:          -5.386
REMARK INTER:                  -4.669
REMARK INTRA:                  -0.717
REMARK UNBOUND:                -0.288
REMARK SMILES OC[C@@H](O)[C@H](O)[C@@H](O)CO
REMARK SMILES IDX 5 1 7 2 9 3 10 4 8 6 3 8 2 9 1 10 4 12 6 14
REMARK H PARENT 10 5 8 7 1 11 4 13 6 15
REMARK Flexibility Score: inf
ROOT
ATOM      1  C   UNL     1      12.042  20.811  40.237  1.00  0.00     0.176 C 
ENDROOT
BRANCH   1   2
ATOM      2  C   UNL     1      13.367  21.571  39.954  1.00  0.00     0.171 C 
BRANCH   2   3
ATOM      3  C   UNL     1      14.601  20.668  40.148  1.00  0.00     0.190 C 
BRANCH   3   4
ATOM      4  O   UNL     1      14.776  20.366  41.507  1.00  0.00    -0.394 OA
ATOM      5  H   UNL     1      13.904  20.024  41.838  1.00  0.00     0.210 HD
ENDBRANCH   3   4
ENDBRANCH   2   3
BRANCH   2   6
ATOM      6  O   UNL     1      13.475  22.730  40.743  1.00  0.00    -0.388 OA
ATOM      7  H   UNL     1      14.204  22.582  41.400  1.00  0.00     0.211 HD
ENDBRANCH   2   6
ENDBRANCH   1   2
BRANCH   1   8
ATOM      8  C   UNL     1      11.331  21.298  41.528  1.00  0.00     0.171 C 
BRANCH   8   9
ATOM      9  C   UNL     1       9.819  20.990  41.535  1.00  0.00     0.190 C 
BRANCH   9  10
ATOM     10  O   UNL     1       9.329  20.984  42.849  1.00  0.00    -0.394 OA
ATOM     11  H   UNL     1       8.955  20.080  43.012  1.00  0.00     0.210 HD
ENDBRANCH   9  10
ENDBRANCH   8   9
BRANCH   8  12
ATOM     12  O   UNL     1      11.944  20.724  42.656  1.00  0.00    -0.388 OA
ATOM     13  H   UNL     1      12.924  20.864  42.567  1.00  0.00     0.211 HD
ENDBRANCH   8  12
ENDBRANCH   1   8
BRANCH   1  14
ATOM     14  O   UNL     1      12.298  19.433  40.362  1.00  0.00    -0.388 OA
ATOM     15  H   UNL     1      11.439  18.957  40.217  1.00  0.00     0.211 HD
ENDBRANCH   1  14
TORSDOF 9
ENDMDL
MODEL 7
REMARK VINA RESULT:    -3.680      2.736      4.584
REMARK INTER + INTRA:          -5.367
REMARK INTER:                  -4.704
REMARK INTRA:                  -0.662
REMARK UNBOUND:                -0.288
REMARK SMILES OC[C@@H](O)[C@H](O)[C@@H](O)CO
REMARK SMILES IDX 5 1 7 2 9 3 10 4 8 6 3 8 2 9 1 10 4 12 6 14
REMARK H PARENT 10 5 8 7 1 11 4 13 6 15
REMARK Flexibility Score: inf
ROOT
ATOM      1  C   UNL     1       8.751  18.387  52.259  1.00  0.00     0.176 C 
ENDROOT
BRANCH   1   2
ATOM      2  C   UNL     1       9.288  18.818  53.652  1.00  0.00     0.171 C 
BRANCH   2   3
ATOM      3  C   UNL     1       8.867  20.255  54.012  1.00  0.00     0.190 C 
BRANCH   3   4
ATOM      4  O   UNL     1       9.874  21.164  53.655  1.00  0.00    -0.394 OA
ATOM      5  H   UNL     1      10.669  20.939  54.208  1.00  0.00     0.210 HD
ENDBRANCH   3   4
ENDBRANCH   2   3
BRANCH   2   6
ATOM      6  O   UNL     1      10.685  18.678  53.730  1.00  0.00    -0.388 OA
ATOM      7  H   UNL     1      10.902  18.315  54.629  1.00  0.00     0.211 HD
ENDBRANCH   2   6
ENDBRANCH   1   2
BRANCH   1   8
ATOM      8  C   UNL     1       9.655  17.336  51.562  1.00  0.00     0.171 C 
BRANCH   8   9
ATOM      9  C   UNL     1       8.881  16.435  50.577  1.00  0.00     0.190 C 
BRANCH   9  10
ATOM     10  O   UNL     1       8.676  17.106  49.361  1.00  0.00    -0.394 OA
ATOM     11  H   UNL     1       8.800  18.073  49.542  1.00  0.00     0.210 HD
ENDBRANCH   9  10
ENDBRANCH   8   9
BRANCH   8  12
ATOM     12  O   UNL     1      10.713  17.981  50.896  1.00  0.00    -0.388 OA
ATOM     13  H   UNL     1      11.308  17.276  50.527  1.00  0.00     0.211 HD
ENDBRANCH   8  12
ENDBRANCH   1   8
BRANCH   1  14
ATOM     14  O   UNL     1       8.646  19.512  51.419  1.00  0.00    -0.388 OA
ATOM     15  H   UNL     1       9.362  20.147  51.684  1.00  0.00     0.211 HD
ENDBRANCH   1  14
TORSDOF 9
ENDMDL
MODEL 8
REMARK VINA RESULT:    -3.667      1.480      2.123
REMARK INTER + INTRA:          -5.349
REMARK INTER:                  -4.949
REMARK INTRA:                  -0.400
REMARK UNBOUND:                -0.288
REMARK SMILES OC[C@@H](O)[C@H](O)[C@@H](O)CO
REMARK SMILES IDX 5 1 7 2 9 3 10 4 8 6 3 8 2 9 1 10 4 12 6 14
REMARK H PARENT 10 5 8 7 1 11 4 13 6 15
REMARK Flexibility Score: inf
ROOT
ATOM      1  C   UNL     1       8.741  19.912  53.642  1.00  0.00     0.176 C 
ENDROOT
BRANCH   1   2
ATOM      2  C   UNL     1       9.011  18.747  52.650  1.00  0.00     0.171 C 
BRANCH   2   3
ATOM      3  C   UNL     1      10.347  18.038  52.945  1.00  0.00     0.190 C 
BRANCH   3   4
ATOM      4  O   UNL     1      10.668  18.146  54.306  1.00  0.00    -0.394 OA
ATOM      5  H   UNL     1      11.478  17.589  54.452  1.00  0.00     0.210 HD
ENDBRANCH   3   4
ENDBRANCH   2   3
BRANCH   2   6
ATOM      6  O   UNL     1       8.970  19.189  51.315  1.00  0.00    -0.388 OA
ATOM      7  H   UNL     1       8.517  18.487  50.779  1.00  0.00     0.211 HD
ENDBRANCH   2   6
ENDBRANCH   1   2
BRANCH   1   8
ATOM      8  C   UNL     1       7.445  20.699  53.312  1.00  0.00     0.171 C 
BRANCH   8   9
ATOM      9  C   UNL     1       6.583  20.989  54.558  1.00  0.00     0.190 C 
BRANCH   9  10
ATOM     10  O   UNL     1       5.747  22.092  54.326  1.00  0.00    -0.394 OA
ATOM     11  H   UNL     1       5.959  22.428  53.417  1.00  0.00     0.210 HD
ENDBRANCH   9  10
ENDBRANCH   8   9
BRANCH   8  12
ATOM     12  O   UNL     1       7.769  21.902  52.659  1.00  0.00    -0.388 OA
ATOM     13  H   UNL     1       8.723  21.847  52.389  1.00  0.00     0.211 HD
ENDBRANCH   8  12
ENDBRANCH   1   8
BRANCH   1  14
ATOM     14  O   UNL     1       9.823  20.812  53.629  1.00  0.00    -0.388 OA
ATOM     15  H   UNL     1      10.557  20.385  53.113  1.00  0.00     0.211 HD
ENDBRANCH   1  14
TORSDOF 9
ENDMDL
MODEL 9
REMARK VINA RESULT:    -3.633     12.498     13.939
REMARK INTER + INTRA:          -5.301
REMARK INTER:                  -4.546
REMARK INTRA:                  -0.755
REMARK UNBOUND:                -0.288
REMARK SMILES OC[C@@H](O)[C@H](O)[C@@H](O)CO
REMARK SMILES IDX 5 1 7 2 9 3 10 4 8 6 3 8 2 9 1 10 4 12 6 14
REMARK H PARENT 10 5 8 7 1 11 4 13 6 15
REMARK Flexibility Score: inf
ROOT
ATOM      1  C   UNL     1      11.469  21.506  40.612  1.00  0.00     0.176 C 
ENDROOT
BRANCH   1   2
ATOM      2  C   UNL     1      10.753  20.858  41.830  1.00  0.00     0.171 C 
BRANCH   2   3
ATOM      3  C   UNL     1       9.577  21.718  42.330  1.00  0.00     0.190 C 
BRANCH   3   4
ATOM      4  O   UNL     1       8.496  20.902  42.697  1.00  0.00    -0.394 OA
ATOM      5  H   UNL     1       8.880  20.120  43.175  1.00  0.00     0.210 HD
ENDBRANCH   3   4
ENDBRANCH   2   3
BRANCH   2   6
ATOM      6  O   UNL     1      11.655  20.596  42.877  1.00  0.00    -0.388 OA
ATOM      7  H   UNL     1      11.161  20.697  43.733  1.00  0.00     0.211 HD
ENDBRANCH   2   6
ENDBRANCH   1   2
BRANCH   1   8
ATOM      8  C   UNL     1      12.492  20.554  39.936  1.00  0.00     0.171 C 
BRANCH   8   9
ATOM      9  C   UNL     1      13.957  20.943  40.223  1.00  0.00     0.190 C 
BRANCH   9  10
ATOM     10  O   UNL     1      14.317  20.559  41.524  1.00  0.00    -0.394 OA
ATOM     11  H   UNL     1      13.989  19.632  41.651  1.00  0.00     0.210 HD
ENDBRANCH   9  10
ENDBRANCH   8   9
BRANCH   8  12
ATOM     12  O   UNL     1      12.256  19.229  40.346  1.00  0.00    -0.388 OA
ATOM     13  H   UNL     1      12.517  18.633  39.595  1.00  0.00     0.211 HD
ENDBRANCH   8  12
ENDBRANCH   1   8
BRANCH   1  14
ATOM     14  O   UNL     1      12.147  22.670  41.021  1.00  0.00    -0.388 OA
ATOM     15  H   UNL     1      11.459  23.343  41.266  1.00  0.00     0.211 HD
ENDBRANCH   1  14
TORSDOF 9
ENDMDL
