MODEL 1
REMARK VINA RESULT:    -3.840      0.000      0.000
REMARK INTER + INTRA:          -4.544
REMARK INTER:                  -4.514
REMARK INTRA:                  -0.030
REMARK UNBOUND:                -0.030
REMARK SMILES O=C([O-])CCC(=O)[O-]
REMARK SMILES IDX 4 1 2 2 1 3 3 4 5 5 6 6 7 7 8 8
REMARK H PARENT
REMARK Flexibility Score: inf
ROOT
ATOM      1  C   UNL     1      19.540 -21.505  14.348  1.00  0.00     0.059 C 
ENDROOT
BRANCH   1   2
ATOM      2  C   UNL     1      20.023 -22.923  14.376  1.00  0.00     0.042 C 
ATOM      3  O   UNL     1      20.322 -23.470  15.469  1.00  0.00    -0.550 OA
ATOM      4  O   UNL     1      20.105 -23.652  13.197  1.00  0.00    -0.550 OA
ENDBRANCH   1   2
BRANCH   1   5
ATOM      5  C   UNL     1      20.424 -20.591  15.203  1.00  0.00     0.059 C 
BRANCH   5   6
ATOM      6  C   UNL     1      20.104 -19.145  14.975  1.00  0.00     0.042 C 
ATOM      7  O   UNL     1      19.874 -18.384  15.952  1.00  0.00    -0.550 OA
ATOM      8  O   UNL     1      20.100 -18.629  13.685  1.00  0.00    -0.550 OA
ENDBRANCH   5   6
ENDBRANCH   1   5
TORSDOF 3
ENDMDL
MODEL 2
REMARK VINA RESULT:    -3.832      0.050      4.148
REMARK INTER + INTRA:          -4.534
REMARK INTER:                  -4.504
REMARK INTRA:                  -0.030
REMARK UNBOUND:                -0.030
REMARK SMILES O=C([O-])CCC(=O)[O-]
REMARK SMILES IDX 4 1 2 2 1 3 3 4 5 5 6 6 7 7 8 8
REMARK H PARENT
REMARK Flexibility Score: inf
ROOT
ATOM      1  C   UNL     1      20.441 -20.614  15.173  1.00  0.00     0.059 C 
ENDROOT
BRANCH   1   2
ATOM      2  C   UNL     1      20.082 -19.172  14.978  1.00  0.00     0.042 C 
ATOM      3  O   UNL     1      19.874 -18.431  15.974  1.00  0.00    -0.550 OA
ATOM      4  O   UNL     1      20.016 -18.639  13.697  1.00  0.00    -0.550 OA
ENDBRANCH   1   2
BRANCH   1   5
ATOM      5  C   UNL     1      19.538 -21.536  14.348  1.00  0.00     0.059 C 
BRANCH   5   6
ATOM      6  C   UNL     1      20.024 -22.954  14.378  1.00  0.00     0.042 C 
ATOM      7  O   UNL     1      20.361 -23.486  15.469  1.00  0.00    -0.550 OA
ATOM      8  O   UNL     1      20.065 -23.699  13.206  1.00  0.00    -0.550 OA
ENDBRANCH   5   6
ENDBRANCH   1   5
TORSDOF 3
ENDMDL
MODEL 3
REMARK VINA RESULT:    -2.969      1.616      2.194
REMARK INTER + INTRA:          -3.519
REMARK INTER:                  -3.429
REMARK INTRA:                  -0.091
REMARK UNBOUND:                -0.030
REMARK SMILES O=C([O-])CCC(=O)[O-]
REMARK SMILES IDX 4 1 2 2 1 3 3 4 5 5 6 6 7 7 8 8
REMARK H PARENT
REMARK Flexibility Score: inf
ROOT
ATOM      1  C   UNL     1      20.126 -23.487  15.105  1.00  0.00     0.059 C 
ENDROOT
BRANCH   1   2
ATOM      2  C   UNL     1      20.129 -24.237  13.808  1.00  0.00     0.042 C 
ATOM      3  O   UNL     1      19.357 -23.893  12.875  1.00  0.00    -0.550 OA
ATOM      4  O   UNL     1      21.013 -25.291  13.616  1.00  0.00    -0.550 OA
ENDBRANCH   1   2
BRANCH   1   5
ATOM      5  C   UNL     1      20.921 -22.181  15.003  1.00  0.00     0.059 C 
BRANCH   5   6
ATOM      6  C   UNL     1      20.022 -21.006  14.771  1.00  0.00     0.042 C 
ATOM      7  O   UNL     1      20.505 -19.847  14.669  1.00  0.00    -0.550 OA
ATOM      8  O   UNL     1      18.653 -21.196  14.626  1.00  0.00    -0.550 OA
ENDBRANCH   5   6
ENDBRANCH   1   5
TORSDOF 3
ENDMDL
MODEL 4
REMARK VINA RESULT:    -2.930     16.577     17.963
REMARK INTER + INTRA:          -3.474
REMARK INTER:                  -3.352
REMARK INTRA:                  -0.121
REMARK UNBOUND:                -0.030
REMARK SMILES O=C([O-])CCC(=O)[O-]
REMARK SMILES IDX 4 1 2 2 1 3 3 4 5 5 6 6 7 7 8 8
REMARK H PARENT
REMARK Flexibility Score: inf
ROOT
ATOM      1  C   UNL     1       7.371 -34.434  17.738  1.00  0.00     0.059 C 
ENDROOT
BRANCH   1   2
ATOM      2  C   UNL     1       6.432 -34.724  16.606  1.00  0.00     0.042 C 
ATOM      3  O   UNL     1       6.103 -35.910  16.344  1.00  0.00    -0.550 OA
ATOM      4  O   UNL     1       5.890 -33.679  15.869  1.00  0.00    -0.550 OA
ENDBRANCH   1   2
BRANCH   1   5
ATOM      5  C   UNL     1       7.420 -32.937  18.061  1.00  0.00     0.059 C 
BRANCH   5   6
ATOM      6  C   UNL     1       8.719 -32.323  17.637  1.00  0.00     0.042 C 
ATOM      7  O   UNL     1       9.046 -32.307  16.420  1.00  0.00    -0.550 OA
ATOM      8  O   UNL     1       9.550 -31.733  18.581  1.00  0.00    -0.550 OA
ENDBRANCH   5   6
ENDBRANCH   1   5
TORSDOF 3
ENDMDL
MODEL 5
REMARK VINA RESULT:    -2.911     16.549     18.210
REMARK INTER + INTRA:          -3.452
REMARK INTER:                  -3.332
REMARK INTRA:                  -0.120
REMARK UNBOUND:                -0.030
REMARK SMILES O=C([O-])CCC(=O)[O-]
REMARK SMILES IDX 4 1 2 2 1 3 3 4 5 5 6 6 7 7 8 8
REMARK H PARENT
REMARK Flexibility Score: inf
ROOT
ATOM      1  C   UNL     1       7.394 -32.881  18.062  1.00  0.00     0.059 C 
ENDROOT
BRANCH   1   2
ATOM      2  C   UNL     1       8.718 -32.282  17.697  1.00  0.00     0.042 C 
ATOM      3  O   UNL     1       9.081 -32.233  16.493  1.00  0.00    -0.550 OA
ATOM      4  O   UNL     1       9.532 -31.742  18.684  1.00  0.00    -0.550 OA
ENDBRANCH   1   2
BRANCH   1   5
ATOM      5  C   UNL     1       7.353 -34.384  17.763  1.00  0.00     0.059 C 
BRANCH   5   6
ATOM      6  C   UNL     1       6.458 -34.690  16.600  1.00  0.00     0.042 C 
ATOM      7  O   UNL     1       6.192 -35.884  16.302  1.00  0.00    -0.550 OA
ATOM      8  O   UNL     1       5.887 -33.654  15.872  1.00  0.00    -0.550 OA
ENDBRANCH   5   6
ENDBRANCH   1   5
TORSDOF 3
ENDMDL
MODEL 6
REMARK VINA RESULT:    -2.892     16.548     17.417
REMARK INTER + INTRA:          -3.429
REMARK INTER:                  -3.308
REMARK INTRA:                  -0.121
REMARK UNBOUND:                -0.030
REMARK SMILES O=C([O-])CCC(=O)[O-]
REMARK SMILES IDX 4 1 2 2 1 3 3 4 5 5 6 6 7 7 8 8
REMARK H PARENT
REMARK Flexibility Score: inf
ROOT
ATOM      1  C   UNL     1       6.834 -32.809  16.669  1.00  0.00     0.059 C 
ENDROOT
BRANCH   1   2
ATOM      2  C   UNL     1       7.675 -32.844  17.909  1.00  0.00     0.042 C 
ATOM      3  O   UNL     1       7.284 -33.479  18.922  1.00  0.00    -0.550 OA
ATOM      4  O   UNL     1       8.910 -32.208  17.929  1.00  0.00    -0.550 OA
ENDBRANCH   1   2
BRANCH   1   5
ATOM      5  C   UNL     1       7.360 -33.776  15.603  1.00  0.00     0.059 C 
BRANCH   5   6
ATOM      6  C   UNL     1       8.028 -33.045  14.478  1.00  0.00     0.042 C 
ATOM      7  O   UNL     1       7.393 -32.794  13.419  1.00  0.00    -0.550 OA
ATOM      8  O   UNL     1       9.339 -32.607  14.616  1.00  0.00    -0.550 OA
ENDBRANCH   5   6
ENDBRANCH   1   5
TORSDOF 3
ENDMDL
MODEL 7
REMARK VINA RESULT:    -2.860     16.406     17.323
REMARK INTER + INTRA:          -3.392
REMARK INTER:                  -3.275
REMARK INTRA:                  -0.116
REMARK UNBOUND:                -0.030
REMARK SMILES O=C([O-])CCC(=O)[O-]
REMARK SMILES IDX 4 1 2 2 1 3 3 4 5 5 6 6 7 7 8 8
REMARK H PARENT
REMARK Flexibility Score: inf
ROOT
ATOM      1  C   UNL     1       7.596 -33.752  15.675  1.00  0.00     0.059 C 
ENDROOT
BRANCH   1   2
ATOM      2  C   UNL     1       8.214 -32.972  14.555  1.00  0.00     0.042 C 
ATOM      3  O   UNL     1       9.377 -32.506  14.674  1.00  0.00    -0.550 OA
ATOM      4  O   UNL     1       7.520 -32.797  13.365  1.00  0.00    -0.550 OA
ENDBRANCH   1   2
BRANCH   1   5
ATOM      5  C   UNL     1       6.959 -32.829  16.720  1.00  0.00     0.059 C 
BRANCH   5   6
ATOM      6  C   UNL     1       7.714 -32.858  18.014  1.00  0.00     0.042 C 
ATOM      7  O   UNL     1       8.761 -32.172  18.153  1.00  0.00    -0.550 OA
ATOM      8  O   UNL     1       7.239 -33.613  19.079  1.00  0.00    -0.550 OA
ENDBRANCH   5   6
ENDBRANCH   1   5
TORSDOF 3
ENDMDL
MODEL 8
REMARK VINA RESULT:    -2.840     16.370     18.083
REMARK INTER + INTRA:          -3.369
REMARK INTER:                  -3.280
REMARK INTRA:                  -0.088
REMARK UNBOUND:                -0.030
REMARK SMILES O=C([O-])CCC(=O)[O-]
REMARK SMILES IDX 4 1 2 2 1 3 3 4 5 5 6 6 7 7 8 8
REMARK H PARENT
REMARK Flexibility Score: inf
ROOT
ATOM      1  C   UNL     1       7.561 -32.955  18.145  1.00  0.00     0.059 C 
ENDROOT
BRANCH   1   2
ATOM      2  C   UNL     1       8.797 -32.209  17.743  1.00  0.00     0.042 C 
ATOM      3  O   UNL     1       9.523 -31.669  18.617  1.00  0.00    -0.550 OA
ATOM      4  O   UNL     1       9.167 -32.147  16.406  1.00  0.00    -0.550 OA
ENDBRANCH   1   2
BRANCH   1   5
ATOM      5  C   UNL     1       6.954 -33.719  16.964  1.00  0.00     0.059 C 
BRANCH   5   6
ATOM      6  C   UNL     1       7.294 -35.178  17.018  1.00  0.00     0.042 C 
ATOM      7  O   UNL     1       7.449 -35.753  18.127  1.00  0.00    -0.550 OA
ATOM      8  O   UNL     1       7.399 -35.910  15.842  1.00  0.00    -0.550 OA
ENDBRANCH   5   6
ENDBRANCH   1   5
TORSDOF 3
ENDMDL
MODEL 9
REMARK VINA RESULT:    -2.796     16.130     17.185
REMARK INTER + INTRA:          -3.317
REMARK INTER:                  -3.289
REMARK INTRA:                  -0.028
REMARK UNBOUND:                -0.030
REMARK SMILES O=C([O-])CCC(=O)[O-]
REMARK SMILES IDX 4 1 2 2 1 3 3 4 5 5 6 6 7 7 8 8
REMARK H PARENT
REMARK Flexibility Score: inf
ROOT
ATOM      1  C   UNL     1       7.496 -32.889  16.123  1.00  0.00     0.059 C 
ENDROOT
BRANCH   1   2
ATOM      2  C   UNL     1       7.505 -33.315  17.560  1.00  0.00     0.042 C 
ATOM      3  O   UNL     1       7.832 -32.499  18.461  1.00  0.00    -0.550 OA
ATOM      4  O   UNL     1       7.113 -34.602  17.905  1.00  0.00    -0.550 OA
ENDBRANCH   1   2
BRANCH   1   5
ATOM      5  C   UNL     1       8.899 -32.506  15.640  1.00  0.00     0.059 C 
BRANCH   5   6
ATOM      6  C   UNL     1       9.118 -32.906  14.212  1.00  0.00     0.042 C 
ATOM      7  O   UNL     1      10.175 -33.502  13.875  1.00  0.00    -0.550 OA
ATOM      8  O   UNL     1       8.136 -32.654  13.262  1.00  0.00    -0.550 OA
ENDBRANCH   5   6
ENDBRANCH   1   5
TORSDOF 3
ENDMDL
