MODEL 1
REMARK VINA RESULT:    -5.274      0.000      0.000
REMARK INTER + INTRA:          -5.644
REMARK INTER:                  -5.583
REMARK INTRA:                  -0.061
REMARK UNBOUND:                -0.061
REMARK SMILES C=C1CC[C@H](C(C)C)[C@@H]2C=C(C)CC[C@@H]12
REMARK SMILES IDX 12 1 11 2 10 3 9 4 15 5 14 6 13 7 2 8 1 9 3 10 4 11 5 12
REMARK SMILES IDX 6 13 7 14 8 15
REMARK H PARENT
REMARK Flexibility Score: inf
ROOT
ATOM      1  C   UNL     1      29.591  12.216  28.554  1.00  0.00     0.039 C 
ATOM      2  C   UNL     1      30.149  11.523  29.768  1.00  0.00    -0.077 C 
ATOM      3  C   UNL     1      29.826  10.232  29.989  1.00  0.00    -0.024 C 
ATOM      4  C   UNL     1      30.278   9.480  31.221  1.00  0.00     0.022 C 
ATOM      5  C   UNL     1      31.532  10.108  31.881  1.00  0.00     0.022 C 
ATOM      6  C   UNL     1      31.318  11.624  32.028  1.00  0.00     0.013 C 
ATOM      7  C   UNL     1      31.138  12.265  30.644  1.00  0.00     0.031 C 
ATOM      8  C   UNL     1      31.836   9.352  33.166  1.00  0.00    -0.074 C 
ATOM      9  C   UNL     1      31.962   9.937  34.371  1.00  0.00     0.008 C 
ATOM     10  C   UNL     1      32.007   7.857  33.030  1.00  0.00     0.031 C 
ATOM     11  C   UNL     1      30.781   7.240  32.345  1.00  0.00     0.009 C 
ATOM     12  C   UNL     1      30.385   7.932  31.010  1.00  0.00    -0.001 C 
ENDROOT
BRANCH  12  13
ATOM     13  C   UNL     1      31.195   7.381  29.771  1.00  0.00    -0.014 C 
ATOM     14  C   UNL     1      30.505   7.491  28.405  1.00  0.00     0.007 C 
ATOM     15  C   UNL     1      31.676   5.934  29.979  1.00  0.00     0.007 C 
ENDBRANCH  12  13
TORSDOF 1
ENDMDL
MODEL 2
REMARK VINA RESULT:    -5.252      1.700      5.184
REMARK INTER + INTRA:          -5.621
REMARK INTER:                  -5.594
REMARK INTRA:                  -0.027
REMARK UNBOUND:                -0.061
REMARK SMILES C=C1CC[C@H](C(C)C)[C@@H]2C=C(C)CC[C@@H]12
REMARK SMILES IDX 12 1 11 2 10 3 9 4 15 5 14 6 13 7 2 8 1 9 3 10 4 11 5 12
REMARK SMILES IDX 6 13 7 14 8 15
REMARK H PARENT
REMARK Flexibility Score: inf
ROOT
ATOM      1  C   UNL     1      31.043   8.785  37.337  1.00  0.00     0.039 C 
ATOM      2  C   UNL     1      30.924   8.419  35.883  1.00  0.00    -0.077 C 
ATOM      3  C   UNL     1      30.514   9.358  35.004  1.00  0.00    -0.024 C 
ATOM      4  C   UNL     1      30.292   9.060  33.539  1.00  0.00     0.022 C 
ATOM      5  C   UNL     1      31.071   7.810  33.056  1.00  0.00     0.022 C 
ATOM      6  C   UNL     1      30.837   6.657  34.046  1.00  0.00     0.013 C 
ATOM      7  C   UNL     1      31.368   7.041  35.435  1.00  0.00     0.031 C 
ATOM      8  C   UNL     1      30.695   7.531  31.608  1.00  0.00    -0.074 C 
ATOM      9  C   UNL     1      30.224   6.350  31.168  1.00  0.00     0.008 C 
ATOM     10  C   UNL     1      30.888   8.675  30.642  1.00  0.00     0.031 C 
ATOM     11  C   UNL     1      30.144   9.922  31.137  1.00  0.00     0.009 C 
ATOM     12  C   UNL     1      30.464  10.308  32.609  1.00  0.00    -0.001 C 
ENDROOT
BRANCH  12  13
ATOM     13  C   UNL     1      31.769  11.189  32.742  1.00  0.00    -0.014 C 
ATOM     14  C   UNL     1      32.089  12.111  31.558  1.00  0.00     0.007 C 
ATOM     15  C   UNL     1      33.014  10.348  33.080  1.00  0.00     0.007 C 
ENDBRANCH  12  13
TORSDOF 1
ENDMDL
MODEL 3
REMARK VINA RESULT:    -5.231      1.380      2.091
REMARK INTER + INTRA:          -5.598
REMARK INTER:                  -5.514
REMARK INTRA:                  -0.085
REMARK UNBOUND:                -0.061
REMARK SMILES C=C1CC[C@H](C(C)C)[C@@H]2C=C(C)CC[C@@H]12
REMARK SMILES IDX 12 1 11 2 10 3 9 4 15 5 14 6 13 7 2 8 1 9 3 10 4 11 5 12
REMARK SMILES IDX 6 13 7 14 8 15
REMARK H PARENT
REMARK Flexibility Score: inf
ROOT
ATOM      1  C   UNL     1      32.037  12.521  31.127  1.00  0.00     0.039 C 
ATOM      2  C   UNL     1      31.848  11.287  31.967  1.00  0.00    -0.077 C 
ATOM      3  C   UNL     1      31.014  10.321  31.530  1.00  0.00    -0.024 C 
ATOM      4  C   UNL     1      30.705   9.084  32.343  1.00  0.00     0.022 C 
ATOM      5  C   UNL     1      31.797   8.770  33.397  1.00  0.00     0.022 C 
ATOM      6  C   UNL     1      32.127  10.054  34.178  1.00  0.00     0.013 C 
ATOM      7  C   UNL     1      32.680  11.121  33.222  1.00  0.00     0.031 C 
ATOM      8  C   UNL     1      31.342   7.582  34.232  1.00  0.00    -0.074 C 
ATOM      9  C   UNL     1      31.259   7.595  35.575  1.00  0.00     0.008 C 
ATOM     10  C   UNL     1      30.980   6.334  33.464  1.00  0.00     0.031 C 
ATOM     11  C   UNL     1      29.923   6.651  32.397  1.00  0.00     0.009 C 
ATOM     12  C   UNL     1      30.293   7.847  31.475  1.00  0.00    -0.001 C 
ENDROOT
BRANCH  12  13
ATOM     13  C   UNL     1      31.208   7.424  30.260  1.00  0.00    -0.014 C 
ATOM     14  C   UNL     1      30.686   7.776  28.861  1.00  0.00     0.007 C 
ATOM     15  C   UNL     1      31.584   5.931  30.298  1.00  0.00     0.007 C 
ENDBRANCH  12  13
TORSDOF 1
ENDMDL
MODEL 4
REMARK VINA RESULT:    -5.206      2.525      6.497
REMARK INTER + INTRA:          -5.571
REMARK INTER:                  -5.452
REMARK INTRA:                  -0.119
REMARK UNBOUND:                -0.061
REMARK SMILES C=C1CC[C@H](C(C)C)[C@@H]2C=C(C)CC[C@@H]12
REMARK SMILES IDX 12 1 11 2 10 3 9 4 15 5 14 6 13 7 2 8 1 9 3 10 4 11 5 12
REMARK SMILES IDX 6 13 7 14 8 15
REMARK H PARENT
REMARK Flexibility Score: inf
ROOT
ATOM      1  C   UNL     1      31.184   7.506  30.865  1.00  0.00     0.039 C 
ATOM      2  C   UNL     1      30.857   7.503  29.397  1.00  0.00    -0.077 C 
ATOM      3  C   UNL     1      29.918   8.355  28.935  1.00  0.00    -0.024 C 
ATOM      4  C   UNL     1      29.472   8.368  27.490  1.00  0.00     0.022 C 
ATOM      5  C   UNL     1      30.523   7.752  26.532  1.00  0.00     0.022 C 
ATOM      6  C   UNL     1      30.997   6.405  27.104  1.00  0.00     0.013 C 
ATOM      7  C   UNL     1      31.667   6.621  28.468  1.00  0.00     0.031 C 
ATOM      8  C   UNL     1      29.936   7.709  25.128  1.00  0.00    -0.074 C 
ATOM      9  C   UNL     1      29.857   6.594  24.380  1.00  0.00     0.008 C 
ATOM     10  C   UNL     1      29.434   9.024  24.581  1.00  0.00     0.031 C 
ATOM     11  C   UNL     1      28.420   9.651  25.546  1.00  0.00     0.009 C 
ATOM     12  C   UNL     1      28.921   9.754  27.014  1.00  0.00    -0.001 C 
ENDROOT
BRANCH  12  13
ATOM     13  C   UNL     1      29.781  11.053  27.277  1.00  0.00    -0.014 C 
ATOM     14  C   UNL     1      29.541  11.768  28.613  1.00  0.00     0.007 C 
ATOM     15  C   UNL     1      29.671  12.074  26.130  1.00  0.00     0.007 C 
ENDBRANCH  12  13
TORSDOF 1
ENDMDL
MODEL 5
REMARK VINA RESULT:    -5.056      2.425      5.238
REMARK INTER + INTRA:          -5.413
REMARK INTER:                  -5.355
REMARK INTRA:                  -0.058
REMARK UNBOUND:                -0.061
REMARK SMILES C=C1CC[C@H](C(C)C)[C@@H]2C=C(C)CC[C@@H]12
REMARK SMILES IDX 12 1 11 2 10 3 9 4 15 5 14 6 13 7 2 8 1 9 3 10 4 11 5 12
REMARK SMILES IDX 6 13 7 14 8 15
REMARK H PARENT
REMARK Flexibility Score: inf
ROOT
ATOM      1  C   UNL     1      30.518   9.018  30.583  1.00  0.00     0.039 C 
ATOM      2  C   UNL     1      30.765   8.529  31.984  1.00  0.00    -0.077 C 
ATOM      3  C   UNL     1      31.107   9.422  32.937  1.00  0.00    -0.024 C 
ATOM      4  C   UNL     1      31.448   9.012  34.352  1.00  0.00     0.022 C 
ATOM      5  C   UNL     1      30.857   7.632  34.735  1.00  0.00     0.022 C 
ATOM      6  C   UNL     1      31.174   6.621  33.620  1.00  0.00     0.013 C 
ATOM      7  C   UNL     1      30.520   7.069  32.305  1.00  0.00     0.031 C 
ATOM      8  C   UNL     1      31.348   7.261  36.127  1.00  0.00    -0.074 C 
ATOM      9  C   UNL     1      31.986   6.113  36.419  1.00  0.00     0.008 C 
ATOM     10  C   UNL     1      31.073   8.271  37.216  1.00  0.00     0.031 C 
ATOM     11  C   UNL     1      31.627   9.646  36.821  1.00  0.00     0.009 C 
ATOM     12  C   UNL     1      31.178  10.130  35.414  1.00  0.00    -0.001 C 
ENDROOT
BRANCH  12  13
ATOM     13  C   UNL     1      29.770  10.846  35.433  1.00  0.00    -0.014 C 
ATOM     14  C   UNL     1      29.450  11.683  36.678  1.00  0.00     0.007 C 
ATOM     15  C   UNL     1      28.610   9.867  35.170  1.00  0.00     0.007 C 
ENDBRANCH  12  13
TORSDOF 1
ENDMDL
MODEL 6
REMARK VINA RESULT:    -4.843      1.627      4.335
REMARK INTER + INTRA:          -5.188
REMARK INTER:                  -5.106
REMARK INTRA:                  -0.082
REMARK UNBOUND:                -0.061
REMARK SMILES C=C1CC[C@H](C(C)C)[C@@H]2C=C(C)CC[C@@H]12
REMARK SMILES IDX 12 1 11 2 10 3 9 4 15 5 14 6 13 7 2 8 1 9 3 10 4 11 5 12
REMARK SMILES IDX 6 13 7 14 8 15
REMARK H PARENT
REMARK Flexibility Score: inf
ROOT
ATOM      1  C   UNL     1      31.996  12.251  31.627  1.00  0.00     0.039 C 
ATOM      2  C   UNL     1      31.540  10.823  31.751  1.00  0.00    -0.077 C 
ATOM      3  C   UNL     1      31.973  10.086  32.795  1.00  0.00    -0.024 C 
ATOM      4  C   UNL     1      31.628   8.623  32.958  1.00  0.00     0.022 C 
ATOM      5  C   UNL     1      30.352   8.217  32.178  1.00  0.00     0.022 C 
ATOM      6  C   UNL     1      30.449   8.755  30.740  1.00  0.00     0.013 C 
ATOM      7  C   UNL     1      30.527  10.289  30.758  1.00  0.00     0.031 C 
ATOM      8  C   UNL     1      30.157   6.714  32.313  1.00  0.00    -0.074 C 
ATOM      9  C   UNL     1      30.028   5.875  31.269  1.00  0.00     0.008 C 
ATOM     10  C   UNL     1      30.101   6.178  33.724  1.00  0.00     0.031 C 
ATOM     11  C   UNL     1      31.348   6.610  34.507  1.00  0.00     0.009 C 
ATOM     12  C   UNL     1      31.639   8.136  34.446  1.00  0.00    -0.001 C 
ENDROOT
BRANCH  12  13
ATOM     13  C   UNL     1      30.831   8.957  35.528  1.00  0.00    -0.014 C 
ATOM     14  C   UNL     1      31.662   9.824  36.483  1.00  0.00     0.007 C 
ATOM     15  C   UNL     1      29.879   8.069  36.350  1.00  0.00     0.007 C 
ENDBRANCH  12  13
TORSDOF 1
ENDMDL
MODEL 7
REMARK VINA RESULT:    -4.790      2.739      5.106
REMARK INTER + INTRA:          -5.131
REMARK INTER:                  -5.053
REMARK INTRA:                  -0.078
REMARK UNBOUND:                -0.061
REMARK SMILES C=C1CC[C@H](C(C)C)[C@@H]2C=C(C)CC[C@@H]12
REMARK SMILES IDX 12 1 11 2 10 3 9 4 15 5 14 6 13 7 2 8 1 9 3 10 4 11 5 12
REMARK SMILES IDX 6 13 7 14 8 15
REMARK H PARENT
REMARK Flexibility Score: inf
ROOT
ATOM      1  C   UNL     1      29.378  12.260  37.195  1.00  0.00     0.039 C 
ATOM      2  C   UNL     1      29.896  10.887  36.866  1.00  0.00    -0.077 C 
ATOM      3  C   UNL     1      29.520  10.307  35.707  1.00  0.00    -0.024 C 
ATOM      4  C   UNL     1      29.930   8.902  35.329  1.00  0.00     0.022 C 
ATOM      5  C   UNL     1      31.203   8.427  36.076  1.00  0.00     0.022 C 
ATOM      6  C   UNL     1      31.049   8.730  37.576  1.00  0.00     0.013 C 
ATOM      7  C   UNL     1      30.907  10.244  37.793  1.00  0.00     0.031 C 
ATOM      8  C   UNL     1      31.465   6.972  35.715  1.00  0.00    -0.074 C 
ATOM      9  C   UNL     1      31.604   5.986  36.620  1.00  0.00     0.008 C 
ATOM     10  C   UNL     1      31.576   6.666  34.241  1.00  0.00     0.031 C 
ATOM     11  C   UNL     1      30.332   7.167  33.496  1.00  0.00     0.009 C 
ATOM     12  C   UNL     1      29.975   8.653  33.784  1.00  0.00    -0.001 C 
ENDROOT
BRANCH  12  13
ATOM     13  C   UNL     1      30.773   9.662  32.868  1.00  0.00    -0.014 C 
ATOM     14  C   UNL     1      30.763   9.367  31.363  1.00  0.00     0.007 C 
ATOM     15  C   UNL     1      32.227   9.858  33.335  1.00  0.00     0.007 C 
ENDBRANCH  12  13
TORSDOF 1
ENDMDL
MODEL 8
REMARK VINA RESULT:    -4.762      2.319      5.776
REMARK INTER + INTRA:          -5.101
REMARK INTER:                  -5.009
REMARK INTRA:                  -0.093
REMARK UNBOUND:                -0.061
REMARK SMILES C=C1CC[C@H](C(C)C)[C@@H]2C=C(C)CC[C@@H]12
REMARK SMILES IDX 12 1 11 2 10 3 9 4 15 5 14 6 13 7 2 8 1 9 3 10 4 11 5 12
REMARK SMILES IDX 6 13 7 14 8 15
REMARK H PARENT
REMARK Flexibility Score: inf
ROOT
ATOM      1  C   UNL     1      30.098  10.754  31.510  1.00  0.00     0.039 C 
ATOM      2  C   UNL     1      29.932   9.912  30.275  1.00  0.00    -0.077 C 
ATOM      3  C   UNL     1      29.323  10.447  29.196  1.00  0.00    -0.024 C 
ATOM      4  C   UNL     1      29.045   9.652  27.940  1.00  0.00     0.022 C 
ATOM      5  C   UNL     1      29.966   8.414  27.797  1.00  0.00     0.022 C 
ATOM      6  C   UNL     1      29.980   7.639  29.126  1.00  0.00     0.013 C 
ATOM      7  C   UNL     1      30.545   8.527  30.244  1.00  0.00     0.031 C 
ATOM      8  C   UNL     1      29.534   7.624  26.571  1.00  0.00    -0.074 C 
ATOM      9  C   UNL     1      29.216   6.317  26.592  1.00  0.00     0.008 C 
ATOM     10  C   UNL     1      29.482   8.393  25.272  1.00  0.00     0.031 C 
ATOM     11  C   UNL     1      28.596   9.637  25.424  1.00  0.00     0.009 C 
ATOM     12  C   UNL     1      28.959  10.528  26.646  1.00  0.00    -0.001 C 
ENDROOT
BRANCH  12  13
ATOM     13  C   UNL     1      30.122  11.551  26.334  1.00  0.00    -0.014 C 
ATOM     14  C   UNL     1      30.070  12.888  27.084  1.00  0.00     0.007 C 
ATOM     15  C   UNL     1      30.278  11.822  24.827  1.00  0.00     0.007 C 
ENDBRANCH  12  13
TORSDOF 1
ENDMDL
MODEL 9
REMARK VINA RESULT:    -4.687      1.307      4.985
REMARK INTER + INTRA:          -5.022
REMARK INTER:                  -5.057
REMARK INTRA:                   0.035
REMARK UNBOUND:                -0.061
REMARK SMILES C=C1CC[C@H](C(C)C)[C@@H]2C=C(C)CC[C@@H]12
REMARK SMILES IDX 12 1 11 2 10 3 9 4 15 5 14 6 13 7 2 8 1 9 3 10 4 11 5 12
REMARK SMILES IDX 6 13 7 14 8 15
REMARK H PARENT
REMARK Flexibility Score: inf
ROOT
ATOM      1  C   UNL     1      31.632   6.218  29.259  1.00  0.00     0.039 C 
ATOM      2  C   UNL     1      30.860   7.507  29.201  1.00  0.00    -0.077 C 
ATOM      3  C   UNL     1      30.632   8.185  30.345  1.00  0.00    -0.024 C 
ATOM      4  C   UNL     1      29.802   9.448  30.391  1.00  0.00     0.022 C 
ATOM      5  C   UNL     1      29.717  10.162  29.018  1.00  0.00     0.022 C 
ATOM      6  C   UNL     1      29.358   9.129  27.936  1.00  0.00     0.013 C 
ATOM      7  C   UNL     1      30.454   8.058  27.848  1.00  0.00     0.031 C 
ATOM      8  C   UNL     1      28.774  11.349  29.144  1.00  0.00    -0.074 C 
ATOM      9  C   UNL     1      27.705  11.548  28.351  1.00  0.00     0.008 C 
ATOM     10  C   UNL     1      29.103  12.343  30.232  1.00  0.00     0.031 C 
ATOM     11  C   UNL     1      29.221  11.632  31.586  1.00  0.00     0.009 C 
ATOM     12  C   UNL     1      30.173  10.402  31.576  1.00  0.00    -0.001 C 
ENDROOT
BRANCH  12  13
ATOM     13  C   UNL     1      31.686  10.798  31.796  1.00  0.00    -0.014 C 
ATOM     14  C   UNL     1      32.277  10.484  33.177  1.00  0.00     0.007 C 
ATOM     15  C   UNL     1      31.965  12.273  31.451  1.00  0.00     0.007 C 
ENDBRANCH  12  13
TORSDOF 1
ENDMDL
