MODEL 1
REMARK VINA RESULT:    -2.985      0.000      0.000
REMARK INTER + INTRA:          -3.578
REMARK INTER:                  -3.509
REMARK INTRA:                  -0.070
REMARK UNBOUND:                -0.070
REMARK SMILES CCCCC(=O)[O-]
REMARK SMILES IDX 4 1 5 2 6 3 7 4 3 5 2 6 1 7
REMARK H PARENT
REMARK Flexibility Score: inf
ROOT
ATOM      1  C   UNL     1      98.944 -67.568   2.717  1.00  0.00     0.053 C 
ENDROOT
BRANCH   1   2
ATOM      2  C   UNL     1      99.731 -68.280   1.663  1.00  0.00     0.041 C 
ATOM      3  O   UNL     1     100.964 -68.063   1.538  1.00  0.00    -0.550 OA
ATOM      4  O   UNL     1      99.111 -69.220   0.849  1.00  0.00    -0.550 OA
ENDBRANCH   1   2
BRANCH   1   5
ATOM      5  C   UNL     1      98.698 -68.489   3.916  1.00  0.00     0.006 C 
BRANCH   5   6
ATOM      6  C   UNL     1      99.843 -68.388   4.931  1.00  0.00    -0.003 C 
ATOM      7  C   UNL     1     100.113 -69.735   5.594  1.00  0.00     0.004 C 
ENDBRANCH   5   6
ENDBRANCH   1   5
TORSDOF 3
ENDMDL
MODEL 2
REMARK VINA RESULT:    -2.961      3.568      5.771
REMARK INTER + INTRA:          -3.549
REMARK INTER:                  -3.527
REMARK INTRA:                  -0.023
REMARK UNBOUND:                -0.070
REMARK SMILES CCCCC(=O)[O-]
REMARK SMILES IDX 4 1 5 2 6 3 7 4 3 5 2 6 1 7
REMARK H PARENT
REMARK Flexibility Score: inf
ROOT
ATOM      1  C   UNL     1      98.898 -68.019  -0.792  1.00  0.00     0.053 C 
ENDROOT
BRANCH   1   2
ATOM      2  C   UNL     1      99.138 -68.966   0.341  1.00  0.00     0.041 C 
ATOM      3  O   UNL     1      98.650 -70.126   0.310  1.00  0.00    -0.550 OA
ATOM      4  O   UNL     1      99.940 -68.583   1.408  1.00  0.00    -0.550 OA
ENDBRANCH   1   2
BRANCH   1   5
ATOM      5  C   UNL     1      98.355 -68.768  -2.012  1.00  0.00     0.006 C 
BRANCH   5   6
ATOM      6  C   UNL     1      98.666 -68.009  -3.307  1.00  0.00    -0.003 C 
ATOM      7  C   UNL     1      97.482 -67.151  -3.742  1.00  0.00     0.004 C 
ENDBRANCH   5   6
ENDBRANCH   1   5
TORSDOF 3
ENDMDL
MODEL 3
REMARK VINA RESULT:    -2.955      1.332      1.538
REMARK INTER + INTRA:          -3.543
REMARK INTER:                  -3.519
REMARK INTRA:                  -0.024
REMARK UNBOUND:                -0.070
REMARK SMILES CCCCC(=O)[O-]
REMARK SMILES IDX 4 1 5 2 6 3 7 4 3 5 2 6 1 7
REMARK H PARENT
REMARK Flexibility Score: inf
ROOT
ATOM      1  C   UNL     1      99.122 -67.963   1.642  1.00  0.00     0.053 C 
ENDROOT
BRANCH   1   2
ATOM      2  C   UNL     1      99.026 -68.804   0.409  1.00  0.00     0.041 C 
ATOM      3  O   UNL     1      99.439 -68.360  -0.694  1.00  0.00    -0.550 OA
ATOM      4  O   UNL     1      98.525 -70.097   0.487  1.00  0.00    -0.550 OA
ENDBRANCH   1   2
BRANCH   1   5
ATOM      5  C   UNL     1      98.342 -68.606   2.792  1.00  0.00     0.006 C 
BRANCH   5   6
ATOM      6  C   UNL     1      98.821 -68.073   4.148  1.00  0.00    -0.003 C 
ATOM      7  C   UNL     1      99.578 -69.145   4.925  1.00  0.00     0.004 C 
ENDBRANCH   5   6
ENDBRANCH   1   5
TORSDOF 3
ENDMDL
MODEL 4
REMARK VINA RESULT:    -2.801      3.229      4.035
REMARK INTER + INTRA:          -3.362
REMARK INTER:                  -3.341
REMARK INTRA:                  -0.022
REMARK UNBOUND:                -0.070
REMARK SMILES CCCCC(=O)[O-]
REMARK SMILES IDX 4 1 5 2 6 3 7 4 3 5 2 6 1 7
REMARK H PARENT
REMARK Flexibility Score: inf
ROOT
ATOM      1  C   UNL     1     100.656 -68.260   6.080  1.00  0.00     0.053 C 
ENDROOT
BRANCH   1   2
ATOM      2  C   UNL     1     100.132 -69.331   5.177  1.00  0.00     0.041 C 
ATOM      3  O   UNL     1     100.374 -70.541   5.422  1.00  0.00    -0.550 OA
ATOM      4  O   UNL     1      99.336 -68.994   4.089  1.00  0.00    -0.550 OA
ENDBRANCH   1   2
BRANCH   1   5
ATOM      5  C   UNL     1     101.035 -68.846   7.443  1.00  0.00     0.006 C 
BRANCH   5   6
ATOM      6  C   UNL     1     100.985 -67.772   8.537  1.00  0.00    -0.003 C 
ATOM      7  C   UNL     1     100.697 -68.389   9.902  1.00  0.00     0.004 C 
ENDBRANCH   5   6
ENDBRANCH   1   5
TORSDOF 3
ENDMDL
MODEL 5
REMARK VINA RESULT:    -2.785      3.308      5.474
REMARK INTER + INTRA:          -3.343
REMARK INTER:                  -3.279
REMARK INTRA:                  -0.064
REMARK UNBOUND:                -0.070
REMARK SMILES CCCCC(=O)[O-]
REMARK SMILES IDX 4 1 5 2 6 3 7 4 3 5 2 6 1 7
REMARK H PARENT
REMARK Flexibility Score: inf
ROOT
ATOM      1  C   UNL     1      98.957 -67.966  -0.752  1.00  0.00     0.053 C 
ENDROOT
BRANCH   1   2
ATOM      2  C   UNL     1      99.119 -68.952   0.361  1.00  0.00     0.041 C 
ATOM      3  O   UNL     1      98.618 -70.103   0.266  1.00  0.00    -0.550 OA
ATOM      4  O   UNL     1      99.864 -68.616   1.484  1.00  0.00    -0.550 OA
ENDBRANCH   1   2
BRANCH   1   5
ATOM      5  C   UNL     1      98.202 -68.599  -1.924  1.00  0.00     0.006 C 
BRANCH   5   6
ATOM      6  C   UNL     1      98.805 -68.166  -3.265  1.00  0.00    -0.003 C 
ATOM      7  C   UNL     1     100.323 -68.046  -3.174  1.00  0.00     0.004 C 
ENDBRANCH   5   6
ENDBRANCH   1   5
TORSDOF 3
ENDMDL
MODEL 6
REMARK VINA RESULT:    -2.714     22.478     23.187
REMARK INTER + INTRA:          -3.260
REMARK INTER:                  -3.213
REMARK INTRA:                  -0.047
REMARK UNBOUND:                -0.070
REMARK SMILES CCCCC(=O)[O-]
REMARK SMILES IDX 4 1 5 2 6 3 7 4 3 5 2 6 1 7
REMARK H PARENT
REMARK Flexibility Score: inf
ROOT
ATOM      1  C   UNL     1      83.617 -84.773  -4.092  1.00  0.00     0.053 C 
ENDROOT
BRANCH   1   2
ATOM      2  C   UNL     1      83.036 -84.106  -2.886  1.00  0.00     0.041 C 
ATOM      3  O   UNL     1      81.875 -84.400  -2.497  1.00  0.00    -0.550 OA
ATOM      4  O   UNL     1      83.794 -83.194  -2.163  1.00  0.00    -0.550 OA
ENDBRANCH   1   2
BRANCH   1   5
ATOM      5  C   UNL     1      85.103 -85.071  -3.876  1.00  0.00     0.006 C 
BRANCH   5   6
ATOM      6  C   UNL     1      85.964 -84.371  -4.934  1.00  0.00    -0.003 C 
ATOM      7  C   UNL     1      87.450 -84.534  -4.631  1.00  0.00     0.004 C 
ENDBRANCH   5   6
ENDBRANCH   1   5
TORSDOF 3
ENDMDL
MODEL 7
REMARK VINA RESULT:    -2.665      1.626      2.242
REMARK INTER + INTRA:          -3.202
REMARK INTER:                  -3.121
REMARK INTRA:                  -0.081
REMARK UNBOUND:                -0.070
REMARK SMILES CCCCC(=O)[O-]
REMARK SMILES IDX 4 1 5 2 6 3 7 4 3 5 2 6 1 7
REMARK H PARENT
REMARK Flexibility Score: inf
ROOT
ATOM      1  C   UNL     1      99.051 -68.604   4.480  1.00  0.00     0.053 C 
ENDROOT
BRANCH   1   2
ATOM      2  C   UNL     1      99.826 -67.922   3.398  1.00  0.00     0.041 C 
ATOM      3  O   UNL     1     100.543 -68.595   2.612  1.00  0.00    -0.550 OA
ATOM      4  O   UNL     1      99.719 -66.548   3.227  1.00  0.00    -0.550 OA
ENDBRANCH   1   2
BRANCH   1   5
ATOM      5  C   UNL     1      99.986 -69.420   5.377  1.00  0.00     0.006 C 
BRANCH   5   6
ATOM      6  C   UNL     1     100.959 -68.508   6.133  1.00  0.00    -0.003 C 
ATOM      7  C   UNL     1     100.957 -68.816   7.627  1.00  0.00     0.004 C 
ENDBRANCH   5   6
ENDBRANCH   1   5
TORSDOF 3
ENDMDL
MODEL 8
REMARK VINA RESULT:    -2.632      5.603      6.781
REMARK INTER + INTRA:          -3.163
REMARK INTER:                  -3.125
REMARK INTRA:                  -0.038
REMARK UNBOUND:                -0.070
REMARK SMILES CCCCC(=O)[O-]
REMARK SMILES IDX 4 1 5 2 6 3 7 4 3 5 2 6 1 7
REMARK H PARENT
REMARK Flexibility Score: inf
ROOT
ATOM      1  C   UNL     1     101.033 -68.745   8.781  1.00  0.00     0.053 C 
ENDROOT
BRANCH   1   2
ATOM      2  C   UNL     1     100.402 -68.239  10.040  1.00  0.00     0.041 C 
ATOM      3  O   UNL     1     100.188 -69.024  11.000  1.00  0.00    -0.550 OA
ATOM      4  O   UNL     1     100.095 -66.891  10.169  1.00  0.00    -0.550 OA
ENDBRANCH   1   2
BRANCH   1   5
ATOM      5  C   UNL     1     101.002 -67.667   7.694  1.00  0.00     0.006 C 
BRANCH   5   6
ATOM      6  C   UNL     1     101.224 -68.278   6.306  1.00  0.00    -0.003 C 
ATOM      7  C   UNL     1     100.327 -69.493   6.088  1.00  0.00     0.004 C 
ENDBRANCH   5   6
ENDBRANCH   1   5
TORSDOF 3
ENDMDL
MODEL 9
REMARK VINA RESULT:    -2.611      2.841      3.874
REMARK INTER + INTRA:          -3.139
REMARK INTER:                  -3.104
REMARK INTRA:                  -0.034
REMARK UNBOUND:                -0.070
REMARK SMILES CCCCC(=O)[O-]
REMARK SMILES IDX 4 1 5 2 6 3 7 4 3 5 2 6 1 7
REMARK H PARENT
REMARK Flexibility Score: inf
ROOT
ATOM      1  C   UNL     1      99.844 -67.994   5.031  1.00  0.00     0.053 C 
ENDROOT
BRANCH   1   2
ATOM      2  C   UNL     1     100.465 -69.097   5.829  1.00  0.00     0.041 C 
ATOM      3  O   UNL     1     101.085 -68.837   6.893  1.00  0.00    -0.550 OA
ATOM      4  O   UNL     1     100.317 -70.417   5.423  1.00  0.00    -0.550 OA
ENDBRANCH   1   2
BRANCH   1   5
ATOM      5  C   UNL     1      98.948 -68.568   3.930  1.00  0.00     0.006 C 
BRANCH   5   6
ATOM      6  C   UNL     1      97.619 -67.808   3.850  1.00  0.00    -0.003 C 
ATOM      7  C   UNL     1      97.850 -66.311   3.671  1.00  0.00     0.004 C 
ENDBRANCH   5   6
ENDBRANCH   1   5
TORSDOF 3
ENDMDL
