MODEL 1
REMARK VINA RESULT:    -3.621      0.000      0.000
REMARK INTER + INTRA:          -5.754
REMARK INTER:                  -5.103
REMARK INTRA:                  -0.651
REMARK UNBOUND:                -0.651
REMARK SMILES CCCCCCCCC(=O)[O-]
REMARK SMILES IDX 6 1 7 2 8 3 9 4 10 5 11 6 5 7 4 8 3 9 2 10 1 11
REMARK H PARENT
REMARK Flexibility Score: inf
ROOT
ATOM      1  C   UNL     1      13.730  44.784  19.719  1.00  0.00     0.000 C 
ENDROOT
BRANCH   1   2
ATOM      2  C   UNL     1      12.217  44.932  19.940  1.00  0.00     0.006 C 
BRANCH   2   3
ATOM      3  C   UNL     1      11.719  46.362  19.690  1.00  0.00     0.053 C 
BRANCH   3   4
ATOM      4  C   UNL     1      10.241  46.367  19.460  1.00  0.00     0.041 C 
ATOM      5  O   UNL     1       9.557  45.341  19.714  1.00  0.00    -0.550 OA
ATOM      6  O   UNL     1       9.626  47.490  18.919  1.00  0.00    -0.550 OA
ENDBRANCH   3   4
ENDBRANCH   2   3
ENDBRANCH   1   2
BRANCH   1   7
ATOM      7  C   UNL     1      14.416  46.124  19.410  1.00  0.00     0.000 C 
BRANCH   7   8
ATOM      8  C   UNL     1      15.188  46.054  18.086  1.00  0.00    -0.000 C 
BRANCH   8   9
ATOM      9  C   UNL     1      14.814  47.227  17.169  1.00  0.00    -0.000 C 
BRANCH   9  10
ATOM     10  C   UNL     1      13.406  47.082  16.569  1.00  0.00    -0.003 C 
ATOM     11  C   UNL     1      13.092  45.650  16.139  1.00  0.00     0.004 C 
ENDBRANCH   9  10
ENDBRANCH   8   9
ENDBRANCH   7   8
ENDBRANCH   1   7
TORSDOF 7
ENDMDL
MODEL 2
REMARK VINA RESULT:    -3.613     11.477     12.644
REMARK INTER + INTRA:          -5.742
REMARK INTER:                  -4.836
REMARK INTRA:                  -0.906
REMARK UNBOUND:                -0.651
REMARK SMILES CCCCCCCCC(=O)[O-]
REMARK SMILES IDX 6 1 7 2 8 3 9 4 10 5 11 6 5 7 4 8 3 9 2 10 1 11
REMARK H PARENT
REMARK Flexibility Score: inf
ROOT
ATOM      1  C   UNL     1      13.758  41.072  27.675  1.00  0.00     0.000 C 
ENDROOT
BRANCH   1   2
ATOM      2  C   UNL     1      14.264  41.457  29.074  1.00  0.00     0.006 C 
BRANCH   2   3
ATOM      3  C   UNL     1      15.769  41.206  29.248  1.00  0.00     0.053 C 
BRANCH   3   4
ATOM      4  C   UNL     1      16.002  39.904  29.945  1.00  0.00     0.041 C 
ATOM      5  O   UNL     1      17.154  39.397  29.972  1.00  0.00    -0.550 OA
ATOM      6  O   UNL     1      14.937  39.225  30.525  1.00  0.00    -0.550 OA
ENDBRANCH   3   4
ENDBRANCH   2   3
ENDBRANCH   1   2
BRANCH   1   7
ATOM      7  C   UNL     1      12.680  39.977  27.718  1.00  0.00     0.000 C 
BRANCH   7   8
ATOM      8  C   UNL     1      13.260  38.619  27.302  1.00  0.00    -0.000 C 
BRANCH   8   9
ATOM      9  C   UNL     1      14.562  38.797  26.507  1.00  0.00    -0.000 C 
BRANCH   9  10
ATOM     10  C   UNL     1      15.680  37.858  26.987  1.00  0.00    -0.003 C 
ATOM     11  C   UNL     1      15.173  36.772  27.935  1.00  0.00     0.004 C 
ENDBRANCH   9  10
ENDBRANCH   8   9
ENDBRANCH   7   8
ENDBRANCH   1   7
TORSDOF 7
ENDMDL
MODEL 3
REMARK VINA RESULT:    -3.576     11.543     12.729
REMARK INTER + INTRA:          -5.690
REMARK INTER:                  -4.873
REMARK INTRA:                  -0.817
REMARK UNBOUND:                -0.651
REMARK SMILES CCCCCCCCC(=O)[O-]
REMARK SMILES IDX 6 1 7 2 8 3 9 4 10 5 11 6 5 7 4 8 3 9 2 10 1 11
REMARK H PARENT
REMARK Flexibility Score: inf
ROOT
ATOM      1  C   UNL     1      15.664  41.694  29.408  1.00  0.00     0.000 C 
ENDROOT
BRANCH   1   2
ATOM      2  C   UNL     1      16.509  40.615  28.713  1.00  0.00     0.006 C 
BRANCH   2   3
ATOM      3  C   UNL     1      17.009  39.538  29.685  1.00  0.00     0.053 C 
BRANCH   3   4
ATOM      4  C   UNL     1      16.150  38.317  29.597  1.00  0.00     0.041 C 
ATOM      5  O   UNL     1      14.982  38.328  30.068  1.00  0.00    -0.550 OA
ATOM      6  O   UNL     1      16.656  37.150  29.037  1.00  0.00    -0.550 OA
ENDBRANCH   3   4
ENDBRANCH   2   3
ENDBRANCH   1   2
BRANCH   1   7
ATOM      7  C   UNL     1      14.218  41.738  28.888  1.00  0.00     0.000 C 
BRANCH   7   8
ATOM      8  C   UNL     1      14.069  40.904  27.609  1.00  0.00    -0.000 C 
BRANCH   8   9
ATOM      9  C   UNL     1      12.885  39.933  27.720  1.00  0.00    -0.000 C 
BRANCH   9  10
ATOM     10  C   UNL     1      13.200  38.549  27.130  1.00  0.00    -0.003 C 
ATOM     11  C   UNL     1      14.560  38.498  26.436  1.00  0.00     0.004 C 
ENDBRANCH   9  10
ENDBRANCH   8   9
ENDBRANCH   7   8
ENDBRANCH   1   7
TORSDOF 7
ENDMDL
MODEL 4
REMARK VINA RESULT:    -3.569      1.750      2.825
REMARK INTER + INTRA:          -5.681
REMARK INTER:                  -5.069
REMARK INTRA:                  -0.612
REMARK UNBOUND:                -0.651
REMARK SMILES CCCCCCCCC(=O)[O-]
REMARK SMILES IDX 6 1 7 2 8 3 9 4 10 5 11 6 5 7 4 8 3 9 2 10 1 11
REMARK H PARENT
REMARK Flexibility Score: inf
ROOT
ATOM      1  C   UNL     1      10.953  45.918  19.760  1.00  0.00     0.000 C 
ENDROOT
BRANCH   1   2
ATOM      2  C   UNL     1       9.865  46.793  19.118  1.00  0.00     0.006 C 
BRANCH   2   3
ATOM      3  C   UNL     1      10.438  48.043  18.436  1.00  0.00     0.053 C 
BRANCH   3   4
ATOM      4  C   UNL     1       9.335  48.971  18.037  1.00  0.00     0.041 C 
ATOM      5  O   UNL     1       8.171  48.529  17.852  1.00  0.00    -0.550 OA
ATOM      6  O   UNL     1       9.603  50.317  17.822  1.00  0.00    -0.550 OA
ENDBRANCH   3   4
ENDBRANCH   2   3
ENDBRANCH   1   2
BRANCH   1   7
ATOM      7  C   UNL     1      11.410  44.774  18.841  1.00  0.00     0.000 C 
BRANCH   7   8
ATOM      8  C   UNL     1      12.940  44.736  18.731  1.00  0.00    -0.000 C 
BRANCH   8   9
ATOM      9  C   UNL     1      13.537  46.141  18.898  1.00  0.00    -0.000 C 
BRANCH   9  10
ATOM     10  C   UNL     1      14.348  46.587  17.670  1.00  0.00    -0.003 C 
ATOM     11  C   UNL     1      13.463  47.038  16.509  1.00  0.00     0.004 C 
ENDBRANCH   9  10
ENDBRANCH   8   9
ENDBRANCH   7   8
ENDBRANCH   1   7
TORSDOF 7
ENDMDL
MODEL 5
REMARK VINA RESULT:    -3.541      1.826      2.832
REMARK INTER + INTRA:          -5.641
REMARK INTER:                  -5.089
REMARK INTRA:                  -0.552
REMARK UNBOUND:                -0.651
REMARK SMILES CCCCCCCCC(=O)[O-]
REMARK SMILES IDX 6 1 7 2 8 3 9 4 10 5 11 6 5 7 4 8 3 9 2 10 1 11
REMARK H PARENT
REMARK Flexibility Score: inf
ROOT
ATOM      1  C   UNL     1      11.132  46.635  19.233  1.00  0.00     0.000 C 
ENDROOT
BRANCH   1   2
ATOM      2  C   UNL     1       9.924  45.730  19.520  1.00  0.00     0.006 C 
BRANCH   2   3
ATOM      3  C   UNL     1      10.320  44.412  20.199  1.00  0.00     0.053 C 
BRANCH   3   4
ATOM      4  C   UNL     1       9.331  43.339  19.870  1.00  0.00     0.041 C 
ATOM      5  O   UNL     1       8.177  43.641  19.468  1.00  0.00    -0.550 OA
ATOM      6  O   UNL     1       9.669  42.003  20.052  1.00  0.00    -0.550 OA
ENDBRANCH   3   4
ENDBRANCH   2   3
ENDBRANCH   1   2
BRANCH   1   7
ATOM      7  C   UNL     1      12.426  46.115  19.879  1.00  0.00     0.000 C 
BRANCH   7   8
ATOM      8  C   UNL     1      13.586  46.133  18.875  1.00  0.00    -0.000 C 
BRANCH   8   9
ATOM      9  C   UNL     1      13.474  44.966  17.884  1.00  0.00    -0.000 C 
BRANCH   9  10
ATOM     10  C   UNL     1      13.128  45.431  16.461  1.00  0.00    -0.003 C 
ATOM     11  C   UNL     1      13.419  46.914  16.236  1.00  0.00     0.004 C 
ENDBRANCH   9  10
ENDBRANCH   8   9
ENDBRANCH   7   8
ENDBRANCH   1   7
TORSDOF 7
ENDMDL
MODEL 6
REMARK VINA RESULT:    -3.502     11.192     12.567
REMARK INTER + INTRA:          -5.586
REMARK INTER:                  -4.809
REMARK INTRA:                  -0.778
REMARK UNBOUND:                -0.651
REMARK SMILES CCCCCCCCC(=O)[O-]
REMARK SMILES IDX 6 1 7 2 8 3 9 4 10 5 11 6 5 7 4 8 3 9 2 10 1 11
REMARK H PARENT
REMARK Flexibility Score: inf
ROOT
ATOM      1  C   UNL     1      13.964  40.818  27.569  1.00  0.00     0.000 C 
ENDROOT
BRANCH   1   2
ATOM      2  C   UNL     1      12.901  39.730  27.782  1.00  0.00     0.006 C 
BRANCH   2   3
ATOM      3  C   UNL     1      13.210  38.441  27.008  1.00  0.00     0.053 C 
BRANCH   3   4
ATOM      4  C   UNL     1      14.458  37.805  27.532  1.00  0.00     0.041 C 
ATOM      5  O   UNL     1      15.485  37.732  26.806  1.00  0.00    -0.550 OA
ATOM      6  O   UNL     1      14.474  37.250  28.805  1.00  0.00    -0.550 OA
ENDBRANCH   3   4
ENDBRANCH   2   3
ENDBRANCH   1   2
BRANCH   1   7
ATOM      7  C   UNL     1      14.128  41.733  28.793  1.00  0.00     0.000 C 
BRANCH   7   8
ATOM      8  C   UNL     1      15.528  41.589  29.403  1.00  0.00    -0.000 C 
BRANCH   8   9
ATOM      9  C   UNL     1      15.647  40.285  30.204  1.00  0.00    -0.000 C 
BRANCH   9  10
ATOM     10  C   UNL     1      16.903  39.478  29.837  1.00  0.00    -0.003 C 
ATOM     11  C   UNL     1      17.561  39.964  28.546  1.00  0.00     0.004 C 
ENDBRANCH   9  10
ENDBRANCH   8   9
ENDBRANCH   7   8
ENDBRANCH   1   7
TORSDOF 7
ENDMDL
MODEL 7
REMARK VINA RESULT:    -3.475      1.255      2.957
REMARK INTER + INTRA:          -5.548
REMARK INTER:                  -4.830
REMARK INTRA:                  -0.719
REMARK UNBOUND:                -0.651
REMARK SMILES CCCCCCCCC(=O)[O-]
REMARK SMILES IDX 6 1 7 2 8 3 9 4 10 5 11 6 5 7 4 8 3 9 2 10 1 11
REMARK H PARENT
REMARK Flexibility Score: inf
ROOT
ATOM      1  C   UNL     1      13.378  46.418  17.034  1.00  0.00     0.000 C 
ENDROOT
BRANCH   1   2
ATOM      2  C   UNL     1      12.222  46.640  18.022  1.00  0.00     0.006 C 
BRANCH   2   3
ATOM      3  C   UNL     1      11.578  45.325  18.483  1.00  0.00     0.053 C 
BRANCH   3   4
ATOM      4  C   UNL     1      10.455  45.599  19.432  1.00  0.00     0.041 C 
ATOM      5  O   UNL     1       9.755  46.638  19.303  1.00  0.00    -0.550 OA
ATOM      6  O   UNL     1      10.212  44.732  20.490  1.00  0.00    -0.550 OA
ENDBRANCH   3   4
ENDBRANCH   2   3
ENDBRANCH   1   2
BRANCH   1   7
ATOM      7  C   UNL     1      14.756  46.637  17.678  1.00  0.00     0.000 C 
BRANCH   7   8
ATOM      8  C   UNL     1      15.405  45.299  18.054  1.00  0.00    -0.000 C 
BRANCH   8   9
ATOM      9  C   UNL     1      15.758  45.260  19.548  1.00  0.00    -0.000 C 
BRANCH   9  10
ATOM     10  C   UNL     1      14.709  44.510  20.383  1.00  0.00    -0.003 C 
ATOM     11  C   UNL     1      13.870  45.443  21.255  1.00  0.00     0.004 C 
ENDBRANCH   9  10
ENDBRANCH   8   9
ENDBRANCH   7   8
ENDBRANCH   1   7
TORSDOF 7
ENDMDL
MODEL 8
REMARK VINA RESULT:    -3.433      3.974      5.077
REMARK INTER + INTRA:          -5.490
REMARK INTER:                  -4.772
REMARK INTRA:                  -0.718
REMARK UNBOUND:                -0.651
REMARK SMILES CCCCCCCCC(=O)[O-]
REMARK SMILES IDX 6 1 7 2 8 3 9 4 10 5 11 6 5 7 4 8 3 9 2 10 1 11
REMARK H PARENT
REMARK Flexibility Score: inf
ROOT
ATOM      1  C   UNL     1      14.877  45.499  20.572  1.00  0.00     0.000 C 
ENDROOT
BRANCH   1   2
ATOM      2  C   UNL     1      15.823  45.695  19.377  1.00  0.00     0.006 C 
BRANCH   2   3
ATOM      3  C   UNL     1      16.054  44.400  18.587  1.00  0.00     0.053 C 
BRANCH   3   4
ATOM      4  C   UNL     1      17.355  43.775  18.978  1.00  0.00     0.041 C 
ATOM      5  O   UNL     1      17.642  42.612  18.591  1.00  0.00    -0.550 OA
ATOM      6  O   UNL     1      18.232  44.459  19.812  1.00  0.00    -0.550 OA
ENDBRANCH   3   4
ENDBRANCH   2   3
ENDBRANCH   1   2
BRANCH   1   7
ATOM      7  C   UNL     1      13.548  46.253  20.403  1.00  0.00     0.000 C 
BRANCH   7   8
ATOM      8  C   UNL     1      12.519  45.392  19.660  1.00  0.00    -0.000 C 
BRANCH   8   9
ATOM      9  C   UNL     1      11.962  46.135  18.437  1.00  0.00    -0.000 C 
BRANCH   9  10
ATOM     10  C   UNL     1      12.777  45.867  17.161  1.00  0.00    -0.003 C 
ATOM     11  C   UNL     1      13.506  47.111  16.655  1.00  0.00     0.004 C 
ENDBRANCH   9  10
ENDBRANCH   8   9
ENDBRANCH   7   8
ENDBRANCH   1   7
TORSDOF 7
ENDMDL
MODEL 9
REMARK VINA RESULT:    -3.428      2.377      3.971
REMARK INTER + INTRA:          -5.482
REMARK INTER:                  -4.857
REMARK INTRA:                  -0.625
REMARK UNBOUND:                -0.651
REMARK SMILES CCCCCCCCC(=O)[O-]
REMARK SMILES IDX 6 1 7 2 8 3 9 4 10 5 11 6 5 7 4 8 3 9 2 10 1 11
REMARK H PARENT
REMARK Flexibility Score: inf
ROOT
ATOM      1  C   UNL     1      14.892  46.997  17.543  1.00  0.00     0.000 C 
ENDROOT
BRANCH   1   2
ATOM      2  C   UNL     1      15.483  45.702  18.119  1.00  0.00     0.006 C 
BRANCH   2   3
ATOM      3  C   UNL     1      15.937  45.856  19.577  1.00  0.00     0.053 C 
BRANCH   3   4
ATOM      4  C   UNL     1      14.821  45.505  20.510  1.00  0.00     0.041 C 
ATOM      5  O   UNL     1      14.620  44.305  20.834  1.00  0.00    -0.550 OA
ATOM      6  O   UNL     1      13.973  46.499  20.983  1.00  0.00    -0.550 OA
ENDBRANCH   3   4
ENDBRANCH   2   3
ENDBRANCH   1   2
BRANCH   1   7
ATOM      7  C   UNL     1      13.543  46.771  16.841  1.00  0.00     0.000 C 
BRANCH   7   8
ATOM      8  C   UNL     1      12.945  45.412  17.227  1.00  0.00    -0.000 C 
BRANCH   8   9
ATOM      9  C   UNL     1      11.866  45.573  18.307  1.00  0.00    -0.000 C 
BRANCH   9  10
ATOM     10  C   UNL     1      11.272  46.990  18.343  1.00  0.00    -0.003 C 
ATOM     11  C   UNL     1       9.930  47.051  19.070  1.00  0.00     0.004 C 
ENDBRANCH   9  10
ENDBRANCH   8   9
ENDBRANCH   7   8
ENDBRANCH   1   7
TORSDOF 7
ENDMDL
