MODEL 1
REMARK VINA RESULT:    -4.721      0.000      0.000
REMARK INTER + INTRA:          -4.721
REMARK INTER:                  -4.721
REMARK INTRA:                   0.000
REMARK UNBOUND:                 0.000
REMARK SMILES CC1=CC[C@@H]2[C@H](C1)C2(C)C
REMARK SMILES IDX 1 1 2 2 3 3 4 4 5 5 6 6 7 7 8 8 9 9 10 10
REMARK H PARENT
REMARK Flexibility Score: inf
ROOT
ATOM      1  C   UNL     1     -18.734   3.165 -14.438  1.00  0.00     0.039 C 
ATOM      2  C   UNL     1     -17.910   2.865 -13.215  1.00  0.00    -0.077 C 
ATOM      3  C   UNL     1     -18.105   3.582 -12.096  1.00  0.00    -0.028 C 
ATOM      4  C   UNL     1     -17.314   3.321 -10.845  1.00  0.00     0.031 C 
ATOM      5  C   UNL     1     -15.846   2.965 -11.157  1.00  0.00     0.003 C 
ATOM      6  C   UNL     1     -15.612   2.134 -12.440  1.00  0.00     0.003 C 
ATOM      7  C   UNL     1     -16.877   1.764 -13.246  1.00  0.00     0.034 C 
ATOM      8  C   UNL     1     -15.357   1.510 -11.058  1.00  0.00    -0.029 C 
ATOM      9  C   UNL     1     -13.877   1.358 -10.691  1.00  0.00     0.012 C 
ATOM     10  C   UNL     1     -16.292   0.412 -10.516  1.00  0.00     0.012 C 
ENDROOT
TORSDOF 0
ENDMDL
MODEL 2
REMARK VINA RESULT:    -4.321      6.176      7.161
REMARK INTER + INTRA:          -4.321
REMARK INTER:                  -4.321
REMARK INTRA:                   0.000
REMARK UNBOUND:                 0.000
REMARK SMILES CC1=CC[C@@H]2[C@H](C1)C2(C)C
REMARK SMILES IDX 1 1 2 2 3 3 4 4 5 5 6 6 7 7 8 8 9 9 10 10
REMARK H PARENT
REMARK Flexibility Score: inf
ROOT
ATOM      1  C   UNL     1     -11.908   8.661 -14.961  1.00  0.00     0.039 C 
ATOM      2  C   UNL     1     -12.407   7.393 -15.600  1.00  0.00    -0.077 C 
ATOM      3  C   UNL     1     -13.605   7.387 -16.208  1.00  0.00    -0.028 C 
ATOM      4  C   UNL     1     -14.148   6.151 -16.866  1.00  0.00     0.031 C 
ATOM      5  C   UNL     1     -13.803   4.876 -16.069  1.00  0.00     0.003 C 
ATOM      6  C   UNL     1     -12.423   4.870 -15.371  1.00  0.00     0.003 C 
ATOM      7  C   UNL     1     -11.564   6.140 -15.562  1.00  0.00     0.034 C 
ATOM      8  C   UNL     1     -12.695   3.927 -16.555  1.00  0.00    -0.029 C 
ATOM      9  C   UNL     1     -12.896   2.459 -16.166  1.00  0.00     0.012 C 
ATOM     10  C   UNL     1     -12.008   4.166 -17.913  1.00  0.00     0.012 C 
ENDROOT
TORSDOF 0
ENDMDL
MODEL 3
REMARK VINA RESULT:    -4.318      5.333      6.201
REMARK INTER + INTRA:          -4.318
REMARK INTER:                  -4.318
REMARK INTRA:                   0.000
REMARK UNBOUND:                 0.000
REMARK SMILES CC1=CC[C@@H]2[C@H](C1)C2(C)C
REMARK SMILES IDX 1 1 2 2 3 3 4 4 5 5 6 6 7 7 8 8 9 9 10 10
REMARK H PARENT
REMARK Flexibility Score: inf
ROOT
ATOM      1  C   UNL     1     -13.255   5.872 -16.927  1.00  0.00     0.039 C 
ATOM      2  C   UNL     1     -12.603   4.790 -16.108  1.00  0.00    -0.077 C 
ATOM      3  C   UNL     1     -13.091   3.540 -16.158  1.00  0.00    -0.028 C 
ATOM      4  C   UNL     1     -12.475   2.422 -15.365  1.00  0.00     0.031 C 
ATOM      5  C   UNL     1     -12.004   2.895 -13.974  1.00  0.00     0.003 C 
ATOM      6  C   UNL     1     -11.435   4.331 -13.907  1.00  0.00     0.003 C 
ATOM      7  C   UNL     1     -11.407   5.109 -15.242  1.00  0.00     0.034 C 
ATOM      8  C   UNL     1     -10.509   3.121 -13.691  1.00  0.00    -0.029 C 
ATOM      9  C   UNL     1     -10.094   2.891 -12.235  1.00  0.00     0.012 C 
ATOM     10  C   UNL     1      -9.453   2.751 -14.749  1.00  0.00     0.012 C 
ENDROOT
TORSDOF 0
ENDMDL
MODEL 4
REMARK VINA RESULT:    -4.170      5.546      6.411
REMARK INTER + INTRA:          -4.170
REMARK INTER:                  -4.170
REMARK INTRA:                   0.000
REMARK UNBOUND:                 0.000
REMARK SMILES CC1=CC[C@@H]2[C@H](C1)C2(C)C
REMARK SMILES IDX 1 1 2 2 3 3 4 4 5 5 6 6 7 7 8 8 9 9 10 10
REMARK H PARENT
REMARK Flexibility Score: inf
ROOT
ATOM      1  C   UNL     1     -12.925   4.378 -16.758  1.00  0.00     0.039 C 
ATOM      2  C   UNL     1     -11.977   4.154 -15.611  1.00  0.00    -0.077 C 
ATOM      3  C   UNL     1     -11.178   5.157 -15.209  1.00  0.00    -0.028 C 
ATOM      4  C   UNL     1     -10.217   4.989 -14.067  1.00  0.00     0.031 C 
ATOM      5  C   UNL     1      -9.575   3.587 -14.056  1.00  0.00     0.003 C 
ATOM      6  C   UNL     1     -10.488   2.424 -14.512  1.00  0.00     0.003 C 
ATOM      7  C   UNL     1     -11.927   2.814 -14.916  1.00  0.00     0.034 C 
ATOM      8  C   UNL     1     -10.036   2.524 -13.044  1.00  0.00    -0.029 C 
ATOM      9  C   UNL     1      -8.955   1.516 -12.641  1.00  0.00     0.012 C 
ATOM     10  C   UNL     1     -11.049   2.888 -11.942  1.00  0.00     0.012 C 
ENDROOT
TORSDOF 0
ENDMDL
MODEL 5
REMARK VINA RESULT:    -4.026      5.579      7.511
REMARK INTER + INTRA:          -4.026
REMARK INTER:                  -4.026
REMARK INTRA:                   0.000
REMARK UNBOUND:                 0.000
REMARK SMILES CC1=CC[C@@H]2[C@H](C1)C2(C)C
REMARK SMILES IDX 1 1 2 2 3 3 4 4 5 5 6 6 7 7 8 8 9 9 10 10
REMARK H PARENT
REMARK Flexibility Score: inf
ROOT
ATOM      1  C   UNL     1      -9.780   0.994 -11.110  1.00  0.00     0.039 C 
ATOM      2  C   UNL     1      -9.978   1.804 -12.363  1.00  0.00    -0.077 C 
ATOM      3  C   UNL     1      -9.047   1.762 -13.330  1.00  0.00    -0.028 C 
ATOM      4  C   UNL     1      -9.197   2.546 -14.603  1.00  0.00     0.031 C 
ATOM      5  C   UNL     1      -9.832   3.930 -14.355  1.00  0.00     0.003 C 
ATOM      6  C   UNL     1     -10.910   3.988 -13.247  1.00  0.00     0.003 C 
ATOM      7  C   UNL     1     -11.216   2.653 -12.532  1.00  0.00     0.034 C 
ATOM      8  C   UNL     1     -11.303   4.191 -14.720  1.00  0.00    -0.029 C 
ATOM      9  C   UNL     1     -11.618   5.641 -15.100  1.00  0.00     0.012 C 
ATOM     10  C   UNL     1     -12.122   3.118 -15.462  1.00  0.00     0.012 C 
ENDROOT
TORSDOF 0
ENDMDL
MODEL 6
REMARK VINA RESULT:    -3.996     17.800     19.742
REMARK INTER + INTRA:          -3.996
REMARK INTER:                  -3.996
REMARK INTRA:                   0.000
REMARK UNBOUND:                 0.000
REMARK SMILES CC1=CC[C@@H]2[C@H](C1)C2(C)C
REMARK SMILES IDX 1 1 2 2 3 3 4 4 5 5 6 6 7 7 8 8 9 9 10 10
REMARK H PARENT
REMARK Flexibility Score: inf
ROOT
ATOM      1  C   UNL     1     -28.470  10.400 -22.253  1.00  0.00     0.039 C 
ATOM      2  C   UNL     1     -28.053  11.554 -23.124  1.00  0.00    -0.077 C 
ATOM      3  C   UNL     1     -28.726  12.714 -23.049  1.00  0.00    -0.028 C 
ATOM      4  C   UNL     1     -28.349  13.900 -23.891  1.00  0.00     0.031 C 
ATOM      5  C   UNL     1     -27.906  13.481 -25.308  1.00  0.00     0.003 C 
ATOM      6  C   UNL     1     -27.124  12.150 -25.404  1.00  0.00     0.003 C 
ATOM      7  C   UNL     1     -26.884  11.410 -24.069  1.00  0.00     0.034 C 
ATOM      8  C   UNL     1     -26.417  13.485 -25.694  1.00  0.00    -0.029 C 
ATOM      9  C   UNL     1     -26.143  13.751 -27.177  1.00  0.00     0.012 C 
ATOM     10  C   UNL     1     -25.362  14.034 -24.714  1.00  0.00     0.012 C 
ENDROOT
TORSDOF 0
ENDMDL
MODEL 7
REMARK VINA RESULT:    -3.925      1.028      4.181
REMARK INTER + INTRA:          -3.925
REMARK INTER:                  -3.925
REMARK INTRA:                   0.000
REMARK UNBOUND:                 0.000
REMARK SMILES CC1=CC[C@@H]2[C@H](C1)C2(C)C
REMARK SMILES IDX 1 1 2 2 3 3 4 4 5 5 6 6 7 7 8 8 9 9 10 10
REMARK H PARENT
REMARK Flexibility Score: inf
ROOT
ATOM      1  C   UNL     1     -12.690   1.243  -9.745  1.00  0.00     0.039 C 
ATOM      2  C   UNL     1     -14.084   1.391 -10.293  1.00  0.00    -0.077 C 
ATOM      3  C   UNL     1     -15.016   0.475  -9.981  1.00  0.00    -0.028 C 
ATOM      4  C   UNL     1     -16.423   0.577 -10.496  1.00  0.00     0.031 C 
ATOM      5  C   UNL     1     -16.469   1.102 -11.946  1.00  0.00     0.003 C 
ATOM      6  C   UNL     1     -15.404   2.161 -12.313  1.00  0.00     0.003 C 
ATOM      7  C   UNL     1     -14.431   2.562 -11.181  1.00  0.00     0.034 C 
ATOM      8  C   UNL     1     -16.890   2.552 -12.238  1.00  0.00    -0.029 C 
ATOM      9  C   UNL     1     -17.562   2.759 -13.599  1.00  0.00     0.012 C 
ATOM     10  C   UNL     1     -17.400   3.458 -11.101  1.00  0.00     0.012 C 
ENDROOT
TORSDOF 0
ENDMDL
MODEL 8
REMARK VINA RESULT:    -3.834      1.317      4.108
REMARK INTER + INTRA:          -3.834
REMARK INTER:                  -3.834
REMARK INTRA:                   0.000
REMARK UNBOUND:                 0.000
REMARK SMILES CC1=CC[C@@H]2[C@H](C1)C2(C)C
REMARK SMILES IDX 1 1 2 2 3 3 4 4 5 5 6 6 7 7 8 8 9 9 10 10
REMARK H PARENT
REMARK Flexibility Score: inf
ROOT
ATOM      1  C   UNL     1     -14.654  -0.372  -8.791  1.00  0.00     0.039 C 
ATOM      2  C   UNL     1     -15.018   0.725  -9.754  1.00  0.00    -0.077 C 
ATOM      3  C   UNL     1     -14.433   1.928  -9.637  1.00  0.00    -0.028 C 
ATOM      4  C   UNL     1     -14.755   3.056 -10.575  1.00  0.00     0.031 C 
ATOM      5  C   UNL     1     -16.251   3.082 -10.951  1.00  0.00     0.003 C 
ATOM      6  C   UNL     1     -16.933   1.701 -11.095  1.00  0.00     0.003 C 
ATOM      7  C   UNL     1     -16.030   0.472 -10.847  1.00  0.00     0.034 C 
ATOM      8  C   UNL     1     -16.717   2.590 -12.332  1.00  0.00    -0.029 C 
ATOM      9  C   UNL     1     -17.986   3.270 -12.856  1.00  0.00     0.012 C 
ATOM     10  C   UNL     1     -15.685   2.193 -13.405  1.00  0.00     0.012 C 
ENDROOT
TORSDOF 0
ENDMDL
MODEL 9
REMARK VINA RESULT:    -3.826     18.239     19.957
REMARK INTER + INTRA:          -3.826
REMARK INTER:                  -3.826
REMARK INTRA:                   0.000
REMARK UNBOUND:                 0.000
REMARK SMILES CC1=CC[C@@H]2[C@H](C1)C2(C)C
REMARK SMILES IDX 1 1 2 2 3 3 4 4 5 5 6 6 7 7 8 8 9 9 10 10
REMARK H PARENT
REMARK Flexibility Score: inf
ROOT
ATOM      1  C   UNL     1     -26.577  14.101 -28.125  1.00  0.00     0.039 C 
ATOM      2  C   UNL     1     -26.726  13.545 -26.734  1.00  0.00    -0.077 C 
ATOM      3  C   UNL     1     -25.751  13.751 -25.833  1.00  0.00    -0.028 C 
ATOM      4  C   UNL     1     -25.851  13.223 -24.430  1.00  0.00     0.031 C 
ATOM      5  C   UNL     1     -26.511  11.830 -24.385  1.00  0.00     0.003 C 
ATOM      6  C   UNL     1     -27.639  11.584 -25.415  1.00  0.00     0.003 C 
ATOM      7  C   UNL     1     -27.964  12.767 -26.355  1.00  0.00     0.034 C 
ATOM      8  C   UNL     1     -27.966  11.669 -23.914  1.00  0.00    -0.029 C 
ATOM      9  C   UNL     1     -28.278  10.323 -23.254  1.00  0.00     0.012 C 
ATOM     10  C   UNL     1     -28.739  12.878 -23.354  1.00  0.00     0.012 C 
ENDROOT
TORSDOF 0
ENDMDL
