MODEL 1
REMARK VINA RESULT:    -7.687      0.000      0.000
REMARK INTER + INTRA:          -9.167
REMARK INTER:                  -9.035
REMARK INTRA:                  -0.132
REMARK UNBOUND:                -0.132
REMARK SMILES O=c1c(O)c(-c2ccc(O)c(O)c2)oc2cc(O)ccc12
REMARK SMILES IDX 5 1 3 2 2 3 1 4 21 5 15 6 14 7 16 8 17 9 19 10 20 11 6 12
REMARK SMILES IDX 7 13 8 14 9 15 13 16 11 17 10 18 12 20 4 22 18 24
REMARK H PARENT 10 19 12 21 4 23 18 25
REMARK Flexibility Score: inf
ROOT
ATOM      1  C   UNL     1     105.545 102.535 103.975  1.00  0.00     0.180 A 
ATOM      2  C   UNL     1     104.678 102.045 104.972  1.00  0.00     0.208 A 
ATOM      3  C   UNL     1     105.139 101.037 105.834  1.00  0.00     0.235 A 
ATOM      4  O   UNL     1     104.378 100.573 106.728  1.00  0.00    -0.285 OA
ATOM      5  C   UNL     1     106.452 100.557 105.696  1.00  0.00     0.069 A 
ATOM      6  C   UNL     1     107.265 101.117 104.688  1.00  0.00     0.142 A 
ATOM      7  O   UNL     1     106.788 102.064 103.887  1.00  0.00    -0.452 OA
ATOM      8  C   UNL     1     108.583 100.674 104.523  1.00  0.00     0.094 A 
ATOM      9  C   UNL     1     109.098  99.674 105.355  1.00  0.00     0.119 A 
ATOM     10  C   UNL     1     108.293  99.114 106.357  1.00  0.00     0.047 A 
ATOM     11  C   UNL     1     106.976  99.553 106.529  1.00  0.00     0.020 A 
ENDROOT
BRANCH   1  12
ATOM     12  C   UNL     1     105.129 103.584 103.017  1.00  0.00     0.025 A 
ATOM     13  C   UNL     1     104.813 104.867 103.491  1.00  0.00     0.016 A 
ATOM     14  C   UNL     1     104.437 105.878 102.603  1.00  0.00     0.051 A 
ATOM     15  C   UNL     1     104.387 105.625 101.225  1.00  0.00     0.157 A 
ATOM     16  C   UNL     1     105.097 103.341 101.633  1.00  0.00     0.062 A 
ATOM     17  C   UNL     1     104.723 104.351 100.738  1.00  0.00     0.158 A 
BRANCH  15  18
ATOM     18  O   UNL     1     104.010 106.635 100.341  1.00  0.00    -0.504 OA
ATOM     19  H   UNL     1     103.083 107.043 100.366  1.00  0.00     0.293 HD
ENDBRANCH  15  18
BRANCH  17  20
ATOM     20  O   UNL     1     104.698 104.072  99.372  1.00  0.00    -0.504 OA
ATOM     21  H   UNL     1     105.223 104.620  98.701  1.00  0.00     0.293 HD
ENDBRANCH  17  20
ENDBRANCH   1  12
BRANCH   2  22
ATOM     22  O   UNL     1     103.394 102.576 105.118  1.00  0.00    -0.502 OA
ATOM     23  H   UNL     1     102.571 101.990 105.186  1.00  0.00     0.293 HD
ENDBRANCH   2  22
BRANCH   9  24
ATOM     24  O   UNL     1     110.412  99.244 105.179  1.00  0.00    -0.508 OA
ATOM     25  H   UNL     1     111.189  99.893 105.205  1.00  0.00     0.293 HD
ENDBRANCH   9  24
TORSDOF 5
ENDMDL
MODEL 2
REMARK VINA RESULT:    -7.493      1.378      2.773
REMARK INTER + INTRA:          -8.940
REMARK INTER:                  -8.655
REMARK INTRA:                  -0.285
REMARK UNBOUND:                -0.132
REMARK SMILES O=c1c(O)c(-c2ccc(O)c(O)c2)oc2cc(O)ccc12
REMARK SMILES IDX 5 1 3 2 2 3 1 4 21 5 15 6 14 7 16 8 17 9 19 10 20 11 6 12
REMARK SMILES IDX 7 13 8 14 9 15 13 16 11 17 10 18 12 20 4 22 18 24
REMARK H PARENT 10 19 12 21 4 23 18 25
REMARK Flexibility Score: inf
ROOT
ATOM      1  C   UNL     1     106.094 103.103 104.084  1.00  0.00     0.180 A 
ATOM      2  C   UNL     1     107.503 103.067 104.128  1.00  0.00     0.208 A 
ATOM      3  C   UNL     1     108.130 102.081 104.906  1.00  0.00     0.235 A 
ATOM      4  O   UNL     1     109.390 102.035 104.971  1.00  0.00    -0.285 OA
ATOM      5  C   UNL     1     107.346 101.147 105.602  1.00  0.00     0.069 A 
ATOM      6  C   UNL     1     105.942 101.235 105.486  1.00  0.00     0.142 A 
ATOM      7  O   UNL     1     105.387 102.189 104.746  1.00  0.00    -0.452 OA
ATOM      8  C   UNL     1     105.125 100.317 106.155  1.00  0.00     0.094 A 
ATOM      9  C   UNL     1     105.695  99.310 106.942  1.00  0.00     0.119 A 
ATOM     10  C   UNL     1     107.088  99.220 107.060  1.00  0.00     0.047 A 
ATOM     11  C   UNL     1     107.912 100.132 106.394  1.00  0.00     0.020 A 
ENDROOT
BRANCH   1  12
ATOM     12  C   UNL     1     105.357 104.121 103.301  1.00  0.00     0.025 A 
ATOM     13  C   UNL     1     104.855 105.260 103.950  1.00  0.00     0.016 A 
ATOM     14  C   UNL     1     104.174 106.244 103.227  1.00  0.00     0.051 A 
ATOM     15  C   UNL     1     104.000 106.110 101.843  1.00  0.00     0.157 A 
ATOM     16  C   UNL     1     105.198 104.001 101.910  1.00  0.00     0.062 A 
ATOM     17  C   UNL     1     104.519 104.984 101.181  1.00  0.00     0.158 A 
BRANCH  15  18
ATOM     18  O   UNL     1     103.319 107.092 101.125  1.00  0.00    -0.504 OA
ATOM     19  H   UNL     1     103.601 108.064 101.157  1.00  0.00     0.293 HD
ENDBRANCH  15  18
BRANCH  17  20
ATOM     20  O   UNL     1     104.375 104.829  99.803  1.00  0.00    -0.504 OA
ATOM     21  H   UNL     1     103.848 104.063  99.400  1.00  0.00     0.293 HD
ENDBRANCH  17  20
ENDBRANCH   1  12
BRANCH   2  22
ATOM     22  O   UNL     1     108.258 103.979 103.387  1.00  0.00    -0.502 OA
ATOM     23  H   UNL     1     107.996 104.953 103.299  1.00  0.00     0.293 HD
ENDBRANCH   2  22
BRANCH   9  24
ATOM     24  O   UNL     1     104.867  98.403 107.602  1.00  0.00    -0.508 OA
ATOM     25  H   UNL     1     105.247  97.629 108.133  1.00  0.00     0.293 HD
ENDBRANCH   9  24
TORSDOF 5
ENDMDL
MODEL 3
REMARK VINA RESULT:    -7.340      2.650      5.166
REMARK INTER + INTRA:          -8.759
REMARK INTER:                  -8.580
REMARK INTRA:                  -0.179
REMARK UNBOUND:                -0.132
REMARK SMILES O=c1c(O)c(-c2ccc(O)c(O)c2)oc2cc(O)ccc12
REMARK SMILES IDX 5 1 3 2 2 3 1 4 21 5 15 6 14 7 16 8 17 9 19 10 20 11 6 12
REMARK SMILES IDX 7 13 8 14 9 15 13 16 11 17 10 18 12 20 4 22 18 24
REMARK H PARENT 10 19 12 21 4 23 18 25
REMARK Flexibility Score: inf
ROOT
ATOM      1  C   UNL     1     103.650 102.550 104.071  1.00  0.00     0.180 A 
ATOM      2  C   UNL     1     104.520 101.953 105.006  1.00  0.00     0.208 A 
ATOM      3  C   UNL     1     104.048 101.703 106.305  1.00  0.00     0.235 A 
ATOM      4  O   UNL     1     104.810 101.179 107.164  1.00  0.00    -0.285 OA
ATOM      5  C   UNL     1     102.723 102.033 106.634  1.00  0.00     0.069 A 
ATOM      6  C   UNL     1     101.909 102.605 105.633  1.00  0.00     0.142 A 
ATOM      7  O   UNL     1     102.396 102.834 104.419  1.00  0.00    -0.452 OA
ATOM      8  C   UNL     1     100.579 102.939 105.918  1.00  0.00     0.094 A 
ATOM      9  C   UNL     1     100.053 102.709 107.194  1.00  0.00     0.119 A 
ATOM     10  C   UNL     1     100.859 102.142 108.190  1.00  0.00     0.047 A 
ATOM     11  C   UNL     1     102.188 101.803 107.914  1.00  0.00     0.020 A 
ENDROOT
BRANCH   1  12
ATOM     12  C   UNL     1     104.077 102.862 102.688  1.00  0.00     0.025 A 
ATOM     13  C   UNL     1     104.340 101.814 101.793  1.00  0.00     0.016 A 
ATOM     14  C   UNL     1     104.725 102.086 100.477  1.00  0.00     0.051 A 
ATOM     15  C   UNL     1     104.836 103.410 100.033  1.00  0.00     0.157 A 
ATOM     16  C   UNL     1     104.170 104.189 102.233  1.00  0.00     0.062 A 
ATOM     17  C   UNL     1     104.553 104.467 100.915  1.00  0.00     0.158 A 
BRANCH  15  18
ATOM     18  O   UNL     1     105.221 103.678  98.720  1.00  0.00    -0.504 OA
ATOM     19  H   UNL     1     104.850 104.470  98.209  1.00  0.00     0.293 HD
ENDBRANCH  15  18
BRANCH  17  20
ATOM     20  O   UNL     1     104.640 105.795 100.499  1.00  0.00    -0.504 OA
ATOM     21  H   UNL     1     105.036 106.518 101.088  1.00  0.00     0.293 HD
ENDBRANCH  17  20
ENDBRANCH   1  12
BRANCH   2  22
ATOM     22  O   UNL     1     105.817 101.591 104.636  1.00  0.00    -0.502 OA
ATOM     23  H   UNL     1     106.220 101.855 103.746  1.00  0.00     0.293 HD
ENDBRANCH   2  22
BRANCH   9  24
ATOM     24  O   UNL     1      98.728 103.047 107.461  1.00  0.00    -0.508 OA
ATOM     25  H   UNL     1      98.342 103.940 107.178  1.00  0.00     0.293 HD
ENDBRANCH   9  24
TORSDOF 5
ENDMDL
MODEL 4
REMARK VINA RESULT:    -7.263      6.068      8.270
REMARK INTER + INTRA:          -8.669
REMARK INTER:                  -8.357
REMARK INTRA:                  -0.312
REMARK UNBOUND:                -0.132
REMARK SMILES O=c1c(O)c(-c2ccc(O)c(O)c2)oc2cc(O)ccc12
REMARK SMILES IDX 5 1 3 2 2 3 1 4 21 5 15 6 14 7 16 8 17 9 19 10 20 11 6 12
REMARK SMILES IDX 7 13 8 14 9 15 13 16 11 17 10 18 12 20 4 22 18 24
REMARK H PARENT 10 19 12 21 4 23 18 25
REMARK Flexibility Score: inf
ROOT
ATOM      1  C   UNL     1     100.311 101.351 107.290  1.00  0.00     0.180 A 
ATOM      2  C   UNL     1     101.433 100.919 108.026  1.00  0.00     0.208 A 
ATOM      3  C   UNL     1     101.397 101.007 109.427  1.00  0.00     0.235 A 
ATOM      4  O   UNL     1     102.393 100.637 110.108  1.00  0.00    -0.285 OA
ATOM      5  C   UNL     1     100.244 101.500 110.059  1.00  0.00     0.069 A 
ATOM      6  C   UNL     1      99.154 101.889 109.251  1.00  0.00     0.142 A 
ATOM      7  O   UNL     1      99.231 101.799 107.928  1.00  0.00    -0.452 OA
ATOM      8  C   UNL     1      97.983 102.377 109.843  1.00  0.00     0.094 A 
ATOM      9  C   UNL     1      97.889 102.483 111.235  1.00  0.00     0.119 A 
ATOM     10  C   UNL     1      98.970 102.099 112.040  1.00  0.00     0.047 A 
ATOM     11  C   UNL     1     100.143 101.609 111.457  1.00  0.00     0.020 A 
ENDROOT
BRANCH   1  12
ATOM     12  C   UNL     1     100.277 101.307 105.810  1.00  0.00     0.025 A 
ATOM     13  C   UNL     1     100.831 102.367 105.075  1.00  0.00     0.016 A 
ATOM     14  C   UNL     1     100.827 102.337 103.677  1.00  0.00     0.051 A 
ATOM     15  C   UNL     1     100.285 101.239 102.996  1.00  0.00     0.157 A 
ATOM     16  C   UNL     1      99.753 100.199 105.122  1.00  0.00     0.062 A 
ATOM     17  C   UNL     1      99.750 100.163 103.722  1.00  0.00     0.158 A 
BRANCH  15  18
ATOM     18  O   UNL     1     100.282 101.214 101.602  1.00  0.00    -0.504 OA
ATOM     19  H   UNL     1     100.993 100.717 101.079  1.00  0.00     0.293 HD
ENDBRANCH  15  18
BRANCH  17  20
ATOM     20  O   UNL     1      99.216  99.050 103.074  1.00  0.00    -0.504 OA
ATOM     21  H   UNL     1      99.668  98.144 103.101  1.00  0.00     0.293 HD
ENDBRANCH  17  20
ENDBRANCH   1  12
BRANCH   2  22
ATOM     22  O   UNL     1     102.547 100.387 107.372  1.00  0.00    -0.502 OA
ATOM     23  H   UNL     1     102.688  99.390 107.269  1.00  0.00     0.293 HD
ENDBRANCH   2  22
BRANCH   9  24
ATOM     24  O   UNL     1      96.715 102.970 111.808  1.00  0.00    -0.508 OA
ATOM     25  H   UNL     1      96.650 103.920 112.155  1.00  0.00     0.293 HD
ENDBRANCH   9  24
TORSDOF 5
ENDMDL
MODEL 5
REMARK VINA RESULT:    -7.244      0.952      1.095
REMARK INTER + INTRA:          -8.646
REMARK INTER:                  -8.499
REMARK INTRA:                  -0.147
REMARK UNBOUND:                -0.132
REMARK SMILES O=c1c(O)c(-c2ccc(O)c(O)c2)oc2cc(O)ccc12
REMARK SMILES IDX 5 1 3 2 2 3 1 4 21 5 15 6 14 7 16 8 17 9 19 10 20 11 6 12
REMARK SMILES IDX 7 13 8 14 9 15 13 16 11 17 10 18 12 20 4 22 18 24
REMARK H PARENT 10 19 12 21 4 23 18 25
REMARK Flexibility Score: inf
ROOT
ATOM      1  C   UNL     1     104.866 102.748 104.344  1.00  0.00     0.180 A 
ATOM      2  C   UNL     1     103.808 102.341 105.182  1.00  0.00     0.208 A 
ATOM      3  C   UNL     1     104.070 101.407 106.197  1.00  0.00     0.235 A 
ATOM      4  O   UNL     1     103.137 101.019 106.954  1.00  0.00    -0.285 OA
ATOM      5  C   UNL     1     105.376 100.918 106.366  1.00  0.00     0.069 A 
ATOM      6  C   UNL     1     106.384 101.394 105.501  1.00  0.00     0.142 A 
ATOM      7  O   UNL     1     106.093 102.271 104.547  1.00  0.00    -0.452 OA
ATOM      8  C   UNL     1     107.700 100.939 105.642  1.00  0.00     0.094 A 
ATOM      9  C   UNL     1     108.021 100.010 106.638  1.00  0.00     0.119 A 
ATOM     10  C   UNL     1     107.022  99.535 107.498  1.00  0.00     0.047 A 
ATOM     11  C   UNL     1     105.705  99.985 107.366  1.00  0.00     0.020 A 
ENDROOT
BRANCH   1  12
ATOM     12  C   UNL     1     104.668 103.716 103.241  1.00  0.00     0.025 A 
ATOM     13  C   UNL     1     104.317 105.041 103.539  1.00  0.00     0.016 A 
ATOM     14  C   UNL     1     104.145 105.976 102.514  1.00  0.00     0.051 A 
ATOM     15  C   UNL     1     104.337 105.601 101.177  1.00  0.00     0.157 A 
ATOM     16  C   UNL     1     104.879 103.349 101.900  1.00  0.00     0.062 A 
ATOM     17  C   UNL     1     104.710 104.282 100.870  1.00  0.00     0.158 A 
BRANCH  15  18
ATOM     18  O   UNL     1     104.162 106.536 100.157  1.00  0.00    -0.504 OA
ATOM     19  H   UNL     1     104.006 106.251  99.198  1.00  0.00     0.293 HD
ENDBRANCH  15  18
BRANCH  17  20
ATOM     20  O   UNL     1     104.922 103.882  99.551  1.00  0.00    -0.504 OA
ATOM     21  H   UNL     1     104.162 103.789  98.888  1.00  0.00     0.293 HD
ENDBRANCH  17  20
ENDBRANCH   1  12
BRANCH   2  22
ATOM     22  O   UNL     1     102.529 102.882 105.023  1.00  0.00    -0.502 OA
ATOM     23  H   UNL     1     101.876 102.532 104.333  1.00  0.00     0.293 HD
ENDBRANCH   2  22
BRANCH   9  24
ATOM     24  O   UNL     1     109.337  99.568 106.766  1.00  0.00    -0.508 OA
ATOM     25  H   UNL     1     109.604  98.624 106.513  1.00  0.00     0.293 HD
ENDBRANCH   9  24
TORSDOF 5
ENDMDL
MODEL 6
REMARK VINA RESULT:    -7.178      3.597      5.005
REMARK INTER + INTRA:          -8.569
REMARK INTER:                  -8.367
REMARK INTRA:                  -0.202
REMARK UNBOUND:                -0.132
REMARK SMILES O=c1c(O)c(-c2ccc(O)c(O)c2)oc2cc(O)ccc12
REMARK SMILES IDX 5 1 3 2 2 3 1 4 21 5 15 6 14 7 16 8 17 9 19 10 20 11 6 12
REMARK SMILES IDX 7 13 8 14 9 15 13 16 11 17 10 18 12 20 4 22 18 24
REMARK H PARENT 10 19 12 21 4 23 18 25
REMARK Flexibility Score: inf
ROOT
ATOM      1  C   UNL     1     108.831 100.772 106.160  1.00  0.00     0.180 A 
ATOM      2  C   UNL     1     107.676 100.013 106.437  1.00  0.00     0.208 A 
ATOM      3  C   UNL     1     107.815  98.642 106.703  1.00  0.00     0.235 A 
ATOM      4  O   UNL     1     106.795  97.939 106.943  1.00  0.00    -0.285 OA
ATOM      5  C   UNL     1     109.095  98.065 106.705  1.00  0.00     0.069 A 
ATOM      6  C   UNL     1     110.204  98.898 106.442  1.00  0.00     0.142 A 
ATOM      7  O   UNL     1     110.029 100.190 106.186  1.00  0.00    -0.452 OA
ATOM      8  C   UNL     1     111.497  98.363 106.444  1.00  0.00     0.094 A 
ATOM      9  C   UNL     1     111.697  97.004 106.706  1.00  0.00     0.119 A 
ATOM     10  C   UNL     1     110.599  96.174 106.967  1.00  0.00     0.047 A 
ATOM     11  C   UNL     1     109.303  96.699 106.968  1.00  0.00     0.020 A 
ENDROOT
BRANCH   1  12
ATOM     12  C   UNL     1     108.767 102.219 105.853  1.00  0.00     0.025 A 
ATOM     13  C   UNL     1     108.182 102.645 104.650  1.00  0.00     0.016 A 
ATOM     14  C   UNL     1     108.093 104.007 104.350  1.00  0.00     0.051 A 
ATOM     15  C   UNL     1     108.572 104.963 105.256  1.00  0.00     0.157 A 
ATOM     16  C   UNL     1     109.228 103.182 106.768  1.00  0.00     0.062 A 
ATOM     17  C   UNL     1     109.138 104.548 106.472  1.00  0.00     0.158 A 
BRANCH  15  18
ATOM     18  O   UNL     1     108.483 106.321 104.952  1.00  0.00    -0.504 OA
ATOM     19  H   UNL     1     107.629 106.844 105.103  1.00  0.00     0.293 HD
ENDBRANCH  15  18
BRANCH  17  20
ATOM     20  O   UNL     1     109.611 105.475 107.401  1.00  0.00    -0.504 OA
ATOM     21  H   UNL     1     110.515 105.376 107.847  1.00  0.00     0.293 HD
ENDBRANCH  17  20
ENDBRANCH   1  12
BRANCH   2  22
ATOM     22  O   UNL     1     106.419 100.624 106.477  1.00  0.00    -0.502 OA
ATOM     23  H   UNL     1     106.247 101.474 106.999  1.00  0.00     0.293 HD
ENDBRANCH   2  22
BRANCH   9  24
ATOM     24  O   UNL     1     112.992  96.488 106.705  1.00  0.00    -0.508 OA
ATOM     25  H   UNL     1     113.235  95.666 107.246  1.00  0.00     0.293 HD
ENDBRANCH   9  24
TORSDOF 5
ENDMDL
MODEL 7
REMARK VINA RESULT:    -7.148      2.254      3.272
REMARK INTER + INTRA:          -8.534
REMARK INTER:                  -8.397
REMARK INTRA:                  -0.137
REMARK UNBOUND:                -0.132
REMARK SMILES O=c1c(O)c(-c2ccc(O)c(O)c2)oc2cc(O)ccc12
REMARK SMILES IDX 5 1 3 2 2 3 1 4 21 5 15 6 14 7 16 8 17 9 19 10 20 11 6 12
REMARK SMILES IDX 7 13 8 14 9 15 13 16 11 17 10 18 12 20 4 22 18 24
REMARK H PARENT 10 19 12 21 4 23 18 25
REMARK Flexibility Score: inf
ROOT
ATOM      1  C   UNL     1     103.914 102.488 103.985  1.00  0.00     0.180 A 
ATOM      2  C   UNL     1     102.691 102.852 104.584  1.00  0.00     0.208 A 
ATOM      3  C   UNL     1     102.463 102.501 105.924  1.00  0.00     0.235 A 
ATOM      4  O   UNL     1     101.371 102.806 106.479  1.00  0.00    -0.285 OA
ATOM      5  C   UNL     1     103.460 101.817 106.638  1.00  0.00     0.069 A 
ATOM      6  C   UNL     1     104.667 101.510 105.973  1.00  0.00     0.142 A 
ATOM      7  O   UNL     1     104.840 101.853 104.701  1.00  0.00    -0.452 OA
ATOM      8  C   UNL     1     105.689 100.838 106.652  1.00  0.00     0.094 A 
ATOM      9  C   UNL     1     105.520 100.466 107.990  1.00  0.00     0.119 A 
ATOM     10  C   UNL     1     104.323 100.768 108.653  1.00  0.00     0.047 A 
ATOM     11  C   UNL     1     103.296 101.441 107.983  1.00  0.00     0.020 A 
ENDROOT
BRANCH   1  12
ATOM     12  C   UNL     1     104.223 102.806 102.572  1.00  0.00     0.025 A 
ATOM     13  C   UNL     1     104.380 101.762 101.647  1.00  0.00     0.016 A 
ATOM     14  C   UNL     1     104.652 102.040 100.305  1.00  0.00     0.051 A 
ATOM     15  C   UNL     1     104.756 103.367  99.865  1.00  0.00     0.157 A 
ATOM     16  C   UNL     1     104.308 104.136 102.123  1.00  0.00     0.062 A 
ATOM     17  C   UNL     1     104.578 104.419 100.779  1.00  0.00     0.158 A 
BRANCH  15  18
ATOM     18  O   UNL     1     105.029 103.641  98.526  1.00  0.00    -0.504 OA
ATOM     19  H   UNL     1     105.825 103.232  98.052  1.00  0.00     0.293 HD
ENDBRANCH  15  18
BRANCH  17  20
ATOM     20  O   UNL     1     104.661 105.750 100.370  1.00  0.00    -0.504 OA
ATOM     21  H   UNL     1     105.540 106.252 100.345  1.00  0.00     0.293 HD
ENDBRANCH  17  20
ENDBRANCH   1  12
BRANCH   2  22
ATOM     22  O   UNL     1     101.737 103.576 103.863  1.00  0.00    -0.502 OA
ATOM     23  H   UNL     1     101.919 104.506 103.507  1.00  0.00     0.293 HD
ENDBRANCH   2  22
BRANCH   9  24
ATOM     24  O   UNL     1     106.548  99.798 108.653  1.00  0.00    -0.508 OA
ATOM     25  H   UNL     1     107.180  99.177 108.160  1.00  0.00     0.293 HD
ENDBRANCH   9  24
TORSDOF 5
ENDMDL
MODEL 8
REMARK VINA RESULT:    -7.082      1.873      3.167
REMARK INTER + INTRA:          -8.456
REMARK INTER:                  -8.187
REMARK INTRA:                  -0.269
REMARK UNBOUND:                -0.132
REMARK SMILES O=c1c(O)c(-c2ccc(O)c(O)c2)oc2cc(O)ccc12
REMARK SMILES IDX 5 1 3 2 2 3 1 4 21 5 15 6 14 7 16 8 17 9 19 10 20 11 6 12
REMARK SMILES IDX 7 13 8 14 9 15 13 16 11 17 10 18 12 20 4 22 18 24
REMARK H PARENT 10 19 12 21 4 23 18 25
REMARK Flexibility Score: inf
ROOT
ATOM      1  C   UNL     1     106.662 102.326 103.936  1.00  0.00     0.180 A 
ATOM      2  C   UNL     1     107.796 102.932 104.513  1.00  0.00     0.208 A 
ATOM      3  C   UNL     1     108.276 102.443 105.738  1.00  0.00     0.235 A 
ATOM      4  O   UNL     1     109.283 102.976 106.280  1.00  0.00    -0.285 OA
ATOM      5  C   UNL     1     107.631 101.354 106.347  1.00  0.00     0.069 A 
ATOM      6  C   UNL     1     106.516 100.787 105.694  1.00  0.00     0.142 A 
ATOM      7  O   UNL     1     106.088 101.286 104.539  1.00  0.00    -0.452 OA
ATOM      8  C   UNL     1     105.851  99.695 106.263  1.00  0.00     0.094 A 
ATOM      9  C   UNL     1     106.286  99.162 107.481  1.00  0.00     0.119 A 
ATOM     10  C   UNL     1     107.392  99.724 108.134  1.00  0.00     0.047 A 
ATOM     11  C   UNL     1     108.064 100.814 107.572  1.00  0.00     0.020 A 
ENDROOT
BRANCH   1  12
ATOM     12  C   UNL     1     106.084 102.794 102.656  1.00  0.00     0.025 A 
ATOM     13  C   UNL     1     106.234 102.009 101.502  1.00  0.00     0.016 A 
ATOM     14  C   UNL     1     105.680 102.423 100.287  1.00  0.00     0.051 A 
ATOM     15  C   UNL     1     104.954 103.619 100.213  1.00  0.00     0.157 A 
ATOM     16  C   UNL     1     105.338 103.983 102.581  1.00  0.00     0.062 A 
ATOM     17  C   UNL     1     104.779 104.400 101.367  1.00  0.00     0.158 A 
BRANCH  15  18
ATOM     18  O   UNL     1     104.404 104.030  99.000  1.00  0.00    -0.504 OA
ATOM     19  H   UNL     1     103.433 103.854  98.771  1.00  0.00     0.293 HD
ENDBRANCH  15  18
BRANCH  17  20
ATOM     20  O   UNL     1     104.049 105.588 101.330  1.00  0.00    -0.504 OA
ATOM     21  H   UNL     1     103.149 105.652 100.870  1.00  0.00     0.293 HD
ENDBRANCH  17  20
ENDBRANCH   1  12
BRANCH   2  22
ATOM     22  O   UNL     1     108.447 103.982 103.859  1.00  0.00    -0.502 OA
ATOM     23  H   UNL     1     108.160 104.947 103.966  1.00  0.00     0.293 HD
ENDBRANCH   2  22
BRANCH   9  24
ATOM     24  O   UNL     1     105.613  98.074 108.035  1.00  0.00    -0.508 OA
ATOM     25  H   UNL     1     105.438  97.233 107.499  1.00  0.00     0.293 HD
ENDBRANCH   9  24
TORSDOF 5
ENDMDL
MODEL 9
REMARK VINA RESULT:    -7.018      5.863      7.136
REMARK INTER + INTRA:          -8.381
REMARK INTER:                  -8.084
REMARK INTRA:                  -0.297
REMARK UNBOUND:                -0.132
REMARK SMILES O=c1c(O)c(-c2ccc(O)c(O)c2)oc2cc(O)ccc12
REMARK SMILES IDX 5 1 3 2 2 3 1 4 21 5 15 6 14 7 16 8 17 9 19 10 20 11 6 12
REMARK SMILES IDX 7 13 8 14 9 15 13 16 11 17 10 18 12 20 4 22 18 24
REMARK H PARENT 10 19 12 21 4 23 18 25
REMARK Flexibility Score: inf
ROOT
ATOM      1  C   UNL     1     100.392 101.235 107.568  1.00  0.00     0.180 A 
ATOM      2  C   UNL     1      99.420 101.819 108.406  1.00  0.00     0.208 A 
ATOM      3  C   UNL     1      99.543 101.662 109.796  1.00  0.00     0.235 A 
ATOM      4  O   UNL     1      98.680 102.166 110.567  1.00  0.00    -0.285 OA
ATOM      5  C   UNL     1     100.635 100.949 110.316  1.00  0.00     0.069 A 
ATOM      6  C   UNL     1     101.577 100.416 109.412  1.00  0.00     0.142 A 
ATOM      7  O   UNL     1     101.420 100.579 108.103  1.00  0.00    -0.452 OA
ATOM      8  C   UNL     1     102.685  99.707 109.891  1.00  0.00     0.094 A 
ATOM      9  C   UNL     1     102.862  99.522 111.266  1.00  0.00     0.119 A 
ATOM     10  C   UNL     1     101.927 100.049 112.168  1.00  0.00     0.047 A 
ATOM     11  C   UNL     1     100.818 100.760 111.698  1.00  0.00     0.020 A 
ENDROOT
BRANCH   1  12
ATOM     12  C   UNL     1     100.323 101.340 106.092  1.00  0.00     0.025 A 
ATOM     13  C   UNL     1     100.820 102.489 105.458  1.00  0.00     0.016 A 
ATOM     14  C   UNL     1     100.784 102.601 104.065  1.00  0.00     0.051 A 
ATOM     15  C   UNL     1     100.266 101.558 103.286  1.00  0.00     0.157 A 
ATOM     16  C   UNL     1      99.823 100.288 105.306  1.00  0.00     0.062 A 
ATOM     17  C   UNL     1      99.787 100.394 103.911  1.00  0.00     0.158 A 
BRANCH  15  18
ATOM     18  O   UNL     1     100.230 101.673 101.897  1.00  0.00    -0.504 OA
ATOM     19  H   UNL     1     100.936 102.191 101.390  1.00  0.00     0.293 HD
ENDBRANCH  15  18
BRANCH  17  20
ATOM     20  O   UNL     1      99.278  99.332 103.163  1.00  0.00    -0.504 OA
ATOM     21  H   UNL     1      99.667  99.072 102.264  1.00  0.00     0.293 HD
ENDBRANCH  17  20
ENDBRANCH   1  12
BRANCH   2  22
ATOM     22  O   UNL     1      98.371 102.565 107.862  1.00  0.00    -0.502 OA
ATOM     23  H   UNL     1      98.458 103.553 107.659  1.00  0.00     0.293 HD
ENDBRANCH   2  22
BRANCH   9  24
ATOM     24  O   UNL     1     103.970  98.814 111.727  1.00  0.00    -0.508 OA
ATOM     25  H   UNL     1     103.911  97.829 111.957  1.00  0.00     0.293 HD
ENDBRANCH   9  24
TORSDOF 5
ENDMDL
