MODEL 1
REMARK VINA RESULT:    -3.683      0.000      0.000
REMARK INTER + INTRA:          -5.179
REMARK INTER:                  -4.760
REMARK INTRA:                  -0.420
REMARK UNBOUND:                -0.420
REMARK SMILES CCO[C@H]1O[C@@H](CO)[C@H](O)[C@H](O)[C@@H]1O
REMARK SMILES IDX 4 1 13 2 11 3 9 4 6 5 5 6 3 7 2 8 1 9 14 10 12 12 7 14 8 15
REMARK SMILES IDX 10 17
REMARK H PARENT 14 11 12 13 8 16 10 18
REMARK Flexibility Score: inf
ROOT
ATOM      1  C   UNL     1       6.853   4.140   2.862  1.00  0.00     0.281 C 
ATOM      2  C   UNL     1       8.269   3.493   2.755  1.00  0.00     0.202 C 
ATOM      3  C   UNL     1       9.349   4.450   3.308  1.00  0.00     0.179 C 
ATOM      4  C   UNL     1       9.262   5.849   2.645  1.00  0.00     0.177 C 
ATOM      5  C   UNL     1       7.808   6.172   2.210  1.00  0.00     0.178 C 
ATOM      6  O   UNL     1       6.904   5.543   3.098  1.00  0.00    -0.341 OA
ENDROOT
BRANCH   1   7
ATOM      7  O   UNL     1       6.164   3.524   3.935  1.00  0.00    -0.350 OA
BRANCH   7   8
ATOM      8  C   UNL     1       5.413   2.420   3.474  1.00  0.00     0.160 C 
ATOM      9  C   UNL     1       4.530   2.864   2.319  1.00  0.00     0.035 C 
ENDBRANCH   7   8
ENDBRANCH   1   7
BRANCH   2  10
ATOM     10  O   UNL     1       8.538   3.176   1.411  1.00  0.00    -0.385 OA
ATOM     11  H   UNL     1       9.127   2.377   1.412  1.00  0.00     0.211 HD
ENDBRANCH   2  10
BRANCH   3  12
ATOM     12  O   UNL     1      10.635   3.907   3.145  1.00  0.00    -0.387 OA
ATOM     13  H   UNL     1      10.819   3.894   2.170  1.00  0.00     0.211 HD
ENDBRANCH   3  12
BRANCH   5  14
ATOM     14  C   UNL     1       7.556   7.685   2.219  1.00  0.00     0.191 C 
BRANCH  14  15
ATOM     15  O   UNL     1       8.516   8.344   1.436  1.00  0.00    -0.394 OA
ATOM     16  H   UNL     1       8.437   9.312   1.640  1.00  0.00     0.210 HD
ENDBRANCH  14  15
ENDBRANCH   5  14
BRANCH   4  17
ATOM     17  O   UNL     1      10.146   5.972   1.556  1.00  0.00    -0.387 OA
ATOM     18  H   UNL     1      10.679   6.798   1.687  1.00  0.00     0.211 HD
ENDBRANCH   4  17
TORSDOF 7
ENDMDL
MODEL 2
REMARK VINA RESULT:    -3.608      2.082      3.795
REMARK INTER + INTRA:          -5.082
REMARK INTER:                  -4.675
REMARK INTRA:                  -0.406
REMARK UNBOUND:                -0.420
REMARK SMILES CCO[C@H]1O[C@@H](CO)[C@H](O)[C@H](O)[C@@H]1O
REMARK SMILES IDX 4 1 13 2 11 3 9 4 6 5 5 6 3 7 2 8 1 9 14 10 12 12 7 14 8 15
REMARK SMILES IDX 10 17
REMARK H PARENT 14 11 12 13 8 16 10 18
REMARK Flexibility Score: inf
ROOT
ATOM      1  C   UNL     1       6.205   2.152   3.986  1.00  0.00     0.281 C 
ATOM      2  C   UNL     1       5.218   2.792   2.961  1.00  0.00     0.202 C 
ATOM      3  C   UNL     1       5.937   3.093   1.626  1.00  0.00     0.179 C 
ATOM      4  C   UNL     1       7.220   3.935   1.849  1.00  0.00     0.177 C 
ATOM      5  C   UNL     1       7.838   3.652   3.244  1.00  0.00     0.178 C 
ATOM      6  O   UNL     1       7.570   2.313   3.612  1.00  0.00    -0.341 OA
ENDROOT
BRANCH   1   7
ATOM      7  O   UNL     1       5.919   0.768   4.073  1.00  0.00    -0.350 OA
BRANCH   7   8
ATOM      8  C   UNL     1       6.947   0.010   3.470  1.00  0.00     0.160 C 
ATOM      9  C   UNL     1       7.007  -1.361   4.125  1.00  0.00     0.035 C 
ENDBRANCH   7   8
ENDBRANCH   1   7
BRANCH   2  10
ATOM     10  O   UNL     1       4.680   3.972   3.503  1.00  0.00    -0.385 OA
ATOM     11  H   UNL     1       5.354   4.689   3.370  1.00  0.00     0.211 HD
ENDBRANCH   2  10
BRANCH   3  12
ATOM     12  O   UNL     1       5.075   3.740   0.725  1.00  0.00    -0.387 OA
ATOM     13  H   UNL     1       5.234   4.714   0.825  1.00  0.00     0.211 HD
ENDBRANCH   3  12
BRANCH   5  14
ATOM     14  C   UNL     1       9.355   3.878   3.228  1.00  0.00     0.191 C 
BRANCH  14  15
ATOM     15  O   UNL     1       9.681   4.943   2.374  1.00  0.00    -0.394 OA
ATOM     16  H   UNL     1       9.595   5.774   2.908  1.00  0.00     0.210 HD
ENDBRANCH  14  15
ENDBRANCH   5  14
BRANCH   4  17
ATOM     17  O   UNL     1       6.983   5.313   1.681  1.00  0.00    -0.387 OA
ATOM     18  H   UNL     1       6.016   5.476   1.826  1.00  0.00     0.211 HD
ENDBRANCH   4  17
TORSDOF 7
ENDMDL
MODEL 3
REMARK VINA RESULT:    -3.452     10.060     12.245
REMARK INTER + INTRA:          -4.880
REMARK INTER:                  -4.439
REMARK INTRA:                  -0.441
REMARK UNBOUND:                -0.420
REMARK SMILES CCO[C@H]1O[C@@H](CO)[C@H](O)[C@H](O)[C@@H]1O
REMARK SMILES IDX 4 1 13 2 11 3 9 4 6 5 5 6 3 7 2 8 1 9 14 10 12 12 7 14 8 15
REMARK SMILES IDX 10 17
REMARK H PARENT 14 11 12 13 8 16 10 18
REMARK Flexibility Score: inf
ROOT
ATOM      1  C   UNL     1      17.763   8.175   2.195  1.00  0.00     0.281 C 
ATOM      2  C   UNL     1      18.854   9.138   2.759  1.00  0.00     0.202 C 
ATOM      3  C   UNL     1      20.038   9.259   1.772  1.00  0.00     0.179 C 
ATOM      4  C   UNL     1      20.593   7.866   1.377  1.00  0.00     0.177 C 
ATOM      5  C   UNL     1      19.482   6.785   1.434  1.00  0.00     0.178 C 
ATOM      6  O   UNL     1      18.237   7.376   1.116  1.00  0.00    -0.341 OA
ENDROOT
BRANCH   1   7
ATOM      7  O   UNL     1      16.675   8.958   1.736  1.00  0.00    -0.350 OA
BRANCH   7   8
ATOM      8  C   UNL     1      16.427   8.707   0.368  1.00  0.00     0.160 C 
ATOM      9  C   UNL     1      16.280  10.032  -0.363  1.00  0.00     0.035 C 
ENDBRANCH   7   8
ENDBRANCH   1   7
BRANCH   2  10
ATOM     10  O   UNL     1      19.303   8.659   4.003  1.00  0.00    -0.385 OA
ATOM     11  H   UNL     1      18.558   8.136   4.400  1.00  0.00     0.211 HD
ENDBRANCH   2  10
BRANCH   3  12
ATOM     12  O   UNL     1      21.059  10.062   2.306  1.00  0.00    -0.387 OA
ATOM     13  H   UNL     1      20.643  10.929   2.552  1.00  0.00     0.211 HD
ENDBRANCH   3  12
BRANCH   5  14
ATOM     14  C   UNL     1      19.770   5.649   0.444  1.00  0.00     0.191 C 
BRANCH  14  15
ATOM     15  O   UNL     1      21.130   5.636   0.099  1.00  0.00    -0.394 OA
ATOM     16  H   UNL     1      21.374   4.689  -0.070  1.00  0.00     0.210 HD
ENDBRANCH  14  15
ENDBRANCH   5  14
BRANCH   4  17
ATOM     17  O   UNL     1      21.693   7.492   2.173  1.00  0.00    -0.387 OA
ATOM     18  H   UNL     1      22.267   8.290   2.295  1.00  0.00     0.211 HD
ENDBRANCH   4  17
TORSDOF 7
ENDMDL
MODEL 4
REMARK VINA RESULT:    -3.361      1.775      4.851
REMARK INTER + INTRA:          -4.763
REMARK INTER:                  -4.379
REMARK INTRA:                  -0.384
REMARK UNBOUND:                -0.420
REMARK SMILES CCO[C@H]1O[C@@H](CO)[C@H](O)[C@H](O)[C@@H]1O
REMARK SMILES IDX 4 1 13 2 11 3 9 4 6 5 5 6 3 7 2 8 1 9 14 10 12 12 7 14 8 15
REMARK SMILES IDX 10 17
REMARK H PARENT 14 11 12 13 8 16 10 18
REMARK Flexibility Score: inf
ROOT
ATOM      1  C   UNL     1       9.469   3.667   3.149  1.00  0.00     0.281 C 
ATOM      2  C   UNL     1       8.855   4.824   2.300  1.00  0.00     0.202 C 
ATOM      3  C   UNL     1       7.420   5.147   2.776  1.00  0.00     0.179 C 
ATOM      4  C   UNL     1       6.533   3.876   2.811  1.00  0.00     0.177 C 
ATOM      5  C   UNL     1       7.385   2.608   3.085  1.00  0.00     0.178 C 
ATOM      6  O   UNL     1       8.490   2.953   3.897  1.00  0.00    -0.341 OA
ENDROOT
BRANCH   1   7
ATOM      7  O   UNL     1      10.408   4.227   4.048  1.00  0.00    -0.350 OA
BRANCH   7   8
ATOM      8  C   UNL     1      11.182   5.217   3.404  1.00  0.00     0.160 C 
ATOM      9  C   UNL     1      12.644   4.801   3.426  1.00  0.00     0.035 C 
ENDBRANCH   7   8
ENDBRANCH   1   7
BRANCH   2  10
ATOM     10  O   UNL     1       8.849   4.457   0.943  1.00  0.00    -0.385 OA
ATOM     11  H   UNL     1       9.781   4.217   0.701  1.00  0.00     0.211 HD
ENDBRANCH   2  10
BRANCH   3  12
ATOM     12  O   UNL     1       6.832   6.135   1.968  1.00  0.00    -0.387 OA
ATOM     13  H   UNL     1       5.850   6.001   2.020  1.00  0.00     0.211 HD
ENDBRANCH   3  12
BRANCH   5  14
ATOM     14  C   UNL     1       6.554   1.530   3.791  1.00  0.00     0.191 C 
BRANCH  14  15
ATOM     15  O   UNL     1       5.317   1.367   3.148  1.00  0.00    -0.394 OA
ATOM     16  H   UNL     1       5.186   0.392   3.023  1.00  0.00     0.210 HD
ENDBRANCH  14  15
ENDBRANCH   5  14
BRANCH   4  17
ATOM     17  O   UNL     1       5.780   3.725   1.631  1.00  0.00    -0.387 OA
ATOM     18  H   UNL     1       5.086   4.432   1.619  1.00  0.00     0.211 HD
ENDBRANCH   4  17
TORSDOF 7
ENDMDL
MODEL 5
REMARK VINA RESULT:    -3.341      2.233      5.404
REMARK INTER + INTRA:          -4.738
REMARK INTER:                  -4.509
REMARK INTRA:                  -0.228
REMARK UNBOUND:                -0.420
REMARK SMILES CCO[C@H]1O[C@@H](CO)[C@H](O)[C@H](O)[C@@H]1O
REMARK SMILES IDX 4 1 13 2 11 3 9 4 6 5 5 6 3 7 2 8 1 9 14 10 12 12 7 14 8 15
REMARK SMILES IDX 10 17
REMARK H PARENT 14 11 12 13 8 16 10 18
REMARK Flexibility Score: inf
ROOT
ATOM      1  C   UNL     1       7.926   3.294   2.233  1.00  0.00     0.281 C 
ATOM      2  C   UNL     1       6.585   4.092   2.202  1.00  0.00     0.202 C 
ATOM      3  C   UNL     1       5.754   3.811   3.474  1.00  0.00     0.179 C 
ATOM      4  C   UNL     1       5.557   2.290   3.701  1.00  0.00     0.177 C 
ATOM      5  C   UNL     1       6.746   1.480   3.118  1.00  0.00     0.178 C 
ATOM      6  O   UNL     1       7.927   2.254   3.206  1.00  0.00    -0.341 OA
ENDROOT
BRANCH   1   7
ATOM      7  O   UNL     1       8.974   4.198   2.535  1.00  0.00    -0.350 OA
BRANCH   7   8
ATOM      8  C   UNL     1       9.516   3.920   3.810  1.00  0.00     0.160 C 
ATOM      9  C   UNL     1      11.020   4.139   3.770  1.00  0.00     0.035 C 
ENDBRANCH   7   8
ENDBRANCH   1   7
BRANCH   2  10
ATOM     10  O   UNL     1       5.856   3.736   1.054  1.00  0.00    -0.385 OA
ATOM     11  H   UNL     1       6.509   3.632   0.313  1.00  0.00     0.211 HD
ENDBRANCH   2  10
BRANCH   3  12
ATOM     12  O   UNL     1       4.512   4.465   3.419  1.00  0.00    -0.387 OA
ATOM     13  H   UNL     1       4.687   5.428   3.580  1.00  0.00     0.211 HD
ENDBRANCH   3  12
BRANCH   5  14
ATOM     14  C   UNL     1       6.944   0.166   3.885  1.00  0.00     0.191 C 
BRANCH  14  15
ATOM     15  O   UNL     1       6.613  -0.928   3.072  1.00  0.00    -0.394 OA
ATOM     16  H   UNL     1       7.218  -0.894   2.286  1.00  0.00     0.210 HD
ENDBRANCH  14  15
ENDBRANCH   5  14
BRANCH   4  17
ATOM     17  O   UNL     1       4.336   1.831   3.172  1.00  0.00    -0.387 OA
ATOM     18  H   UNL     1       3.983   2.532   2.566  1.00  0.00     0.211 HD
ENDBRANCH   4  17
TORSDOF 7
ENDMDL
MODEL 6
REMARK VINA RESULT:    -3.325      3.730      5.354
REMARK INTER + INTRA:          -4.716
REMARK INTER:                  -4.347
REMARK INTRA:                  -0.369
REMARK UNBOUND:                -0.420
REMARK SMILES CCO[C@H]1O[C@@H](CO)[C@H](O)[C@H](O)[C@@H]1O
REMARK SMILES IDX 4 1 13 2 11 3 9 4 6 5 5 6 3 7 2 8 1 9 14 10 12 12 7 14 8 15
REMARK SMILES IDX 10 17
REMARK H PARENT 14 11 12 13 8 16 10 18
REMARK Flexibility Score: inf
ROOT
ATOM      1  C   UNL     1      10.904   8.093   1.873  1.00  0.00     0.281 C 
ATOM      2  C   UNL     1      10.473   6.593   1.901  1.00  0.00     0.202 C 
ATOM      3  C   UNL     1      11.222   5.832   3.019  1.00  0.00     0.179 C 
ATOM      4  C   UNL     1      12.757   6.027   2.910  1.00  0.00     0.177 C 
ATOM      5  C   UNL     1      13.101   7.398   2.269  1.00  0.00     0.178 C 
ATOM      6  O   UNL     1      12.099   8.337   2.607  1.00  0.00    -0.341 OA
ENDROOT
BRANCH   1   7
ATOM      7  O   UNL     1       9.859   8.865   2.438  1.00  0.00    -0.350 OA
BRANCH   7   8
ATOM      8  C   UNL     1       8.790   8.996   1.523  1.00  0.00     0.160 C 
ATOM      9  C   UNL     1       7.478   8.746   2.249  1.00  0.00     0.035 C 
ENDBRANCH   7   8
ENDBRANCH   1   7
BRANCH   2  10
ATOM     10  O   UNL     1      10.736   6.007   0.650  1.00  0.00    -0.385 OA
ATOM     11  H   UNL     1       9.902   5.554   0.359  1.00  0.00     0.211 HD
ENDBRANCH   2  10
BRANCH   3  12
ATOM     12  O   UNL     1      10.898   4.465   3.001  1.00  0.00    -0.387 OA
ATOM     13  H   UNL     1       9.908   4.404   3.016  1.00  0.00     0.211 HD
ENDBRANCH   3  12
BRANCH   5  14
ATOM     14  C   UNL     1      14.461   7.908   2.761  1.00  0.00     0.191 C 
BRANCH  14  15
ATOM     15  O   UNL     1      15.498   7.138   2.215  1.00  0.00    -0.394 OA
ATOM     16  H   UNL     1      15.968   6.709   2.977  1.00  0.00     0.210 HD
ENDBRANCH  14  15
ENDBRANCH   5  14
BRANCH   4  17
ATOM     17  O   UNL     1      13.374   4.978   2.202  1.00  0.00    -0.387 OA
ATOM     18  H   UNL     1      13.646   4.286   2.858  1.00  0.00     0.211 HD
ENDBRANCH   4  17
TORSDOF 7
ENDMDL
MODEL 7
REMARK VINA RESULT:    -3.259      2.148      5.114
REMARK INTER + INTRA:          -4.631
REMARK INTER:                  -4.274
REMARK INTRA:                  -0.358
REMARK UNBOUND:                -0.420
REMARK SMILES CCO[C@H]1O[C@@H](CO)[C@H](O)[C@H](O)[C@@H]1O
REMARK SMILES IDX 4 1 13 2 11 3 9 4 6 5 5 6 3 7 2 8 1 9 14 10 12 12 7 14 8 15
REMARK SMILES IDX 10 17
REMARK H PARENT 14 11 12 13 8 16 10 18
REMARK Flexibility Score: inf
ROOT
ATOM      1  C   UNL     1      11.325   5.310   2.974  1.00  0.00     0.281 C 
ATOM      2  C   UNL     1      10.762   6.444   2.061  1.00  0.00     0.202 C 
ATOM      3  C   UNL     1       9.365   6.893   2.548  1.00  0.00     0.179 C 
ATOM      4  C   UNL     1       8.400   5.688   2.695  1.00  0.00     0.177 C 
ATOM      5  C   UNL     1       9.177   4.388   3.036  1.00  0.00     0.178 C 
ATOM      6  O   UNL     1      10.324   4.715   3.795  1.00  0.00    -0.341 OA
ENDROOT
BRANCH   1   7
ATOM      7  O   UNL     1      12.324   5.867   3.809  1.00  0.00    -0.350 OA
BRANCH   7   8
ATOM      8  C   UNL     1      13.597   5.361   3.464  1.00  0.00     0.160 C 
ATOM      9  C   UNL     1      13.729   3.941   3.990  1.00  0.00     0.035 C 
ENDBRANCH   7   8
ENDBRANCH   1   7
BRANCH   2  10
ATOM     10  O   UNL     1      10.692   5.985   0.734  1.00  0.00    -0.385 OA
ATOM     11  H   UNL     1       9.819   6.282   0.368  1.00  0.00     0.211 HD
ENDBRANCH   2  10
BRANCH   3  12
ATOM     12  O   UNL     1       8.818   7.859   1.687  1.00  0.00    -0.387 OA
ATOM     13  H   UNL     1       9.036   7.574   0.761  1.00  0.00     0.211 HD
ENDBRANCH   3  12
BRANCH   5  14
ATOM     14  C   UNL     1       8.299   3.418   3.837  1.00  0.00     0.191 C 
BRANCH  14  15
ATOM     15  O   UNL     1       7.277   2.902   3.027  1.00  0.00    -0.394 OA
ATOM     16  H   UNL     1       6.940   2.085   3.477  1.00  0.00     0.210 HD
ENDBRANCH  14  15
ENDBRANCH   5  14
BRANCH   4  17
ATOM     17  O   UNL     1       7.605   5.505   1.547  1.00  0.00    -0.387 OA
ATOM     18  H   UNL     1       7.288   6.397   1.251  1.00  0.00     0.211 HD
ENDBRANCH   4  17
TORSDOF 7
ENDMDL
MODEL 8
REMARK VINA RESULT:    -3.226      2.085      3.923
REMARK INTER + INTRA:          -4.588
REMARK INTER:                  -4.245
REMARK INTRA:                  -0.344
REMARK UNBOUND:                -0.420
REMARK SMILES CCO[C@H]1O[C@@H](CO)[C@H](O)[C@H](O)[C@@H]1O
REMARK SMILES IDX 4 1 13 2 11 3 9 4 6 5 5 6 3 7 2 8 1 9 14 10 12 12 7 14 8 15
REMARK SMILES IDX 10 17
REMARK H PARENT 14 11 12 13 8 16 10 18
REMARK Flexibility Score: inf
ROOT
ATOM      1  C   UNL     1       9.222   4.790   3.500  1.00  0.00     0.281 C 
ATOM      2  C   UNL     1       9.168   6.164   2.764  1.00  0.00     0.202 C 
ATOM      3  C   UNL     1      10.344   6.298   1.770  1.00  0.00     0.179 C 
ATOM      4  C   UNL     1      11.706   6.027   2.462  1.00  0.00     0.177 C 
ATOM      5  C   UNL     1      11.542   5.040   3.649  1.00  0.00     0.178 C 
ATOM      6  O   UNL     1      10.485   4.143   3.369  1.00  0.00    -0.341 OA
ENDROOT
BRANCH   1   7
ATOM      7  O   UNL     1       8.224   3.950   2.949  1.00  0.00    -0.350 OA
BRANCH   7   8
ATOM      8  C   UNL     1       7.128   4.717   2.493  1.00  0.00     0.160 C 
ATOM      9  C   UNL     1       6.644   4.155   1.166  1.00  0.00     0.035 C 
ENDBRANCH   7   8
ENDBRANCH   1   7
BRANCH   2  10
ATOM     10  O   UNL     1       9.206   7.204   3.709  1.00  0.00    -0.385 OA
ATOM     11  H   UNL     1       9.251   6.781   4.607  1.00  0.00     0.211 HD
ENDBRANCH   2  10
BRANCH   3  12
ATOM     12  O   UNL     1      10.346   7.563   1.159  1.00  0.00    -0.387 OA
ATOM     13  H   UNL     1      11.293   7.783   0.959  1.00  0.00     0.211 HD
ENDBRANCH   3  12
BRANCH   5  14
ATOM     14  C   UNL     1      12.833   4.244   3.881  1.00  0.00     0.191 C 
BRANCH  14  15
ATOM     15  O   UNL     1      13.759   4.507   2.861  1.00  0.00    -0.394 OA
ATOM     16  H   UNL     1      14.222   3.651   2.667  1.00  0.00     0.210 HD
ENDBRANCH  14  15
ENDBRANCH   5  14
BRANCH   4  17
ATOM     17  O   UNL     1      12.328   7.216   2.886  1.00  0.00    -0.387 OA
ATOM     18  H   UNL     1      12.091   7.932   2.242  1.00  0.00     0.211 HD
ENDBRANCH   4  17
TORSDOF 7
ENDMDL
MODEL 9
REMARK VINA RESULT:    -3.222      1.680      3.950
REMARK INTER + INTRA:          -4.583
REMARK INTER:                  -4.560
REMARK INTRA:                  -0.023
REMARK UNBOUND:                -0.420
REMARK SMILES CCO[C@H]1O[C@@H](CO)[C@H](O)[C@H](O)[C@@H]1O
REMARK SMILES IDX 4 1 13 2 11 3 9 4 6 5 5 6 3 7 2 8 1 9 14 10 12 12 7 14 8 15
REMARK SMILES IDX 10 17
REMARK H PARENT 14 11 12 13 8 16 10 18
REMARK Flexibility Score: inf
ROOT
ATOM      1  C   UNL     1       6.858   5.806   3.924  1.00  0.00     0.281 C 
ATOM      2  C   UNL     1       8.318   5.833   3.376  1.00  0.00     0.202 C 
ATOM      3  C   UNL     1       8.339   5.513   1.864  1.00  0.00     0.179 C 
ATOM      4  C   UNL     1       7.592   4.190   1.552  1.00  0.00     0.177 C 
ATOM      5  C   UNL     1       6.464   3.930   2.586  1.00  0.00     0.178 C 
ATOM      6  O   UNL     1       5.947   5.167   3.035  1.00  0.00    -0.341 OA
ENDROOT
BRANCH   1   7
ATOM      7  O   UNL     1       6.434   7.142   4.125  1.00  0.00    -0.350 OA
BRANCH   7   8
ATOM      8  C   UNL     1       7.466   8.045   3.788  1.00  0.00     0.160 C 
ATOM      9  C   UNL     1       6.893   9.451   3.706  1.00  0.00     0.035 C 
ENDBRANCH   7   8
ENDBRANCH   1   7
BRANCH   2  10
ATOM     10  O   UNL     1       9.101   4.903   4.083  1.00  0.00    -0.385 OA
ATOM     11  H   UNL     1       8.475   4.288   4.547  1.00  0.00     0.211 HD
ENDBRANCH   2  10
BRANCH   3  12
ATOM     12  O   UNL     1       9.657   5.460   1.379  1.00  0.00    -0.387 OA
ATOM     13  H   UNL     1      10.232   5.188   2.140  1.00  0.00     0.211 HD
ENDBRANCH   3  12
BRANCH   5  14
ATOM     14  C   UNL     1       5.331   3.103   1.964  1.00  0.00     0.191 C 
BRANCH  14  15
ATOM     15  O   UNL     1       5.078   3.532   0.652  1.00  0.00    -0.394 OA
ATOM     16  H   UNL     1       4.146   3.265   0.439  1.00  0.00     0.210 HD
ENDBRANCH  14  15
ENDBRANCH   5  14
BRANCH   4  17
ATOM     17  O   UNL     1       8.470   3.091   1.486  1.00  0.00    -0.387 OA
ATOM     18  H   UNL     1       7.994   2.299   1.844  1.00  0.00     0.211 HD
ENDBRANCH   4  17
TORSDOF 7
ENDMDL
