MODEL 1
REMARK VINA RESULT:    -4.728      0.000      0.000
REMARK INTER + INTRA:          -5.097
REMARK INTER:                  -5.005
REMARK INTRA:                  -0.093
REMARK UNBOUND:                -0.093
REMARK SMILES C=C(C)[C@@H]1CC=C(C)C(=O)C1
REMARK SMILES IDX 8 1 7 2 6 3 5 4 4 5 11 6 9 7 10 8 2 9 1 10 3 11
REMARK H PARENT
REMARK Flexibility Score: inf
ROOT
ATOM      1  C   UNL     1       4.746  12.847  24.412  1.00  0.00     0.048 C 
ATOM      2  C   UNL     1       3.986  13.911  23.672  1.00  0.00    -0.012 C 
ATOM      3  C   UNL     1       3.352  14.879  24.356  1.00  0.00    -0.019 C 
ATOM      4  C   UNL     1       2.592  15.980  23.664  1.00  0.00     0.036 C 
ATOM      5  C   UNL     1       1.965  15.478  22.350  1.00  0.00     0.025 C 
ATOM      6  C   UNL     1       3.045  14.858  21.445  1.00  0.00     0.089 C 
ATOM      7  C   UNL     1       3.834  13.822  22.198  1.00  0.00     0.158 C 
ATOM      8  O   UNL     1       4.399  12.896  21.557  1.00  0.00    -0.295 OA
ENDROOT
BRANCH   5   9
ATOM      9  C   UNL     1       1.210  16.590  21.634  1.00  0.00    -0.077 C 
ATOM     10  C   UNL     1       0.178  17.199  22.238  1.00  0.00     0.008 C 
ATOM     11  C   UNL     1       1.592  17.030  20.243  1.00  0.00     0.039 C 
ENDBRANCH   5   9
TORSDOF 1
ENDMDL
MODEL 2
REMARK VINA RESULT:    -4.486      6.466      8.076
REMARK INTER + INTRA:          -4.841
REMARK INTER:                  -4.748
REMARK INTRA:                  -0.094
REMARK UNBOUND:                -0.093
REMARK SMILES C=C(C)[C@@H]1CC=C(C)C(=O)C1
REMARK SMILES IDX 8 1 7 2 6 3 5 4 4 5 11 6 9 7 10 8 2 9 1 10 3 11
REMARK H PARENT
REMARK Flexibility Score: inf
ROOT
ATOM      1  C   UNL     1       3.145  12.273  14.567  1.00  0.00     0.048 C 
ATOM      2  C   UNL     1       2.723  11.381  15.700  1.00  0.00    -0.012 C 
ATOM      3  C   UNL     1       2.148  10.194  15.440  1.00  0.00    -0.019 C 
ATOM      4  C   UNL     1       1.723   9.254  16.536  1.00  0.00     0.036 C 
ATOM      5  C   UNL     1       1.269  10.031  17.786  1.00  0.00     0.025 C 
ATOM      6  C   UNL     1       2.375  10.999  18.245  1.00  0.00     0.089 C 
ATOM      7  C   UNL     1       2.828  11.864  17.100  1.00  0.00     0.158 C 
ATOM      8  O   UNL     1       3.335  12.991  17.346  1.00  0.00    -0.295 OA
ENDROOT
BRANCH   5   9
ATOM      9  C   UNL     1       0.856   9.088  18.908  1.00  0.00    -0.077 C 
ATOM     10  C   UNL     1      -0.059   8.132  18.680  1.00  0.00     0.008 C 
ATOM     11  C   UNL     1       1.451   9.200  20.290  1.00  0.00     0.039 C 
ENDBRANCH   5   9
TORSDOF 1
ENDMDL
MODEL 3
REMARK VINA RESULT:    -4.458      6.630      8.254
REMARK INTER + INTRA:          -4.811
REMARK INTER:                  -4.713
REMARK INTRA:                  -0.098
REMARK UNBOUND:                -0.093
REMARK SMILES C=C(C)[C@@H]1CC=C(C)C(=O)C1
REMARK SMILES IDX 8 1 7 2 6 3 5 4 4 5 11 6 9 7 10 8 2 9 1 10 3 11
REMARK H PARENT
REMARK Flexibility Score: inf
ROOT
ATOM      1  C   UNL     1       1.940  11.760  14.865  1.00  0.00     0.048 C 
ATOM      2  C   UNL     1       1.761  10.988  16.142  1.00  0.00    -0.012 C 
ATOM      3  C   UNL     1       2.105   9.690  16.193  1.00  0.00    -0.019 C 
ATOM      4  C   UNL     1       1.964   8.875  17.452  1.00  0.00     0.036 C 
ATOM      5  C   UNL     1       0.759   9.348  18.285  1.00  0.00     0.025 C 
ATOM      6  C   UNL     1       0.869  10.855  18.577  1.00  0.00     0.089 C 
ATOM      7  C   UNL     1       1.091  11.625  17.304  1.00  0.00     0.158 C 
ATOM      8  O   UNL     1       0.735  12.833  17.247  1.00  0.00    -0.295 OA
ENDROOT
BRANCH   5   9
ATOM      9  C   UNL     1       0.619   8.541  19.569  1.00  0.00    -0.077 C 
ATOM     10  C   UNL     1       1.455   7.520  19.817  1.00  0.00     0.008 C 
ATOM     11  C   UNL     1      -0.450   8.859  20.585  1.00  0.00     0.039 C 
ENDBRANCH   5   9
TORSDOF 1
ENDMDL
MODEL 4
REMARK VINA RESULT:    -4.457      1.415      4.120
REMARK INTER + INTRA:          -4.811
REMARK INTER:                  -4.714
REMARK INTRA:                  -0.097
REMARK UNBOUND:                -0.093
REMARK SMILES C=C(C)[C@@H]1CC=C(C)C(=O)C1
REMARK SMILES IDX 8 1 7 2 6 3 5 4 4 5 11 6 9 7 10 8 2 9 1 10 3 11
REMARK H PARENT
REMARK Flexibility Score: inf
ROOT
ATOM      1  C   UNL     1       2.221  16.902  19.726  1.00  0.00     0.048 C 
ATOM      2  C   UNL     1       2.438  15.985  20.897  1.00  0.00    -0.012 C 
ATOM      3  C   UNL     1       2.425  16.480  22.146  1.00  0.00    -0.019 C 
ATOM      4  C   UNL     1       2.619  15.604  23.355  1.00  0.00     0.036 C 
ATOM      5  C   UNL     1       3.564  14.429  23.041  1.00  0.00     0.025 C 
ATOM      6  C   UNL     1       3.048  13.638  21.826  1.00  0.00     0.089 C 
ATOM      7  C   UNL     1       2.790  14.561  20.666  1.00  0.00     0.158 C 
ATOM      8  O   UNL     1       2.838  14.101  19.494  1.00  0.00    -0.295 OA
ENDROOT
BRANCH   5   9
ATOM      9  C   UNL     1       3.751  13.527  24.254  1.00  0.00    -0.077 C 
ATOM     10  C   UNL     1       2.682  13.087  24.937  1.00  0.00     0.008 C 
ATOM     11  C   UNL     1       5.124  13.109  24.718  1.00  0.00     0.039 C 
ENDBRANCH   5   9
TORSDOF 1
ENDMDL
MODEL 5
REMARK VINA RESULT:    -4.443      1.343      2.289
REMARK INTER + INTRA:          -4.795
REMARK INTER:                  -4.704
REMARK INTRA:                  -0.091
REMARK UNBOUND:                -0.093
REMARK SMILES C=C(C)[C@@H]1CC=C(C)C(=O)C1
REMARK SMILES IDX 8 1 7 2 6 3 5 4 4 5 11 6 9 7 10 8 2 9 1 10 3 11
REMARK H PARENT
REMARK Flexibility Score: inf
ROOT
ATOM      1  C   UNL     1       5.132  12.590  22.676  1.00  0.00     0.048 C 
ATOM      2  C   UNL     1       4.028  13.564  22.376  1.00  0.00    -0.012 C 
ATOM      3  C   UNL     1       3.505  13.624  21.139  1.00  0.00    -0.019 C 
ATOM      4  C   UNL     1       2.386  14.568  20.789  1.00  0.00     0.036 C 
ATOM      5  C   UNL     1       2.482  15.868  21.609  1.00  0.00     0.025 C 
ATOM      6  C   UNL     1       2.525  15.549  23.114  1.00  0.00     0.089 C 
ATOM      7  C   UNL     1       3.602  14.541  23.409  1.00  0.00     0.158 C 
ATOM      8  O   UNL     1       4.115  14.511  24.560  1.00  0.00    -0.295 OA
ENDROOT
BRANCH   5   9
ATOM      9  C   UNL     1       1.342  16.821  21.275  1.00  0.00    -0.077 C 
ATOM     10  C   UNL     1       1.286  17.407  20.068  1.00  0.00     0.008 C 
ATOM     11  C   UNL     1       0.258  17.133  22.277  1.00  0.00     0.039 C 
ENDBRANCH   5   9
TORSDOF 1
ENDMDL
MODEL 6
REMARK VINA RESULT:    -4.429      1.877      4.431
REMARK INTER + INTRA:          -4.780
REMARK INTER:                  -4.683
REMARK INTRA:                  -0.098
REMARK UNBOUND:                -0.093
REMARK SMILES C=C(C)[C@@H]1CC=C(C)C(=O)C1
REMARK SMILES IDX 8 1 7 2 6 3 5 4 4 5 11 6 9 7 10 8 2 9 1 10 3 11
REMARK H PARENT
REMARK Flexibility Score: inf
ROOT
ATOM      1  C   UNL     1       0.994  17.078  21.093  1.00  0.00     0.048 C 
ATOM      2  C   UNL     1       1.458  16.055  22.092  1.00  0.00    -0.012 C 
ATOM      3  C   UNL     1       2.397  16.380  22.996  1.00  0.00    -0.019 C 
ATOM      4  C   UNL     1       2.884  15.400  24.031  1.00  0.00     0.036 C 
ATOM      5  C   UNL     1       2.858  13.961  23.484  1.00  0.00     0.025 C 
ATOM      6  C   UNL     1       1.452  13.610  22.967  1.00  0.00     0.089 C 
ATOM      7  C   UNL     1       0.970  14.656  21.999  1.00  0.00     0.158 C 
ATOM      8  O   UNL     1       0.114  14.339  21.129  1.00  0.00    -0.295 OA
ENDROOT
BRANCH   5   9
ATOM      9  C   UNL     1       3.332  12.960  24.530  1.00  0.00    -0.077 C 
ATOM     10  C   UNL     1       2.449  12.392  25.366  1.00  0.00     0.008 C 
ATOM     11  C   UNL     1       4.788  12.586  24.658  1.00  0.00     0.039 C 
ENDBRANCH   5   9
TORSDOF 1
ENDMDL
MODEL 7
REMARK VINA RESULT:    -4.413      6.579      7.789
REMARK INTER + INTRA:          -4.764
REMARK INTER:                  -4.674
REMARK INTRA:                  -0.090
REMARK UNBOUND:                -0.093
REMARK SMILES C=C(C)[C@@H]1CC=C(C)C(=O)C1
REMARK SMILES IDX 8 1 7 2 6 3 5 4 4 5 11 6 9 7 10 8 2 9 1 10 3 11
REMARK H PARENT
REMARK Flexibility Score: inf
ROOT
ATOM      1  C   UNL     1      -1.618  10.170  21.124  1.00  0.00     0.048 C 
ATOM      2  C   UNL     1      -0.762  10.032  19.896  1.00  0.00    -0.012 C 
ATOM      3  C   UNL     1      -0.423   8.811  19.449  1.00  0.00    -0.019 C 
ATOM      4  C   UNL     1       0.415   8.616  18.214  1.00  0.00     0.036 C 
ATOM      5  C   UNL     1       1.426   9.766  18.044  1.00  0.00     0.025 C 
ATOM      6  C   UNL     1       0.699  11.122  18.046  1.00  0.00     0.089 C 
ATOM      7  C   UNL     1      -0.191  11.243  19.253  1.00  0.00     0.158 C 
ATOM      8  O   UNL     1      -0.479  12.389  19.691  1.00  0.00    -0.295 OA
ENDROOT
BRANCH   5   9
ATOM      9  C   UNL     1       2.267   9.587  16.787  1.00  0.00    -0.077 C 
ATOM     10  C   UNL     1       3.278   8.705  16.774  1.00  0.00     0.008 C 
ATOM     11  C   UNL     1       1.993  10.387  15.538  1.00  0.00     0.039 C 
ENDBRANCH   5   9
TORSDOF 1
ENDMDL
MODEL 8
REMARK VINA RESULT:    -4.365      6.737      7.849
REMARK INTER + INTRA:          -4.713
REMARK INTER:                  -4.625
REMARK INTRA:                  -0.088
REMARK UNBOUND:                -0.093
REMARK SMILES C=C(C)[C@@H]1CC=C(C)C(=O)C1
REMARK SMILES IDX 8 1 7 2 6 3 5 4 4 5 11 6 9 7 10 8 2 9 1 10 3 11
REMARK H PARENT
REMARK Flexibility Score: inf
ROOT
ATOM      1  C   UNL     1       1.420   8.508  18.730  1.00  0.00     0.048 C 
ATOM      2  C   UNL     1       1.414   9.550  17.648  1.00  0.00    -0.012 C 
ATOM      3  C   UNL     1       1.900   9.254  16.430  1.00  0.00    -0.019 C 
ATOM      4  C   UNL     1       1.901  10.255  15.305  1.00  0.00     0.036 C 
ATOM      5  C   UNL     1       2.083  11.688  15.839  1.00  0.00     0.025 C 
ATOM      6  C   UNL     1       1.013  12.004  16.899  1.00  0.00     0.089 C 
ATOM      7  C   UNL     1       0.989  10.938  17.960  1.00  0.00     0.158 C 
ATOM      8  O   UNL     1       0.566  11.228  19.112  1.00  0.00    -0.295 OA
ENDROOT
BRANCH   5   9
ATOM      9  C   UNL     1       2.067  12.709  14.710  1.00  0.00    -0.077 C 
ATOM     10  C   UNL     1       3.212  13.064  14.106  1.00  0.00     0.008 C 
ATOM     11  C   UNL     1       0.780  13.345  14.243  1.00  0.00     0.039 C 
ENDBRANCH   5   9
TORSDOF 1
ENDMDL
MODEL 9
REMARK VINA RESULT:    -4.229      1.403      1.728
REMARK INTER + INTRA:          -4.568
REMARK INTER:                  -4.472
REMARK INTRA:                  -0.096
REMARK UNBOUND:                -0.093
REMARK SMILES C=C(C)[C@@H]1CC=C(C)C(=O)C1
REMARK SMILES IDX 8 1 7 2 6 3 5 4 4 5 11 6 9 7 10 8 2 9 1 10 3 11
REMARK H PARENT
REMARK Flexibility Score: inf
ROOT
ATOM      1  C   UNL     1       3.756  11.990  25.021  1.00  0.00     0.048 C 
ATOM      2  C   UNL     1       3.313  13.064  24.067  1.00  0.00    -0.012 C 
ATOM      3  C   UNL     1       3.674  14.340  24.281  1.00  0.00    -0.019 C 
ATOM      4  C   UNL     1       3.274  15.452  23.348  1.00  0.00     0.036 C 
ATOM      5  C   UNL     1       1.896  15.175  22.717  1.00  0.00     0.025 C 
ATOM      6  C   UNL     1       1.893  13.802  22.022  1.00  0.00     0.089 C 
ATOM      7  C   UNL     1       2.377  12.732  22.963  1.00  0.00     0.158 C 
ATOM      8  O   UNL     1       2.008  11.541  22.780  1.00  0.00    -0.295 OA
ENDROOT
BRANCH   5   9
ATOM      9  C   UNL     1       1.491  16.285  21.756  1.00  0.00    -0.077 C 
ATOM     10  C   UNL     1       2.203  16.502  20.639  1.00  0.00     0.008 C 
ATOM     11  C   UNL     1       0.296  17.164  22.030  1.00  0.00     0.039 C 
ENDBRANCH   5   9
TORSDOF 1
ENDMDL
