MODEL 1
REMARK VINA RESULT:    -4.588      0.000      0.000
REMARK INTER + INTRA:         -14.367
REMARK INTER:                 -10.489
REMARK INTRA:                  -3.878
REMARK UNBOUND:                -3.878
REMARK SMILES CCCCCCCCCCCCCCCCCCCCCCCC(=O)[O-]
REMARK SMILES IDX 13 1 14 2 15 3 16 4 17 5 18 6 19 7 20 8 21 9 22 10 23 11
REMARK SMILES IDX 24 12 25 13 26 14 12 15 11 16 10 17 9 18 8 19 7 20 6 21 5 22
REMARK SMILES IDX 4 23 3 24 2 25 1 26
REMARK H PARENT
REMARK Flexibility Score: inf
ROOT
ATOM      1  C   UNL     1     -18.425  43.892  33.121  1.00  0.00     0.000 C 
ENDROOT
BRANCH   1   2
ATOM      2  C   UNL     1     -19.073  42.568  33.554  1.00  0.00     0.000 C 
BRANCH   2   3
ATOM      3  C   UNL     1     -18.080  41.617  34.248  1.00  0.00     0.000 C 
BRANCH   3   4
ATOM      4  C   UNL     1     -17.199  40.778  33.299  1.00  0.00     0.000 C 
BRANCH   4   5
ATOM      5  C   UNL     1     -17.881  40.322  31.996  1.00  0.00     0.000 C 
BRANCH   5   6
ATOM      6  C   UNL     1     -17.457  38.908  31.562  1.00  0.00     0.000 C 
BRANCH   6   7
ATOM      7  C   UNL     1     -16.112  38.888  30.813  1.00  0.00     0.000 C 
BRANCH   7   8
ATOM      8  C   UNL     1     -16.164  38.339  29.374  1.00  0.00     0.000 C 
BRANCH   8   9
ATOM      9  C   UNL     1     -15.331  39.170  28.384  1.00  0.00     0.000 C 
BRANCH   9  10
ATOM     10  C   UNL     1     -16.190  39.840  27.293  1.00  0.00     0.006 C 
BRANCH  10  11
ATOM     11  C   UNL     1     -15.395  40.761  26.350  1.00  0.00     0.053 C 
BRANCH  11  12
ATOM     12  C   UNL     1     -14.933  40.058  25.110  1.00  0.00     0.041 C 
ATOM     13  O   UNL     1     -14.696  40.713  24.060  1.00  0.00    -0.550 OA
ATOM     14  O   UNL     1     -14.770  38.678  25.111  1.00  0.00    -0.550 OA
ENDBRANCH  11  12
ENDBRANCH  10  11
ENDBRANCH   9  10
ENDBRANCH   8   9
ENDBRANCH   7   8
ENDBRANCH   6   7
ENDBRANCH   5   6
ENDBRANCH   4   5
ENDBRANCH   3   4
ENDBRANCH   2   3
ENDBRANCH   1   2
BRANCH   1  15
ATOM     15  C   UNL     1     -18.312  43.974  31.595  1.00  0.00     0.000 C 
BRANCH  15  16
ATOM     16  C   UNL     1     -17.077  44.787  31.179  1.00  0.00     0.000 C 
BRANCH  16  17
ATOM     17  C   UNL     1     -16.305  44.138  30.019  1.00  0.00     0.000 C 
BRANCH  17  18
ATOM     18  C   UNL     1     -16.110  42.624  30.211  1.00  0.00    -0.000 C 
BRANCH  18  19
ATOM     19  C   UNL     1     -14.626  42.225  30.272  1.00  0.00    -0.000 C 
BRANCH  19  20
ATOM     20  C   UNL     1     -13.833  42.718  29.050  1.00  0.00    -0.000 C 
BRANCH  20  21
ATOM     21  C   UNL     1     -12.472  43.320  29.434  1.00  0.00    -0.000 C 
BRANCH  21  22
ATOM     22  C   UNL     1     -12.611  44.645  30.206  1.00  0.00    -0.000 C 
BRANCH  22  23
ATOM     23  C   UNL     1     -12.110  44.536  31.656  1.00  0.00    -0.000 C 
BRANCH  23  24
ATOM     24  C   UNL     1     -13.208  44.857  32.685  1.00  0.00    -0.000 C 
BRANCH  24  25
ATOM     25  C   UNL     1     -13.557  43.649  33.569  1.00  0.00    -0.003 C 
ATOM     26  C   UNL     1     -14.998  43.688  34.080  1.00  0.00     0.004 C 
ENDBRANCH  24  25
ENDBRANCH  23  24
ENDBRANCH  22  23
ENDBRANCH  21  22
ENDBRANCH  20  21
ENDBRANCH  19  20
ENDBRANCH  18  19
ENDBRANCH  17  18
ENDBRANCH  16  17
ENDBRANCH  15  16
ENDBRANCH   1  15
TORSDOF 22
ENDMDL
MODEL 2
REMARK VINA RESULT:    -4.483      2.498      5.613
REMARK INTER + INTRA:         -14.128
REMARK INTER:                  -9.775
REMARK INTRA:                  -4.353
REMARK UNBOUND:                -3.878
REMARK SMILES CCCCCCCCCCCCCCCCCCCCCCCC(=O)[O-]
REMARK SMILES IDX 13 1 14 2 15 3 16 4 17 5 18 6 19 7 20 8 21 9 22 10 23 11
REMARK SMILES IDX 24 12 25 13 26 14 12 15 11 16 10 17 9 18 8 19 7 20 6 21 5 22
REMARK SMILES IDX 4 23 3 24 2 25 1 26
REMARK H PARENT
REMARK Flexibility Score: inf
ROOT
ATOM      1  C   UNL     1     -13.085  43.243  29.367  1.00  0.00     0.000 C 
ENDROOT
BRANCH   1   2
ATOM      2  C   UNL     1     -11.598  43.341  28.993  1.00  0.00     0.000 C 
BRANCH   2   3
ATOM      3  C   UNL     1     -10.801  44.248  29.949  1.00  0.00     0.000 C 
BRANCH   3   4
ATOM      4  C   UNL     1      -9.770  43.522  30.836  1.00  0.00     0.000 C 
BRANCH   4   5
ATOM      5  C   UNL     1      -9.343  42.125  30.347  1.00  0.00     0.000 C 
BRANCH   5   6
ATOM      6  C   UNL     1      -9.573  41.026  31.399  1.00  0.00     0.000 C 
BRANCH   6   7
ATOM      7  C   UNL     1     -10.771  41.319  32.322  1.00  0.00     0.000 C 
BRANCH   7   8
ATOM      8  C   UNL     1     -12.126  40.765  31.842  1.00  0.00     0.000 C 
BRANCH   8   9
ATOM      9  C   UNL     1     -11.995  39.813  30.642  1.00  0.00     0.000 C 
BRANCH   9  10
ATOM     10  C   UNL     1     -13.279  39.739  29.793  1.00  0.00     0.006 C 
BRANCH  10  11
ATOM     11  C   UNL     1     -14.143  38.495  30.072  1.00  0.00     0.053 C 
BRANCH  11  12
ATOM     12  C   UNL     1     -15.610  38.773  29.962  1.00  0.00     0.041 C 
ATOM     13  O   UNL     1     -16.397  38.404  30.874  1.00  0.00    -0.550 OA
ATOM     14  O   UNL     1     -16.113  39.434  28.847  1.00  0.00    -0.550 OA
ENDBRANCH  11  12
ENDBRANCH  10  11
ENDBRANCH   9  10
ENDBRANCH   8   9
ENDBRANCH   7   8
ENDBRANCH   6   7
ENDBRANCH   5   6
ENDBRANCH   4   5
ENDBRANCH   3   4
ENDBRANCH   2   3
ENDBRANCH   1   2
BRANCH   1  15
ATOM     15  C   UNL     1     -13.370  43.976  30.683  1.00  0.00     0.000 C 
BRANCH  15  16
ATOM     16  C   UNL     1     -14.601  44.884  30.551  1.00  0.00     0.000 C 
BRANCH  16  17
ATOM     17  C   UNL     1     -15.674  44.294  29.622  1.00  0.00     0.000 C 
BRANCH  17  18
ATOM     18  C   UNL     1     -17.072  44.884  29.883  1.00  0.00    -0.000 C 
BRANCH  18  19
ATOM     19  C   UNL     1     -17.485  44.786  31.360  1.00  0.00    -0.000 C 
BRANCH  19  20
ATOM     20  C   UNL     1     -18.572  43.724  31.599  1.00  0.00    -0.000 C 
BRANCH  20  21
ATOM     21  C   UNL     1     -18.092  42.584  32.511  1.00  0.00    -0.000 C 
BRANCH  21  22
ATOM     22  C   UNL     1     -16.954  41.763  31.878  1.00  0.00    -0.000 C 
BRANCH  22  23
ATOM     23  C   UNL     1     -15.625  41.916  32.636  1.00  0.00    -0.000 C 
BRANCH  23  24
ATOM     24  C   UNL     1     -15.782  42.705  33.949  1.00  0.00    -0.000 C 
BRANCH  24  25
ATOM     25  C   UNL     1     -14.630  43.694  34.182  1.00  0.00    -0.003 C 
ATOM     26  C   UNL     1     -15.095  45.150  34.186  1.00  0.00     0.004 C 
ENDBRANCH  24  25
ENDBRANCH  23  24
ENDBRANCH  22  23
ENDBRANCH  21  22
ENDBRANCH  20  21
ENDBRANCH  19  20
ENDBRANCH  18  19
ENDBRANCH  17  18
ENDBRANCH  16  17
ENDBRANCH  15  16
ENDBRANCH   1  15
TORSDOF 22
ENDMDL
MODEL 3
REMARK VINA RESULT:    -4.442      1.386      2.541
REMARK INTER + INTRA:         -14.034
REMARK INTER:                 -10.166
REMARK INTRA:                  -3.868
REMARK UNBOUND:                -3.878
REMARK SMILES CCCCCCCCCCCCCCCCCCCCCCCC(=O)[O-]
REMARK SMILES IDX 13 1 14 2 15 3 16 4 17 5 18 6 19 7 20 8 21 9 22 10 23 11
REMARK SMILES IDX 24 12 25 13 26 14 12 15 11 16 10 17 9 18 8 19 7 20 6 21 5 22
REMARK SMILES IDX 4 23 3 24 2 25 1 26
REMARK H PARENT
REMARK Flexibility Score: inf
ROOT
ATOM      1  C   UNL     1     -17.973  41.651  34.230  1.00  0.00     0.000 C 
ENDROOT
BRANCH   1   2
ATOM      2  C   UNL     1     -17.161  40.511  33.595  1.00  0.00     0.000 C 
BRANCH   2   3
ATOM      3  C   UNL     1     -17.767  40.014  32.270  1.00  0.00     0.000 C 
BRANCH   3   4
ATOM      4  C   UNL     1     -16.747  39.509  31.229  1.00  0.00     0.000 C 
BRANCH   4   5
ATOM      5  C   UNL     1     -15.802  40.582  30.655  1.00  0.00     0.000 C 
BRANCH   5   6
ATOM      6  C   UNL     1     -14.392  40.043  30.362  1.00  0.00     0.000 C 
BRANCH   6   7
ATOM      7  C   UNL     1     -14.099  39.912  28.856  1.00  0.00     0.000 C 
BRANCH   7   8
ATOM      8  C   UNL     1     -13.596  41.193  28.166  1.00  0.00     0.000 C 
BRANCH   8   9
ATOM      9  C   UNL     1     -12.861  40.915  26.844  1.00  0.00     0.000 C 
BRANCH   9  10
ATOM     10  C   UNL     1     -13.476  39.745  26.051  1.00  0.00     0.006 C 
BRANCH  10  11
ATOM     11  C   UNL     1     -14.632  40.159  25.122  1.00  0.00     0.053 C 
BRANCH  11  12
ATOM     12  C   UNL     1     -15.977  39.809  25.681  1.00  0.00     0.041 C 
ATOM     13  O   UNL     1     -16.812  40.716  25.942  1.00  0.00    -0.550 OA
ATOM     14  O   UNL     1     -16.307  38.481  25.922  1.00  0.00    -0.550 OA
ENDBRANCH  11  12
ENDBRANCH  10  11
ENDBRANCH   9  10
ENDBRANCH   8   9
ENDBRANCH   7   8
ENDBRANCH   6   7
ENDBRANCH   5   6
ENDBRANCH   4   5
ENDBRANCH   3   4
ENDBRANCH   2   3
ENDBRANCH   1   2
BRANCH   1  15
ATOM     15  C   UNL     1     -19.009  42.203  33.243  1.00  0.00     0.000 C 
BRANCH  15  16
ATOM     16  C   UNL     1     -18.612  43.604  32.757  1.00  0.00     0.000 C 
BRANCH  16  17
ATOM     17  C   UNL     1     -17.829  43.572  31.435  1.00  0.00     0.000 C 
BRANCH  17  18
ATOM     18  C   UNL     1     -17.322  44.962  31.013  1.00  0.00    -0.000 C 
BRANCH  18  19
ATOM     19  C   UNL     1     -16.567  44.932  29.674  1.00  0.00    -0.000 C 
BRANCH  19  20
ATOM     20  C   UNL     1     -15.370  43.965  29.695  1.00  0.00    -0.000 C 
BRANCH  20  21
ATOM     21  C   UNL     1     -14.115  44.596  30.320  1.00  0.00    -0.000 C 
BRANCH  21  22
ATOM     22  C   UNL     1     -13.211  43.554  31.004  1.00  0.00    -0.000 C 
BRANCH  22  23
ATOM     23  C   UNL     1     -13.216  43.687  32.536  1.00  0.00    -0.000 C 
BRANCH  23  24
ATOM     24  C   UNL     1     -14.477  43.080  33.177  1.00  0.00    -0.000 C 
BRANCH  24  25
ATOM     25  C   UNL     1     -15.209  44.075  34.091  1.00  0.00    -0.003 C 
ATOM     26  C   UNL     1     -14.415  45.363  34.316  1.00  0.00     0.004 C 
ENDBRANCH  24  25
ENDBRANCH  23  24
ENDBRANCH  22  23
ENDBRANCH  21  22
ENDBRANCH  20  21
ENDBRANCH  19  20
ENDBRANCH  18  19
ENDBRANCH  17  18
ENDBRANCH  16  17
ENDBRANCH  15  16
ENDBRANCH   1  15
TORSDOF 22
ENDMDL
MODEL 4
REMARK VINA RESULT:    -4.384      1.589      4.768
REMARK INTER + INTRA:         -13.900
REMARK INTER:                  -9.646
REMARK INTRA:                  -4.254
REMARK UNBOUND:                -3.878
REMARK SMILES CCCCCCCCCCCCCCCCCCCCCCCC(=O)[O-]
REMARK SMILES IDX 13 1 14 2 15 3 16 4 17 5 18 6 19 7 20 8 21 9 22 10 23 11
REMARK SMILES IDX 24 12 25 13 26 14 12 15 11 16 10 17 9 18 8 19 7 20 6 21 5 22
REMARK SMILES IDX 4 23 3 24 2 25 1 26
REMARK H PARENT
REMARK Flexibility Score: inf
ROOT
ATOM      1  C   UNL     1     -16.062  39.411  30.535  1.00  0.00     0.000 C 
ENDROOT
BRANCH   1   2
ATOM      2  C   UNL     1     -15.525  38.197  29.761  1.00  0.00     0.000 C 
BRANCH   2   3
ATOM      3  C   UNL     1     -13.990  38.194  29.648  1.00  0.00     0.000 C 
BRANCH   3   4
ATOM      4  C   UNL     1     -13.293  39.487  30.119  1.00  0.00     0.000 C 
BRANCH   4   5
ATOM      5  C   UNL     1     -12.415  40.186  29.065  1.00  0.00     0.000 C 
BRANCH   5   6
ATOM      6  C   UNL     1     -12.959  41.564  28.651  1.00  0.00     0.000 C 
BRANCH   6   7
ATOM      7  C   UNL     1     -13.819  41.512  27.374  1.00  0.00     0.000 C 
BRANCH   7   8
ATOM      8  C   UNL     1     -15.340  41.450  27.603  1.00  0.00     0.000 C 
BRANCH   8   9
ATOM      9  C   UNL     1     -16.035  40.380  26.745  1.00  0.00     0.000 C 
BRANCH   9  10
ATOM     10  C   UNL     1     -15.044  39.550  25.904  1.00  0.00     0.006 C 
BRANCH  10  11
ATOM     11  C   UNL     1     -15.252  38.029  26.015  1.00  0.00     0.053 C 
BRANCH  11  12
ATOM     12  C   UNL     1     -14.483  37.264  24.981  1.00  0.00     0.041 C 
ATOM     13  O   UNL     1     -13.759  37.872  24.150  1.00  0.00    -0.550 OA
ATOM     14  O   UNL     1     -14.572  35.878  24.931  1.00  0.00    -0.550 OA
ENDBRANCH  11  12
ENDBRANCH  10  11
ENDBRANCH   9  10
ENDBRANCH   8   9
ENDBRANCH   7   8
ENDBRANCH   6   7
ENDBRANCH   5   6
ENDBRANCH   4   5
ENDBRANCH   3   4
ENDBRANCH   2   3
ENDBRANCH   1   2
BRANCH   1  15
ATOM     15  C   UNL     1     -17.302  39.035  31.354  1.00  0.00     0.000 C 
BRANCH  15  16
ATOM     16  C   UNL     1     -17.867  40.259  32.089  1.00  0.00     0.000 C 
BRANCH  16  17
ATOM     17  C   UNL     1     -17.158  40.526  33.426  1.00  0.00     0.000 C 
BRANCH  17  18
ATOM     18  C   UNL     1     -17.728  41.750  34.165  1.00  0.00    -0.000 C 
BRANCH  18  19
ATOM     19  C   UNL     1     -19.083  42.201  33.597  1.00  0.00    -0.000 C 
BRANCH  19  20
ATOM     20  C   UNL     1     -19.112  43.703  33.265  1.00  0.00    -0.000 C 
BRANCH  20  21
ATOM     21  C   UNL     1     -17.726  44.248  32.883  1.00  0.00    -0.000 C 
BRANCH  21  22
ATOM     22  C   UNL     1     -17.612  44.563  31.380  1.00  0.00    -0.000 C 
BRANCH  22  23
ATOM     23  C   UNL     1     -16.820  43.492  30.613  1.00  0.00    -0.000 C 
BRANCH  23  24
ATOM     24  C   UNL     1     -15.422  43.979  30.193  1.00  0.00    -0.000 C 
BRANCH  24  25
ATOM     25  C   UNL     1     -14.402  43.900  31.340  1.00  0.00    -0.003 C 
ATOM     26  C   UNL     1     -14.407  42.541  32.041  1.00  0.00     0.004 C 
ENDBRANCH  24  25
ENDBRANCH  23  24
ENDBRANCH  22  23
ENDBRANCH  21  22
ENDBRANCH  20  21
ENDBRANCH  19  20
ENDBRANCH  18  19
ENDBRANCH  17  18
ENDBRANCH  16  17
ENDBRANCH  15  16
ENDBRANCH   1  15
TORSDOF 22
ENDMDL
MODEL 5
REMARK VINA RESULT:    -4.354      2.683      4.401
REMARK INTER + INTRA:         -13.831
REMARK INTER:                  -9.391
REMARK INTRA:                  -4.440
REMARK UNBOUND:                -3.878
REMARK SMILES CCCCCCCCCCCCCCCCCCCCCCCC(=O)[O-]
REMARK SMILES IDX 13 1 14 2 15 3 16 4 17 5 18 6 19 7 20 8 21 9 22 10 23 11
REMARK SMILES IDX 24 12 25 13 26 14 12 15 11 16 10 17 9 18 8 19 7 20 6 21 5 22
REMARK SMILES IDX 4 23 3 24 2 25 1 26
REMARK H PARENT
REMARK Flexibility Score: inf
ROOT
ATOM      1  C   UNL     1     -16.121  42.759  33.445  1.00  0.00     0.000 C 
ENDROOT
BRANCH   1   2
ATOM      2  C   UNL     1     -17.067  43.894  33.029  1.00  0.00     0.000 C 
BRANCH   2   3
ATOM      3  C   UNL     1     -17.500  43.800  31.554  1.00  0.00     0.000 C 
BRANCH   3   4
ATOM      4  C   UNL     1     -16.882  44.860  30.619  1.00  0.00     0.000 C 
BRANCH   4   5
ATOM      5  C   UNL     1     -15.854  44.327  29.603  1.00  0.00     0.000 C 
BRANCH   5   6
ATOM      6  C   UNL     1     -15.923  42.801  29.426  1.00  0.00     0.000 C 
BRANCH   6   7
ATOM      7  C   UNL     1     -14.665  42.216  28.757  1.00  0.00     0.000 C 
BRANCH   7   8
ATOM      8  C   UNL     1     -13.817  41.286  29.644  1.00  0.00     0.000 C 
BRANCH   8   9
ATOM      9  C   UNL     1     -13.758  39.842  29.118  1.00  0.00     0.000 C 
BRANCH   9  10
ATOM     10  C   UNL     1     -14.379  38.823  30.093  1.00  0.00     0.006 C 
BRANCH  10  11
ATOM     11  C   UNL     1     -15.833  38.442  29.757  1.00  0.00     0.053 C 
BRANCH  11  12
ATOM     12  C   UNL     1     -16.801  38.865  30.819  1.00  0.00     0.041 C 
ATOM     13  O   UNL     1     -16.641  39.958  31.425  1.00  0.00    -0.550 OA
ATOM     14  O   UNL     1     -17.878  38.050  31.145  1.00  0.00    -0.550 OA
ENDBRANCH  11  12
ENDBRANCH  10  11
ENDBRANCH   9  10
ENDBRANCH   8   9
ENDBRANCH   7   8
ENDBRANCH   6   7
ENDBRANCH   5   6
ENDBRANCH   4   5
ENDBRANCH   3   4
ENDBRANCH   2   3
ENDBRANCH   1   2
BRANCH   1  15
ATOM     15  C   UNL     1     -14.705  43.000  32.910  1.00  0.00     0.000 C 
BRANCH  15  16
ATOM     16  C   UNL     1     -14.197  44.393  33.308  1.00  0.00     0.000 C 
BRANCH  16  17
ATOM     17  C   UNL     1     -12.829  44.723  32.690  1.00  0.00     0.000 C 
BRANCH  17  18
ATOM     18  C   UNL     1     -12.562  43.941  31.391  1.00  0.00    -0.000 C 
BRANCH  18  19
ATOM     19  C   UNL     1     -12.183  44.861  30.219  1.00  0.00    -0.000 C 
BRANCH  19  20
ATOM     20  C   UNL     1     -11.510  44.097  29.065  1.00  0.00    -0.000 C 
BRANCH  20  21
ATOM     21  C   UNL     1     -10.259  43.327  29.519  1.00  0.00    -0.000 C 
BRANCH  21  22
ATOM     22  C   UNL     1     -10.193  41.908  28.925  1.00  0.00    -0.000 C 
BRANCH  22  23
ATOM     23  C   UNL     1     -10.095  40.821  30.007  1.00  0.00    -0.000 C 
BRANCH  23  24
ATOM     24  C   UNL     1      -9.212  41.247  31.194  1.00  0.00    -0.000 C 
BRANCH  24  25
ATOM     25  C   UNL     1      -9.966  41.208  32.532  1.00  0.00    -0.003 C 
ATOM     26  C   UNL     1     -11.439  40.833  32.368  1.00  0.00     0.004 C 
ENDBRANCH  24  25
ENDBRANCH  23  24
ENDBRANCH  22  23
ENDBRANCH  21  22
ENDBRANCH  20  21
ENDBRANCH  19  20
ENDBRANCH  18  19
ENDBRANCH  17  18
ENDBRANCH  16  17
ENDBRANCH  15  16
ENDBRANCH   1  15
TORSDOF 22
ENDMDL
MODEL 6
REMARK VINA RESULT:    -4.317      3.243      6.279
REMARK INTER + INTRA:         -13.747
REMARK INTER:                  -9.439
REMARK INTRA:                  -4.308
REMARK UNBOUND:                -3.878
REMARK SMILES CCCCCCCCCCCCCCCCCCCCCCCC(=O)[O-]
REMARK SMILES IDX 13 1 14 2 15 3 16 4 17 5 18 6 19 7 20 8 21 9 22 10 23 11
REMARK SMILES IDX 24 12 25 13 26 14 12 15 11 16 10 17 9 18 8 19 7 20 6 21 5 22
REMARK SMILES IDX 4 23 3 24 2 25 1 26
REMARK H PARENT
REMARK Flexibility Score: inf
ROOT
ATOM      1  C   UNL     1     -15.848  41.941  29.561  1.00  0.00     0.000 C 
ENDROOT
BRANCH   1   2
ATOM      2  C   UNL     1     -14.789  42.070  30.666  1.00  0.00     0.000 C 
BRANCH   2   3
ATOM      3  C   UNL     1     -13.651  43.036  30.291  1.00  0.00     0.000 C 
BRANCH   3   4
ATOM      4  C   UNL     1     -13.803  44.474  30.829  1.00  0.00     0.000 C 
BRANCH   4   5
ATOM      5  C   UNL     1     -12.817  44.871  31.943  1.00  0.00     0.000 C 
BRANCH   5   6
ATOM      6  C   UNL     1     -13.099  44.156  33.275  1.00  0.00     0.000 C 
BRANCH   6   7
ATOM      7  C   UNL     1     -14.347  44.699  33.997  1.00  0.00     0.000 C 
BRANCH   7   8
ATOM      8  C   UNL     1     -15.590  43.792  33.940  1.00  0.00     0.000 C 
BRANCH   8   9
ATOM      9  C   UNL     1     -16.875  44.555  33.581  1.00  0.00     0.000 C 
BRANCH   9  10
ATOM     10  C   UNL     1     -17.267  44.404  32.098  1.00  0.00     0.006 C 
BRANCH  10  11
ATOM     11  C   UNL     1     -18.568  43.611  31.873  1.00  0.00     0.053 C 
BRANCH  11  12
ATOM     12  C   UNL     1     -18.638  42.367  32.705  1.00  0.00     0.041 C 
ATOM     13  O   UNL     1     -17.973  41.347  32.380  1.00  0.00    -0.550 OA
ATOM     14  O   UNL     1     -19.443  42.330  33.836  1.00  0.00    -0.550 OA
ENDBRANCH  11  12
ENDBRANCH  10  11
ENDBRANCH   9  10
ENDBRANCH   8   9
ENDBRANCH   7   8
ENDBRANCH   6   7
ENDBRANCH   5   6
ENDBRANCH   4   5
ENDBRANCH   3   4
ENDBRANCH   2   3
ENDBRANCH   1   2
BRANCH   1  15
ATOM     15  C   UNL     1     -15.259  42.294  28.191  1.00  0.00     0.000 C 
BRANCH  15  16
ATOM     16  C   UNL     1     -15.232  41.064  27.272  1.00  0.00     0.000 C 
BRANCH  16  17
ATOM     17  C   UNL     1     -15.857  39.822  27.926  1.00  0.00     0.000 C 
BRANCH  17  18
ATOM     18  C   UNL     1     -15.321  38.507  27.333  1.00  0.00    -0.000 C 
BRANCH  18  19
ATOM     19  C   UNL     1     -14.345  37.790  28.280  1.00  0.00    -0.000 C 
BRANCH  19  20
ATOM     20  C   UNL     1     -14.387  38.358  29.710  1.00  0.00    -0.000 C 
BRANCH  20  21
ATOM     21  C   UNL     1     -13.010  38.847  30.190  1.00  0.00    -0.000 C 
BRANCH  21  22
ATOM     22  C   UNL     1     -12.279  39.684  29.124  1.00  0.00    -0.000 C 
BRANCH  22  23
ATOM     23  C   UNL     1     -11.142  40.531  29.720  1.00  0.00    -0.000 C 
BRANCH  23  24
ATOM     24  C   UNL     1     -10.752  40.081  31.139  1.00  0.00    -0.000 C 
BRANCH  24  25
ATOM     25  C   UNL     1     -11.026  41.163  32.195  1.00  0.00    -0.003 C 
ATOM     26  C   UNL     1     -10.075  42.355  32.078  1.00  0.00     0.004 C 
ENDBRANCH  24  25
ENDBRANCH  23  24
ENDBRANCH  22  23
ENDBRANCH  21  22
ENDBRANCH  20  21
ENDBRANCH  19  20
ENDBRANCH  18  19
ENDBRANCH  17  18
ENDBRANCH  16  17
ENDBRANCH  15  16
ENDBRANCH   1  15
TORSDOF 22
ENDMDL
MODEL 7
REMARK VINA RESULT:    -4.308      2.611      6.025
REMARK INTER + INTRA:         -13.727
REMARK INTER:                  -9.581
REMARK INTRA:                  -4.146
REMARK UNBOUND:                -3.878
REMARK SMILES CCCCCCCCCCCCCCCCCCCCCCCC(=O)[O-]
REMARK SMILES IDX 13 1 14 2 15 3 16 4 17 5 18 6 19 7 20 8 21 9 22 10 23 11
REMARK SMILES IDX 24 12 25 13 26 14 12 15 11 16 10 17 9 18 8 19 7 20 6 21 5 22
REMARK SMILES IDX 4 23 3 24 2 25 1 26
REMARK H PARENT
REMARK Flexibility Score: inf
ROOT
ATOM      1  C   UNL     1     -16.463  40.480  31.000  1.00  0.00     0.000 C 
ENDROOT
BRANCH   1   2
ATOM      2  C   UNL     1     -17.498  40.539  32.133  1.00  0.00     0.000 C 
BRANCH   2   3
ATOM      3  C   UNL     1     -18.076  41.950  32.342  1.00  0.00     0.000 C 
BRANCH   3   4
ATOM      4  C   UNL     1     -17.267  42.858  33.291  1.00  0.00     0.000 C 
BRANCH   4   5
ATOM      5  C   UNL     1     -16.949  44.265  32.750  1.00  0.00     0.000 C 
BRANCH   5   6
ATOM      6  C   UNL     1     -17.606  44.545  31.388  1.00  0.00     0.000 C 
BRANCH   6   7
ATOM      7  C   UNL     1     -16.581  44.789  30.265  1.00  0.00     0.000 C 
BRANCH   7   8
ATOM      8  C   UNL     1     -15.344  43.871  30.288  1.00  0.00     0.000 C 
BRANCH   8   9
ATOM      9  C   UNL     1     -14.030  44.639  30.504  1.00  0.00     0.000 C 
BRANCH   9  10
ATOM     10  C   UNL     1     -13.265  44.176  31.761  1.00  0.00     0.006 C 
BRANCH  10  11
ATOM     11  C   UNL     1     -13.653  42.767  32.245  1.00  0.00     0.053 C 
BRANCH  11  12
ATOM     12  C   UNL     1     -12.644  41.727  31.866  1.00  0.00     0.041 C 
ATOM     13  O   UNL     1     -11.800  41.324  32.709  1.00  0.00    -0.550 OA
ATOM     14  O   UNL     1     -12.629  41.207  30.577  1.00  0.00    -0.550 OA
ENDBRANCH  11  12
ENDBRANCH  10  11
ENDBRANCH   9  10
ENDBRANCH   8   9
ENDBRANCH   7   8
ENDBRANCH   6   7
ENDBRANCH   5   6
ENDBRANCH   4   5
ENDBRANCH   3   4
ENDBRANCH   2   3
ENDBRANCH   1   2
BRANCH   1  15
ATOM     15  C   UNL     1     -16.443  39.094  30.345  1.00  0.00     0.000 C 
BRANCH  15  16
ATOM     16  C   UNL     1     -15.002  38.609  30.131  1.00  0.00     0.000 C 
BRANCH  16  17
ATOM     17  C   UNL     1     -14.805  37.923  28.770  1.00  0.00     0.000 C 
BRANCH  17  18
ATOM     18  C   UNL     1     -16.130  37.716  28.014  1.00  0.00    -0.000 C 
BRANCH  18  19
ATOM     19  C   UNL     1     -16.039  38.148  26.541  1.00  0.00    -0.000 C 
BRANCH  19  20
ATOM     20  C   UNL     1     -16.810  39.449  26.260  1.00  0.00    -0.000 C 
BRANCH  20  21
ATOM     21  C   UNL     1     -15.931  40.525  25.603  1.00  0.00    -0.000 C 
BRANCH  21  22
ATOM     22  C   UNL     1     -15.702  41.740  26.521  1.00  0.00    -0.000 C 
BRANCH  22  23
ATOM     23  C   UNL     1     -14.693  41.448  27.643  1.00  0.00    -0.000 C 
BRANCH  23  24
ATOM     24  C   UNL     1     -13.233  41.586  27.176  1.00  0.00    -0.000 C 
BRANCH  24  25
ATOM     25  C   UNL     1     -12.478  40.248  27.202  1.00  0.00    -0.003 C 
ATOM     26  C   UNL     1     -12.485  39.540  25.846  1.00  0.00     0.004 C 
ENDBRANCH  24  25
ENDBRANCH  23  24
ENDBRANCH  22  23
ENDBRANCH  21  22
ENDBRANCH  20  21
ENDBRANCH  19  20
ENDBRANCH  18  19
ENDBRANCH  17  18
ENDBRANCH  16  17
ENDBRANCH  15  16
ENDBRANCH   1  15
TORSDOF 22
ENDMDL
MODEL 8
REMARK VINA RESULT:    -4.290      2.407      5.319
REMARK INTER + INTRA:         -13.686
REMARK INTER:                  -8.722
REMARK INTRA:                  -4.964
REMARK UNBOUND:                -3.878
REMARK SMILES CCCCCCCCCCCCCCCCCCCCCCCC(=O)[O-]
REMARK SMILES IDX 13 1 14 2 15 3 16 4 17 5 18 6 19 7 20 8 21 9 22 10 23 11
REMARK SMILES IDX 24 12 25 13 26 14 12 15 11 16 10 17 9 18 8 19 7 20 6 21 5 22
REMARK SMILES IDX 4 23 3 24 2 25 1 26
REMARK H PARENT
REMARK Flexibility Score: inf
ROOT
ATOM      1  C   UNL     1     -11.995  44.981  30.164  1.00  0.00     0.000 C 
ENDROOT
BRANCH   1   2
ATOM      2  C   UNL     1     -11.045  44.284  29.179  1.00  0.00     0.000 C 
BRANCH   2   3
ATOM      3  C   UNL     1      -9.948  43.466  29.885  1.00  0.00     0.000 C 
BRANCH   3   4
ATOM      4  C   UNL     1      -9.830  41.996  29.434  1.00  0.00     0.000 C 
BRANCH   4   5
ATOM      5  C   UNL     1      -9.498  40.987  30.548  1.00  0.00     0.000 C 
BRANCH   5   6
ATOM      6  C   UNL     1     -10.399  39.741  30.516  1.00  0.00     0.000 C 
BRANCH   6   7
ATOM      7  C   UNL     1     -10.574  39.162  29.100  1.00  0.00     0.000 C 
BRANCH   7   8
ATOM      8  C   UNL     1     -11.748  38.179  28.928  1.00  0.00     0.000 C 
BRANCH   8   9
ATOM      9  C   UNL     1     -12.719  38.189  30.120  1.00  0.00     0.000 C 
BRANCH   9  10
ATOM     10  C   UNL     1     -14.155  37.791  29.726  1.00  0.00     0.006 C 
BRANCH  10  11
ATOM     11  C   UNL     1     -14.591  38.312  28.344  1.00  0.00     0.053 C 
BRANCH  11  12
ATOM     12  C   UNL     1     -15.795  39.200  28.414  1.00  0.00     0.041 C 
ATOM     13  O   UNL     1     -16.333  39.454  29.524  1.00  0.00    -0.550 OA
ATOM     14  O   UNL     1     -16.330  39.741  27.251  1.00  0.00    -0.550 OA
ENDBRANCH  11  12
ENDBRANCH  10  11
ENDBRANCH   9  10
ENDBRANCH   8   9
ENDBRANCH   7   8
ENDBRANCH   6   7
ENDBRANCH   5   6
ENDBRANCH   4   5
ENDBRANCH   3   4
ENDBRANCH   2   3
ENDBRANCH   1   2
BRANCH   1  15
ATOM     15  C   UNL     1     -11.773  44.473  31.594  1.00  0.00     0.000 C 
BRANCH  15  16
ATOM     16  C   UNL     1     -13.088  44.475  32.387  1.00  0.00     0.000 C 
BRANCH  16  17
ATOM     17  C   UNL     1     -13.365  43.129  33.076  1.00  0.00     0.000 C 
BRANCH  17  18
ATOM     18  C   UNL     1     -12.917  41.926  32.227  1.00  0.00    -0.000 C 
BRANCH  18  19
ATOM     19  C   UNL     1     -13.984  41.497  31.207  1.00  0.00    -0.000 C 
BRANCH  19  20
ATOM     20  C   UNL     1     -13.516  41.681  29.753  1.00  0.00    -0.000 C 
BRANCH  20  21
ATOM     21  C   UNL     1     -14.436  42.618  28.953  1.00  0.00    -0.000 C 
BRANCH  21  22
ATOM     22  C   UNL     1     -15.703  43.008  29.735  1.00  0.00    -0.000 C 
BRANCH  22  23
ATOM     23  C   UNL     1     -15.805  44.523  29.973  1.00  0.00    -0.000 C 
BRANCH  23  24
ATOM     24  C   UNL     1     -17.041  44.908  30.806  1.00  0.00    -0.000 C 
BRANCH  24  25
ATOM     25  C   UNL     1     -17.287  43.941  31.974  1.00  0.00    -0.003 C 
ATOM     26  C   UNL     1     -16.760  44.477  33.305  1.00  0.00     0.004 C 
ENDBRANCH  24  25
ENDBRANCH  23  24
ENDBRANCH  22  23
ENDBRANCH  21  22
ENDBRANCH  20  21
ENDBRANCH  19  20
ENDBRANCH  18  19
ENDBRANCH  17  18
ENDBRANCH  16  17
ENDBRANCH  15  16
ENDBRANCH   1  15
TORSDOF 22
ENDMDL
MODEL 9
REMARK VINA RESULT:    -4.273      2.441      5.166
REMARK INTER + INTRA:         -13.648
REMARK INTER:                  -9.044
REMARK INTRA:                  -4.603
REMARK UNBOUND:                -3.878
REMARK SMILES CCCCCCCCCCCCCCCCCCCCCCCC(=O)[O-]
REMARK SMILES IDX 13 1 14 2 15 3 16 4 17 5 18 6 19 7 20 8 21 9 22 10 23 11
REMARK SMILES IDX 24 12 25 13 26 14 12 15 11 16 10 17 9 18 8 19 7 20 6 21 5 22
REMARK SMILES IDX 4 23 3 24 2 25 1 26
REMARK H PARENT
REMARK Flexibility Score: inf
ROOT
ATOM      1  C   UNL     1     -12.017  44.536  29.765  1.00  0.00     0.000 C 
ENDROOT
BRANCH   1   2
ATOM      2  C   UNL     1     -11.521  44.520  31.219  1.00  0.00     0.000 C 
BRANCH   2   3
ATOM      3  C   UNL     1     -12.552  43.922  32.194  1.00  0.00     0.000 C 
BRANCH   3   4
ATOM      4  C   UNL     1     -12.461  42.395  32.393  1.00  0.00     0.000 C 
BRANCH   4   5
ATOM      5  C   UNL     1     -11.060  41.786  32.197  1.00  0.00     0.000 C 
BRANCH   5   6
ATOM      6  C   UNL     1     -11.101  40.374  31.587  1.00  0.00     0.000 C 
BRANCH   6   7
ATOM      7  C   UNL     1     -10.182  40.222  30.361  1.00  0.00     0.000 C 
BRANCH   7   8
ATOM      8  C   UNL     1     -10.724  39.319  29.237  1.00  0.00     0.000 C 
BRANCH   8   9
ATOM      9  C   UNL     1     -11.736  38.277  29.739  1.00  0.00     0.000 C 
BRANCH   9  10
ATOM     10  C   UNL     1     -13.134  38.447  29.112  1.00  0.00     0.006 C 
BRANCH  10  11
ATOM     11  C   UNL     1     -14.230  38.833  30.123  1.00  0.00     0.053 C 
BRANCH  11  12
ATOM     12  C   UNL     1     -15.612  38.584  29.600  1.00  0.00     0.041 C 
ATOM     13  O   UNL     1     -15.822  38.535  28.359  1.00  0.00    -0.550 OA
ATOM     14  O   UNL     1     -16.670  38.413  30.484  1.00  0.00    -0.550 OA
ENDBRANCH  11  12
ENDBRANCH  10  11
ENDBRANCH   9  10
ENDBRANCH   8   9
ENDBRANCH   7   8
ENDBRANCH   6   7
ENDBRANCH   5   6
ENDBRANCH   4   5
ENDBRANCH   3   4
ENDBRANCH   2   3
ENDBRANCH   1   2
BRANCH   1  15
ATOM     15  C   UNL     1     -11.039  43.799  28.843  1.00  0.00     0.000 C 
BRANCH  15  16
ATOM     16  C   UNL     1     -11.752  42.686  28.062  1.00  0.00     0.000 C 
BRANCH  16  17
ATOM     17  C   UNL     1     -13.019  42.184  28.773  1.00  0.00     0.000 C 
BRANCH  17  18
ATOM     18  C   UNL     1     -14.273  42.279  27.886  1.00  0.00    -0.000 C 
BRANCH  18  19
ATOM     19  C   UNL     1     -15.574  42.280  28.705  1.00  0.00    -0.000 C 
BRANCH  19  20
ATOM     20  C   UNL     1     -15.427  43.023  30.043  1.00  0.00    -0.000 C 
BRANCH  20  21
ATOM     21  C   UNL     1     -15.697  44.531  29.912  1.00  0.00    -0.000 C 
BRANCH  21  22
ATOM     22  C   UNL     1     -16.997  44.960  30.616  1.00  0.00    -0.000 C 
BRANCH  22  23
ATOM     23  C   UNL     1     -17.421  43.976  31.719  1.00  0.00    -0.000 C 
BRANCH  23  24
ATOM     24  C   UNL     1     -17.132  44.512  33.132  1.00  0.00    -0.000 C 
BRANCH  24  25
ATOM     25  C   UNL     1     -16.017  43.728  33.841  1.00  0.00    -0.003 C 
ATOM     26  C   UNL     1     -16.077  42.227  33.553  1.00  0.00     0.004 C 
ENDBRANCH  24  25
ENDBRANCH  23  24
ENDBRANCH  22  23
ENDBRANCH  21  22
ENDBRANCH  20  21
ENDBRANCH  19  20
ENDBRANCH  18  19
ENDBRANCH  17  18
ENDBRANCH  16  17
ENDBRANCH  15  16
ENDBRANCH   1  15
TORSDOF 22
ENDMDL
