MODEL 1
REMARK VINA RESULT:    -5.922      0.000      0.000
REMARK INTER + INTRA:         -10.576
REMARK INTER:                  -9.037
REMARK INTRA:                  -1.539
REMARK UNBOUND:                -1.539
REMARK SMILES OC[C@H]1O[C@@H](O[C@@]2(CO)O[C@H](CO)[C@@H](O)[C@@H]2O)[C@@H](O)[C@H](O)[C@H]1O
REMARK SMILES IDX 6 1 5 2 3 3 22 4 4 5 20 6 18 7 2 8 1 9 23 11 21 13 19 15
REMARK SMILES IDX 7 17 16 18 10 19 14 20 11 21 8 22 9 23 17 25 15 27 12 29
REMARK SMILES IDX 13 30
REMARK H PARENT 1 10 23 12 21 14 19 16 9 24 17 26 15 28 13 31
REMARK Flexibility Score: inf
ROOT
ATOM      1  O   UNL     1      22.480  16.118  34.425  1.00  0.00    -0.313 OA
ENDROOT
BRANCH   1   2
ATOM      2  C   UNL     1      23.486  16.666  33.582  1.00  0.00     0.285 C 
ATOM      3  C   UNL     1      25.339  16.218  35.034  1.00  0.00     0.178 C 
ATOM      4  C   UNL     1      25.469  17.718  35.409  1.00  0.00     0.177 C 
ATOM      5  O   UNL     1      24.725  15.994  33.768  1.00  0.00    -0.341 OA
ATOM      6  C   UNL     1      24.150  18.475  35.213  1.00  0.00     0.179 C 
ATOM      7  C   UNL     1      23.610  18.182  33.808  1.00  0.00     0.202 C 
BRANCH   3   8
ATOM      8  C   UNL     1      24.797  15.284  36.144  1.00  0.00     0.191 C 
BRANCH   8   9
ATOM      9  O   UNL     1      23.847  15.910  36.965  1.00  0.00    -0.394 OA
ATOM     10  H   UNL     1      24.243  16.765  37.275  1.00  0.00     0.210 HD
ENDBRANCH   8   9
ENDBRANCH   3   8
BRANCH   4  11
ATOM     11  O   UNL     1      25.920  17.848  36.734  1.00  0.00    -0.387 OA
ATOM     12  H   UNL     1      25.195  18.297  37.244  1.00  0.00     0.211 HD
ENDBRANCH   4  11
BRANCH   6  13
ATOM     13  O   UNL     1      24.387  19.853  35.355  1.00  0.00    -0.387 OA
ATOM     14  H   UNL     1      25.184  19.952  35.939  1.00  0.00     0.211 HD
ENDBRANCH   6  13
BRANCH   7  15
ATOM     15  O   UNL     1      22.351  18.783  33.639  1.00  0.00    -0.385 OA
ATOM     16  H   UNL     1      22.034  19.054  34.540  1.00  0.00     0.211 HD
ENDBRANCH   7  15
ENDBRANCH   1   2
BRANCH   1  17
ATOM     17  C   UNL     1      21.721  15.049  33.852  1.00  0.00     0.224 C 
ATOM     18  C   UNL     1      21.058  15.504  32.532  1.00  0.00     0.208 C 
ATOM     19  O   UNL     1      20.660  14.785  34.742  1.00  0.00    -0.337 OA
ATOM     20  C   UNL     1      19.800  16.209  33.005  1.00  0.00     0.180 C 
ATOM     21  C   UNL     1      19.615  15.686  34.439  1.00  0.00     0.179 C 
BRANCH  17  22
ATOM     22  C   UNL     1      22.557  13.743  33.717  1.00  0.00     0.225 C 
BRANCH  22  23
ATOM     23  O   UNL     1      23.306  13.751  32.532  1.00  0.00    -0.391 OA
ATOM     24  H   UNL     1      24.241  13.954  32.796  1.00  0.00     0.210 HD
ENDBRANCH  22  23
ENDBRANCH  17  22
BRANCH  18  25
ATOM     25  O   UNL     1      20.743  14.421  31.684  1.00  0.00    -0.385 OA
ATOM     26  H   UNL     1      20.925  14.695  30.747  1.00  0.00     0.211 HD
ENDBRANCH  18  25
BRANCH  20  27
ATOM     27  O   UNL     1      20.005  17.599  33.013  1.00  0.00    -0.387 OA
ATOM     28  H   UNL     1      20.723  17.774  33.674  1.00  0.00     0.211 HD
ENDBRANCH  20  27
BRANCH  21  29
ATOM     29  C   UNL     1      18.268  14.980  34.614  1.00  0.00     0.191 C 
BRANCH  29  30
ATOM     30  O   UNL     1      17.452  15.241  33.506  1.00  0.00    -0.394 OA
ATOM     31  H   UNL     1      17.387  16.229  33.440  1.00  0.00     0.210 HD
ENDBRANCH  29  30
ENDBRANCH  21  29
ENDBRANCH   1  17
TORSDOF 13
ENDMDL
MODEL 2
REMARK VINA RESULT:    -5.820      2.088      4.325
REMARK INTER + INTRA:         -10.421
REMARK INTER:                  -8.806
REMARK INTRA:                  -1.615
REMARK UNBOUND:                -1.539
REMARK SMILES OC[C@H]1O[C@@H](O[C@@]2(CO)O[C@H](CO)[C@@H](O)[C@@H]2O)[C@@H](O)[C@H](O)[C@H]1O
REMARK SMILES IDX 6 1 5 2 3 3 22 4 4 5 20 6 18 7 2 8 1 9 23 11 21 13 19 15
REMARK SMILES IDX 7 17 16 18 10 19 14 20 11 21 8 22 9 23 17 25 15 27 12 29
REMARK SMILES IDX 13 30
REMARK H PARENT 1 10 23 12 21 14 19 16 9 24 17 26 15 28 13 31
REMARK Flexibility Score: inf
ROOT
ATOM      1  O   UNL     1      21.779  16.387  32.970  1.00  0.00    -0.313 OA
ENDROOT
BRANCH   1   2
ATOM      2  C   UNL     1      21.786  17.391  33.979  1.00  0.00     0.285 C 
ATOM      3  C   UNL     1      19.424  17.801  33.978  1.00  0.00     0.178 C 
ATOM      4  C   UNL     1      19.613  19.160  33.256  1.00  0.00     0.177 C 
ATOM      5  O   UNL     1      20.569  17.378  34.713  1.00  0.00    -0.341 OA
ATOM      6  C   UNL     1      20.922  19.210  32.457  1.00  0.00     0.179 C 
ATOM      7  C   UNL     1      22.077  18.770  33.363  1.00  0.00     0.202 C 
BRANCH   3   8
ATOM      8  C   UNL     1      18.793  16.665  33.135  1.00  0.00     0.191 C 
BRANCH   8   9
ATOM      9  O   UNL     1      19.128  16.746  31.775  1.00  0.00    -0.394 OA
ATOM     10  H   UNL     1      18.492  16.169  31.280  1.00  0.00     0.210 HD
ENDBRANCH   8   9
ENDBRANCH   3   8
BRANCH   4  11
ATOM     11  O   UNL     1      18.515  19.420  32.417  1.00  0.00    -0.387 OA
ATOM     12  H   UNL     1      18.326  20.393  32.479  1.00  0.00     0.211 HD
ENDBRANCH   4  11
BRANCH   6  13
ATOM     13  O   UNL     1      21.138  20.526  32.013  1.00  0.00    -0.387 OA
ATOM     14  H   UNL     1      21.981  20.522  31.489  1.00  0.00     0.211 HD
ENDBRANCH   6  13
BRANCH   7  15
ATOM     15  O   UNL     1      23.272  18.709  32.627  1.00  0.00    -0.385 OA
ATOM     16  H   UNL     1      23.134  19.243  31.802  1.00  0.00     0.211 HD
ENDBRANCH   7  15
ENDBRANCH   1   2
BRANCH   1  17
ATOM     17  C   UNL     1      22.578  15.234  33.251  1.00  0.00     0.224 C 
ATOM     18  C   UNL     1      22.580  14.271  32.044  1.00  0.00     0.208 C 
ATOM     19  O   UNL     1      21.932  14.541  34.295  1.00  0.00    -0.337 OA
ATOM     20  C   UNL     1      21.295  13.485  32.229  1.00  0.00     0.180 C 
ATOM     21  C   UNL     1      20.949  13.712  33.710  1.00  0.00     0.179 C 
BRANCH  17  22
ATOM     22  C   UNL     1      24.001  15.616  33.753  1.00  0.00     0.225 C 
BRANCH  22  23
ATOM     23  O   UNL     1      24.377  14.817  34.842  1.00  0.00    -0.391 OA
ATOM     24  H   UNL     1      24.554  15.439  35.595  1.00  0.00     0.210 HD
ENDBRANCH  22  23
ENDBRANCH  17  22
BRANCH  18  25
ATOM     25  O   UNL     1      23.701  13.414  32.039  1.00  0.00    -0.385 OA
ATOM     26  H   UNL     1      23.389  12.490  32.225  1.00  0.00     0.211 HD
ENDBRANCH  18  25
BRANCH  20  27
ATOM     27  O   UNL     1      20.288  14.012  31.404  1.00  0.00    -0.387 OA
ATOM     28  H   UNL     1      19.435  13.606  31.706  1.00  0.00     0.211 HD
ENDBRANCH  20  27
BRANCH  21  29
ATOM     29  C   UNL     1      20.871  12.392  34.482  1.00  0.00     0.191 C 
BRANCH  29  30
ATOM     30  O   UNL     1      21.714  12.450  35.600  1.00  0.00    -0.394 OA
ATOM     31  H   UNL     1      21.238  11.971  36.327  1.00  0.00     0.210 HD
ENDBRANCH  29  30
ENDBRANCH  21  29
ENDBRANCH   1  17
TORSDOF 13
ENDMDL
MODEL 3
REMARK VINA RESULT:    -5.705      1.529      2.651
REMARK INTER + INTRA:         -10.246
REMARK INTER:                  -8.335
REMARK INTRA:                  -1.911
REMARK UNBOUND:                -1.539
REMARK SMILES OC[C@H]1O[C@@H](O[C@@]2(CO)O[C@H](CO)[C@@H](O)[C@@H]2O)[C@@H](O)[C@H](O)[C@H]1O
REMARK SMILES IDX 6 1 5 2 3 3 22 4 4 5 20 6 18 7 2 8 1 9 23 11 21 13 19 15
REMARK SMILES IDX 7 17 16 18 10 19 14 20 11 21 8 22 9 23 17 25 15 27 12 29
REMARK SMILES IDX 13 30
REMARK H PARENT 1 10 23 12 21 14 19 16 9 24 17 26 15 28 13 31
REMARK Flexibility Score: inf
ROOT
ATOM      1  O   UNL     1      21.206  16.062  34.217  1.00  0.00    -0.313 OA
ENDROOT
BRANCH   1   2
ATOM      2  C   UNL     1      22.368  16.381  33.461  1.00  0.00     0.285 C 
ATOM      3  C   UNL     1      23.948  15.330  34.925  1.00  0.00     0.178 C 
ATOM      4  C   UNL     1      24.455  16.702  35.440  1.00  0.00     0.177 C 
ATOM      5  O   UNL     1      23.368  15.384  33.625  1.00  0.00    -0.341 OA
ATOM      6  C   UNL     1      23.401  17.804  35.272  1.00  0.00     0.179 C 
ATOM      7  C   UNL     1      22.881  17.783  33.830  1.00  0.00     0.202 C 
BRANCH   3   8
ATOM      8  C   UNL     1      23.113  14.494  35.926  1.00  0.00     0.191 C 
BRANCH   8   9
ATOM      9  O   UNL     1      22.294  15.285  36.746  1.00  0.00    -0.394 OA
ATOM     10  H   UNL     1      22.318  14.890  37.655  1.00  0.00     0.210 HD
ENDBRANCH   8   9
ENDBRANCH   3   8
BRANCH   4  11
ATOM     11  O   UNL     1      24.849  16.598  36.786  1.00  0.00    -0.387 OA
ATOM     12  H   UNL     1      25.144  15.661  36.931  1.00  0.00     0.211 HD
ENDBRANCH   4  11
BRANCH   6  13
ATOM     13  O   UNL     1      23.991  19.049  35.549  1.00  0.00    -0.387 OA
ATOM     14  H   UNL     1      23.933  19.188  36.530  1.00  0.00     0.211 HD
ENDBRANCH   6  13
BRANCH   7  15
ATOM     15  O   UNL     1      21.842  18.715  33.677  1.00  0.00    -0.385 OA
ATOM     16  H   UNL     1      22.014  19.207  32.832  1.00  0.00     0.211 HD
ENDBRANCH   7  15
ENDBRANCH   1   2
BRANCH   1  17
ATOM     17  C   UNL     1      20.103  15.560  33.457  1.00  0.00     0.224 C 
ATOM     18  C   UNL     1      18.856  15.398  34.355  1.00  0.00     0.208 C 
ATOM     19  O   UNL     1      20.453  14.258  33.048  1.00  0.00    -0.337 OA
ATOM     20  C   UNL     1      19.081  14.048  35.012  1.00  0.00     0.180 C 
ATOM     21  C   UNL     1      20.123  13.377  34.102  1.00  0.00     0.179 C 
BRANCH  17  22
ATOM     22  C   UNL     1      19.845  16.402  32.173  1.00  0.00     0.225 C 
BRANCH  22  23
ATOM     23  O   UNL     1      19.226  17.619  32.490  1.00  0.00    -0.391 OA
ATOM     24  H   UNL     1      18.923  18.009  31.630  1.00  0.00     0.210 HD
ENDBRANCH  22  23
ENDBRANCH  17  22
BRANCH  18  25
ATOM     25  O   UNL     1      17.654  15.408  33.618  1.00  0.00    -0.385 OA
ATOM     26  H   UNL     1      17.751  16.055  32.871  1.00  0.00     0.211 HD
ENDBRANCH  18  25
BRANCH  20  27
ATOM     27  O   UNL     1      19.600  14.224  36.305  1.00  0.00    -0.387 OA
ATOM     28  H   UNL     1      18.852  14.053  36.934  1.00  0.00     0.211 HD
ENDBRANCH  20  27
BRANCH  21  29
ATOM     29  C   UNL     1      19.603  12.060  33.520  1.00  0.00     0.191 C 
BRANCH  29  30
ATOM     30  O   UNL     1      19.210  12.255  32.189  1.00  0.00    -0.394 OA
ATOM     31  H   UNL     1      19.938  12.777  31.762  1.00  0.00     0.210 HD
ENDBRANCH  29  30
ENDBRANCH  21  29
ENDBRANCH   1  17
TORSDOF 13
ENDMDL
MODEL 4
REMARK VINA RESULT:    -5.592      1.907      3.270
REMARK INTER + INTRA:         -10.073
REMARK INTER:                  -8.521
REMARK INTRA:                  -1.552
REMARK UNBOUND:                -1.539
REMARK SMILES OC[C@H]1O[C@@H](O[C@@]2(CO)O[C@H](CO)[C@@H](O)[C@@H]2O)[C@@H](O)[C@H](O)[C@H]1O
REMARK SMILES IDX 6 1 5 2 3 3 22 4 4 5 20 6 18 7 2 8 1 9 23 11 21 13 19 15
REMARK SMILES IDX 7 17 16 18 10 19 14 20 11 21 8 22 9 23 17 25 15 27 12 29
REMARK SMILES IDX 13 30
REMARK H PARENT 1 10 23 12 21 14 19 16 9 24 17 26 15 28 13 31
REMARK Flexibility Score: inf
ROOT
ATOM      1  O   UNL     1      21.151  16.452  34.094  1.00  0.00    -0.313 OA
ENDROOT
BRANCH   1   2
ATOM      2  C   UNL     1      22.061  15.667  33.332  1.00  0.00     0.285 C 
ATOM      3  C   UNL     1      22.490  14.021  35.021  1.00  0.00     0.178 C 
ATOM      4  C   UNL     1      23.907  14.594  35.286  1.00  0.00     0.177 C 
ATOM      5  O   UNL     1      21.993  14.300  33.714  1.00  0.00    -0.341 OA
ATOM      6  C   UNL     1      24.016  16.069  34.877  1.00  0.00     0.179 C 
ATOM      7  C   UNL     1      23.487  16.232  33.448  1.00  0.00     0.202 C 
BRANCH   3   8
ATOM      8  C   UNL     1      21.439  14.265  36.132  1.00  0.00     0.191 C 
BRANCH   8   9
ATOM      9  O   UNL     1      21.667  15.451  36.845  1.00  0.00    -0.394 OA
ATOM     10  H   UNL     1      22.237  15.222  37.624  1.00  0.00     0.210 HD
ENDBRANCH   8   9
ENDBRANCH   3   8
BRANCH   4  11
ATOM     11  O   UNL     1      24.249  14.431  36.639  1.00  0.00    -0.387 OA
ATOM     12  H   UNL     1      23.489  14.780  37.175  1.00  0.00     0.211 HD
ENDBRANCH   4  11
BRANCH   6  13
ATOM     13  O   UNL     1      25.364  16.461  34.935  1.00  0.00    -0.387 OA
ATOM     14  H   UNL     1      25.476  17.214  34.298  1.00  0.00     0.211 HD
ENDBRANCH   6  13
BRANCH   7  15
ATOM     15  O   UNL     1      23.481  17.589  33.086  1.00  0.00    -0.385 OA
ATOM     16  H   UNL     1      24.361  17.965  33.354  1.00  0.00     0.211 HD
ENDBRANCH   7  15
ENDBRANCH   1   2
BRANCH   1  17
ATOM     17  C   UNL     1      19.841  16.582  33.535  1.00  0.00     0.224 C 
ATOM     18  C   UNL     1      19.919  17.157  32.103  1.00  0.00     0.208 C 
ATOM     19  O   UNL     1      19.169  17.555  34.302  1.00  0.00    -0.337 OA
ATOM     20  C   UNL     1      20.020  18.652  32.338  1.00  0.00     0.180 C 
ATOM     21  C   UNL     1      19.514  18.821  33.781  1.00  0.00     0.179 C 
BRANCH  17  22
ATOM     22  C   UNL     1      19.027  15.259  33.637  1.00  0.00     0.225 C 
BRANCH  22  23
ATOM     23  O   UNL     1      17.649  15.518  33.594  1.00  0.00    -0.391 OA
ATOM     24  H   UNL     1      17.201  14.633  33.601  1.00  0.00     0.210 HD
ENDBRANCH  22  23
ENDBRANCH  17  22
BRANCH  18  25
ATOM     25  O   UNL     1      18.782  16.841  31.331  1.00  0.00    -0.385 OA
ATOM     26  H   UNL     1      17.975  16.978  31.893  1.00  0.00     0.211 HD
ENDBRANCH  18  25
BRANCH  20  27
ATOM     27  O   UNL     1      21.359  19.064  32.237  1.00  0.00    -0.387 OA
ATOM     28  H   UNL     1      21.805  18.423  31.624  1.00  0.00     0.211 HD
ENDBRANCH  20  27
BRANCH  21  29
ATOM     29  C   UNL     1      18.297  19.748  33.848  1.00  0.00     0.191 C 
BRANCH  29  30
ATOM     30  O   UNL     1      17.725  19.868  32.575  1.00  0.00    -0.394 OA
ATOM     31  H   UNL     1      17.753  20.834  32.352  1.00  0.00     0.210 HD
ENDBRANCH  29  30
ENDBRANCH  21  29
ENDBRANCH   1  17
TORSDOF 13
ENDMDL
MODEL 5
REMARK VINA RESULT:    -5.591      4.952      7.702
REMARK INTER + INTRA:         -10.072
REMARK INTER:                  -8.524
REMARK INTRA:                  -1.548
REMARK UNBOUND:                -1.539
REMARK SMILES OC[C@H]1O[C@@H](O[C@@]2(CO)O[C@H](CO)[C@@H](O)[C@@H]2O)[C@@H](O)[C@H](O)[C@H]1O
REMARK SMILES IDX 6 1 5 2 3 3 22 4 4 5 20 6 18 7 2 8 1 9 23 11 21 13 19 15
REMARK SMILES IDX 7 17 16 18 10 19 14 20 11 21 8 22 9 23 17 25 15 27 12 29
REMARK SMILES IDX 13 30
REMARK H PARENT 1 10 23 12 21 14 19 16 9 24 17 26 15 28 13 31
REMARK Flexibility Score: inf
ROOT
ATOM      1  O   UNL     1      16.150  12.470  34.898  1.00  0.00    -0.313 OA
ENDROOT
BRANCH   1   2
ATOM      2  C   UNL     1      17.318  12.481  34.086  1.00  0.00     0.285 C 
ATOM      3  C   UNL     1      18.871  11.928  35.826  1.00  0.00     0.178 C 
ATOM      4  C   UNL     1      19.425  13.376  35.857  1.00  0.00     0.177 C 
ATOM      5  O   UNL     1      18.286  11.564  34.579  1.00  0.00    -0.341 OA
ATOM      6  C   UNL     1      18.406  14.393  35.326  1.00  0.00     0.179 C 
ATOM      7  C   UNL     1      17.879  13.909  33.970  1.00  0.00     0.202 C 
BRANCH   3   8
ATOM      8  C   UNL     1      18.015  11.501  37.044  1.00  0.00     0.191 C 
BRANCH   8   9
ATOM      9  O   UNL     1      17.126  10.457  36.744  1.00  0.00    -0.394 OA
ATOM     10  H   UNL     1      16.669  10.693  35.897  1.00  0.00     0.210 HD
ENDBRANCH   8   9
ENDBRANCH   3   8
BRANCH   4  11
ATOM     11  O   UNL     1      19.822  13.714  37.163  1.00  0.00    -0.387 OA
ATOM     12  H   UNL     1      19.448  14.613  37.356  1.00  0.00     0.211 HD
ENDBRANCH   4  11
BRANCH   6  13
ATOM     13  O   UNL     1      19.038  15.639  35.175  1.00  0.00    -0.387 OA
ATOM     14  H   UNL     1      18.722  16.217  35.917  1.00  0.00     0.211 HD
ENDBRANCH   6  13
BRANCH   7  15
ATOM     15  O   UNL     1      16.869  14.770  33.508  1.00  0.00    -0.385 OA
ATOM     16  H   UNL     1      17.225  15.230  32.704  1.00  0.00     0.211 HD
ENDBRANCH   7  15
ENDBRANCH   1   2
BRANCH   1  17
ATOM     17  C   UNL     1      14.976  11.948  34.270  1.00  0.00     0.224 C 
ATOM     18  C   UNL     1      13.821  12.972  34.348  1.00  0.00     0.208 C 
ATOM     19  O   UNL     1      14.562  10.844  35.042  1.00  0.00    -0.337 OA
ATOM     20  C   UNL     1      13.245  12.734  35.732  1.00  0.00     0.180 C 
ATOM     21  C   UNL     1      13.771  11.338  36.103  1.00  0.00     0.179 C 
BRANCH  17  22
ATOM     22  C   UNL     1      15.262  11.433  32.829  1.00  0.00     0.225 C 
BRANCH  22  23
ATOM     23  O   UNL     1      14.349  10.431  32.468  1.00  0.00    -0.391 OA
ATOM     24  H   UNL     1      14.429  10.325  31.485  1.00  0.00     0.210 HD
ENDBRANCH  22  23
ENDBRANCH  17  22
BRANCH  18  25
ATOM     25  O   UNL     1      12.845  12.763  33.351  1.00  0.00    -0.385 OA
ATOM     26  H   UNL     1      13.193  12.090  32.709  1.00  0.00     0.211 HD
ENDBRANCH  18  25
BRANCH  20  27
ATOM     27  O   UNL     1      13.738  13.698  36.628  1.00  0.00    -0.387 OA
ATOM     28  H   UNL     1      13.515  14.583  36.239  1.00  0.00     0.211 HD
ENDBRANCH  20  27
BRANCH  21  29
ATOM     29  C   UNL     1      12.628  10.359  36.384  1.00  0.00     0.191 C 
BRANCH  29  30
ATOM     30  O   UNL     1      12.656   9.319  35.444  1.00  0.00    -0.394 OA
ATOM     31  H   UNL     1      11.708   9.101  35.249  1.00  0.00     0.210 HD
ENDBRANCH  29  30
ENDBRANCH  21  29
ENDBRANCH   1  17
TORSDOF 13
ENDMDL
MODEL 6
REMARK VINA RESULT:    -5.551      2.246      3.755
REMARK INTER + INTRA:         -10.010
REMARK INTER:                  -8.169
REMARK INTRA:                  -1.841
REMARK UNBOUND:                -1.539
REMARK SMILES OC[C@H]1O[C@@H](O[C@@]2(CO)O[C@H](CO)[C@@H](O)[C@@H]2O)[C@@H](O)[C@H](O)[C@H]1O
REMARK SMILES IDX 6 1 5 2 3 3 22 4 4 5 20 6 18 7 2 8 1 9 23 11 21 13 19 15
REMARK SMILES IDX 7 17 16 18 10 19 14 20 11 21 8 22 9 23 17 25 15 27 12 29
REMARK SMILES IDX 13 30
REMARK H PARENT 1 10 23 12 21 14 19 16 9 24 17 26 15 28 13 31
REMARK Flexibility Score: inf
ROOT
ATOM      1  O   UNL     1      21.723  13.827  34.688  1.00  0.00    -0.313 OA
ENDROOT
BRANCH   1   2
ATOM      2  C   UNL     1      22.161  14.729  35.697  1.00  0.00     0.285 C 
ATOM      3  C   UNL     1      21.859  16.737  34.422  1.00  0.00     0.178 C 
ATOM      4  C   UNL     1      23.390  16.906  34.237  1.00  0.00     0.177 C 
ATOM      5  O   UNL     1      21.501  15.982  35.576  1.00  0.00    -0.341 OA
ATOM      6  C   UNL     1      24.135  15.571  34.367  1.00  0.00     0.179 C 
ATOM      7  C   UNL     1      23.692  14.875  35.659  1.00  0.00     0.202 C 
BRANCH   3   8
ATOM      8  C   UNL     1      21.063  16.326  33.159  1.00  0.00     0.191 C 
BRANCH   8   9
ATOM      9  O   UNL     1      21.756  15.410  32.353  1.00  0.00    -0.394 OA
ATOM     10  H   UNL     1      22.725  15.584  32.475  1.00  0.00     0.210 HD
ENDBRANCH   8   9
ENDBRANCH   3   8
BRANCH   4  11
ATOM     11  O   UNL     1      23.664  17.504  32.995  1.00  0.00    -0.387 OA
ATOM     12  H   UNL     1      24.649  17.617  32.939  1.00  0.00     0.211 HD
ENDBRANCH   4  11
BRANCH   6  13
ATOM     13  O   UNL     1      25.517  15.821  34.410  1.00  0.00    -0.387 OA
ATOM     14  H   UNL     1      25.766  15.918  35.366  1.00  0.00     0.211 HD
ENDBRANCH   6  13
BRANCH   7  15
ATOM     15  O   UNL     1      24.283  13.604  35.751  1.00  0.00    -0.385 OA
ATOM     16  H   UNL     1      24.197  13.311  36.696  1.00  0.00     0.211 HD
ENDBRANCH   7  15
ENDBRANCH   1   2
BRANCH   1  17
ATOM     17  C   UNL     1      20.815  12.813  35.130  1.00  0.00     0.224 C 
ATOM     18  C   UNL     1      20.569  11.781  34.007  1.00  0.00     0.208 C 
ATOM     19  O   UNL     1      19.575  13.448  35.347  1.00  0.00    -0.337 OA
ATOM     20  C   UNL     1      19.495  12.443  33.163  1.00  0.00     0.180 C 
ATOM     21  C   UNL     1      18.903  13.504  34.106  1.00  0.00     0.179 C 
BRANCH  17  22
ATOM     22  C   UNL     1      21.258  12.178  36.480  1.00  0.00     0.225 C 
BRANCH  22  23
ATOM     23  O   UNL     1      22.346  11.313  36.291  1.00  0.00    -0.391 OA
ATOM     24  H   UNL     1      22.025  10.406  36.534  1.00  0.00     0.210 HD
ENDBRANCH  22  23
ENDBRANCH  17  22
BRANCH  18  25
ATOM     25  O   UNL     1      20.127  10.537  34.504  1.00  0.00    -0.385 OA
ATOM     26  H   UNL     1      20.359  10.485  35.468  1.00  0.00     0.211 HD
ENDBRANCH  18  25
BRANCH  20  27
ATOM     27  O   UNL     1      20.078  13.054  32.040  1.00  0.00    -0.387 OA
ATOM     28  H   UNL     1      20.117  12.361  31.331  1.00  0.00     0.211 HD
ENDBRANCH  20  27
BRANCH  21  29
ATOM     29  C   UNL     1      17.404  13.289  34.329  1.00  0.00     0.191 C 
BRANCH  29  30
ATOM     30  O   UNL     1      16.686  14.351  33.761  1.00  0.00    -0.394 OA
ATOM     31  H   UNL     1      16.777  14.249  32.779  1.00  0.00     0.210 HD
ENDBRANCH  29  30
ENDBRANCH  21  29
ENDBRANCH   1  17
TORSDOF 13
ENDMDL
MODEL 7
REMARK VINA RESULT:    -5.546      2.781      6.785
REMARK INTER + INTRA:         -10.003
REMARK INTER:                  -8.011
REMARK INTRA:                  -1.992
REMARK UNBOUND:                -1.539
REMARK SMILES OC[C@H]1O[C@@H](O[C@@]2(CO)O[C@H](CO)[C@@H](O)[C@@H]2O)[C@@H](O)[C@H](O)[C@H]1O
REMARK SMILES IDX 6 1 5 2 3 3 22 4 4 5 20 6 18 7 2 8 1 9 23 11 21 13 19 15
REMARK SMILES IDX 7 17 16 18 10 19 14 20 11 21 8 22 9 23 17 25 15 27 12 29
REMARK SMILES IDX 13 30
REMARK H PARENT 1 10 23 12 21 14 19 16 9 24 17 26 15 28 13 31
REMARK Flexibility Score: inf
ROOT
ATOM      1  O   UNL     1      19.028  13.860  34.381  1.00  0.00    -0.313 OA
ENDROOT
BRANCH   1   2
ATOM      2  C   UNL     1      18.059  14.389  35.278  1.00  0.00     0.285 C 
ATOM      3  C   UNL     1      17.980  12.497  36.748  1.00  0.00     0.178 C 
ATOM      4  C   UNL     1      16.590  12.074  36.205  1.00  0.00     0.177 C 
ATOM      5  O   UNL     1      18.257  13.886  36.592  1.00  0.00    -0.341 OA
ATOM      6  C   UNL     1      16.340  12.605  34.788  1.00  0.00     0.179 C 
ATOM      7  C   UNL     1      16.638  14.109  34.759  1.00  0.00     0.202 C 
BRANCH   3   8
ATOM      8  C   UNL     1      19.171  11.593  36.346  1.00  0.00     0.191 C 
BRANCH   8   9
ATOM      9  O   UNL     1      19.086  11.138  35.022  1.00  0.00    -0.394 OA
ATOM     10  H   UNL     1      18.136  10.914  34.848  1.00  0.00     0.210 HD
ENDBRANCH   8   9
ENDBRANCH   3   8
BRANCH   4  11
ATOM     11  O   UNL     1      16.465  10.674  36.235  1.00  0.00    -0.387 OA
ATOM     12  H   UNL     1      15.529  10.471  36.497  1.00  0.00     0.211 HD
ENDBRANCH   4  11
BRANCH   6  13
ATOM     13  O   UNL     1      14.997  12.378  34.444  1.00  0.00    -0.387 OA
ATOM     14  H   UNL     1      14.974  11.560  33.882  1.00  0.00     0.211 HD
ENDBRANCH   6  13
BRANCH   7  15
ATOM     15  O   UNL     1      16.515  14.601  33.449  1.00  0.00    -0.385 OA
ATOM     16  H   UNL     1      15.698  14.192  33.060  1.00  0.00     0.211 HD
ENDBRANCH   7  15
ENDBRANCH   1   2
BRANCH   1  17
ATOM     17  C   UNL     1      20.082  14.759  34.024  1.00  0.00     0.224 C 
ATOM     18  C   UNL     1      20.859  14.222  32.801  1.00  0.00     0.208 C 
ATOM     19  O   UNL     1      21.000  14.752  35.094  1.00  0.00    -0.337 OA
ATOM     20  C   UNL     1      21.839  13.243  33.420  1.00  0.00     0.180 C 
ATOM     21  C   UNL     1      21.871  13.658  34.900  1.00  0.00     0.179 C 
BRANCH  17  22
ATOM     22  C   UNL     1      19.573  16.220  33.852  1.00  0.00     0.225 C 
BRANCH  22  23
ATOM     23  O   UNL     1      18.869  16.365  32.648  1.00  0.00    -0.391 OA
ATOM     24  H   UNL     1      19.361  15.829  31.973  1.00  0.00     0.210 HD
ENDBRANCH  22  23
ENDBRANCH  17  22
BRANCH  18  25
ATOM     25  O   UNL     1      21.537  15.242  32.101  1.00  0.00    -0.385 OA
ATOM     26  H   UNL     1      22.332  14.844  31.659  1.00  0.00     0.211 HD
ENDBRANCH  18  25
BRANCH  20  27
ATOM     27  O   UNL     1      21.352  11.931  33.289  1.00  0.00    -0.387 OA
ATOM     28  H   UNL     1      21.989  11.345  33.776  1.00  0.00     0.211 HD
ENDBRANCH  20  27
BRANCH  21  29
ATOM     29  C   UNL     1      23.283  14.046  35.348  1.00  0.00     0.191 C 
BRANCH  29  30
ATOM     30  O   UNL     1      23.944  14.706  34.302  1.00  0.00    -0.394 OA
ATOM     31  H   UNL     1      24.676  15.225  34.725  1.00  0.00     0.210 HD
ENDBRANCH  29  30
ENDBRANCH  21  29
ENDBRANCH   1  17
TORSDOF 13
ENDMDL
MODEL 8
REMARK VINA RESULT:    -5.494      2.304      3.959
REMARK INTER + INTRA:          -9.923
REMARK INTER:                  -7.995
REMARK INTRA:                  -1.928
REMARK UNBOUND:                -1.539
REMARK SMILES OC[C@H]1O[C@@H](O[C@@]2(CO)O[C@H](CO)[C@@H](O)[C@@H]2O)[C@@H](O)[C@H](O)[C@H]1O
REMARK SMILES IDX 6 1 5 2 3 3 22 4 4 5 20 6 18 7 2 8 1 9 23 11 21 13 19 15
REMARK SMILES IDX 7 17 16 18 10 19 14 20 11 21 8 22 9 23 17 25 15 27 12 29
REMARK SMILES IDX 13 30
REMARK H PARENT 1 10 23 12 21 14 19 16 9 24 17 26 15 28 13 31
REMARK Flexibility Score: inf
ROOT
ATOM      1  O   UNL     1      21.956  13.670  34.882  1.00  0.00    -0.313 OA
ENDROOT
BRANCH   1   2
ATOM      2  C   UNL     1      21.988  13.779  36.300  1.00  0.00     0.285 C 
ATOM      3  C   UNL     1      23.702  15.451  36.410  1.00  0.00     0.178 C 
ATOM      4  C   UNL     1      24.743  14.419  36.915  1.00  0.00     0.177 C 
ATOM      5  O   UNL     1      22.353  15.093  36.698  1.00  0.00    -0.341 OA
ATOM      6  C   UNL     1      24.376  12.986  36.507  1.00  0.00     0.179 C 
ATOM      7  C   UNL     1      22.920  12.712  36.900  1.00  0.00     0.202 C 
BRANCH   3   8
ATOM      8  C   UNL     1      23.897  15.961  34.961  1.00  0.00     0.191 C 
BRANCH   8   9
ATOM      9  O   UNL     1      24.355  14.961  34.090  1.00  0.00    -0.394 OA
ATOM     10  H   UNL     1      24.387  15.354  33.180  1.00  0.00     0.210 HD
ENDBRANCH   8   9
ENDBRANCH   3   8
BRANCH   4  11
ATOM     11  O   UNL     1      26.024  14.752  36.442  1.00  0.00    -0.387 OA
ATOM     12  H   UNL     1      26.380  15.460  37.042  1.00  0.00     0.211 HD
ENDBRANCH   4  11
BRANCH   6  13
ATOM     13  O   UNL     1      25.227  12.088  37.173  1.00  0.00    -0.387 OA
ATOM     14  H   UNL     1      25.945  12.627  37.596  1.00  0.00     0.211 HD
ENDBRANCH   6  13
BRANCH   7  15
ATOM     15  O   UNL     1      22.527  11.442  36.446  1.00  0.00    -0.385 OA
ATOM     16  H   UNL     1      22.763  10.792  37.159  1.00  0.00     0.211 HD
ENDBRANCH   7  15
ENDBRANCH   1   2
BRANCH   1  17
ATOM     17  C   UNL     1      20.648  13.661  34.301  1.00  0.00     0.224 C 
ATOM     18  C   UNL     1      20.733  13.381  32.784  1.00  0.00     0.208 C 
ATOM     19  O   UNL     1      20.144  14.972  34.422  1.00  0.00    -0.337 OA
ATOM     20  C   UNL     1      21.037  14.749  32.199  1.00  0.00     0.180 C 
ATOM     21  C   UNL     1      20.625  15.716  33.322  1.00  0.00     0.179 C 
BRANCH  17  22
ATOM     22  C   UNL     1      19.676  12.713  35.061  1.00  0.00     0.225 C 
BRANCH  22  23
ATOM     23  O   UNL     1      19.964  11.370  34.776  1.00  0.00    -0.391 OA
ATOM     24  H   UNL     1      19.133  10.862  34.963  1.00  0.00     0.210 HD
ENDBRANCH  22  23
ENDBRANCH  17  22
BRANCH  18  25
ATOM     25  O   UNL     1      19.529  12.864  32.262  1.00  0.00    -0.385 OA
ATOM     26  H   UNL     1      18.957  13.626  31.982  1.00  0.00     0.211 HD
ENDBRANCH  18  25
BRANCH  20  27
ATOM     27  O   UNL     1      22.412  14.861  31.934  1.00  0.00    -0.387 OA
ATOM     28  H   UNL     1      22.500  14.986  30.954  1.00  0.00     0.211 HD
ENDBRANCH  20  27
BRANCH  21  29
ATOM     29  C   UNL     1      19.542  16.694  32.856  1.00  0.00     0.191 C 
BRANCH  29  30
ATOM     30  O   UNL     1      19.164  16.387  31.543  1.00  0.00    -0.394 OA
ATOM     31  H   UNL     1      20.008  16.259  31.037  1.00  0.00     0.210 HD
ENDBRANCH  29  30
ENDBRANCH  21  29
ENDBRANCH   1  17
TORSDOF 13
ENDMDL
MODEL 9
REMARK VINA RESULT:    -5.409      2.083      3.384
REMARK INTER + INTRA:          -9.794
REMARK INTER:                  -8.488
REMARK INTRA:                  -1.305
REMARK UNBOUND:                -1.539
REMARK SMILES OC[C@H]1O[C@@H](O[C@@]2(CO)O[C@H](CO)[C@@H](O)[C@@H]2O)[C@@H](O)[C@H](O)[C@H]1O
REMARK SMILES IDX 6 1 5 2 3 3 22 4 4 5 20 6 18 7 2 8 1 9 23 11 21 13 19 15
REMARK SMILES IDX 7 17 16 18 10 19 14 20 11 21 8 22 9 23 17 25 15 27 12 29
REMARK SMILES IDX 13 30
REMARK H PARENT 1 10 23 12 21 14 19 16 9 24 17 26 15 28 13 31
REMARK Flexibility Score: inf
ROOT
ATOM      1  O   UNL     1      20.134  14.783  34.261  1.00  0.00    -0.313 OA
ENDROOT
BRANCH   1   2
ATOM      2  C   UNL     1      20.607  15.219  32.992  1.00  0.00     0.285 C 
ATOM      3  C   UNL     1      22.749  15.987  33.742  1.00  0.00     0.178 C 
ATOM      4  C   UNL     1      22.323  17.470  33.591  1.00  0.00     0.177 C 
ATOM      5  O   UNL     1      22.019  15.092  32.907  1.00  0.00    -0.341 OA
ATOM      6  C   UNL     1      20.801  17.642  33.672  1.00  0.00     0.179 C 
ATOM      7  C   UNL     1      20.135  16.654  32.707  1.00  0.00     0.202 C 
BRANCH   3   8
ATOM      8  C   UNL     1      22.906  15.469  35.193  1.00  0.00     0.191 C 
BRANCH   8   9
ATOM      9  O   UNL     1      23.721  14.330  35.279  1.00  0.00    -0.394 OA
ATOM     10  H   UNL     1      23.757  14.065  36.234  1.00  0.00     0.210 HD
ENDBRANCH   8   9
ENDBRANCH   3   8
BRANCH   4  11
ATOM     11  O   UNL     1      22.960  18.258  34.565  1.00  0.00    -0.387 OA
ATOM     12  H   UNL     1      23.069  17.690  35.372  1.00  0.00     0.211 HD
ENDBRANCH   4  11
BRANCH   6  13
ATOM     13  O   UNL     1      20.468  18.959  33.311  1.00  0.00    -0.387 OA
ATOM     14  H   UNL     1      19.849  18.902  32.537  1.00  0.00     0.211 HD
ENDBRANCH   6  13
BRANCH   7  15
ATOM     15  O   UNL     1      18.737  16.720  32.836  1.00  0.00    -0.385 OA
ATOM     16  H   UNL     1      18.351  16.160  32.113  1.00  0.00     0.211 HD
ENDBRANCH   7  15
ENDBRANCH   1   2
BRANCH   1  17
ATOM     17  C   UNL     1      19.713  13.417  34.318  1.00  0.00     0.224 C 
ATOM     18  C   UNL     1      18.534  13.174  33.349  1.00  0.00     0.208 C 
ATOM     19  O   UNL     1      19.194  13.209  35.612  1.00  0.00    -0.337 OA
ATOM     20  C   UNL     1      17.330  13.631  34.152  1.00  0.00     0.180 C 
ATOM     21  C   UNL     1      17.843  13.622  35.601  1.00  0.00     0.179 C 
BRANCH  17  22
ATOM     22  C   UNL     1      20.899  12.429  34.124  1.00  0.00     0.225 C 
BRANCH  22  23
ATOM     23  O   UNL     1      21.582  12.226  35.332  1.00  0.00    -0.391 OA
ATOM     24  H   UNL     1      21.718  13.126  35.728  1.00  0.00     0.210 HD
ENDBRANCH  22  23
ENDBRANCH  17  22
BRANCH  18  25
ATOM     25  O   UNL     1      18.411  11.819  32.977  1.00  0.00    -0.385 OA
ATOM     26  H   UNL     1      18.023  11.319  33.743  1.00  0.00     0.211 HD
ENDBRANCH  18  25
BRANCH  20  27
ATOM     27  O   UNL     1      16.964  14.932  33.769  1.00  0.00    -0.387 OA
ATOM     28  H   UNL     1      17.272  15.046  32.832  1.00  0.00     0.211 HD
ENDBRANCH  20  27
BRANCH  21  29
ATOM     29  C   UNL     1      17.017  12.686  36.488  1.00  0.00     0.191 C 
BRANCH  29  30
ATOM     30  O   UNL     1      15.672  13.080  36.464  1.00  0.00    -0.394 OA
ATOM     31  H   UNL     1      15.165  12.300  36.118  1.00  0.00     0.210 HD
ENDBRANCH  29  30
ENDBRANCH  21  29
ENDBRANCH   1  17
TORSDOF 13
ENDMDL
