MODEL 1
REMARK VINA RESULT:    28.982      0.000      0.000
REMARK INTER + INTRA:          34.568
REMARK INTER:                  34.912
REMARK INTRA:                  -0.343
REMARK UNBOUND:                -0.343
REMARK SMILES COc1ccc([C@H]2CC(=O)c3c(O)cc(O)cc3O2)cc1O
REMARK SMILES IDX 7 1 8 2 9 3 10 4 11 5 12 6 14 7 15 8 17 9 18 10 19 11 6 12
REMARK SMILES IDX 3 13 21 14 4 15 20 16 5 17 2 18 1 19 22 20 13 22 16 24
REMARK H PARENT 22 21 13 23 16 25
REMARK Flexibility Score: inf
ROOT
ATOM      1  C   UNL     1      20.424 -13.089 -16.178  1.00  0.00     0.211 C 
ATOM      2  C   UNL     1      19.975 -12.934 -17.638  1.00  0.00     0.131 C 
ATOM      3  C   UNL     1      21.185 -12.773 -18.509  1.00  0.00     0.174 C 
ATOM      4  O   UNL     1      21.275 -13.445 -19.570  1.00  0.00    -0.294 OA
ATOM      5  C   UNL     1      22.274 -11.871 -18.059  1.00  0.00     0.102 A 
ATOM      6  C   UNL     1      23.266 -11.330 -18.919  1.00  0.00     0.133 A 
ATOM      7  C   UNL     1      24.291 -10.542 -18.379  1.00  0.00     0.093 A 
ATOM      8  C   UNL     1      24.314 -10.235 -17.015  1.00  0.00     0.123 A 
ATOM      9  C   UNL     1      23.314 -10.726 -16.176  1.00  0.00     0.093 A 
ATOM     10  C   UNL     1      22.306 -11.548 -16.685  1.00  0.00     0.138 A 
ATOM     11  O   UNL     1      21.325 -12.039 -15.813  1.00  0.00    -0.484 OA
ENDROOT
BRANCH   1  12
ATOM     12  C   UNL     1      19.233 -13.094 -15.250  1.00  0.00    -0.003 A 
ATOM     13  C   UNL     1      16.963 -13.114 -13.575  1.00  0.00     0.160 A 
ATOM     14  C   UNL     1      17.497 -11.896 -14.033  1.00  0.00     0.158 A 
ATOM     15  C   UNL     1      17.570 -14.321 -13.971  1.00  0.00     0.051 A 
ATOM     16  C   UNL     1      18.619 -11.891 -14.868  1.00  0.00     0.057 A 
ATOM     17  C   UNL     1      18.690 -14.309 -14.806  1.00  0.00     0.011 A 
BRANCH  13  18
ATOM     18  O   UNL     1      15.837 -13.089 -12.737  1.00  0.00    -0.493 OA
ATOM     19  C   UNL     1      14.489 -13.087 -13.196  1.00  0.00     0.278 C 
ENDBRANCH  13  18
BRANCH  14  20
ATOM     20  O   UNL     1      16.923 -10.677 -13.671  1.00  0.00    -0.504 OA
ATOM     21  H   UNL     1      15.921 -10.550 -13.608  1.00  0.00     0.293 HD
ENDBRANCH  14  20
ENDBRANCH   1  12
BRANCH   6  22
ATOM     22  O   UNL     1      23.261 -11.516 -20.302  1.00  0.00    -0.507 OA
ATOM     23  H   UNL     1      23.963 -12.038 -20.806  1.00  0.00     0.293 HD
ENDBRANCH   6  22
BRANCH   8  24
ATOM     24  O   UNL     1      25.324  -9.435 -16.484  1.00  0.00    -0.508 OA
ATOM     25  H   UNL     1      26.136  -9.838 -16.032  1.00  0.00     0.293 HD
ENDBRANCH   8  24
TORSDOF 5
ENDMDL
