MODEL 1
REMARK VINA RESULT:    60.806      0.000      0.000
REMARK INTER + INTRA:          81.613
REMARK INTER:                  80.358
REMARK INTRA:                   1.256
REMARK UNBOUND:                 1.256
REMARK SMILES CC[C@@H](C=C[C@H](C)[C@@H]1CC[C@@H]2[C@@H]3CC[C@H]4C[C@H](O)CC[C@]4(C)[C@H]3CC[C@]21C)C(C)C
REMARK SMILES IDX 6 1 7 2 5 3 4 4 3 5 2 6 1 7 28 8 29 9 30 10 8 11 9 12 26 13
REMARK SMILES IDX 10 14 11 15 25 16 27 17 12 18 24 19 23 20 13 21 21 22 14 23
REMARK SMILES IDX 15 24 20 25 22 26 16 27 19 28 17 29 18 30
REMARK H PARENT 18 31
REMARK Flexibility Score: inf
ROOT
ATOM      1  C   UNL     1     -32.941  25.266   7.412  1.00  0.00     0.012 C 
ATOM      2  C   UNL     1     -33.147  23.756   7.618  1.00  0.00     0.012 C 
ENDROOT
BRANCH   1   3
ATOM      3  C   UNL     1     -31.842  25.504   6.400  1.00  0.00    -0.028 C 
ATOM      4  C   UNL     1     -30.708  26.166   6.688  1.00  0.00    -0.027 C 
BRANCH   4   5
ATOM      5  C   UNL     1     -29.641  26.376   5.630  1.00  0.00     0.014 C 
BRANCH   5   6
ATOM      6  C   UNL     1     -28.371  27.010   6.246  1.00  0.00     0.004 C 
ATOM      7  C   UNL     1     -27.420  27.563   5.180  1.00  0.00     0.004 C 
ENDBRANCH   5   6
BRANCH   5   8
ATOM      8  C   UNL     1     -30.217  27.189   4.429  1.00  0.00    -0.011 C 
ATOM      9  C   UNL     1     -30.223  28.707   4.670  1.00  0.00     0.008 C 
ATOM     10  C   UNL     1     -29.498  26.860   3.111  1.00  0.00     0.008 C 
ENDBRANCH   5   8
ENDBRANCH   4   5
ENDBRANCH   1   3
BRANCH   1  11
ATOM     11  C   UNL     1     -34.282  25.995   7.039  1.00  0.00     0.002 C 
ATOM     12  C   UNL     1     -34.604  27.289   7.835  1.00  0.00     0.005 C 
ATOM     13  C   UNL     1     -35.592  25.160   7.188  1.00  0.00    -0.026 C 
ATOM     14  C   UNL     1     -36.140  27.435   7.834  1.00  0.00     0.005 C 
ATOM     15  C   UNL     1     -36.634  26.272   6.979  1.00  0.00    -0.001 C 
ATOM     16  C   UNL     1     -35.800  24.080   6.078  1.00  0.00     0.007 C 
ATOM     17  C   UNL     1     -35.675  24.536   8.631  1.00  0.00     0.012 C 
ATOM     18  C   UNL     1     -38.132  25.823   7.022  1.00  0.00    -0.004 C 
ATOM     19  C   UNL     1     -37.288  23.791   5.724  1.00  0.00     0.005 C 
ATOM     20  C   UNL     1     -38.281  24.275   6.817  1.00  0.00    -0.001 C 
ATOM     21  C   UNL     1     -38.952  26.304   8.237  1.00  0.00     0.004 C 
ATOM     22  C   UNL     1     -39.786  23.844   6.640  1.00  0.00    -0.026 C 
ATOM     23  C   UNL     1     -40.427  25.890   8.098  1.00  0.00     0.004 C 
ATOM     24  C   UNL     1     -40.557  24.364   7.903  1.00  0.00    -0.002 C 
ATOM     25  C   UNL     1     -39.903  22.286   6.630  1.00  0.00     0.010 C 
ATOM     26  C   UNL     1     -40.377  24.396   5.307  1.00  0.00     0.012 C 
ATOM     27  C   UNL     1     -42.029  23.901   7.940  1.00  0.00     0.036 C 
ATOM     28  C   UNL     1     -41.357  21.775   6.724  1.00  0.00     0.032 C 
ATOM     29  C   UNL     1     -42.120  22.366   7.920  1.00  0.00     0.114 C 
BRANCH  29  30
ATOM     30  O   UNL     1     -41.614  21.848   9.125  1.00  0.00    -0.393 OA
ATOM     31  H   UNL     1     -40.859  22.436   9.394  1.00  0.00     0.210 HD
ENDBRANCH  29  30
ENDBRANCH   1  11
TORSDOF 6
ENDMDL
MODEL 2
REMARK VINA RESULT:    61.795      1.727      2.879
REMARK INTER + INTRA:          82.920
REMARK INTER:                  83.428
REMARK INTRA:                  -0.508
REMARK UNBOUND:                 1.256
REMARK SMILES CC[C@@H](C=C[C@H](C)[C@@H]1CC[C@@H]2[C@@H]3CC[C@H]4C[C@H](O)CC[C@]4(C)[C@H]3CC[C@]21C)C(C)C
REMARK SMILES IDX 6 1 7 2 5 3 4 4 3 5 2 6 1 7 28 8 29 9 30 10 8 11 9 12 26 13
REMARK SMILES IDX 10 14 11 15 25 16 27 17 12 18 24 19 23 20 13 21 21 22 14 23
REMARK SMILES IDX 15 24 20 25 22 26 16 27 19 28 17 29 18 30
REMARK H PARENT 18 31
REMARK Flexibility Score: inf
ROOT
ATOM      1  C   UNL     1     -32.550  25.930   7.160  1.00  0.00     0.012 C 
ATOM      2  C   UNL     1     -32.111  25.916   8.634  1.00  0.00     0.012 C 
ENDROOT
BRANCH   1   3
ATOM      3  C   UNL     1     -31.334  25.955   6.260  1.00  0.00    -0.028 C 
ATOM      4  C   UNL     1     -30.575  27.049   6.079  1.00  0.00    -0.027 C 
BRANCH   4   5
ATOM      5  C   UNL     1     -29.368  27.013   5.161  1.00  0.00     0.014 C 
BRANCH   5   6
ATOM      6  C   UNL     1     -28.342  28.103   5.555  1.00  0.00     0.004 C 
ATOM      7  C   UNL     1     -26.910  27.724   5.167  1.00  0.00     0.004 C 
ENDBRANCH   5   6
BRANCH   5   8
ATOM      8  C   UNL     1     -29.815  27.097   3.668  1.00  0.00    -0.011 C 
ATOM      9  C   UNL     1     -30.713  28.310   3.371  1.00  0.00     0.008 C 
ATOM     10  C   UNL     1     -28.620  27.069   2.704  1.00  0.00     0.008 C 
ENDBRANCH   5   8
ENDBRANCH   4   5
ENDBRANCH   1   3
BRANCH   1  11
ATOM     11  C   UNL     1     -33.532  24.749   6.829  1.00  0.00     0.002 C 
ATOM     12  C   UNL     1     -33.318  24.042   5.463  1.00  0.00     0.005 C 
ATOM     13  C   UNL     1     -35.053  25.094   6.808  1.00  0.00    -0.026 C 
ATOM     14  C   UNL     1     -34.686  23.461   5.049  1.00  0.00     0.005 C 
ATOM     15  C   UNL     1     -35.608  23.786   6.221  1.00  0.00    -0.001 C 
ATOM     16  C   UNL     1     -35.687  25.306   8.219  1.00  0.00     0.007 C 
ATOM     17  C   UNL     1     -35.316  26.325   5.862  1.00  0.00     0.012 C 
ATOM     18  C   UNL     1     -37.163  23.712   6.063  1.00  0.00    -0.004 C 
ATOM     19  C   UNL     1     -37.187  24.899   8.326  1.00  0.00     0.005 C 
ATOM     20  C   UNL     1     -37.889  24.789   6.944  1.00  0.00    -0.001 C 
ATOM     21  C   UNL     1     -37.701  23.721   4.618  1.00  0.00     0.004 C 
ATOM     22  C   UNL     1     -39.450  24.583   6.963  1.00  0.00    -0.026 C 
ATOM     23  C   UNL     1     -39.228  23.530   4.604  1.00  0.00     0.004 C 
ATOM     24  C   UNL     1     -39.928  24.601   5.468  1.00  0.00    -0.002 C 
ATOM     25  C   UNL     1     -40.144  25.780   7.689  1.00  0.00     0.010 C 
ATOM     26  C   UNL     1     -39.835  23.263   7.700  1.00  0.00     0.012 C 
ATOM     27  C   UNL     1     -41.463  24.542   5.329  1.00  0.00     0.036 C 
ATOM     28  C   UNL     1     -41.679  25.795   7.528  1.00  0.00     0.032 C 
ATOM     29  C   UNL     1     -42.124  25.724   6.058  1.00  0.00     0.114 C 
BRANCH  29  30
ATOM     30  O   UNL     1     -41.809  26.923   5.395  1.00  0.00    -0.393 OA
ATOM     31  H   UNL     1     -42.671  27.383   5.211  1.00  0.00     0.210 HD
ENDBRANCH  29  30
ENDBRANCH   1  11
TORSDOF 6
ENDMDL
