MODEL 1
REMARK VINA RESULT:    -5.846      0.000      0.000
REMARK INTER + INTRA:          -6.459
REMARK INTER:                  -6.359
REMARK INTRA:                  -0.101
REMARK UNBOUND:                -0.101
REMARK SMILES CC1(C)CC[C@]2(C(=O)[O-])CC[C@@]3(C)C(=CC[C@@H]4[C@@]5(C)CC[C@H](O)C(C)(C)[C@@H]5CC[C@@]43C)[C@@H]2C1
REMARK SMILES IDX 6 1 5 2 10 3 32 4 4 5 11 6 14 7 33 8 2 9 12 10 15 11 1 12
REMARK SMILES IDX 3 13 13 14 30 15 16 16 17 17 29 18 31 19 18 20 28 21 27 22
REMARK SMILES IDX 20 23 19 24 24 25 21 26 22 27 25 28 26 29 7 30 8 31 9 32
REMARK SMILES IDX 23 33
REMARK H PARENT 23 34
REMARK Flexibility Score: inf
ROOT
ATOM      1  C   UNL     1      16.895   5.063 141.139  1.00  0.00     0.017 C 
ATOM      2  C   UNL     1      15.797   6.021 140.557  1.00  0.00     0.014 C 
ATOM      3  C   UNL     1      17.605   4.360 139.960  1.00  0.00     0.014 C 
ATOM      4  C   UNL     1      16.233   4.017 142.143  1.00  0.00     0.028 C 
ATOM      5  C   UNL     1      14.606   5.318 139.876  1.00  0.00     0.007 C 
ATOM      6  C   UNL     1      18.327   3.016 140.185  1.00  0.00     0.013 C 
ATOM      7  C   UNL     1      16.772   2.562 142.097  1.00  0.00    -0.064 C 
ATOM      8  C   UNL     1      14.667   4.063 142.091  1.00  0.00     0.015 C 
ATOM      9  C   UNL     1      14.045   4.093 140.662  1.00  0.00    -0.035 C 
ATOM     10  C   UNL     1      18.154   2.204 141.525  1.00  0.00    -0.006 C 
ATOM     11  C   UNL     1      16.222   1.693 142.959  1.00  0.00    -0.027 C 
ATOM     12  C   UNL     1      14.300   2.757 139.901  1.00  0.00     0.011 C 
ATOM     13  C   UNL     1      12.513   4.250 140.815  1.00  0.00     0.011 C 
ATOM     14  C   UNL     1      19.169   2.837 142.523  1.00  0.00     0.017 C 
ATOM     15  C   UNL     1      18.451   0.563 141.365  1.00  0.00    -0.020 C 
ATOM     16  C   UNL     1      16.026   0.290 142.552  1.00  0.00     0.032 C 
ATOM     17  C   UNL     1      17.204  -0.384 141.779  1.00  0.00     0.006 C 
ATOM     18  C   UNL     1      19.685   0.044 142.199  1.00  0.00     0.008 C 
ATOM     19  C   UNL     1      18.856   0.254 139.875  1.00  0.00     0.012 C 
ATOM     20  C   UNL     1      17.519  -1.812 142.443  1.00  0.00    -0.025 C 
ATOM     21  C   UNL     1      20.022  -1.469 142.067  1.00  0.00     0.005 C 
ATOM     22  C   UNL     1      18.805  -2.412 141.825  1.00  0.00     0.003 C 
ATOM     23  C   UNL     1      16.341  -2.769 142.068  1.00  0.00     0.010 C 
ATOM     24  C   UNL     1      17.671  -1.713 144.001  1.00  0.00     0.012 C 
ATOM     25  C   UNL     1      19.051  -3.981 142.043  1.00  0.00    -0.006 C 
ATOM     26  C   UNL     1      16.477  -4.223 142.532  1.00  0.00     0.033 C 
ATOM     27  C   UNL     1      17.909  -4.684 142.869  1.00  0.00     0.120 C 
ATOM     28  C   UNL     1      20.405  -4.290 142.740  1.00  0.00     0.014 C 
ATOM     29  C   UNL     1      19.140  -4.665 140.655  1.00  0.00     0.014 C 
ENDROOT
BRANCH   1  30
ATOM     30  C   UNL     1      17.887   5.998 141.843  1.00  0.00     0.048 C 
ATOM     31  O   UNL     1      19.101   6.008 141.489  1.00  0.00    -0.550 OA
ATOM     32  O   UNL     1      17.474   6.930 142.795  1.00  0.00    -0.550 OA
ENDBRANCH   1  30
BRANCH  27  33
ATOM     33  O   UNL     1      18.136  -4.565 144.257  1.00  0.00    -0.393 OA
ATOM     34  H   UNL     1      17.597  -5.265 144.710  1.00  0.00     0.210 HD
ENDBRANCH  27  33
TORSDOF 2
ENDMDL
MODEL 2
REMARK VINA RESULT:    -5.497      1.720      3.837
REMARK INTER + INTRA:          -6.080
REMARK INTER:                  -6.588
REMARK INTRA:                   0.509
REMARK UNBOUND:                -0.101
REMARK SMILES CC1(C)CC[C@]2(C(=O)[O-])CC[C@@]3(C)C(=CC[C@@H]4[C@@]5(C)CC[C@H](O)C(C)(C)[C@@H]5CC[C@@]43C)[C@@H]2C1
REMARK SMILES IDX 6 1 5 2 10 3 32 4 4 5 11 6 14 7 33 8 2 9 12 10 15 11 1 12
REMARK SMILES IDX 3 13 13 14 30 15 16 16 17 17 29 18 31 19 18 20 28 21 27 22
REMARK SMILES IDX 20 23 19 24 24 25 21 26 22 27 25 28 26 29 7 30 8 31 9 32
REMARK SMILES IDX 23 33
REMARK H PARENT 23 34
REMARK Flexibility Score: inf
ROOT
ATOM      1  C   UNL     1      16.798   5.256 141.109  1.00  0.00     0.017 C 
ATOM      2  C   UNL     1      17.462   6.646 141.409  1.00  0.00     0.014 C 
ATOM      3  C   UNL     1      16.341   4.635 142.449  1.00  0.00     0.014 C 
ATOM      4  C   UNL     1      17.826   4.314 140.336  1.00  0.00     0.028 C 
ATOM      5  C   UNL     1      18.800   6.584 142.174  1.00  0.00     0.007 C 
ATOM      6  C   UNL     1      16.152   3.108 142.565  1.00  0.00     0.013 C 
ATOM      7  C   UNL     1      17.836   2.813 140.734  1.00  0.00    -0.064 C 
ATOM      8  C   UNL     1      19.270   4.922 140.303  1.00  0.00     0.015 C 
ATOM      9  C   UNL     1      19.787   5.492 141.658  1.00  0.00    -0.035 C 
ATOM     10  C   UNL     1      16.651   2.129 141.436  1.00  0.00    -0.006 C 
ATOM     11  C   UNL     1      18.691   2.024 140.064  1.00  0.00    -0.027 C 
ATOM     12  C   UNL     1      19.995   4.362 142.711  1.00  0.00     0.011 C 
ATOM     13  C   UNL     1      21.168   6.142 141.403  1.00  0.00     0.011 C 
ATOM     14  C   UNL     1      15.515   2.119 140.369  1.00  0.00     0.017 C 
ATOM     15  C   UNL     1      16.950   0.571 141.974  1.00  0.00    -0.020 C 
ATOM     16  C   UNL     1      19.357   0.912 140.767  1.00  0.00     0.032 C 
ATOM     17  C   UNL     1      18.466   0.059 141.726  1.00  0.00     0.006 C 
ATOM     18  C   UNL     1      16.012  -0.526 141.337  1.00  0.00     0.008 C 
ATOM     19  C   UNL     1      16.626   0.485 143.512  1.00  0.00     0.012 C 
ATOM     20  C   UNL     1      18.703  -1.498 141.415  1.00  0.00    -0.025 C 
ATOM     21  C   UNL     1      16.230  -1.987 141.822  1.00  0.00     0.005 C 
ATOM     22  C   UNL     1      17.692  -2.358 142.211  1.00  0.00     0.003 C 
ATOM     23  C   UNL     1      20.130  -1.865 141.940  1.00  0.00     0.010 C 
ATOM     24  C   UNL     1      18.584  -1.816 139.884  1.00  0.00     0.012 C 
ATOM     25  C   UNL     1      18.028  -3.919 142.363  1.00  0.00    -0.006 C 
ATOM     26  C   UNL     1      20.536  -3.339 141.822  1.00  0.00     0.033 C 
ATOM     27  C   UNL     1      19.374  -4.340 141.664  1.00  0.00     0.120 C 
ATOM     28  C   UNL     1      16.898  -4.835 141.818  1.00  0.00     0.014 C 
ATOM     29  C   UNL     1      18.135  -4.256 143.872  1.00  0.00     0.014 C 
ENDROOT
BRANCH   1  30
ATOM     30  C   UNL     1      15.566   5.595 140.261  1.00  0.00     0.048 C 
ATOM     31  O   UNL     1      14.764   4.677 139.923  1.00  0.00    -0.550 OA
ATOM     32  O   UNL     1      15.232   6.910 139.937  1.00  0.00    -0.550 OA
ENDBRANCH   1  30
BRANCH  27  33
ATOM     33  O   UNL     1      19.171  -4.626 140.297  1.00  0.00    -0.393 OA
ATOM     34  H   UNL     1      19.393  -3.807 139.783  1.00  0.00     0.210 HD
ENDBRANCH  27  33
TORSDOF 2
ENDMDL
MODEL 3
REMARK VINA RESULT:    -5.026      2.149      3.878
REMARK INTER + INTRA:          -5.568
REMARK INTER:                  -5.737
REMARK INTRA:                   0.169
REMARK UNBOUND:                -0.101
REMARK SMILES CC1(C)CC[C@]2(C(=O)[O-])CC[C@@]3(C)C(=CC[C@@H]4[C@@]5(C)CC[C@H](O)C(C)(C)[C@@H]5CC[C@@]43C)[C@@H]2C1
REMARK SMILES IDX 6 1 5 2 10 3 32 4 4 5 11 6 14 7 33 8 2 9 12 10 15 11 1 12
REMARK SMILES IDX 3 13 13 14 30 15 16 16 17 17 29 18 31 19 18 20 28 21 27 22
REMARK SMILES IDX 20 23 19 24 24 25 21 26 22 27 25 28 26 29 7 30 8 31 9 32
REMARK SMILES IDX 23 33
REMARK H PARENT 23 34
REMARK Flexibility Score: inf
ROOT
ATOM      1  C   UNL     1      14.502   5.469 141.664  1.00  0.00     0.017 C 
ATOM      2  C   UNL     1      14.807   7.008 141.631  1.00  0.00     0.014 C 
ATOM      3  C   UNL     1      14.832   4.937 143.077  1.00  0.00     0.014 C 
ATOM      4  C   UNL     1      15.343   4.720 140.535  1.00  0.00     0.028 C 
ATOM      5  C   UNL     1      16.298   7.386 141.745  1.00  0.00     0.007 C 
ATOM      6  C   UNL     1      15.148   3.441 143.282  1.00  0.00     0.013 C 
ATOM      7  C   UNL     1      15.941   3.337 140.908  1.00  0.00    -0.064 C 
ATOM      8  C   UNL     1      16.409   5.661 139.875  1.00  0.00     0.015 C 
ATOM      9  C   UNL     1      17.251   6.518 140.868  1.00  0.00    -0.035 C 
ATOM     10  C   UNL     1      15.395   2.477 142.060  1.00  0.00    -0.006 C 
ATOM     11  C   UNL     1      16.630   2.706 139.945  1.00  0.00    -0.027 C 
ATOM     12  C   UNL     1      18.184   5.627 141.742  1.00  0.00     0.011 C 
ATOM     13  C   UNL     1      18.159   7.454 140.033  1.00  0.00     0.011 C 
ATOM     14  C   UNL     1      13.976   2.041 141.588  1.00  0.00     0.017 C 
ATOM     15  C   UNL     1      16.317   1.130 142.436  1.00  0.00    -0.020 C 
ATOM     16  C   UNL     1      17.811   1.899 140.305  1.00  0.00     0.032 C 
ATOM     17  C   UNL     1      17.674   0.986 141.565  1.00  0.00     0.006 C 
ATOM     18  C   UNL     1      15.554  -0.242 142.280  1.00  0.00     0.008 C 
ATOM     19  C   UNL     1      16.692   1.171 143.965  1.00  0.00     0.012 C 
ATOM     20  C   UNL     1      18.194  -0.489 141.202  1.00  0.00    -0.025 C 
ATOM     21  C   UNL     1      16.355  -1.524 142.641  1.00  0.00     0.005 C 
ATOM     22  C   UNL     1      17.887  -1.462 142.367  1.00  0.00     0.003 C 
ATOM     23  C   UNL     1      19.749  -0.414 141.064  1.00  0.00     0.010 C 
ATOM     24  C   UNL     1      17.552  -1.027 139.875  1.00  0.00     0.012 C 
ATOM     25  C   UNL     1      18.683  -2.853 142.378  1.00  0.00    -0.006 C 
ATOM     26  C   UNL     1      20.471  -1.741 140.801  1.00  0.00     0.033 C 
ATOM     27  C   UNL     1      19.683  -3.013 141.172  1.00  0.00     0.120 C 
ATOM     28  C   UNL     1      17.741  -4.088 142.384  1.00  0.00     0.014 C 
ATOM     29  C   UNL     1      19.492  -2.950 143.698  1.00  0.00     0.014 C 
ENDROOT
BRANCH   1  30
ATOM     30  C   UNL     1      12.990   5.372 141.426  1.00  0.00     0.048 C 
ATOM     31  O   UNL     1      12.520   4.412 140.749  1.00  0.00    -0.550 OA
ATOM     32  O   UNL     1      12.090   6.253 142.028  1.00  0.00    -0.550 OA
ENDBRANCH   1  30
BRANCH  27  33
ATOM     33  O   UNL     1      19.027  -3.520 140.030  1.00  0.00    -0.393 OA
ATOM     34  H   UNL     1      18.812  -2.750 139.441  1.00  0.00     0.210 HD
ENDBRANCH  27  33
TORSDOF 2
ENDMDL
MODEL 4
REMARK VINA RESULT:    -4.679      5.896      8.841
REMARK INTER + INTRA:          -5.190
REMARK INTER:                  -5.299
REMARK INTRA:                   0.108
REMARK UNBOUND:                -0.101
REMARK SMILES CC1(C)CC[C@]2(C(=O)[O-])CC[C@@]3(C)C(=CC[C@@H]4[C@@]5(C)CC[C@H](O)C(C)(C)[C@@H]5CC[C@@]43C)[C@@H]2C1
REMARK SMILES IDX 6 1 5 2 10 3 32 4 4 5 11 6 14 7 33 8 2 9 12 10 15 11 1 12
REMARK SMILES IDX 3 13 13 14 30 15 16 16 17 17 29 18 31 19 18 20 28 21 27 22
REMARK SMILES IDX 20 23 19 24 24 25 21 26 22 27 25 28 26 29 7 30 8 31 9 32
REMARK SMILES IDX 23 33
REMARK H PARENT 23 34
REMARK Flexibility Score: inf
ROOT
ATOM      1  C   UNL     1       7.686  -2.650 141.528  1.00  0.00     0.017 C 
ATOM      2  C   UNL     1       6.196  -2.257 141.823  1.00  0.00     0.014 C 
ATOM      3  C   UNL     1       8.416  -2.845 142.876  1.00  0.00     0.014 C 
ATOM      4  C   UNL     1       8.381  -1.529 140.632  1.00  0.00     0.028 C 
ATOM      5  C   UNL     1       5.997  -0.870 142.467  1.00  0.00     0.007 C 
ATOM      6  C   UNL     1       9.951  -2.709 142.948  1.00  0.00     0.013 C 
ATOM      7  C   UNL     1       9.855  -1.176 140.968  1.00  0.00    -0.064 C 
ATOM      8  C   UNL     1       7.488  -0.247 140.498  1.00  0.00     0.015 C 
ATOM      9  C   UNL     1       6.851   0.266 141.825  1.00  0.00    -0.035 C 
ATOM     10  C   UNL     1      10.783  -2.128 141.742  1.00  0.00    -0.006 C 
ATOM     11  C   UNL     1      10.437  -0.246 140.196  1.00  0.00    -0.027 C 
ATOM     12  C   UNL     1       7.936   0.796 142.811  1.00  0.00     0.011 C 
ATOM     13  C   UNL     1       5.925   1.456 141.476  1.00  0.00     0.011 C 
ATOM     14  C   UNL     1      11.005  -3.331 140.779  1.00  0.00     0.017 C 
ATOM     15  C   UNL     1      12.256  -1.469 142.192  1.00  0.00    -0.020 C 
ATOM     16  C   UNL     1      11.403   0.695 140.795  1.00  0.00     0.032 C 
ATOM     17  C   UNL     1      12.440   0.089 141.793  1.00  0.00     0.006 C 
ATOM     18  C   UNL     1      13.510  -2.220 141.595  1.00  0.00     0.008 C 
ATOM     19  C   UNL     1      12.439  -1.625 143.747  1.00  0.00     0.012 C 
ATOM     20  C   UNL     1      13.909   0.608 141.402  1.00  0.00    -0.025 C 
ATOM     21  C   UNL     1      14.905  -1.666 142.001  1.00  0.00     0.005 C 
ATOM     22  C   UNL     1      14.975  -0.129 142.248  1.00  0.00     0.003 C 
ATOM     23  C   UNL     1      13.985   2.122 141.786  1.00  0.00     0.010 C 
ATOM     24  C   UNL     1      14.212   0.414 139.875  1.00  0.00     0.012 C 
ATOM     25  C   UNL     1      16.435   0.529 142.309  1.00  0.00    -0.006 C 
ATOM     26  C   UNL     1      15.340   2.806 141.576  1.00  0.00     0.033 C 
ATOM     27  C   UNL     1      16.555   1.863 141.480  1.00  0.00     0.120 C 
ATOM     28  C   UNL     1      17.554  -0.436 141.828  1.00  0.00     0.014 C 
ATOM     29  C   UNL     1      16.775   0.843 143.789  1.00  0.00     0.014 C 
ENDROOT
BRANCH   1  30
ATOM     30  C   UNL     1       7.592  -3.999 140.803  1.00  0.00     0.048 C 
ATOM     31  O   UNL     1       8.396  -4.929 141.098  1.00  0.00    -0.550 OA
ATOM     32  O   UNL     1       6.567  -4.280 139.898  1.00  0.00    -0.550 OA
ENDBRANCH   1  30
BRANCH  27  33
ATOM     33  O   UNL     1      16.849   1.596 140.126  1.00  0.00    -0.393 OA
ATOM     34  H   UNL     1      15.996   1.639 139.620  1.00  0.00     0.210 HD
ENDBRANCH  27  33
TORSDOF 2
ENDMDL
MODEL 5
REMARK VINA RESULT:    -4.451      1.561      8.376
REMARK INTER + INTRA:          -4.942
REMARK INTER:                  -5.012
REMARK INTRA:                   0.070
REMARK UNBOUND:                -0.101
REMARK SMILES CC1(C)CC[C@]2(C(=O)[O-])CC[C@@]3(C)C(=CC[C@@H]4[C@@]5(C)CC[C@H](O)C(C)(C)[C@@H]5CC[C@@]43C)[C@@H]2C1
REMARK SMILES IDX 6 1 5 2 10 3 32 4 4 5 11 6 14 7 33 8 2 9 12 10 15 11 1 12
REMARK SMILES IDX 3 13 13 14 30 15 16 16 17 17 29 18 31 19 18 20 28 21 27 22
REMARK SMILES IDX 20 23 19 24 24 25 21 26 22 27 25 28 26 29 7 30 8 31 9 32
REMARK SMILES IDX 23 33
REMARK H PARENT 23 34
REMARK Flexibility Score: inf
ROOT
ATOM      1  C   UNL     1      18.174  -4.592 142.891  1.00  0.00     0.017 C 
ATOM      2  C   UNL     1      18.754  -5.919 142.286  1.00  0.00     0.014 C 
ATOM      3  C   UNL     1      17.024  -4.102 141.982  1.00  0.00     0.014 C 
ATOM      4  C   UNL     1      19.329  -3.502 143.028  1.00  0.00     0.028 C 
ATOM      5  C   UNL     1      19.492  -5.760 140.942  1.00  0.00     0.007 C 
ATOM      6  C   UNL     1      16.619  -2.614 141.986  1.00  0.00     0.013 C 
ATOM      7  C   UNL     1      18.953  -2.035 142.689  1.00  0.00    -0.064 C 
ATOM      8  C   UNL     1      20.648  -3.950 142.310  1.00  0.00     0.015 C 
ATOM      9  C   UNL     1      20.463  -4.542 140.880  1.00  0.00    -0.035 C 
ATOM     10  C   UNL     1      17.503  -1.523 142.701  1.00  0.00    -0.006 C 
ATOM     11  C   UNL     1      19.927  -1.121 142.826  1.00  0.00    -0.027 C 
ATOM     12  C   UNL     1      19.964  -3.460 139.875  1.00  0.00     0.011 C 
ATOM     13  C   UNL     1      21.847  -5.025 140.384  1.00  0.00     0.011 C 
ATOM     14  C   UNL     1      17.082  -1.570 144.200  1.00  0.00     0.017 C 
ATOM     15  C   UNL     1      17.293   0.024 142.092  1.00  0.00    -0.020 C 
ATOM     16  C   UNL     1      19.998   0.012 141.885  1.00  0.00     0.032 C 
ATOM     17  C   UNL     1      18.647   0.708 141.526  1.00  0.00     0.006 C 
ATOM     18  C   UNL     1      16.688   1.051 143.126  1.00  0.00     0.008 C 
ATOM     19  C   UNL     1      16.219  -0.016 140.941  1.00  0.00     0.012 C 
ATOM     20  C   UNL     1      18.819   2.297 141.676  1.00  0.00    -0.025 C 
ATOM     21  C   UNL     1      16.448   2.496 142.605  1.00  0.00     0.005 C 
ATOM     22  C   UNL     1      17.447   2.996 141.519  1.00  0.00     0.003 C 
ATOM     23  C   UNL     1      19.719   2.782 140.494  1.00  0.00     0.010 C 
ATOM     24  C   UNL     1      19.463   2.689 143.051  1.00  0.00     0.012 C 
ATOM     25  C   UNL     1      17.466   4.572 141.223  1.00  0.00    -0.006 C 
ATOM     26  C   UNL     1      19.946   4.294 140.392  1.00  0.00     0.033 C 
ATOM     27  C   UNL     1      18.918   5.174 141.129  1.00  0.00     0.120 C 
ATOM     28  C   UNL     1      16.674   5.395 142.276  1.00  0.00     0.014 C 
ATOM     29  C   UNL     1      16.744   4.830 139.875  1.00  0.00     0.014 C 
ENDROOT
BRANCH   1  30
ATOM     30  C   UNL     1      17.601  -5.008 144.252  1.00  0.00     0.048 C 
ATOM     31  O   UNL     1      17.028  -6.128 144.377  1.00  0.00    -0.550 OA
ATOM     32  O   UNL     1      17.789  -4.236 145.399  1.00  0.00    -0.550 OA
ENDBRANCH   1  30
BRANCH  27  33
ATOM     33  O   UNL     1      19.410   5.517 142.407  1.00  0.00    -0.393 OA
ATOM     34  H   UNL     1      18.734   6.099 142.842  1.00  0.00     0.210 HD
ENDBRANCH  27  33
TORSDOF 2
ENDMDL
MODEL 6
REMARK VINA RESULT:    -4.239      1.620      2.652
REMARK INTER + INTRA:          -4.712
REMARK INTER:                  -4.652
REMARK INTRA:                  -0.060
REMARK UNBOUND:                -0.101
REMARK SMILES CC1(C)CC[C@]2(C(=O)[O-])CC[C@@]3(C)C(=CC[C@@H]4[C@@]5(C)CC[C@H](O)C(C)(C)[C@@H]5CC[C@@]43C)[C@@H]2C1
REMARK SMILES IDX 6 1 5 2 10 3 32 4 4 5 11 6 14 7 33 8 2 9 12 10 15 11 1 12
REMARK SMILES IDX 3 13 13 14 30 15 16 16 17 17 29 18 31 19 18 20 28 21 27 22
REMARK SMILES IDX 20 23 19 24 24 25 21 26 22 27 25 28 26 29 7 30 8 31 9 32
REMARK SMILES IDX 23 33
REMARK H PARENT 23 34
REMARK Flexibility Score: inf
ROOT
ATOM      1  C   UNL     1      18.802   2.846 141.251  1.00  0.00     0.017 C 
ATOM      2  C   UNL     1      17.996   4.062 140.675  1.00  0.00     0.014 C 
ATOM      3  C   UNL     1      19.351   2.019 140.066  1.00  0.00     0.014 C 
ATOM      4  C   UNL     1      17.869   1.972 142.204  1.00  0.00     0.028 C 
ATOM      5  C   UNL     1      16.689   3.697 139.943  1.00  0.00     0.007 C 
ATOM      6  C   UNL     1      19.709   0.532 140.264  1.00  0.00     0.013 C 
ATOM      7  C   UNL     1      18.031   0.430 142.122  1.00  0.00    -0.064 C 
ATOM      8  C   UNL     1      16.366   2.409 142.116  1.00  0.00     0.015 C 
ATOM      9  C   UNL     1      15.817   2.631 140.674  1.00  0.00    -0.035 C 
ATOM     10  C   UNL     1      19.298  -0.246 141.572  1.00  0.00    -0.006 C 
ATOM     11  C   UNL     1      17.255  -0.296 142.942  1.00  0.00    -0.027 C 
ATOM     12  C   UNL     1      15.755   1.294 139.875  1.00  0.00     0.011 C 
ATOM     13  C   UNL     1      14.368   3.161 140.795  1.00  0.00     0.011 C 
ATOM     14  C   UNL     1      20.406   0.088 142.615  1.00  0.00     0.017 C 
ATOM     15  C   UNL     1      19.182  -1.904 141.364  1.00  0.00    -0.020 C 
ATOM     16  C   UNL     1      16.729  -1.595 142.483  1.00  0.00     0.032 C 
ATOM     17  C   UNL     1      17.727  -2.521 141.716  1.00  0.00     0.006 C 
ATOM     18  C   UNL     1      20.222  -2.737 142.210  1.00  0.00     0.008 C 
ATOM     19  C   UNL     1      19.544  -2.265 139.875  1.00  0.00     0.012 C 
ATOM     20  C   UNL     1      17.656  -3.999 142.340  1.00  0.00    -0.025 C 
ATOM     21  C   UNL     1      20.175  -4.281 142.036  1.00  0.00     0.005 C 
ATOM     22  C   UNL     1      18.771  -4.885 141.734  1.00  0.00     0.003 C 
ATOM     23  C   UNL     1      16.289  -4.622 141.906  1.00  0.00     0.010 C 
ATOM     24  C   UNL     1      17.778  -3.982 143.904  1.00  0.00     0.012 C 
ATOM     25  C   UNL     1      18.611  -6.471 141.906  1.00  0.00    -0.006 C 
ATOM     26  C   UNL     1      16.044  -6.076 142.324  1.00  0.00     0.033 C 
ATOM     27  C   UNL     1      17.305  -6.888 142.680  1.00  0.00     0.120 C 
ATOM     28  C   UNL     1      19.823  -7.126 142.624  1.00  0.00     0.014 C 
ATOM     29  C   UNL     1      18.572  -7.119 140.498  1.00  0.00     0.014 C 
ENDROOT
BRANCH   1  30
ATOM     30  C   UNL     1      19.973   3.485 142.009  1.00  0.00     0.048 C 
ATOM     31  O   UNL     1      20.194   3.164 143.212  1.00  0.00    -0.550 OA
ATOM     32  O   UNL     1      20.882   4.336 141.379  1.00  0.00    -0.550 OA
ENDBRANCH   1  30
BRANCH  27  33
ATOM     33  O   UNL     1      17.511  -6.865 144.076  1.00  0.00    -0.393 OA
ATOM     34  H   UNL     1      16.975  -7.602 144.470  1.00  0.00     0.210 HD
ENDBRANCH  27  33
TORSDOF 2
ENDMDL
MODEL 7
REMARK VINA RESULT:    -4.134      2.200      3.191
REMARK INTER + INTRA:          -4.597
REMARK INTER:                  -4.362
REMARK INTRA:                  -0.236
REMARK UNBOUND:                -0.101
REMARK SMILES CC1(C)CC[C@]2(C(=O)[O-])CC[C@@]3(C)C(=CC[C@@H]4[C@@]5(C)CC[C@H](O)C(C)(C)[C@@H]5CC[C@@]43C)[C@@H]2C1
REMARK SMILES IDX 6 1 5 2 10 3 32 4 4 5 11 6 14 7 33 8 2 9 12 10 15 11 1 12
REMARK SMILES IDX 3 13 13 14 30 15 16 16 17 17 29 18 31 19 18 20 28 21 27 22
REMARK SMILES IDX 20 23 19 24 24 25 21 26 22 27 25 28 26 29 7 30 8 31 9 32
REMARK SMILES IDX 23 33
REMARK H PARENT 23 34
REMARK Flexibility Score: inf
ROOT
ATOM      1  C   UNL     1      12.754   3.442 141.309  1.00  0.00     0.017 C 
ATOM      2  C   UNL     1      11.318   3.719 140.739  1.00  0.00     0.014 C 
ATOM      3  C   UNL     1      13.728   3.283 140.120  1.00  0.00     0.014 C 
ATOM      4  C   UNL     1      12.733   2.147 142.239  1.00  0.00     0.028 C 
ATOM      5  C   UNL     1      10.671   2.539 139.986  1.00  0.00     0.007 C 
ATOM      6  C   UNL     1      15.046   2.503 140.303  1.00  0.00     0.013 C 
ATOM      7  C   UNL     1      13.953   1.193 142.138  1.00  0.00    -0.064 C 
ATOM      8  C   UNL     1      11.374   1.373 142.138  1.00  0.00     0.015 C 
ATOM      9  C   UNL     1      10.831   1.158 140.693  1.00  0.00    -0.035 C 
ATOM     10  C   UNL     1      15.320   1.643 141.595  1.00  0.00    -0.006 C 
ATOM     11  C   UNL     1      13.936   0.116 142.939  1.00  0.00    -0.027 C 
ATOM     12  C   UNL     1      11.748   0.199 139.876  1.00  0.00     0.011 C 
ATOM     13  C   UNL     1       9.443   0.484 140.803  1.00  0.00     0.011 C 
ATOM     14  C   UNL     1      15.852   2.652 142.656  1.00  0.00     0.017 C 
ATOM     15  C   UNL     1      16.431   0.410 141.364  1.00  0.00    -0.020 C 
ATOM     16  C   UNL     1      14.504  -1.157 142.457  1.00  0.00     0.032 C 
ATOM     17  C   UNL     1      15.862  -1.071 141.691  1.00  0.00     0.006 C 
ATOM     18  C   UNL     1      17.753   0.563 142.211  1.00  0.00     0.008 C 
ATOM     19  C   UNL     1      16.941   0.446 139.875  1.00  0.00     0.012 C 
ATOM     20  C   UNL     1      16.875  -2.160 142.294  1.00  0.00    -0.025 C 
ATOM     21  C   UNL     1      18.830  -0.541 142.016  1.00  0.00     0.005 C 
ATOM     22  C   UNL     1      18.287  -1.964 141.690  1.00  0.00     0.003 C 
ATOM     23  C   UNL     1      16.372  -3.568 141.835  1.00  0.00     0.010 C 
ATOM     24  C   UNL     1      16.950  -2.089 143.859  1.00  0.00     0.012 C 
ATOM     25  C   UNL     1      19.316  -3.185 141.839  1.00  0.00    -0.006 C 
ATOM     26  C   UNL     1      17.247  -4.762 142.231  1.00  0.00     0.033 C 
ATOM     27  C   UNL     1      18.708  -4.427 142.591  1.00  0.00     0.120 C 
ATOM     28  C   UNL     1      20.630  -2.783 142.563  1.00  0.00     0.014 C 
ATOM     29  C   UNL     1      19.752  -3.639 140.422  1.00  0.00     0.014 C 
ENDROOT
BRANCH   1  30
ATOM     30  C   UNL     1      13.109   4.714 142.089  1.00  0.00     0.048 C 
ATOM     31  O   UNL     1      13.140   4.689 143.353  1.00  0.00    -0.550 OA
ATOM     32  O   UNL     1      13.514   5.885 141.447  1.00  0.00    -0.550 OA
ENDBRANCH   1  30
BRANCH  27  33
ATOM     33  O   UNL     1      18.836  -4.289 143.990  1.00  0.00    -0.393 OA
ATOM     34  H   UNL     1      19.014  -3.331 144.181  1.00  0.00     0.210 HD
ENDBRANCH  27  33
TORSDOF 2
ENDMDL
MODEL 8
REMARK VINA RESULT:    -2.985      7.426      9.815
REMARK INTER + INTRA:          -3.348
REMARK INTER:                  -3.113
REMARK INTRA:                  -0.234
REMARK UNBOUND:                -0.101
REMARK SMILES CC1(C)CC[C@]2(C(=O)[O-])CC[C@@]3(C)C(=CC[C@@H]4[C@@]5(C)CC[C@H](O)C(C)(C)[C@@H]5CC[C@@]43C)[C@@H]2C1
REMARK SMILES IDX 6 1 5 2 10 3 32 4 4 5 11 6 14 7 33 8 2 9 12 10 15 11 1 12
REMARK SMILES IDX 3 13 13 14 30 15 16 16 17 17 29 18 31 19 18 20 28 21 27 22
REMARK SMILES IDX 20 23 19 24 24 25 21 26 22 27 25 28 26 29 7 30 8 31 9 32
REMARK SMILES IDX 23 33
REMARK H PARENT 23 34
REMARK Flexibility Score: inf
ROOT
ATOM      1  C   UNL     1       5.367  -1.007 141.701  1.00  0.00     0.017 C 
ATOM      2  C   UNL     1       4.211  -1.932 141.179  1.00  0.00     0.014 C 
ATOM      3  C   UNL     1       5.966  -0.247 140.495  1.00  0.00     0.014 C 
ATOM      4  C   UNL     1       6.466  -1.879 142.459  1.00  0.00     0.028 C 
ATOM      5  C   UNL     1       4.662  -3.106 140.287  1.00  0.00     0.007 C 
ATOM      6  C   UNL     1       7.404   0.306 140.571  1.00  0.00     0.013 C 
ATOM      7  C   UNL     1       7.950  -1.488 142.232  1.00  0.00    -0.064 C 
ATOM      8  C   UNL     1       6.229  -3.417 142.269  1.00  0.00     0.015 C 
ATOM      9  C   UNL     1       5.915  -3.871 140.812  1.00  0.00    -0.035 C 
ATOM     10  C   UNL     1       8.379  -0.094 141.742  1.00  0.00    -0.006 C 
ATOM     11  C   UNL     1       8.867  -2.215 142.890  1.00  0.00    -0.027 C 
ATOM     12  C   UNL     1       7.144  -3.670 139.875  1.00  0.00     0.011 C 
ATOM     13  C   UNL     1       5.604  -5.387 140.845  1.00  0.00     0.011 C 
ATOM     14  C   UNL     1       8.024   0.863 142.918  1.00  0.00     0.017 C 
ATOM     15  C   UNL     1      10.002   0.050 141.351  1.00  0.00    -0.020 C 
ATOM     16  C   UNL     1      10.162  -2.505 142.248  1.00  0.00     0.032 C 
ATOM     17  C   UNL     1      10.847  -1.324 141.491  1.00  0.00     0.006 C 
ATOM     18  C   UNL     1      10.780   1.127 142.202  1.00  0.00     0.008 C 
ATOM     19  C   UNL     1      10.132   0.584 139.875  1.00  0.00     0.012 C 
ATOM     20  C   UNL     1      12.384  -1.230 141.945  1.00  0.00    -0.025 C 
ATOM     21  C   UNL     1      12.285   1.321 141.863  1.00  0.00     0.005 C 
ATOM     22  C   UNL     1      13.033   0.049 141.363  1.00  0.00     0.003 C 
ATOM     23  C   UNL     1      13.131  -2.451 141.316  1.00  0.00     0.010 C 
ATOM     24  C   UNL     1      12.536  -1.241 143.507  1.00  0.00     0.012 C 
ATOM     25  C   UNL     1      14.635   0.109 141.350  1.00  0.00    -0.006 C 
ATOM     26  C   UNL     1      14.644  -2.514 141.552  1.00  0.00     0.033 C 
ATOM     27  C   UNL     1      15.314  -1.182 141.943  1.00  0.00     0.120 C 
ATOM     28  C   UNL     1      15.200   1.339 142.112  1.00  0.00     0.014 C 
ATOM     29  C   UNL     1      15.111   0.281 139.885  1.00  0.00     0.014 C 
ENDROOT
BRANCH   1  30
ATOM     30  C   UNL     1       4.669  -0.009 142.633  1.00  0.00     0.048 C 
ATOM     31  O   UNL     1       4.843  -0.089 143.883  1.00  0.00    -0.550 OA
ATOM     32  O   UNL     1       3.927   1.066 142.141  1.00  0.00    -0.550 OA
ENDBRANCH   1  30
BRANCH  27  33
ATOM     33  O   UNL     1      15.429  -1.098 143.348  1.00  0.00    -0.393 OA
ATOM     34  H   UNL     1      16.344  -1.394 143.592  1.00  0.00     0.210 HD
ENDBRANCH  27  33
TORSDOF 2
ENDMDL
