MODEL 1
REMARK VINA RESULT:    -5.264      0.000      0.000
REMARK INTER + INTRA:          -5.264
REMARK INTER:                  -5.264
REMARK INTRA:                   0.000
REMARK UNBOUND:                 0.000
REMARK SMILES C=C1[C@H]2CC[C@H](C2)C1(C)C
REMARK SMILES IDX 9 1 8 2 6 3 5 4 4 5 3 6 7 7 2 8 1 9 10 10
REMARK H PARENT
REMARK Flexibility Score: inf
ROOT
ATOM      1  C   UNL     1     144.115 146.110 130.766  1.00  0.00     0.016 C 
ATOM      2  C   UNL     1     144.653 145.525 132.090  1.00  0.00    -0.012 C 
ATOM      3  C   UNL     1     145.402 144.167 131.850  1.00  0.00    -0.001 C 
ATOM      4  C   UNL     1     145.770 143.487 133.191  1.00  0.00     0.005 C 
ATOM      5  C   UNL     1     146.841 144.434 133.775  1.00  0.00     0.008 C 
ATOM      6  C   UNL     1     147.031 145.471 132.653  1.00  0.00     0.015 C 
ATOM      7  C   UNL     1     146.791 144.628 131.421  1.00  0.00     0.012 C 
ATOM      8  C   UNL     1     145.802 146.341 132.629  1.00  0.00    -0.068 C 
ATOM      9  C   UNL     1     145.744 147.604 133.068  1.00  0.00     0.008 C 
ATOM     10  C   UNL     1     143.491 145.428 133.106  1.00  0.00     0.016 C 
ENDROOT
TORSDOF 0
ENDMDL
MODEL 2
REMARK VINA RESULT:    -5.249      1.086      2.761
REMARK INTER + INTRA:          -5.249
REMARK INTER:                  -5.249
REMARK INTRA:                   0.000
REMARK UNBOUND:                 0.000
REMARK SMILES C=C1[C@H]2CC[C@H](C2)C1(C)C
REMARK SMILES IDX 9 1 8 2 6 3 5 4 4 5 3 6 7 7 2 8 1 9 10 10
REMARK H PARENT
REMARK Flexibility Score: inf
ROOT
ATOM      1  C   UNL     1     146.495 147.615 131.883  1.00  0.00     0.016 C 
ATOM      2  C   UNL     1     145.682 146.513 132.595  1.00  0.00    -0.012 C 
ATOM      3  C   UNL     1     144.185 146.514 132.123  1.00  0.00    -0.001 C 
ATOM      4  C   UNL     1     143.331 145.542 132.972  1.00  0.00     0.005 C 
ATOM      5  C   UNL     1     143.875 144.156 132.563  1.00  0.00     0.008 C 
ATOM      6  C   UNL     1     144.891 144.498 131.459  1.00  0.00     0.015 C 
ATOM      7  C   UNL     1     144.248 145.713 130.826  1.00  0.00     0.012 C 
ATOM      8  C   UNL     1     146.082 145.136 132.121  1.00  0.00    -0.068 C 
ATOM      9  C   UNL     1     147.271 144.548 132.301  1.00  0.00     0.008 C 
ATOM     10  C   UNL     1     145.857 146.667 134.123  1.00  0.00     0.016 C 
ENDROOT
TORSDOF 0
ENDMDL
MODEL 3
REMARK VINA RESULT:    -5.241      0.865      3.229
REMARK INTER + INTRA:          -5.241
REMARK INTER:                  -5.241
REMARK INTRA:                   0.000
REMARK UNBOUND:                 0.000
REMARK SMILES C=C1[C@H]2CC[C@H](C2)C1(C)C
REMARK SMILES IDX 9 1 8 2 6 3 5 4 4 5 3 6 7 7 2 8 1 9 10 10
REMARK H PARENT
REMARK Flexibility Score: inf
ROOT
ATOM      1  C   UNL     1     146.628 144.645 130.761  1.00  0.00     0.016 C 
ATOM      2  C   UNL     1     146.095 145.275 132.067  1.00  0.00    -0.012 C 
ATOM      3  C   UNL     1     145.376 146.642 131.788  1.00  0.00    -0.001 C 
ATOM      4  C   UNL     1     145.014 147.362 133.109  1.00  0.00     0.005 C 
ATOM      5  C   UNL     1     143.920 146.453 133.710  1.00  0.00     0.008 C 
ATOM      6  C   UNL     1     143.716 145.392 132.614  1.00  0.00     0.015 C 
ATOM      7  C   UNL     1     143.980 146.199 131.362  1.00  0.00     0.012 C 
ATOM      8  C   UNL     1     144.925 144.497 132.620  1.00  0.00    -0.068 C 
ATOM      9  C   UNL     1     144.954 143.244 133.090  1.00  0.00     0.008 C 
ATOM     10  C   UNL     1     147.253 145.373 133.087  1.00  0.00     0.016 C 
ENDROOT
TORSDOF 0
ENDMDL
MODEL 4
REMARK VINA RESULT:    -5.240      0.813      2.319
REMARK INTER + INTRA:          -5.240
REMARK INTER:                  -5.240
REMARK INTRA:                   0.000
REMARK UNBOUND:                 0.000
REMARK SMILES C=C1[C@H]2CC[C@H](C2)C1(C)C
REMARK SMILES IDX 9 1 8 2 6 3 5 4 4 5 3 6 7 7 2 8 1 9 10 10
REMARK H PARENT
REMARK Flexibility Score: inf
ROOT
ATOM      1  C   UNL     1     143.366 145.895 133.742  1.00  0.00     0.016 C 
ATOM      2  C   UNL     1     144.847 145.878 133.307  1.00  0.00    -0.012 C 
ATOM      3  C   UNL     1     145.669 144.821 134.125  1.00  0.00    -0.001 C 
ATOM      4  C   UNL     1     147.183 144.938 133.826  1.00  0.00     0.005 C 
ATOM      5  C   UNL     1     147.283 144.469 132.358  1.00  0.00     0.008 C 
ATOM      6  C   UNL     1     145.840 144.041 132.036  1.00  0.00     0.015 C 
ATOM      7  C   UNL     1     145.373 143.524 133.379  1.00  0.00     0.012 C 
ATOM      8  C   UNL     1     145.011 145.293 131.925  1.00  0.00    -0.068 C 
ATOM      9  C   UNL     1     144.553 145.814 130.781  1.00  0.00     0.008 C 
ATOM     10  C   UNL     1     145.413 147.314 133.393  1.00  0.00     0.016 C 
ENDROOT
TORSDOF 0
ENDMDL
MODEL 5
REMARK VINA RESULT:    -5.232      1.090      2.097
REMARK INTER + INTRA:          -5.232
REMARK INTER:                  -5.232
REMARK INTRA:                   0.000
REMARK UNBOUND:                 0.000
REMARK SMILES C=C1[C@H]2CC[C@H](C2)C1(C)C
REMARK SMILES IDX 9 1 8 2 6 3 5 4 4 5 3 6 7 7 2 8 1 9 10 10
REMARK H PARENT
REMARK Flexibility Score: inf
ROOT
ATOM      1  C   UNL     1     144.250 143.128 131.880  1.00  0.00     0.016 C 
ATOM      2  C   UNL     1     145.055 144.233 132.598  1.00  0.00    -0.012 C 
ATOM      3  C   UNL     1     146.557 144.231 132.141  1.00  0.00    -0.001 C 
ATOM      4  C   UNL     1     147.402 145.205 132.997  1.00  0.00     0.005 C 
ATOM      5  C   UNL     1     146.862 146.590 132.579  1.00  0.00     0.008 C 
ATOM      6  C   UNL     1     145.858 146.244 131.465  1.00  0.00     0.015 C 
ATOM      7  C   UNL     1     146.507 145.028 130.842  1.00  0.00     0.012 C 
ATOM      8  C   UNL     1     144.660 145.608 132.116  1.00  0.00    -0.068 C 
ATOM      9  C   UNL     1     143.470 146.197 132.282  1.00  0.00     0.008 C 
ATOM     10  C   UNL     1     144.865 144.083 134.125  1.00  0.00     0.016 C 
ENDROOT
TORSDOF 0
ENDMDL
MODEL 6
REMARK VINA RESULT:    -5.216      1.071      3.168
REMARK INTER + INTRA:          -5.216
REMARK INTER:                  -5.216
REMARK INTRA:                   0.000
REMARK UNBOUND:                 0.000
REMARK SMILES C=C1[C@H]2CC[C@H](C2)C1(C)C
REMARK SMILES IDX 9 1 8 2 6 3 5 4 4 5 3 6 7 7 2 8 1 9 10 10
REMARK H PARENT
REMARK Flexibility Score: inf
ROOT
ATOM      1  C   UNL     1     147.244 144.714 133.740  1.00  0.00     0.016 C 
ATOM      2  C   UNL     1     145.777 144.835 133.273  1.00  0.00    -0.012 C 
ATOM      3  C   UNL     1     144.997 145.904 134.116  1.00  0.00    -0.001 C 
ATOM      4  C   UNL     1     143.487 145.888 133.778  1.00  0.00     0.005 C 
ATOM      5  C   UNL     1     143.451 146.421 132.329  1.00  0.00     0.008 C 
ATOM      6  C   UNL     1     144.924 146.777 132.058  1.00  0.00     0.015 C 
ATOM      7  C   UNL     1     145.386 147.211 133.431  1.00  0.00     0.012 C 
ATOM      8  C   UNL     1     145.682 145.485 131.913  1.00  0.00    -0.068 C 
ATOM      9  C   UNL     1     146.138 144.984 130.759  1.00  0.00     0.008 C 
ATOM     10  C   UNL     1     145.128 143.432 133.285  1.00  0.00     0.016 C 
ENDROOT
TORSDOF 0
ENDMDL
MODEL 7
REMARK VINA RESULT:    -5.196      1.100      2.865
REMARK INTER + INTRA:          -5.196
REMARK INTER:                  -5.196
REMARK INTRA:                   0.000
REMARK UNBOUND:                 0.000
REMARK SMILES C=C1[C@H]2CC[C@H](C2)C1(C)C
REMARK SMILES IDX 9 1 8 2 6 3 5 4 4 5 3 6 7 7 2 8 1 9 10 10
REMARK H PARENT
REMARK Flexibility Score: inf
ROOT
ATOM      1  C   UNL     1     145.809 147.622 133.002  1.00  0.00     0.016 C 
ATOM      2  C   UNL     1     145.797 146.079 132.944  1.00  0.00    -0.012 C 
ATOM      3  C   UNL     1     144.875 145.474 134.060  1.00  0.00    -0.001 C 
ATOM      4  C   UNL     1     145.012 143.934 134.125  1.00  0.00     0.005 C 
ATOM      5  C   UNL     1     144.378 143.475 132.794  1.00  0.00     0.008 C 
ATOM      6  C   UNL     1     143.862 144.792 132.187  1.00  0.00     0.015 C 
ATOM      7  C   UNL     1     143.489 145.569 133.430  1.00  0.00     0.012 C 
ATOM      8  C   UNL     1     145.059 145.577 131.726  1.00  0.00    -0.068 C 
ATOM      9  C   UNL     1     145.425 145.745 130.449  1.00  0.00     0.008 C 
ATOM     10  C   UNL     1     147.253 145.562 132.987  1.00  0.00     0.016 C 
ENDROOT
TORSDOF 0
ENDMDL
MODEL 8
REMARK VINA RESULT:    -5.161      1.026      1.843
REMARK INTER + INTRA:          -5.161
REMARK INTER:                  -5.161
REMARK INTRA:                   0.000
REMARK UNBOUND:                 0.000
REMARK SMILES C=C1[C@H]2CC[C@H](C2)C1(C)C
REMARK SMILES IDX 9 1 8 2 6 3 5 4 4 5 3 6 7 7 2 8 1 9 10 10
REMARK H PARENT
REMARK Flexibility Score: inf
ROOT
ATOM      1  C   UNL     1     144.229 146.103 130.769  1.00  0.00     0.016 C 
ATOM      2  C   UNL     1     144.981 145.278 131.836  1.00  0.00    -0.012 C 
ATOM      3  C   UNL     1     146.525 145.551 131.784  1.00  0.00    -0.001 C 
ATOM      4  C   UNL     1     147.296 144.587 132.717  1.00  0.00     0.005 C 
ATOM      5  C   UNL     1     146.858 145.047 134.125  1.00  0.00     0.008 C 
ATOM      6  C   UNL     1     145.984 146.278 133.828  1.00  0.00     0.015 C 
ATOM      7  C   UNL     1     146.660 146.836 132.595  1.00  0.00     0.012 C 
ATOM      8  C   UNL     1     144.695 145.783 133.230  1.00  0.00    -0.068 C 
ATOM      9  C   UNL     1     143.515 145.753 133.860  1.00  0.00     0.008 C 
ATOM     10  C   UNL     1     144.603 143.787 131.678  1.00  0.00     0.016 C 
ENDROOT
TORSDOF 0
ENDMDL
MODEL 9
REMARK VINA RESULT:    -5.157      1.126      2.671
REMARK INTER + INTRA:          -5.157
REMARK INTER:                  -5.157
REMARK INTRA:                   0.000
REMARK UNBOUND:                 0.000
REMARK SMILES C=C1[C@H]2CC[C@H](C2)C1(C)C
REMARK SMILES IDX 9 1 8 2 6 3 5 4 4 5 3 6 7 7 2 8 1 9 10 10
REMARK H PARENT
REMARK Flexibility Score: inf
ROOT
ATOM      1  C   UNL     1     146.647 144.634 130.767  1.00  0.00     0.016 C 
ATOM      2  C   UNL     1     145.793 145.345 131.839  1.00  0.00    -0.012 C 
ATOM      3  C   UNL     1     144.290 144.901 131.758  1.00  0.00    -0.001 C 
ATOM      4  C   UNL     1     143.404 145.751 132.699  1.00  0.00     0.005 C 
ATOM      5  C   UNL     1     143.873 145.312 134.104  1.00  0.00     0.008 C 
ATOM      6  C   UNL     1     144.884 144.195 133.795  1.00  0.00     0.015 C 
ATOM      7  C   UNL     1     144.291 143.591 132.541  1.00  0.00     0.012 C 
ATOM      8  C   UNL     1     146.117 144.844 133.226  1.00  0.00    -0.068 C 
ATOM      9  C   UNL     1     147.278 144.994 133.875  1.00  0.00     0.008 C 
ATOM     10  C   UNL     1     146.002 146.872 131.717  1.00  0.00     0.016 C 
ENDROOT
TORSDOF 0
ENDMDL
