MODEL 1
REMARK VINA RESULT:    -3.740      0.000      0.000
REMARK INTER + INTRA:          -5.547
REMARK INTER:                  -5.271
REMARK INTRA:                  -0.277
REMARK UNBOUND:                -0.277
REMARK SMILES CCCCCCCCC(=O)[O-]
REMARK SMILES IDX 6 1 7 2 8 3 9 4 10 5 11 6 5 7 4 8 3 9 2 10 1 11
REMARK H PARENT
REMARK Flexibility Score: inf
ROOT
ATOM      1  C   UNL     1      17.499  -7.604  22.967  1.00  0.00     0.000 C 
ENDROOT
BRANCH   1   2
ATOM      2  C   UNL     1      18.425  -8.239  24.012  1.00  0.00     0.006 C 
BRANCH   2   3
ATOM      3  C   UNL     1      19.741  -7.461  24.125  1.00  0.00     0.053 C 
BRANCH   3   4
ATOM      4  C   UNL     1      20.866  -8.247  23.530  1.00  0.00     0.041 C 
ATOM      5  O   UNL     1      21.993  -8.265  24.091  1.00  0.00    -0.550 OA
ATOM      6  O   UNL     1      20.656  -9.000  22.381  1.00  0.00    -0.550 OA
ENDBRANCH   3   4
ENDBRANCH   2   3
ENDBRANCH   1   2
BRANCH   1   7
ATOM      7  C   UNL     1      17.806  -8.142  21.562  1.00  0.00     0.000 C 
BRANCH   7   8
ATOM      8  C   UNL     1      17.622  -7.081  20.466  1.00  0.00    -0.000 C 
BRANCH   8   9
ATOM      9  C   UNL     1      18.955  -6.450  20.025  1.00  0.00    -0.000 C 
BRANCH   9  10
ATOM     10  C   UNL     1      19.586  -5.581  21.124  1.00  0.00    -0.003 C 
ATOM     11  C   UNL     1      21.105  -5.726  21.197  1.00  0.00     0.004 C 
ENDBRANCH   9  10
ENDBRANCH   8   9
ENDBRANCH   7   8
ENDBRANCH   1   7
TORSDOF 7
ENDMDL
MODEL 2
REMARK VINA RESULT:    -3.242      1.717      4.403
REMARK INTER + INTRA:          -4.845
REMARK INTER:                  -4.199
REMARK INTRA:                  -0.646
REMARK UNBOUND:                -0.277
REMARK SMILES CCCCCCCCC(=O)[O-]
REMARK SMILES IDX 6 1 7 2 8 3 9 4 10 5 11 6 5 7 4 8 3 9 2 10 1 11
REMARK H PARENT
REMARK Flexibility Score: inf
ROOT
ATOM      1  C   UNL     1      21.107  -6.030  21.429  1.00  0.00     0.000 C 
ENDROOT
BRANCH   1   2
ATOM      2  C   UNL     1      19.640  -5.599  21.310  1.00  0.00     0.006 C 
BRANCH   2   3
ATOM      3  C   UNL     1      19.014  -6.130  20.016  1.00  0.00     0.053 C 
BRANCH   3   4
ATOM      4  C   UNL     1      18.290  -7.413  20.274  1.00  0.00     0.041 C 
ATOM      5  O   UNL     1      17.066  -7.518  19.996  1.00  0.00    -0.550 OA
ATOM      6  O   UNL     1      18.978  -8.510  20.776  1.00  0.00    -0.550 OA
ENDBRANCH   3   4
ENDBRANCH   2   3
ENDBRANCH   1   2
BRANCH   1   7
ATOM      7  C   UNL     1      21.354  -6.782  22.745  1.00  0.00     0.000 C 
BRANCH   7   8
ATOM      8  C   UNL     1      20.099  -6.858  23.630  1.00  0.00    -0.000 C 
BRANCH   8   9
ATOM      9  C   UNL     1      19.809  -8.287  24.121  1.00  0.00    -0.000 C 
BRANCH   9  10
ATOM     10  C   UNL     1      18.306  -8.613  24.125  1.00  0.00    -0.003 C 
ATOM     11  C   UNL     1      17.442  -7.433  23.683  1.00  0.00     0.004 C 
ENDBRANCH   9  10
ENDBRANCH   8   9
ENDBRANCH   7   8
ENDBRANCH   1   7
TORSDOF 7
ENDMDL
MODEL 3
REMARK VINA RESULT:    -3.175     14.906     16.624
REMARK INTER + INTRA:          -4.751
REMARK INTER:                  -4.327
REMARK INTRA:                  -0.425
REMARK UNBOUND:                -0.277
REMARK SMILES CCCCCCCCC(=O)[O-]
REMARK SMILES IDX 6 1 7 2 8 3 9 4 10 5 11 6 5 7 4 8 3 9 2 10 1 11
REMARK H PARENT
REMARK Flexibility Score: inf
ROOT
ATOM      1  C   UNL     1      16.817  -6.707   4.793  1.00  0.00     0.000 C 
ENDROOT
BRANCH   1   2
ATOM      2  C   UNL     1      17.853  -7.757   5.217  1.00  0.00     0.006 C 
BRANCH   2   3
ATOM      3  C   UNL     1      18.982  -7.118   6.033  1.00  0.00     0.053 C 
BRANCH   3   4
ATOM      4  C   UNL     1      18.891  -7.533   7.466  1.00  0.00     0.041 C 
ATOM      5  O   UNL     1      19.410  -8.615   7.848  1.00  0.00    -0.550 OA
ATOM      6  O   UNL     1      18.275  -6.701   8.393  1.00  0.00    -0.550 OA
ENDBRANCH   3   4
ENDBRANCH   2   3
ENDBRANCH   1   2
BRANCH   1   7
ATOM      7  C   UNL     1      15.394  -7.168   5.139  1.00  0.00     0.000 C 
BRANCH   7   8
ATOM      8  C   UNL     1      15.277  -7.708   6.574  1.00  0.00    -0.000 C 
BRANCH   8   9
ATOM      9  C   UNL     1      13.910  -8.359   6.850  1.00  0.00    -0.000 C 
BRANCH   9  10
ATOM     10  C   UNL     1      12.894  -8.089   5.729  1.00  0.00    -0.003 C 
ATOM     11  C   UNL     1      11.476  -7.865   6.253  1.00  0.00     0.004 C 
ENDBRANCH   9  10
ENDBRANCH   8   9
ENDBRANCH   7   8
ENDBRANCH   1   7
TORSDOF 7
ENDMDL
MODEL 4
REMARK VINA RESULT:    -3.174     15.423     17.364
REMARK INTER + INTRA:          -4.750
REMARK INTER:                  -4.244
REMARK INTRA:                  -0.506
REMARK UNBOUND:                -0.277
REMARK SMILES CCCCCCCCC(=O)[O-]
REMARK SMILES IDX 6 1 7 2 8 3 9 4 10 5 11 6 5 7 4 8 3 9 2 10 1 11
REMARK H PARENT
REMARK Flexibility Score: inf
ROOT
ATOM      1  C   UNL     1      15.315  -7.503   6.793  1.00  0.00     0.000 C 
ENDROOT
BRANCH   1   2
ATOM      2  C   UNL     1      14.080  -8.340   6.438  1.00  0.00     0.006 C 
BRANCH   2   3
ATOM      3  C   UNL     1      13.463  -7.877   5.114  1.00  0.00     0.053 C 
BRANCH   3   4
ATOM      4  C   UNL     1      12.024  -7.517   5.306  1.00  0.00     0.041 C 
ATOM      5  O   UNL     1      11.391  -6.924   4.393  1.00  0.00    -0.550 OA
ATOM      6  O   UNL     1      11.367  -7.880   6.475  1.00  0.00    -0.550 OA
ENDBRANCH   3   4
ENDBRANCH   2   3
ENDBRANCH   1   2
BRANCH   1   7
ATOM      7  C   UNL     1      15.877  -6.800   5.549  1.00  0.00     0.000 C 
BRANCH   7   8
ATOM      8  C   UNL     1      17.250  -7.347   5.126  1.00  0.00    -0.000 C 
BRANCH   8   9
ATOM      9  C   UNL     1      17.951  -8.120   6.257  1.00  0.00    -0.000 C 
BRANCH   9  10
ATOM     10  C   UNL     1      19.054  -7.293   6.938  1.00  0.00    -0.003 C 
ATOM     11  C   UNL     1      18.664  -6.823   8.339  1.00  0.00     0.004 C 
ENDBRANCH   9  10
ENDBRANCH   8   9
ENDBRANCH   7   8
ENDBRANCH   1   7
TORSDOF 7
ENDMDL
MODEL 5
REMARK VINA RESULT:    -3.088     15.101     17.083
REMARK INTER + INTRA:          -4.628
REMARK INTER:                  -4.150
REMARK INTRA:                  -0.478
REMARK UNBOUND:                -0.277
REMARK SMILES CCCCCCCCC(=O)[O-]
REMARK SMILES IDX 6 1 7 2 8 3 9 4 10 5 11 6 5 7 4 8 3 9 2 10 1 11
REMARK H PARENT
REMARK Flexibility Score: inf
ROOT
ATOM      1  C   UNL     1      16.038  -6.656   5.286  1.00  0.00     0.000 C 
ENDROOT
BRANCH   1   2
ATOM      2  C   UNL     1      15.327  -8.012   5.391  1.00  0.00     0.006 C 
BRANCH   2   3
ATOM      3  C   UNL     1      13.822  -7.865   5.140  1.00  0.00     0.053 C 
BRANCH   3   4
ATOM      4  C   UNL     1      13.056  -8.109   6.401  1.00  0.00     0.041 C 
ATOM      5  O   UNL     1      13.654  -8.476   7.446  1.00  0.00    -0.550 OA
ATOM      6  O   UNL     1      11.685  -7.885   6.435  1.00  0.00    -0.550 OA
ENDBRANCH   3   4
ENDBRANCH   2   3
ENDBRANCH   1   2
BRANCH   1   7
ATOM      7  C   UNL     1      17.266  -6.750   4.370  1.00  0.00     0.000 C 
BRANCH   7   8
ATOM      8  C   UNL     1      18.315  -7.750   4.882  1.00  0.00    -0.000 C 
BRANCH   8   9
ATOM      9  C   UNL     1      19.223  -7.149   5.968  1.00  0.00    -0.000 C 
BRANCH   9  10
ATOM     10  C   UNL     1      18.981  -7.777   7.350  1.00  0.00    -0.003 C 
ATOM     11  C   UNL     1      18.597  -6.747   8.411  1.00  0.00     0.004 C 
ENDBRANCH   9  10
ENDBRANCH   8   9
ENDBRANCH   7   8
ENDBRANCH   1   7
TORSDOF 7
ENDMDL
MODEL 6
REMARK VINA RESULT:    -3.071     16.379     17.450
REMARK INTER + INTRA:          -4.604
REMARK INTER:                  -4.200
REMARK INTRA:                  -0.404
REMARK UNBOUND:                -0.277
REMARK SMILES CCCCCCCCC(=O)[O-]
REMARK SMILES IDX 6 1 7 2 8 3 9 4 10 5 11 6 5 7 4 8 3 9 2 10 1 11
REMARK H PARENT
REMARK Flexibility Score: inf
ROOT
ATOM      1  C   UNL     1      18.314  -7.586   5.903  1.00  0.00     0.000 C 
ENDROOT
BRANCH   1   2
ATOM      2  C   UNL     1      19.682  -6.896   5.828  1.00  0.00     0.006 C 
BRANCH   2   3
ATOM      3  C   UNL     1      19.864  -6.180   4.486  1.00  0.00     0.053 C 
BRANCH   3   4
ATOM      4  C   UNL     1      21.084  -5.316   4.516  1.00  0.00     0.041 C 
ATOM      5  O   UNL     1      22.226  -5.834   4.628  1.00  0.00    -0.550 OA
ATOM      6  O   UNL     1      20.964  -3.940   4.371  1.00  0.00    -0.550 OA
ENDBRANCH   3   4
ENDBRANCH   2   3
ENDBRANCH   1   2
BRANCH   1   7
ATOM      7  C   UNL     1      17.351  -7.012   4.853  1.00  0.00     0.000 C 
BRANCH   7   8
ATOM      8  C   UNL     1      15.982  -6.639   5.443  1.00  0.00    -0.000 C 
BRANCH   8   9
ATOM      9  C   UNL     1      15.763  -7.229   6.847  1.00  0.00    -0.000 C 
BRANCH   9  10
ATOM     10  C   UNL     1      14.502  -8.106   6.925  1.00  0.00    -0.003 C 
ATOM     11  C   UNL     1      13.832  -8.305   5.566  1.00  0.00     0.004 C 
ENDBRANCH   9  10
ENDBRANCH   8   9
ENDBRANCH   7   8
ENDBRANCH   1   7
TORSDOF 7
ENDMDL
MODEL 7
REMARK VINA RESULT:    -3.067     14.535     16.505
REMARK INTER + INTRA:          -4.599
REMARK INTER:                  -4.030
REMARK INTRA:                  -0.569
REMARK UNBOUND:                -0.277
REMARK SMILES CCCCCCCCC(=O)[O-]
REMARK SMILES IDX 6 1 7 2 8 3 9 4 10 5 11 6 5 7 4 8 3 9 2 10 1 11
REMARK H PARENT
REMARK Flexibility Score: inf
ROOT
ATOM      1  C   UNL     1      18.990  -6.692   4.334  1.00  0.00     0.000 C 
ENDROOT
BRANCH   1   2
ATOM      2  C   UNL     1      19.637  -6.851   5.715  1.00  0.00     0.006 C 
BRANCH   2   3
ATOM      3  C   UNL     1      19.118  -8.106   6.425  1.00  0.00     0.053 C 
BRANCH   3   4
ATOM      4  C   UNL     1      19.058  -7.885   7.902  1.00  0.00     0.041 C 
ATOM      5  O   UNL     1      19.613  -8.698   8.688  1.00  0.00    -0.550 OA
ATOM      6  O   UNL     1      18.431  -6.755   8.411  1.00  0.00    -0.550 OA
ENDBRANCH   3   4
ENDBRANCH   2   3
ENDBRANCH   1   2
BRANCH   1   7
ATOM      7  C   UNL     1      17.645  -7.430   4.269  1.00  0.00     0.000 C 
BRANCH   7   8
ATOM      8  C   UNL     1      16.442  -6.472   4.253  1.00  0.00    -0.000 C 
BRANCH   8   9
ATOM      9  C   UNL     1      15.200  -7.072   4.934  1.00  0.00    -0.000 C 
BRANCH   9  10
ATOM     10  C   UNL     1      15.453  -7.431   6.407  1.00  0.00    -0.003 C 
ATOM     11  C   UNL     1      14.480  -8.483   6.938  1.00  0.00     0.004 C 
ENDBRANCH   9  10
ENDBRANCH   8   9
ENDBRANCH   7   8
ENDBRANCH   1   7
TORSDOF 7
ENDMDL
MODEL 8
REMARK VINA RESULT:    -3.060     16.253     17.860
REMARK INTER + INTRA:          -4.588
REMARK INTER:                  -4.336
REMARK INTRA:                  -0.252
REMARK UNBOUND:                -0.277
REMARK SMILES CCCCCCCCC(=O)[O-]
REMARK SMILES IDX 6 1 7 2 8 3 9 4 10 5 11 6 5 7 4 8 3 9 2 10 1 11
REMARK H PARENT
REMARK Flexibility Score: inf
ROOT
ATOM      1  C   UNL     1      12.625  -7.938   5.707  1.00  0.00     0.000 C 
ENDROOT
BRANCH   1   2
ATOM      2  C   UNL     1      13.557  -8.309   6.867  1.00  0.00     0.006 C 
BRANCH   2   3
ATOM      3  C   UNL     1      14.992  -8.521   6.374  1.00  0.00     0.053 C 
BRANCH   3   4
ATOM      4  C   UNL     1      15.754  -7.235   6.412  1.00  0.00     0.041 C 
ATOM      5  O   UNL     1      15.857  -6.527   5.376  1.00  0.00    -0.550 OA
ATOM      6  O   UNL     1      16.310  -6.792   7.606  1.00  0.00    -0.550 OA
ENDBRANCH   3   4
ENDBRANCH   2   3
ENDBRANCH   1   2
BRANCH   1   7
ATOM      7  C   UNL     1      11.167  -7.844   6.182  1.00  0.00     0.000 C 
BRANCH   7   8
ATOM      8  C   UNL     1      10.183  -8.526   5.218  1.00  0.00    -0.000 C 
BRANCH   8   9
ATOM      9  C   UNL     1       8.760  -8.621   5.797  1.00  0.00    -0.000 C 
BRANCH   9  10
ATOM     10  C   UNL     1       8.741  -9.212   7.216  1.00  0.00    -0.003 C 
ATOM     11  C   UNL     1       7.453  -8.895   7.974  1.00  0.00     0.004 C 
ENDBRANCH   9  10
ENDBRANCH   8   9
ENDBRANCH   7   8
ENDBRANCH   1   7
TORSDOF 7
ENDMDL
MODEL 9
REMARK VINA RESULT:    -2.927     18.122     19.628
REMARK INTER + INTRA:          -4.401
REMARK INTER:                  -3.916
REMARK INTRA:                  -0.485
REMARK UNBOUND:                -0.277
REMARK SMILES CCCCCCCCC(=O)[O-]
REMARK SMILES IDX 6 1 7 2 8 3 9 4 10 5 11 6 5 7 4 8 3 9 2 10 1 11
REMARK H PARENT
REMARK Flexibility Score: inf
ROOT
ATOM      1  C   UNL     1       8.830  -9.794   5.768  1.00  0.00     0.000 C 
ENDROOT
BRANCH   1   2
ATOM      2  C   UNL     1       9.958  -9.072   5.021  1.00  0.00     0.006 C 
BRANCH   2   3
ATOM      3  C   UNL     1      10.515  -7.911   5.853  1.00  0.00     0.053 C 
BRANCH   3   4
ATOM      4  C   UNL     1      11.999  -7.823   5.700  1.00  0.00     0.041 C 
ATOM      5  O   UNL     1      12.501  -7.315   4.662  1.00  0.00    -0.550 OA
ATOM      6  O   UNL     1      12.831  -8.258   6.724  1.00  0.00    -0.550 OA
ENDBRANCH   3   4
ENDBRANCH   2   3
ENDBRANCH   1   2
BRANCH   1   7
ATOM      7  C   UNL     1       8.728  -9.299   7.219  1.00  0.00     0.000 C 
BRANCH   7   8
ATOM      8  C   UNL     1       7.336  -8.744   7.561  1.00  0.00    -0.000 C 
BRANCH   8   9
ATOM      9  C   UNL     1       6.479  -8.486   6.309  1.00  0.00    -0.000 C 
BRANCH   9  10
ATOM     10  C   UNL     1       6.187  -6.991   6.095  1.00  0.00    -0.003 C 
ATOM     11  C   UNL     1       5.177  -6.738   4.977  1.00  0.00     0.004 C 
ENDBRANCH   9  10
ENDBRANCH   8   9
ENDBRANCH   7   8
ENDBRANCH   1   7
TORSDOF 7
ENDMDL
