MODEL 1
REMARK VINA RESULT:    -4.027      0.000      0.000
REMARK INTER + INTRA:          -6.359
REMARK INTER:                  -5.439
REMARK INTRA:                  -0.920
REMARK UNBOUND:                -0.920
REMARK SMILES CCCCCCC=CC(=O)[O-]
REMARK SMILES IDX 5 1 6 2 7 3 8 4 9 5 10 6 11 7 4 8 3 9 2 10 1 11
REMARK H PARENT
REMARK Flexibility Score: inf
ROOT
ATOM      1  C   UNL     1       1.842  18.657   8.241  1.00  0.00     0.004 C 
ENDROOT
BRANCH   1   2
ATOM      2  C   UNL     1       2.130  19.609   9.414  1.00  0.00     0.027 C 
BRANCH   2   3
ATOM      3  C   UNL     1       2.225  18.881  10.730  1.00  0.00    -0.025 C 
ATOM      4  C   UNL     1       1.257  18.793  11.657  1.00  0.00     0.020 C 
BRANCH   4   5
ATOM      5  C   UNL     1      -0.076  19.428  11.602  1.00  0.00     0.064 C 
ATOM      6  O   UNL     1      -1.117  18.776  11.327  1.00  0.00    -0.545 OA
ATOM      7  O   UNL     1      -0.180  20.793  11.836  1.00  0.00    -0.545 OA
ENDBRANCH   4   5
ENDBRANCH   2   3
ENDBRANCH   1   2
BRANCH   1   8
ATOM      8  C   UNL     1       0.333  18.441   8.032  1.00  0.00     0.000 C 
BRANCH   8   9
ATOM      9  C   UNL     1      -0.111  17.009   8.374  1.00  0.00    -0.000 C 
BRANCH   9  10
ATOM     10  C   UNL     1       1.073  16.048   8.546  1.00  0.00    -0.003 C 
ATOM     11  C   UNL     1       0.985  15.299   9.872  1.00  0.00     0.004 C 
ENDBRANCH   9  10
ENDBRANCH   8   9
ENDBRANCH   1   8
TORSDOF 6
ENDMDL
MODEL 2
REMARK VINA RESULT:    -4.016      1.355      2.452
REMARK INTER + INTRA:          -6.344
REMARK INTER:                  -5.586
REMARK INTRA:                  -0.759
REMARK UNBOUND:                -0.920
REMARK SMILES CCCCCCC=CC(=O)[O-]
REMARK SMILES IDX 5 1 6 2 7 3 8 4 9 5 10 6 11 7 4 8 3 9 2 10 1 11
REMARK H PARENT
REMARK Flexibility Score: inf
ROOT
ATOM      1  C   UNL     1      -0.181  17.111   8.584  1.00  0.00     0.004 C 
ENDROOT
BRANCH   1   2
ATOM      2  C   UNL     1       0.210  18.379   7.807  1.00  0.00     0.027 C 
BRANCH   2   3
ATOM      3  C   UNL     1       1.619  18.820   8.104  1.00  0.00    -0.025 C 
ATOM      4  C   UNL     1       2.067  19.302   9.275  1.00  0.00     0.020 C 
BRANCH   4   5
ATOM      5  C   UNL     1       1.266  19.547  10.493  1.00  0.00     0.064 C 
ATOM      6  O   UNL     1       1.339  18.798  11.503  1.00  0.00    -0.545 OA
ATOM      7  O   UNL     1       0.386  20.620  10.512  1.00  0.00    -0.545 OA
ENDBRANCH   4   5
ENDBRANCH   2   3
ENDBRANCH   1   2
BRANCH   1   8
ATOM      8  C   UNL     1       0.882  16.007   8.455  1.00  0.00     0.000 C 
BRANCH   8   9
ATOM      9  C   UNL     1       1.303  15.431   9.817  1.00  0.00    -0.000 C 
BRANCH   9  10
ATOM     10  C   UNL     1       2.791  15.657  10.119  1.00  0.00    -0.003 C 
ATOM     11  C   UNL     1       3.611  15.713   8.833  1.00  0.00     0.004 C 
ENDBRANCH   9  10
ENDBRANCH   8   9
ENDBRANCH   1   8
TORSDOF 6
ENDMDL
MODEL 3
REMARK VINA RESULT:    -4.007      3.459      4.782
REMARK INTER + INTRA:          -6.333
REMARK INTER:                  -5.569
REMARK INTRA:                  -0.764
REMARK UNBOUND:                -0.920
REMARK SMILES CCCCCCC=CC(=O)[O-]
REMARK SMILES IDX 5 1 6 2 7 3 8 4 9 5 10 6 11 7 4 8 3 9 2 10 1 11
REMARK H PARENT
REMARK Flexibility Score: inf
ROOT
ATOM      1  C   UNL     1       0.065  16.834   8.896  1.00  0.00     0.004 C 
ENDROOT
BRANCH   1   2
ATOM      2  C   UNL     1       1.240  15.914   8.526  1.00  0.00     0.027 C 
BRANCH   2   3
ATOM      3  C   UNL     1       2.168  15.676   9.689  1.00  0.00    -0.025 C 
ATOM      4  C   UNL     1       3.510  15.661   9.640  1.00  0.00     0.020 C 
BRANCH   4   5
ATOM      5  C   UNL     1       4.351  15.823   8.436  1.00  0.00     0.064 C 
ATOM      6  O   UNL     1       4.763  14.837   7.770  1.00  0.00    -0.545 OA
ATOM      7  O   UNL     1       4.720  17.102   8.042  1.00  0.00    -0.545 OA
ENDBRANCH   4   5
ENDBRANCH   2   3
ENDBRANCH   1   2
BRANCH   1   8
ATOM      8  C   UNL     1       0.096  18.153   8.105  1.00  0.00     0.000 C 
BRANCH   8   9
ATOM      9  C   UNL     1       1.465  18.849   8.171  1.00  0.00    -0.000 C 
BRANCH   9  10
ATOM     10  C   UNL     1       1.679  19.609   9.487  1.00  0.00    -0.003 C 
ATOM     11  C   UNL     1       3.109  19.438   9.994  1.00  0.00     0.004 C 
ENDBRANCH   9  10
ENDBRANCH   8   9
ENDBRANCH   1   8
TORSDOF 6
ENDMDL
MODEL 4
REMARK VINA RESULT:    -3.938      1.943      3.698
REMARK INTER + INTRA:          -6.240
REMARK INTER:                  -5.530
REMARK INTRA:                  -0.710
REMARK UNBOUND:                -0.920
REMARK SMILES CCCCCCC=CC(=O)[O-]
REMARK SMILES IDX 5 1 6 2 7 3 8 4 9 5 10 6 11 7 4 8 3 9 2 10 1 11
REMARK H PARENT
REMARK Flexibility Score: inf
ROOT
ATOM      1  C   UNL     1      -0.104  16.958   8.316  1.00  0.00     0.004 C 
ENDROOT
BRANCH   1   2
ATOM      2  C   UNL     1       1.210  16.196   8.552  1.00  0.00     0.027 C 
BRANCH   2   3
ATOM      3  C   UNL     1       1.039  15.044   9.507  1.00  0.00    -0.025 C 
ATOM      4  C   UNL     1       1.342  15.050  10.816  1.00  0.00     0.020 C 
BRANCH   4   5
ATOM      5  C   UNL     1       1.950  16.162  11.576  1.00  0.00     0.064 C 
ATOM      6  O   UNL     1       3.186  16.216  11.808  1.00  0.00    -0.545 OA
ATOM      7  O   UNL     1       1.127  17.164  12.072  1.00  0.00    -0.545 OA
ENDBRANCH   4   5
ENDBRANCH   2   3
ENDBRANCH   1   2
BRANCH   1   8
ATOM      8  C   UNL     1       0.123  18.475   8.195  1.00  0.00     0.000 C 
BRANCH   8   9
ATOM      9  C   UNL     1       1.609  18.858   8.286  1.00  0.00    -0.000 C 
BRANCH   9  10
ATOM     10  C   UNL     1       1.936  19.657   9.555  1.00  0.00    -0.003 C 
ATOM     11  C   UNL     1       3.343  19.342  10.056  1.00  0.00     0.004 C 
ENDBRANCH   9  10
ENDBRANCH   8   9
ENDBRANCH   1   8
TORSDOF 6
ENDMDL
MODEL 5
REMARK VINA RESULT:    -3.901      2.438      3.896
REMARK INTER + INTRA:          -6.190
REMARK INTER:                  -5.421
REMARK INTRA:                  -0.769
REMARK UNBOUND:                -0.920
REMARK SMILES CCCCCCC=CC(=O)[O-]
REMARK SMILES IDX 5 1 6 2 7 3 8 4 9 5 10 6 11 7 4 8 3 9 2 10 1 11
REMARK H PARENT
REMARK Flexibility Score: inf
ROOT
ATOM      1  C   UNL     1       1.386  15.575   9.838  1.00  0.00     0.004 C 
ENDROOT
BRANCH   1   2
ATOM      2  C   UNL     1       0.876  15.942   8.435  1.00  0.00     0.027 C 
BRANCH   2   3
ATOM      3  C   UNL     1      -0.203  16.992   8.475  1.00  0.00    -0.025 C 
ATOM      4  C   UNL     1      -0.012  18.322   8.480  1.00  0.00     0.020 C 
BRANCH   4   5
ATOM      5  C   UNL     1       1.287  19.027   8.499  1.00  0.00     0.064 C 
ATOM      6  O   UNL     1       2.052  19.046   7.499  1.00  0.00    -0.545 OA
ATOM      7  O   UNL     1       1.688  19.664   9.666  1.00  0.00    -0.545 OA
ENDBRANCH   4   5
ENDBRANCH   2   3
ENDBRANCH   1   2
BRANCH   1   8
ATOM      8  C   UNL     1       2.898  15.820   9.983  1.00  0.00     0.000 C 
BRANCH   8   9
ATOM      9  C   UNL     1       3.642  15.734   8.641  1.00  0.00    -0.000 C 
BRANCH   9  10
ATOM     10  C   UNL     1       4.663  16.865   8.457  1.00  0.00    -0.003 C 
ATOM     11  C   UNL     1       4.639  17.825   9.643  1.00  0.00     0.004 C 
ENDBRANCH   9  10
ENDBRANCH   8   9
ENDBRANCH   1   8
TORSDOF 6
ENDMDL
MODEL 6
REMARK VINA RESULT:    -3.878      2.927      3.285
REMARK INTER + INTRA:          -6.158
REMARK INTER:                  -5.460
REMARK INTRA:                  -0.698
REMARK UNBOUND:                -0.920
REMARK SMILES CCCCCCC=CC(=O)[O-]
REMARK SMILES IDX 5 1 6 2 7 3 8 4 9 5 10 6 11 7 4 8 3 9 2 10 1 11
REMARK H PARENT
REMARK Flexibility Score: inf
ROOT
ATOM      1  C   UNL     1       1.782  18.688   8.293  1.00  0.00     0.004 C 
ENDROOT
BRANCH   1   2
ATOM      2  C   UNL     1       2.003  19.654   9.469  1.00  0.00     0.027 C 
BRANCH   2   3
ATOM      3  C   UNL     1       2.519  18.950  10.697  1.00  0.00    -0.025 C 
ATOM      4  C   UNL     1       3.808  18.706  10.986  1.00  0.00     0.020 C 
BRANCH   4   5
ATOM      5  C   UNL     1       4.978  19.030  10.142  1.00  0.00     0.064 C 
ATOM      6  O   UNL     1       5.371  18.265   9.223  1.00  0.00    -0.545 OA
ATOM      7  O   UNL     1       5.681  20.201  10.391  1.00  0.00    -0.545 OA
ENDBRANCH   4   5
ENDBRANCH   2   3
ENDBRANCH   1   2
BRANCH   1   8
ATOM      8  C   UNL     1       0.290  18.382   8.073  1.00  0.00     0.000 C 
BRANCH   8   9
ATOM      9  C   UNL     1      -0.132  17.036   8.683  1.00  0.00    -0.000 C 
BRANCH   9  10
ATOM     10  C   UNL     1       0.989  15.988   8.637  1.00  0.00    -0.003 C 
ATOM     11  C   UNL     1       1.250  15.401  10.022  1.00  0.00     0.004 C 
ENDBRANCH   9  10
ENDBRANCH   8   9
ENDBRANCH   1   8
TORSDOF 6
ENDMDL
MODEL 7
REMARK VINA RESULT:    -3.876      2.080      3.501
REMARK INTER + INTRA:          -6.156
REMARK INTER:                  -5.251
REMARK INTRA:                  -0.905
REMARK UNBOUND:                -0.920
REMARK SMILES CCCCCCC=CC(=O)[O-]
REMARK SMILES IDX 5 1 6 2 7 3 8 4 9 5 10 6 11 7 4 8 3 9 2 10 1 11
REMARK H PARENT
REMARK Flexibility Score: inf
ROOT
ATOM      1  C   UNL     1       0.934  15.613   9.305  1.00  0.00     0.004 C 
ENDROOT
BRANCH   1   2
ATOM      2  C   UNL     1       0.204  16.964   9.222  1.00  0.00     0.027 C 
BRANCH   2   3
ATOM      3  C   UNL     1       0.729  17.829   8.106  1.00  0.00    -0.025 C 
ATOM      4  C   UNL     1       1.497  18.923   8.247  1.00  0.00     0.020 C 
BRANCH   4   5
ATOM      5  C   UNL     1       1.943  19.529   9.518  1.00  0.00     0.064 C 
ATOM      6  O   UNL     1       3.114  19.381   9.956  1.00  0.00    -0.545 OA
ATOM      7  O   UNL     1       1.032  20.263  10.267  1.00  0.00    -0.545 OA
ENDBRANCH   4   5
ENDBRANCH   2   3
ENDBRANCH   1   2
BRANCH   1   8
ATOM      8  C   UNL     1       1.806  15.506  10.568  1.00  0.00     0.000 C 
BRANCH   8   9
ATOM      9  C   UNL     1       3.297  15.746  10.277  1.00  0.00    -0.000 C 
BRANCH   9  10
ATOM     10  C   UNL     1       3.640  15.601   8.788  1.00  0.00    -0.003 C 
ATOM     11  C   UNL     1       4.574  16.716   8.328  1.00  0.00     0.004 C 
ENDBRANCH   9  10
ENDBRANCH   8   9
ENDBRANCH   1   8
TORSDOF 6
ENDMDL
MODEL 8
REMARK VINA RESULT:    -3.735     13.764     15.076
REMARK INTER + INTRA:          -5.965
REMARK INTER:                  -5.725
REMARK INTRA:                  -0.240
REMARK UNBOUND:                -0.920
REMARK SMILES CCCCCCC=CC(=O)[O-]
REMARK SMILES IDX 5 1 6 2 7 3 8 4 9 5 10 6 11 7 4 8 3 9 2 10 1 11
REMARK H PARENT
REMARK Flexibility Score: inf
ROOT
ATOM      1  C   UNL     1       2.821   2.631  12.201  1.00  0.00     0.004 C 
ENDROOT
BRANCH   1   2
ATOM      2  C   UNL     1       1.588   3.548  12.264  1.00  0.00     0.027 C 
BRANCH   2   3
ATOM      3  C   UNL     1       0.349   2.810  12.698  1.00  0.00    -0.025 C 
ATOM      4  C   UNL     1      -0.915   3.254  12.589  1.00  0.00     0.020 C 
BRANCH   4   5
ATOM      5  C   UNL     1      -1.346   4.569  12.072  1.00  0.00     0.064 C 
ATOM      6  O   UNL     1      -2.139   4.679  11.100  1.00  0.00    -0.545 OA
ATOM      7  O   UNL     1      -0.838   5.720  12.659  1.00  0.00    -0.545 OA
ENDBRANCH   4   5
ENDBRANCH   2   3
ENDBRANCH   1   2
BRANCH   1   8
ATOM      8  C   UNL     1       3.071   2.100  10.779  1.00  0.00     0.000 C 
BRANCH   8   9
ATOM      9  C   UNL     1       4.372   2.645  10.166  1.00  0.00    -0.000 C 
BRANCH   9  10
ATOM     10  C   UNL     1       4.117   3.632   9.019  1.00  0.00    -0.003 C 
ATOM     11  C   UNL     1       4.793   4.974   9.288  1.00  0.00     0.004 C 
ENDBRANCH   9  10
ENDBRANCH   8   9
ENDBRANCH   1   8
TORSDOF 6
ENDMDL
MODEL 9
REMARK VINA RESULT:    -3.676      3.362      4.009
REMARK INTER + INTRA:          -5.885
REMARK INTER:                  -5.277
REMARK INTRA:                  -0.608
REMARK UNBOUND:                -0.920
REMARK SMILES CCCCCCC=CC(=O)[O-]
REMARK SMILES IDX 5 1 6 2 7 3 8 4 9 5 10 6 11 7 4 8 3 9 2 10 1 11
REMARK H PARENT
REMARK Flexibility Score: inf
ROOT
ATOM      1  C   UNL     1       1.942  19.615   9.559  1.00  0.00     0.004 C 
ENDROOT
BRANCH   1   2
ATOM      2  C   UNL     1       2.862  18.887  10.552  1.00  0.00     0.027 C 
BRANCH   2   3
ATOM      3  C   UNL     1       4.318  19.173  10.298  1.00  0.00    -0.025 C 
ATOM      4  C   UNL     1       5.184  18.366   9.663  1.00  0.00     0.020 C 
BRANCH   4   5
ATOM      5  C   UNL     1       4.904  17.017   9.129  1.00  0.00     0.064 C 
ATOM      6  O   UNL     1       4.714  16.026   9.883  1.00  0.00    -0.545 OA
ATOM      7  O   UNL     1       4.876  16.831   7.753  1.00  0.00    -0.545 OA
ENDBRANCH   4   5
ENDBRANCH   2   3
ENDBRANCH   1   2
BRANCH   1   8
ATOM      8  C   UNL     1       1.711  18.794   8.279  1.00  0.00     0.000 C 
BRANCH   8   9
ATOM      9  C   UNL     1       0.230  18.446   8.059  1.00  0.00    -0.000 C 
BRANCH   9  10
ATOM     10  C   UNL     1      -0.110  17.011   8.485  1.00  0.00    -0.003 C 
ATOM     11  C   UNL     1       1.143  16.140   8.532  1.00  0.00     0.004 C 
ENDBRANCH   9  10
ENDBRANCH   8   9
ENDBRANCH   1   8
TORSDOF 6
ENDMDL
