MODEL 1
REMARK VINA RESULT:    -3.395      0.000      0.000
REMARK INTER + INTRA:          -4.300
REMARK INTER:                  -4.189
REMARK INTRA:                  -0.111
REMARK UNBOUND:                -0.111
REMARK SMILES CCCCCC(=O)[O-]
REMARK SMILES IDX 4 1 5 2 6 3 7 4 8 5 3 6 2 7 1 8
REMARK H PARENT
REMARK Flexibility Score: inf
ROOT
ATOM      1  C   UNL     1      10.433  32.249   2.968  1.00  0.00     0.006 C 
ENDROOT
BRANCH   1   2
ATOM      2  C   UNL     1       9.677  31.445   1.903  1.00  0.00     0.053 C 
BRANCH   2   3
ATOM      3  C   UNL     1      10.366  31.499   0.575  1.00  0.00     0.041 C 
ATOM      4  O   UNL     1      11.551  31.920   0.490  1.00  0.00    -0.550 OA
ATOM      5  O   UNL     1       9.690  31.112  -0.575  1.00  0.00    -0.550 OA
ENDBRANCH   2   3
ENDBRANCH   1   2
BRANCH   1   6
ATOM      6  C   UNL     1      10.305  31.628   4.367  1.00  0.00     0.000 C 
BRANCH   6   7
ATOM      7  C   UNL     1       9.308  32.414   5.227  1.00  0.00    -0.003 C 
ATOM      8  C   UNL     1       7.941  31.735   5.245  1.00  0.00     0.004 C 
ENDBRANCH   6   7
ENDBRANCH   1   6
TORSDOF 4
ENDMDL
MODEL 2
REMARK VINA RESULT:    -3.101     16.664     17.353
REMARK INTER + INTRA:          -3.937
REMARK INTER:                  -3.888
REMARK INTRA:                  -0.049
REMARK UNBOUND:                -0.111
REMARK SMILES CCCCCC(=O)[O-]
REMARK SMILES IDX 4 1 5 2 6 3 7 4 8 5 3 6 2 7 1 8
REMARK H PARENT
REMARK Flexibility Score: inf
ROOT
ATOM      1  C   UNL     1      23.846  33.501  11.947  1.00  0.00     0.006 C 
ENDROOT
BRANCH   1   2
ATOM      2  C   UNL     1      22.852  34.670  11.937  1.00  0.00     0.053 C 
BRANCH   2   3
ATOM      3  C   UNL     1      22.802  35.366  13.263  1.00  0.00     0.041 C 
ATOM      4  O   UNL     1      23.665  36.235  13.558  1.00  0.00    -0.550 OA
ATOM      5  O   UNL     1      21.820  35.031  14.186  1.00  0.00    -0.550 OA
ENDBRANCH   2   3
ENDBRANCH   1   2
BRANCH   1   6
ATOM      6  C   UNL     1      24.377  33.178  10.542  1.00  0.00     0.000 C 
BRANCH   6   7
ATOM      7  C   UNL     1      25.064  31.807  10.517  1.00  0.00    -0.003 C 
ATOM      8  C   UNL     1      24.789  31.077   9.206  1.00  0.00     0.004 C 
ENDBRANCH   6   7
ENDBRANCH   1   6
TORSDOF 4
ENDMDL
MODEL 3
REMARK VINA RESULT:    -3.068      3.181      4.747
REMARK INTER + INTRA:          -3.897
REMARK INTER:                  -3.778
REMARK INTRA:                  -0.119
REMARK UNBOUND:                -0.111
REMARK SMILES CCCCCC(=O)[O-]
REMARK SMILES IDX 4 1 5 2 6 3 7 4 8 5 3 6 2 7 1 8
REMARK H PARENT
REMARK Flexibility Score: inf
ROOT
ATOM      1  C   UNL     1      10.548  31.573   3.411  1.00  0.00     0.006 C 
ENDROOT
BRANCH   1   2
ATOM      2  C   UNL     1      10.079  32.507   4.534  1.00  0.00     0.053 C 
BRANCH   2   3
ATOM      3  C   UNL     1       9.108  31.827   5.451  1.00  0.00     0.041 C 
ATOM      4  O   UNL     1       7.875  32.069   5.362  1.00  0.00    -0.550 OA
ATOM      5  O   UNL     1       9.569  30.950   6.424  1.00  0.00    -0.550 OA
ENDBRANCH   2   3
ENDBRANCH   1   2
BRANCH   1   6
ATOM      6  C   UNL     1       9.527  31.481   2.267  1.00  0.00     0.000 C 
BRANCH   6   7
ATOM      7  C   UNL     1      10.186  30.966   0.982  1.00  0.00    -0.003 C 
ATOM      8  C   UNL     1      11.265  31.928   0.492  1.00  0.00     0.004 C 
ENDBRANCH   6   7
ENDBRANCH   1   6
TORSDOF 4
ENDMDL
MODEL 4
REMARK VINA RESULT:    -3.028     17.189     18.294
REMARK INTER + INTRA:          -3.847
REMARK INTER:                  -3.592
REMARK INTRA:                  -0.255
REMARK UNBOUND:                -0.111
REMARK SMILES CCCCCC(=O)[O-]
REMARK SMILES IDX 4 1 5 2 6 3 7 4 8 5 3 6 2 7 1 8
REMARK H PARENT
REMARK Flexibility Score: inf
ROOT
ATOM      1  C   UNL     1      24.327  32.749  12.116  1.00  0.00     0.006 C 
ENDROOT
BRANCH   1   2
ATOM      2  C   UNL     1      25.836  32.568  12.325  1.00  0.00     0.053 C 
BRANCH   2   3
ATOM      3  C   UNL     1      26.516  33.872  12.615  1.00  0.00     0.041 C 
ATOM      4  O   UNL     1      27.438  34.288  11.864  1.00  0.00    -0.550 OA
ATOM      5  O   UNL     1      26.151  34.611  13.732  1.00  0.00    -0.550 OA
ENDBRANCH   2   3
ENDBRANCH   1   2
BRANCH   1   6
ATOM      6  C   UNL     1      24.009  33.606  10.882  1.00  0.00     0.000 C 
BRANCH   6   7
ATOM      7  C   UNL     1      22.841  34.560  11.162  1.00  0.00    -0.003 C 
ATOM      8  C   UNL     1      22.792  34.952  12.636  1.00  0.00     0.004 C 
ENDBRANCH   6   7
ENDBRANCH   1   6
TORSDOF 4
ENDMDL
MODEL 5
REMARK VINA RESULT:    -3.021     17.854     19.027
REMARK INTER + INTRA:          -3.838
REMARK INTER:                  -3.754
REMARK INTRA:                  -0.084
REMARK UNBOUND:                -0.111
REMARK SMILES CCCCCC(=O)[O-]
REMARK SMILES IDX 4 1 5 2 6 3 7 4 8 5 3 6 2 7 1 8
REMARK H PARENT
REMARK Flexibility Score: inf
ROOT
ATOM      1  C   UNL     1      26.117  32.735  11.983  1.00  0.00     0.006 C 
ENDROOT
BRANCH   1   2
ATOM      2  C   UNL     1      26.794  34.051  12.385  1.00  0.00     0.053 C 
BRANCH   2   3
ATOM      3  C   UNL     1      26.210  34.614  13.644  1.00  0.00     0.041 C 
ATOM      4  O   UNL     1      26.885  34.628  14.707  1.00  0.00    -0.550 OA
ATOM      5  O   UNL     1      24.907  35.096  13.650  1.00  0.00    -0.550 OA
ENDBRANCH   2   3
ENDBRANCH   1   2
BRANCH   1   6
ATOM      6  C   UNL     1      25.108  32.924  10.840  1.00  0.00     0.000 C 
BRANCH   6   7
ATOM      7  C   UNL     1      24.467  31.588  10.447  1.00  0.00    -0.003 C 
ATOM      8  C   UNL     1      25.152  30.987   9.222  1.00  0.00     0.004 C 
ENDBRANCH   6   7
ENDBRANCH   1   6
TORSDOF 4
ENDMDL
MODEL 6
REMARK VINA RESULT:    -2.995     17.350     18.341
REMARK INTER + INTRA:          -3.806
REMARK INTER:                  -3.647
REMARK INTRA:                  -0.159
REMARK UNBOUND:                -0.111
REMARK SMILES CCCCCC(=O)[O-]
REMARK SMILES IDX 4 1 5 2 6 3 7 4 8 5 3 6 2 7 1 8
REMARK H PARENT
REMARK Flexibility Score: inf
ROOT
ATOM      1  C   UNL     1      26.684  33.759  12.018  1.00  0.00     0.006 C 
ENDROOT
BRANCH   1   2
ATOM      2  C   UNL     1      25.795  32.520  11.853  1.00  0.00     0.053 C 
BRANCH   2   3
ATOM      3  C   UNL     1      24.908  32.630  10.651  1.00  0.00     0.041 C 
ATOM      4  O   UNL     1      24.095  33.587  10.546  1.00  0.00    -0.550 OA
ATOM      5  O   UNL     1      24.957  31.658   9.660  1.00  0.00    -0.550 OA
ENDBRANCH   2   3
ENDBRANCH   1   2
BRANCH   1   6
ATOM      6  C   UNL     1      26.593  34.356  13.431  1.00  0.00     0.000 C 
BRANCH   6   7
ATOM      7  C   UNL     1      25.132  34.550  13.852  1.00  0.00    -0.003 C 
ATOM      8  C   UNL     1      24.854  36.004  14.225  1.00  0.00     0.004 C 
ENDBRANCH   6   7
ENDBRANCH   1   6
TORSDOF 4
ENDMDL
MODEL 7
REMARK VINA RESULT:    -2.983     17.223     18.273
REMARK INTER + INTRA:          -3.792
REMARK INTER:                  -3.555
REMARK INTRA:                  -0.236
REMARK UNBOUND:                -0.111
REMARK SMILES CCCCCC(=O)[O-]
REMARK SMILES IDX 4 1 5 2 6 3 7 4 8 5 3 6 2 7 1 8
REMARK H PARENT
REMARK Flexibility Score: inf
ROOT
ATOM      1  C   UNL     1      25.722  32.830  11.919  1.00  0.00     0.006 C 
ENDROOT
BRANCH   1   2
ATOM      2  C   UNL     1      24.711  33.315  10.873  1.00  0.00     0.053 C 
BRANCH   2   3
ATOM      3  C   UNL     1      23.517  33.957  11.511  1.00  0.00     0.041 C 
ATOM      4  O   UNL     1      22.835  34.803  10.875  1.00  0.00    -0.550 OA
ATOM      5  O   UNL     1      23.177  33.644  12.821  1.00  0.00    -0.550 OA
ENDBRANCH   2   3
ENDBRANCH   1   2
BRANCH   1   6
ATOM      6  C   UNL     1      26.808  33.878  12.208  1.00  0.00     0.000 C 
BRANCH   6   7
ATOM      7  C   UNL     1      26.629  34.482  13.607  1.00  0.00    -0.003 C 
ATOM      8  C   UNL     1      26.191  33.421  14.612  1.00  0.00     0.004 C 
ENDBRANCH   6   7
ENDBRANCH   1   6
TORSDOF 4
ENDMDL
MODEL 8
REMARK VINA RESULT:    -2.932     16.684     17.764
REMARK INTER + INTRA:          -3.729
REMARK INTER:                  -3.535
REMARK INTRA:                  -0.194
REMARK UNBOUND:                -0.111
REMARK SMILES CCCCCC(=O)[O-]
REMARK SMILES IDX 4 1 5 2 6 3 7 4 8 5 3 6 2 7 1 8
REMARK H PARENT
REMARK Flexibility Score: inf
ROOT
ATOM      1  C   UNL     1      22.858  34.584  11.483  1.00  0.00     0.006 C 
ENDROOT
BRANCH   1   2
ATOM      2  C   UNL     1      22.542  34.251  12.947  1.00  0.00     0.053 C 
BRANCH   2   3
ATOM      3  C   UNL     1      22.699  35.449  13.833  1.00  0.00     0.041 C 
ATOM      4  O   UNL     1      21.797  35.750  14.660  1.00  0.00    -0.550 OA
ATOM      5  O   UNL     1      23.828  36.251  13.724  1.00  0.00    -0.550 OA
ENDBRANCH   2   3
ENDBRANCH   1   2
BRANCH   1   6
ATOM      6  C   UNL     1      23.945  33.668  10.900  1.00  0.00     0.000 C 
BRANCH   6   7
ATOM      7  C   UNL     1      24.790  33.040  12.015  1.00  0.00    -0.003 C 
ATOM      8  C   UNL     1      26.214  33.588  12.003  1.00  0.00     0.004 C 
ENDBRANCH   6   7
ENDBRANCH   1   6
TORSDOF 4
ENDMDL
