MODEL 1
REMARK VINA RESULT:    -4.053      0.000      0.000
REMARK INTER + INTRA:          -6.307
REMARK INTER:                  -5.948
REMARK INTRA:                  -0.359
REMARK UNBOUND:                -0.359
REMARK SMILES O=C([O-])CCCCCCCC(=O)[O-]
REMARK SMILES IDX 7 1 6 2 5 3 4 4 2 5 1 6 3 7 8 8 9 9 10 10 11 11 12 12 13 13
REMARK H PARENT
REMARK Flexibility Score: inf
ROOT
ATOM      1  C   UNL     1      45.683  25.941   4.332  1.00  0.00     0.000 C 
ENDROOT
BRANCH   1   2
ATOM      2  C   UNL     1      44.874  25.827   3.032  1.00  0.00     0.000 C 
BRANCH   2   3
ATOM      3  C   UNL     1      44.501  27.198   2.438  1.00  0.00     0.006 C 
BRANCH   3   4
ATOM      4  C   UNL     1      43.258  27.180   1.533  1.00  0.00     0.053 C 
BRANCH   4   5
ATOM      5  C   UNL     1      43.618  27.296   0.084  1.00  0.00     0.041 C 
ATOM      6  O   UNL     1      44.656  26.738  -0.358  1.00  0.00    -0.550 OA
ATOM      7  O   UNL     1      42.824  28.050  -0.771  1.00  0.00    -0.550 OA
ENDBRANCH   4   5
ENDBRANCH   3   4
ENDBRANCH   2   3
ENDBRANCH   1   2
BRANCH   1   8
ATOM      8  C   UNL     1      46.034  27.406   4.633  1.00  0.00     0.000 C 
BRANCH   8   9
ATOM      9  C   UNL     1      46.146  27.691   6.140  1.00  0.00     0.006 C 
BRANCH   9  10
ATOM     10  C   UNL     1      45.970  26.429   6.995  1.00  0.00     0.053 C 
BRANCH  10  11
ATOM     11  C   UNL     1      45.421  26.784   8.341  1.00  0.00     0.041 C 
ATOM     12  O   UNL     1      45.257  25.890   9.213  1.00  0.00    -0.550 OA
ATOM     13  O   UNL     1      45.045  28.092   8.616  1.00  0.00    -0.550 OA
ENDBRANCH  10  11
ENDBRANCH   9  10
ENDBRANCH   8   9
ENDBRANCH   1   8
TORSDOF 8
ENDMDL
MODEL 2
REMARK VINA RESULT:    -3.970      2.922      4.236
REMARK INTER + INTRA:          -6.185
REMARK INTER:                  -5.410
REMARK INTRA:                  -0.776
REMARK UNBOUND:                -0.359
REMARK SMILES O=C([O-])CCCCCCCC(=O)[O-]
REMARK SMILES IDX 7 1 6 2 5 3 4 4 2 5 1 6 3 7 8 8 9 9 10 10 11 11 12 12 13 13
REMARK H PARENT
REMARK Flexibility Score: inf
ROOT
ATOM      1  C   UNL     1      42.277  27.979   1.207  1.00  0.00     0.000 C 
ENDROOT
BRANCH   1   2
ATOM      2  C   UNL     1      43.026  28.922   0.255  1.00  0.00     0.000 C 
BRANCH   2   3
ATOM      3  C   UNL     1      42.595  28.756  -1.213  1.00  0.00     0.006 C 
BRANCH   3   4
ATOM      4  C   UNL     1      43.728  28.333  -2.163  1.00  0.00     0.053 C 
BRANCH   4   5
ATOM      5  C   UNL     1      44.496  27.161  -1.633  1.00  0.00     0.041 C 
ATOM      6  O   UNL     1      45.725  27.269  -1.384  1.00  0.00    -0.550 OA
ATOM      7  O   UNL     1      43.859  25.940  -1.447  1.00  0.00    -0.550 OA
ENDBRANCH   4   5
ENDBRANCH   3   4
ENDBRANCH   2   3
ENDBRANCH   1   2
BRANCH   1   8
ATOM      8  C   UNL     1      43.261  27.126   2.021  1.00  0.00     0.000 C 
BRANCH   8   9
ATOM      9  C   UNL     1      44.679  27.719   2.047  1.00  0.00     0.006 C 
BRANCH   9  10
ATOM     10  C   UNL     1      45.771  26.642   2.096  1.00  0.00     0.053 C 
BRANCH  10  11
ATOM     11  C   UNL     1      45.636  25.820   3.339  1.00  0.00     0.041 C 
ATOM     12  O   UNL     1      45.412  24.583   3.259  1.00  0.00    -0.550 OA
ATOM     13  O   UNL     1      45.709  26.428   4.586  1.00  0.00    -0.550 OA
ENDBRANCH  10  11
ENDBRANCH   9  10
ENDBRANCH   8   9
ENDBRANCH   1   8
TORSDOF 8
ENDMDL
MODEL 3
REMARK VINA RESULT:    -3.951      3.498      7.020
REMARK INTER + INTRA:          -6.158
REMARK INTER:                  -5.552
REMARK INTRA:                  -0.606
REMARK UNBOUND:                -0.359
REMARK SMILES O=C([O-])CCCCCCCC(=O)[O-]
REMARK SMILES IDX 7 1 6 2 5 3 4 4 2 5 1 6 3 7 8 8 9 9 10 10 11 11 12 12 13 13
REMARK H PARENT
REMARK Flexibility Score: inf
ROOT
ATOM      1  C   UNL     1      42.242  28.754   1.060  1.00  0.00     0.000 C 
ENDROOT
BRANCH   1   2
ATOM      2  C   UNL     1      42.737  27.468   1.737  1.00  0.00     0.000 C 
BRANCH   2   3
ATOM      3  C   UNL     1      44.271  27.402   1.844  1.00  0.00     0.006 C 
BRANCH   3   4
ATOM      4  C   UNL     1      44.790  26.421   2.909  1.00  0.00     0.053 C 
BRANCH   4   5
ATOM      5  C   UNL     1      46.195  25.982   2.630  1.00  0.00     0.041 C 
ATOM      6  O   UNL     1      46.765  25.160   3.393  1.00  0.00    -0.550 OA
ATOM      7  O   UNL     1      46.884  26.508   1.545  1.00  0.00    -0.550 OA
ENDBRANCH   4   5
ENDBRANCH   3   4
ENDBRANCH   2   3
ENDBRANCH   1   2
BRANCH   1   8
ATOM      8  C   UNL     1      43.178  29.166  -0.086  1.00  0.00     0.000 C 
BRANCH   8   9
ATOM      9  C   UNL     1      42.677  28.694  -1.461  1.00  0.00     0.006 C 
BRANCH   9  10
ATOM     10  C   UNL     1      43.821  28.296  -2.403  1.00  0.00     0.053 C 
BRANCH  10  11
ATOM     11  C   UNL     1      44.560  27.116  -1.856  1.00  0.00     0.041 C 
ATOM     12  O   UNL     1      45.818  27.127  -1.798  1.00  0.00    -0.550 OA
ATOM     13  O   UNL     1      43.862  25.982  -1.457  1.00  0.00    -0.550 OA
ENDBRANCH  10  11
ENDBRANCH   9  10
ENDBRANCH   8   9
ENDBRANCH   1   8
TORSDOF 8
ENDMDL
MODEL 4
REMARK VINA RESULT:    -3.900      2.952      6.806
REMARK INTER + INTRA:          -6.082
REMARK INTER:                  -5.384
REMARK INTRA:                  -0.698
REMARK UNBOUND:                -0.359
REMARK SMILES O=C([O-])CCCCCCCC(=O)[O-]
REMARK SMILES IDX 7 1 6 2 5 3 4 4 2 5 1 6 3 7 8 8 9 9 10 10 11 11 12 12 13 13
REMARK H PARENT
REMARK Flexibility Score: inf
ROOT
ATOM      1  C   UNL     1      43.877  28.483   2.036  1.00  0.00     0.000 C 
ENDROOT
BRANCH   1   2
ATOM      2  C   UNL     1      45.351  28.312   2.432  1.00  0.00     0.000 C 
BRANCH   2   3
ATOM      3  C   UNL     1      46.081  27.258   1.580  1.00  0.00     0.006 C 
BRANCH   3   4
ATOM      4  C   UNL     1      46.947  26.278   2.388  1.00  0.00     0.053 C 
BRANCH   4   5
ATOM      5  C   UNL     1      46.169  25.614   3.483  1.00  0.00     0.041 C 
ATOM      6  O   UNL     1      45.256  24.793   3.204  1.00  0.00    -0.550 OA
ATOM      7  O   UNL     1      46.430  25.929   4.810  1.00  0.00    -0.550 OA
ENDBRANCH   4   5
ENDBRANCH   3   4
ENDBRANCH   2   3
ENDBRANCH   1   2
BRANCH   1   8
ATOM      8  C   UNL     1      43.287  27.156   1.533  1.00  0.00     0.000 C 
BRANCH   8   9
ATOM      9  C   UNL     1      42.555  27.305   0.190  1.00  0.00     0.006 C 
BRANCH   9  10
ATOM     10  C   UNL     1      43.440  27.919  -0.902  1.00  0.00     0.053 C 
BRANCH  10  11
ATOM     11  C   UNL     1      44.204  26.849  -1.617  1.00  0.00     0.041 C 
ATOM     12  O   UNL     1      43.772  25.666  -1.633  1.00  0.00    -0.550 OA
ATOM     13  O   UNL     1      45.417  27.147  -2.224  1.00  0.00    -0.550 OA
ENDBRANCH  10  11
ENDBRANCH   9  10
ENDBRANCH   8   9
ENDBRANCH   1   8
TORSDOF 8
ENDMDL
MODEL 5
REMARK VINA RESULT:    -3.884      0.647      6.933
REMARK INTER + INTRA:          -6.059
REMARK INTER:                  -5.663
REMARK INTRA:                  -0.396
REMARK UNBOUND:                -0.359
REMARK SMILES O=C([O-])CCCCCCCC(=O)[O-]
REMARK SMILES IDX 7 1 6 2 5 3 4 4 2 5 1 6 3 7 8 8 9 9 10 10 11 11 12 12 13 13
REMARK H PARENT
REMARK Flexibility Score: inf
ROOT
ATOM      1  C   UNL     1      45.164  26.078   3.004  1.00  0.00     0.000 C 
ENDROOT
BRANCH   1   2
ATOM      2  C   UNL     1      45.544  25.575   4.404  1.00  0.00     0.000 C 
BRANCH   2   3
ATOM      3  C   UNL     1      45.955  26.712   5.357  1.00  0.00     0.006 C 
BRANCH   3   4
ATOM      4  C   UNL     1      46.390  26.242   6.755  1.00  0.00     0.053 C 
BRANCH   4   5
ATOM      5  C   UNL     1      45.509  26.797   7.832  1.00  0.00     0.041 C 
ATOM      6  O   UNL     1      45.213  28.020   7.840  1.00  0.00    -0.550 OA
ATOM      7  O   UNL     1      45.045  25.968   8.845  1.00  0.00    -0.550 OA
ENDBRANCH   4   5
ENDBRANCH   3   4
ENDBRANCH   2   3
ENDBRANCH   1   2
BRANCH   1   8
ATOM      8  C   UNL     1      45.221  27.612   2.939  1.00  0.00     0.000 C 
BRANCH   8   9
ATOM      9  C   UNL     1      44.027  28.217   2.182  1.00  0.00     0.006 C 
BRANCH   9  10
ATOM     10  C   UNL     1      43.216  27.164   1.417  1.00  0.00     0.053 C 
BRANCH  10  11
ATOM     11  C   UNL     1      43.463  27.284  -0.055  1.00  0.00     0.041 C 
ATOM     12  O   UNL     1      42.717  28.009  -0.765  1.00  0.00    -0.550 OA
ATOM     13  O   UNL     1      44.486  26.557  -0.650  1.00  0.00    -0.550 OA
ENDBRANCH  10  11
ENDBRANCH   9  10
ENDBRANCH   8   9
ENDBRANCH   1   8
TORSDOF 8
ENDMDL
MODEL 6
REMARK VINA RESULT:    -3.882      4.022      5.996
REMARK INTER + INTRA:          -6.056
REMARK INTER:                  -5.721
REMARK INTRA:                  -0.335
REMARK UNBOUND:                -0.359
REMARK SMILES O=C([O-])CCCCCCCC(=O)[O-]
REMARK SMILES IDX 7 1 6 2 5 3 4 4 2 5 1 6 3 7 8 8 9 9 10 10 11 11 12 12 13 13
REMARK H PARENT
REMARK Flexibility Score: inf
ROOT
ATOM      1  C   UNL     1      43.333  27.797  -1.081  1.00  0.00     0.000 C 
ENDROOT
BRANCH   1   2
ATOM      2  C   UNL     1      44.100  26.976  -2.128  1.00  0.00     0.000 C 
BRANCH   2   3
ATOM      3  C   UNL     1      44.206  27.690  -3.487  1.00  0.00     0.006 C 
BRANCH   3   4
ATOM      4  C   UNL     1      42.890  28.314  -3.981  1.00  0.00     0.053 C 
BRANCH   4   5
ATOM      5  C   UNL     1      42.554  27.883  -5.375  1.00  0.00     0.041 C 
ATOM      6  O   UNL     1      43.233  26.987  -5.942  1.00  0.00    -0.550 OA
ATOM      7  O   UNL     1      41.512  28.495  -6.060  1.00  0.00    -0.550 OA
ENDBRANCH   4   5
ENDBRANCH   3   4
ENDBRANCH   2   3
ENDBRANCH   1   2
BRANCH   1   8
ATOM      8  C   UNL     1      42.842  26.901   0.066  1.00  0.00     0.000 C 
BRANCH   8   9
ATOM      9  C   UNL     1      42.730  27.656   1.401  1.00  0.00     0.006 C 
BRANCH   9  10
ATOM     10  C   UNL     1      44.095  27.914   2.050  1.00  0.00     0.053 C 
BRANCH  10  11
ATOM     11  C   UNL     1      44.955  26.693   1.960  1.00  0.00     0.041 C 
ATOM     12  O   UNL     1      44.719  25.696   2.693  1.00  0.00    -0.550 OA
ATOM     13  O   UNL     1      46.048  26.673   1.103  1.00  0.00    -0.550 OA
ENDBRANCH  10  11
ENDBRANCH   9  10
ENDBRANCH   8   9
ENDBRANCH   1   8
TORSDOF 8
ENDMDL
MODEL 7
REMARK VINA RESULT:    -3.877      4.020      8.768
REMARK INTER + INTRA:          -6.048
REMARK INTER:                  -5.603
REMARK INTRA:                  -0.445
REMARK UNBOUND:                -0.359
REMARK SMILES O=C([O-])CCCCCCCC(=O)[O-]
REMARK SMILES IDX 7 1 6 2 5 3 4 4 2 5 1 6 3 7 8 8 9 9 10 10 11 11 12 12 13 13
REMARK H PARENT
REMARK Flexibility Score: inf
ROOT
ATOM      1  C   UNL     1      43.177  27.938  -1.065  1.00  0.00     0.000 C 
ENDROOT
BRANCH   1   2
ATOM      2  C   UNL     1      42.799  26.960   0.057  1.00  0.00     0.000 C 
BRANCH   2   3
ATOM      3  C   UNL     1      42.770  27.626   1.445  1.00  0.00     0.006 C 
BRANCH   3   4
ATOM      4  C   UNL     1      44.159  27.891   2.049  1.00  0.00     0.053 C 
BRANCH   4   5
ATOM      5  C   UNL     1      45.057  26.698   1.937  1.00  0.00     0.041 C 
ATOM      6  O   UNL     1      46.012  26.697   1.117  1.00  0.00    -0.550 OA
ATOM      7  O   UNL     1      44.818  25.573   2.716  1.00  0.00    -0.550 OA
ENDBRANCH   4   5
ENDBRANCH   3   4
ENDBRANCH   2   3
ENDBRANCH   1   2
BRANCH   1   8
ATOM      8  C   UNL     1      44.194  27.302  -2.026  1.00  0.00     0.000 C 
BRANCH   8   9
ATOM      9  C   UNL     1      44.277  28.039  -3.372  1.00  0.00     0.006 C 
BRANCH   9  10
ATOM     10  C   UNL     1      42.908  28.524  -3.867  1.00  0.00     0.053 C 
BRANCH  10  11
ATOM     11  C   UNL     1      42.511  27.788  -5.107  1.00  0.00     0.041 C 
ATOM     12  O   UNL     1      43.052  26.686  -5.391  1.00  0.00    -0.550 OA
ATOM     13  O   UNL     1      41.578  28.341  -5.976  1.00  0.00    -0.550 OA
ENDBRANCH  10  11
ENDBRANCH   9  10
ENDBRANCH   8   9
ENDBRANCH   1   8
TORSDOF 8
ENDMDL
MODEL 8
REMARK VINA RESULT:    -3.828      3.675      5.292
REMARK INTER + INTRA:          -5.978
REMARK INTER:                  -5.538
REMARK INTRA:                  -0.440
REMARK UNBOUND:                -0.359
REMARK SMILES O=C([O-])CCCCCCCC(=O)[O-]
REMARK SMILES IDX 7 1 6 2 5 3 4 4 2 5 1 6 3 7 8 8 9 9 10 10 11 11 12 12 13 13
REMARK H PARENT
REMARK Flexibility Score: inf
ROOT
ATOM      1  C   UNL     1      42.716  27.169   0.100  1.00  0.00     0.000 C 
ENDROOT
BRANCH   1   2
ATOM      2  C   UNL     1      43.549  28.116  -0.776  1.00  0.00     0.000 C 
BRANCH   2   3
ATOM      3  C   UNL     1      43.738  27.593  -2.211  1.00  0.00     0.006 C 
BRANCH   3   4
ATOM      4  C   UNL     1      43.050  28.444  -3.292  1.00  0.00     0.053 C 
BRANCH   4   5
ATOM      5  C   UNL     1      42.752  27.649  -4.526  1.00  0.00     0.041 C 
ATOM      6  O   UNL     1      43.359  26.568  -4.745  1.00  0.00    -0.550 OA
ATOM      7  O   UNL     1      41.827  28.120  -5.449  1.00  0.00    -0.550 OA
ENDBRANCH   4   5
ENDBRANCH   3   4
ENDBRANCH   2   3
ENDBRANCH   1   2
BRANCH   1   8
ATOM      8  C   UNL     1      42.782  27.588   1.576  1.00  0.00     0.000 C 
BRANCH   8   9
ATOM      9  C   UNL     1      44.051  28.389   1.909  1.00  0.00     0.006 C 
BRANCH   9  10
ATOM     10  C   UNL     1      44.938  27.688   2.947  1.00  0.00     0.053 C 
BRANCH  10  11
ATOM     11  C   UNL     1      45.517  26.433   2.374  1.00  0.00     0.041 C 
ATOM     12  O   UNL     1      46.219  26.477   1.330  1.00  0.00    -0.550 OA
ATOM     13  O   UNL     1      45.240  25.206   2.966  1.00  0.00    -0.550 OA
ENDBRANCH  10  11
ENDBRANCH   9  10
ENDBRANCH   8   9
ENDBRANCH   1   8
TORSDOF 8
ENDMDL
MODEL 9
REMARK VINA RESULT:    -3.798      1.300      2.119
REMARK INTER + INTRA:          -5.932
REMARK INTER:                  -5.613
REMARK INTRA:                  -0.319
REMARK UNBOUND:                -0.359
REMARK SMILES O=C([O-])CCCCCCCC(=O)[O-]
REMARK SMILES IDX 7 1 6 2 5 3 4 4 2 5 1 6 3 7 8 8 9 9 10 10 11 11 12 12 13 13
REMARK H PARENT
REMARK Flexibility Score: inf
ROOT
ATOM      1  C   UNL     1      44.667  27.216   2.630  1.00  0.00     0.000 C 
ENDROOT
BRANCH   1   2
ATOM      2  C   UNL     1      43.353  27.106   1.842  1.00  0.00     0.000 C 
BRANCH   2   3
ATOM      3  C   UNL     1      43.119  28.301   0.901  1.00  0.00     0.006 C 
BRANCH   3   4
ATOM      4  C   UNL     1      43.009  27.926  -0.586  1.00  0.00     0.053 C 
BRANCH   4   5
ATOM      5  C   UNL     1      44.081  26.965  -1.002  1.00  0.00     0.041 C 
ATOM      6  O   UNL     1      45.293  27.295  -0.922  1.00  0.00    -0.550 OA
ATOM      7  O   UNL     1      43.737  25.718  -1.509  1.00  0.00    -0.550 OA
ENDBRANCH   4   5
ENDBRANCH   3   4
ENDBRANCH   2   3
ENDBRANCH   1   2
BRANCH   1   8
ATOM      8  C   UNL     1      45.189  25.825   3.021  1.00  0.00     0.000 C 
BRANCH   8   9
ATOM      9  C   UNL     1      45.443  25.691   4.532  1.00  0.00     0.006 C 
BRANCH   9  10
ATOM     10  C   UNL     1      46.264  26.856   5.100  1.00  0.00     0.053 C 
BRANCH  10  11
ATOM     11  C   UNL     1      45.872  27.128   6.518  1.00  0.00     0.041 C 
ATOM     12  O   UNL     1      45.715  26.174   7.326  1.00  0.00    -0.550 OA
ATOM     13  O   UNL     1      45.632  28.431   6.936  1.00  0.00    -0.550 OA
ENDBRANCH  10  11
ENDBRANCH   9  10
ENDBRANCH   8   9
ENDBRANCH   1   8
TORSDOF 8
ENDMDL
