MODEL 1
REMARK VINA RESULT:    -4.865      0.000      0.000
REMARK INTER + INTRA:          -5.007
REMARK INTER:                  -5.007
REMARK INTRA:                   0.000
REMARK UNBOUND:                 0.000
REMARK SMILES C[C@@H]1CC[C@@]2(OC1)O[C@H]1C[C@H]3[C@@H]4CC=C5C[C@@H](O)CC[C@@]5(C)[C@@H]4CC[C@@]3(C)[C@H]1[C@@H]2C
REMARK SMILES IDX 1 1 2 2 3 3 4 4 5 5 29 6 28 7 9 8 8 9 10 10 11 11 26 12
REMARK SMILES IDX 25 13 24 14 23 15 12 16 13 17 14 18 15 19 21 20 20 21 19 22
REMARK SMILES IDX 17 23 16 24 22 25 27 26 30 27 6 28 7 29 18 30
REMARK H PARENT 18 31
REMARK Flexibility Score: inf
ROOT
ATOM      1  C   UNL     1     -18.379  12.611   7.553  1.00  0.00     0.010 C 
ATOM      2  C   UNL     1     -17.991  11.296   8.239  1.00  0.00     0.012 C 
ATOM      3  C   UNL     1     -16.656  10.742   7.692  1.00  0.00     0.011 C 
ATOM      4  C   UNL     1     -16.903   9.664   6.637  1.00  0.00     0.066 C 
ATOM      5  C   UNL     1     -17.798   8.516   7.214  1.00  0.00     0.171 C 
ATOM      6  C   UNL     1     -16.924   7.311   7.675  1.00  0.00     0.052 C 
ATOM      7  C   UNL     1     -17.618   6.101   7.045  1.00  0.00     0.033 C 
ATOM      8  C   UNL     1     -18.869   6.683   6.427  1.00  0.00     0.126 C 
ATOM      9  O   UNL     1     -18.643   8.049   6.182  1.00  0.00    -0.346 OA
ATOM     10  C   UNL     1     -19.125   5.924   5.126  1.00  0.00     0.037 C 
ATOM     11  C   UNL     1     -18.076   4.804   5.062  1.00  0.00     0.002 C 
ATOM     12  C   UNL     1     -16.879   5.323   5.907  1.00  0.00    -0.024 C 
ATOM     13  C   UNL     1     -15.945   6.224   5.041  1.00  0.00     0.008 C 
ATOM     14  C   UNL     1     -15.583   5.619   3.677  1.00  0.00     0.005 C 
ATOM     15  C   UNL     1     -16.852   5.347   2.834  1.00  0.00     0.003 C 
ATOM     16  C   UNL     1     -17.780   4.368   3.596  1.00  0.00     0.000 C 
ATOM     17  C   UNL     1     -17.224   2.937   3.536  1.00  0.00     0.031 C 
ATOM     18  C   UNL     1     -16.983   2.505   2.126  1.00  0.00    -0.027 C 
ATOM     19  C   UNL     1     -16.650   3.360   1.137  1.00  0.00    -0.065 C 
ATOM     20  C   UNL     1     -16.611   4.885   1.328  1.00  0.00    -0.008 C 
ATOM     21  C   UNL     1     -17.762   5.476   0.450  1.00  0.00     0.014 C 
ATOM     22  C   UNL     1     -17.773   4.975  -1.010  1.00  0.00     0.033 C 
ATOM     23  C   UNL     1     -17.726   3.437  -1.125  1.00  0.00     0.118 C 
ATOM     24  C   UNL     1     -16.593   2.827  -0.281  1.00  0.00     0.063 C 
ATOM     25  C   UNL     1     -15.257   5.429   0.795  1.00  0.00     0.016 C 
ATOM     26  C   UNL     1     -16.056   4.185   6.558  1.00  0.00     0.012 C 
ATOM     27  C   UNL     1     -16.813   7.166   9.204  1.00  0.00     0.014 C 
ATOM     28  O   UNL     1     -18.617   8.954   8.303  1.00  0.00    -0.349 OA
ATOM     29  C   UNL     1     -19.123  10.256   8.093  1.00  0.00     0.167 C 
ENDROOT
BRANCH  23  30
ATOM     30  O   UNL     1     -18.972   2.867  -0.805  1.00  0.00    -0.393 OA
ATOM     31  H   UNL     1     -19.066   2.021  -1.313  1.00  0.00     0.210 HD
ENDBRANCH  23  30
TORSDOF 1
ENDMDL
MODEL 2
REMARK VINA RESULT:    -3.865      4.664      6.440
REMARK INTER + INTRA:          -3.978
REMARK INTER:                  -3.978
REMARK INTRA:                   0.000
REMARK UNBOUND:                 0.000
REMARK SMILES C[C@@H]1CC[C@@]2(OC1)O[C@H]1C[C@H]3[C@@H]4CC=C5C[C@@H](O)CC[C@@]5(C)[C@@H]4CC[C@@]3(C)[C@H]1[C@@H]2C
REMARK SMILES IDX 1 1 2 2 3 3 4 4 5 5 29 6 28 7 9 8 8 9 10 10 11 11 26 12
REMARK SMILES IDX 25 13 24 14 23 15 12 16 13 17 14 18 15 19 21 20 20 21 19 22
REMARK SMILES IDX 17 23 16 24 22 25 27 26 30 27 6 28 7 29 18 30
REMARK H PARENT 18 31
REMARK Flexibility Score: inf
ROOT
ATOM      1  C   UNL     1     -12.164  14.116   3.408  1.00  0.00     0.010 C 
ATOM      2  C   UNL     1     -13.273  14.125   2.350  1.00  0.00     0.012 C 
ATOM      3  C   UNL     1     -14.651  13.794   2.968  1.00  0.00     0.011 C 
ATOM      4  C   UNL     1     -15.003  12.321   2.761  1.00  0.00     0.066 C 
ATOM      5  C   UNL     1     -14.962  11.948   1.241  1.00  0.00     0.171 C 
ATOM      6  C   UNL     1     -16.393  11.972   0.625  1.00  0.00     0.052 C 
ATOM      7  C   UNL     1     -16.480  10.646  -0.136  1.00  0.00     0.033 C 
ATOM      8  C   UNL     1     -15.087  10.070  -0.018  1.00  0.00     0.126 C 
ATOM      9  O   UNL     1     -14.477  10.626   1.121  1.00  0.00    -0.346 OA
ATOM     10  C   UNL     1     -15.235   8.556   0.120  1.00  0.00     0.037 C 
ATOM     11  C   UNL     1     -16.731   8.249  -0.050  1.00  0.00     0.002 C 
ATOM     12  C   UNL     1     -17.462   9.548   0.387  1.00  0.00    -0.024 C 
ATOM     13  C   UNL     1     -17.661   9.573   1.934  1.00  0.00     0.008 C 
ATOM     14  C   UNL     1     -18.223   8.267   2.513  1.00  0.00     0.005 C 
ATOM     15  C   UNL     1     -17.291   7.072   2.199  1.00  0.00     0.003 C 
ATOM     16  C   UNL     1     -17.136   6.924   0.665  1.00  0.00     0.000 C 
ATOM     17  C   UNL     1     -18.406   6.318   0.048  1.00  0.00     0.031 C 
ATOM     18  C   UNL     1     -18.768   5.027   0.706  1.00  0.00    -0.027 C 
ATOM     19  C   UNL     1     -18.493   4.752   1.998  1.00  0.00    -0.065 C 
ATOM     20  C   UNL     1     -17.664   5.687   2.894  1.00  0.00    -0.008 C 
ATOM     21  C   UNL     1     -16.333   4.934   3.217  1.00  0.00     0.014 C 
ATOM     22  C   UNL     1     -16.525   3.492   3.735  1.00  0.00     0.033 C 
ATOM     23  C   UNL     1     -17.436   2.638   2.830  1.00  0.00     0.118 C 
ATOM     24  C   UNL     1     -18.762   3.348   2.504  1.00  0.00     0.063 C 
ATOM     25  C   UNL     1     -18.430   5.927   4.224  1.00  0.00     0.016 C 
ATOM     26  C   UNL     1     -18.825   9.745  -0.321  1.00  0.00     0.012 C 
ATOM     27  C   UNL     1     -16.656  13.174  -0.302  1.00  0.00     0.014 C 
ATOM     28  O   UNL     1     -14.104  12.812   0.488  1.00  0.00    -0.349 OA
ATOM     29  C   UNL     1     -12.933  13.149   1.203  1.00  0.00     0.167 C 
ENDROOT
BRANCH  23  30
ATOM     30  O   UNL     1     -16.762   2.243   1.660  1.00  0.00    -0.393 OA
ATOM     31  H   UNL     1     -17.046   1.321   1.433  1.00  0.00     0.210 HD
ENDBRANCH  23  30
TORSDOF 1
ENDMDL
MODEL 3
REMARK VINA RESULT:    -2.246      3.710      5.497
REMARK INTER + INTRA:          -2.312
REMARK INTER:                  -2.312
REMARK INTRA:                   0.000
REMARK UNBOUND:                 0.000
REMARK SMILES C[C@@H]1CC[C@@]2(OC1)O[C@H]1C[C@H]3[C@@H]4CC=C5C[C@@H](O)CC[C@@]5(C)[C@@H]4CC[C@@]3(C)[C@H]1[C@@H]2C
REMARK SMILES IDX 1 1 2 2 3 3 4 4 5 5 29 6 28 7 9 8 8 9 10 10 11 11 26 12
REMARK SMILES IDX 25 13 24 14 23 15 12 16 13 17 14 18 15 19 21 20 20 21 19 22
REMARK SMILES IDX 17 23 16 24 22 25 27 26 30 27 6 28 7 29 18 30
REMARK H PARENT 18 31
REMARK Flexibility Score: inf
ROOT
ATOM      1  C   UNL     1     -16.396  13.806   7.393  1.00  0.00     0.010 C 
ATOM      2  C   UNL     1     -16.986  14.113   6.012  1.00  0.00     0.012 C 
ATOM      3  C   UNL     1     -18.249  13.266   5.732  1.00  0.00     0.011 C 
ATOM      4  C   UNL     1     -17.908  12.042   4.882  1.00  0.00     0.066 C 
ATOM      5  C   UNL     1     -17.207  12.468   3.548  1.00  0.00     0.171 C 
ATOM      6  C   UNL     1     -18.231  12.513   2.374  1.00  0.00     0.052 C 
ATOM      7  C   UNL     1     -17.530  11.734   1.258  1.00  0.00     0.033 C 
ATOM      8  C   UNL     1     -16.155  11.452   1.820  1.00  0.00     0.126 C 
ATOM      9  O   UNL     1     -16.239  11.492   3.224  1.00  0.00    -0.346 OA
ATOM     10  C   UNL     1     -15.743  10.065   1.331  1.00  0.00     0.037 C 
ATOM     11  C   UNL     1     -16.846   9.597   0.370  1.00  0.00     0.002 C 
ATOM     12  C   UNL     1     -18.125  10.354   0.823  1.00  0.00    -0.024 C 
ATOM     13  C   UNL     1     -18.835   9.587   1.982  1.00  0.00     0.008 C 
ATOM     14  C   UNL     1     -19.009   8.084   1.722  1.00  0.00     0.005 C 
ATOM     15  C   UNL     1     -17.641   7.396   1.500  1.00  0.00     0.003 C 
ATOM     16  C   UNL     1     -16.925   8.043   0.288  1.00  0.00     0.000 C 
ATOM     17  C   UNL     1     -17.565   7.581  -1.030  1.00  0.00     0.031 C 
ATOM     18  C   UNL     1     -17.600   6.090  -1.125  1.00  0.00    -0.027 C 
ATOM     19  C   UNL     1     -17.701   5.282  -0.049  1.00  0.00    -0.065 C 
ATOM     20  C   UNL     1     -17.661   5.806   1.396  1.00  0.00    -0.008 C 
ATOM     21  C   UNL     1     -16.341   5.262   2.033  1.00  0.00     0.014 C 
ATOM     22  C   UNL     1     -16.124   3.744   1.854  1.00  0.00     0.033 C 
ATOM     23  C   UNL     1     -16.262   3.278   0.390  1.00  0.00     0.118 C 
ATOM     24  C   UNL     1     -17.560   3.788  -0.261  1.00  0.00     0.063 C 
ATOM     25  C   UNL     1     -18.865   5.218   2.183  1.00  0.00     0.016 C 
ATOM     26  C   UNL     1     -19.125  10.603  -0.333  1.00  0.00     0.012 C 
ATOM     27  C   UNL     1     -18.604  13.937   1.922  1.00  0.00     0.014 C 
ATOM     28  O   UNL     1     -16.550  13.736   3.656  1.00  0.00    -0.349 OA
ATOM     29  C   UNL     1     -15.924  13.902   4.911  1.00  0.00     0.167 C 
ENDROOT
BRANCH  23  30
ATOM     30  O   UNL     1     -15.131   3.639  -0.365  1.00  0.00    -0.393 OA
ATOM     31  H   UNL     1     -15.131   4.624  -0.474  1.00  0.00     0.210 HD
ENDBRANCH  23  30
TORSDOF 1
ENDMDL
MODEL 4
REMARK VINA RESULT:    -2.146      4.138      6.591
REMARK INTER + INTRA:          -2.209
REMARK INTER:                  -2.209
REMARK INTRA:                   0.000
REMARK UNBOUND:                 0.000
REMARK SMILES C[C@@H]1CC[C@@]2(OC1)O[C@H]1C[C@H]3[C@@H]4CC=C5C[C@@H](O)CC[C@@]5(C)[C@@H]4CC[C@@]3(C)[C@H]1[C@@H]2C
REMARK SMILES IDX 1 1 2 2 3 3 4 4 5 5 29 6 28 7 9 8 8 9 10 10 11 11 26 12
REMARK SMILES IDX 25 13 24 14 23 15 12 16 13 17 14 18 15 19 21 20 20 21 19 22
REMARK SMILES IDX 17 23 16 24 22 25 27 26 30 27 6 28 7 29 18 30
REMARK H PARENT 18 31
REMARK Flexibility Score: inf
ROOT
ATOM      1  C   UNL     1     -17.259   4.584   8.647  1.00  0.00     0.010 C 
ATOM      2  C   UNL     1     -17.747   4.085   7.281  1.00  0.00     0.012 C 
ATOM      3  C   UNL     1     -16.603   4.066   6.241  1.00  0.00     0.011 C 
ATOM      4  C   UNL     1     -16.643   5.316   5.362  1.00  0.00     0.066 C 
ATOM      5  C   UNL     1     -18.037   5.462   4.665  1.00  0.00     0.171 C 
ATOM      6  C   UNL     1     -17.987   4.914   3.207  1.00  0.00     0.052 C 
ATOM      7  C   UNL     1     -18.640   6.027   2.383  1.00  0.00     0.033 C 
ATOM      8  C   UNL     1     -19.125   7.011   3.423  1.00  0.00     0.126 C 
ATOM      9  O   UNL     1     -18.352   6.837   4.586  1.00  0.00    -0.346 OA
ATOM     10  C   UNL     1     -18.938   8.411   2.842  1.00  0.00     0.037 C 
ATOM     11  C   UNL     1     -18.457   8.221   1.396  1.00  0.00     0.002 C 
ATOM     12  C   UNL     1     -17.751   6.837   1.384  1.00  0.00    -0.024 C 
ATOM     13  C   UNL     1     -16.265   6.974   1.841  1.00  0.00     0.008 C 
ATOM     14  C   UNL     1     -15.503   8.116   1.152  1.00  0.00     0.005 C 
ATOM     15  C   UNL     1     -16.184   9.480   1.419  1.00  0.00     0.003 C 
ATOM     16  C   UNL     1     -17.639   9.446   0.889  1.00  0.00     0.000 C 
ATOM     17  C   UNL     1     -17.659   9.541  -0.644  1.00  0.00     0.031 C 
ATOM     18  C   UNL     1     -16.911  10.742  -1.125  1.00  0.00    -0.027 C 
ATOM     19  C   UNL     1     -15.858  11.270  -0.468  1.00  0.00    -0.065 C 
ATOM     20  C   UNL     1     -15.398  10.770   0.912  1.00  0.00    -0.008 C 
ATOM     21  C   UNL     1     -15.669  11.931   1.923  1.00  0.00     0.014 C 
ATOM     22  C   UNL     1     -15.121  13.305   1.480  1.00  0.00     0.033 C 
ATOM     23  C   UNL     1     -15.554  13.702   0.054  1.00  0.00     0.118 C 
ATOM     24  C   UNL     1     -15.287  12.582  -0.967  1.00  0.00     0.063 C 
ATOM     25  C   UNL     1     -13.868  10.502   0.871  1.00  0.00     0.016 C 
ATOM     26  C   UNL     1     -17.813   6.135   0.005  1.00  0.00     0.012 C 
ATOM     27  C   UNL     1     -18.714   3.570   3.018  1.00  0.00     0.014 C 
ATOM     28  O   UNL     1     -19.082   4.801   5.387  1.00  0.00    -0.349 OA
ATOM     29  C   UNL     1     -18.931   4.943   6.784  1.00  0.00     0.167 C 
ENDROOT
BRANCH  23  30
ATOM     30  O   UNL     1     -16.900  14.111   0.029  1.00  0.00    -0.393 OA
ATOM     31  H   UNL     1     -17.424  13.426  -0.460  1.00  0.00     0.210 HD
ENDBRANCH  23  30
TORSDOF 1
ENDMDL
MODEL 5
REMARK VINA RESULT:    -2.122      4.682      8.899
REMARK INTER + INTRA:          -2.184
REMARK INTER:                  -2.184
REMARK INTRA:                   0.000
REMARK UNBOUND:                 0.000
REMARK SMILES C[C@@H]1CC[C@@]2(OC1)O[C@H]1C[C@H]3[C@@H]4CC=C5C[C@@H](O)CC[C@@]5(C)[C@@H]4CC[C@@]3(C)[C@H]1[C@@H]2C
REMARK SMILES IDX 1 1 2 2 3 3 4 4 5 5 29 6 28 7 9 8 8 9 10 10 11 11 26 12
REMARK SMILES IDX 25 13 24 14 23 15 12 16 13 17 14 18 15 19 21 20 20 21 19 22
REMARK SMILES IDX 17 23 16 24 22 25 27 26 30 27 6 28 7 29 18 30
REMARK H PARENT 18 31
REMARK Flexibility Score: inf
ROOT
ATOM      1  C   UNL     1     -14.242   1.478   0.266  1.00  0.00     0.010 C 
ATOM      2  C   UNL     1     -15.632   2.090   0.058  1.00  0.00     0.012 C 
ATOM      3  C   UNL     1     -15.643   3.088  -1.124  1.00  0.00     0.011 C 
ATOM      4  C   UNL     1     -15.514   4.526  -0.624  1.00  0.00     0.066 C 
ATOM      5  C   UNL     1     -16.642   4.861   0.408  1.00  0.00     0.171 C 
ATOM      6  C   UNL     1     -17.816   5.619  -0.281  1.00  0.00     0.052 C 
ATOM      7  C   UNL     1     -18.072   6.807   0.650  1.00  0.00     0.033 C 
ATOM      8  C   UNL     1     -17.157   6.549   1.826  1.00  0.00     0.126 C 
ATOM      9  O   UNL     1     -16.105   5.723   1.390  1.00  0.00    -0.346 OA
ATOM     10  C   UNL     1     -16.634   7.905   2.296  1.00  0.00     0.037 C 
ATOM     11  C   UNL     1     -17.362   8.967   1.457  1.00  0.00     0.002 C 
ATOM     12  C   UNL     1     -17.741   8.246   0.135  1.00  0.00    -0.024 C 
ATOM     13  C   UNL     1     -16.552   8.289  -0.875  1.00  0.00     0.008 C 
ATOM     14  C   UNL     1     -15.916   9.677  -1.033  1.00  0.00     0.005 C 
ATOM     15  C   UNL     1     -15.377  10.200   0.320  1.00  0.00     0.003 C 
ATOM     16  C   UNL     1     -16.536  10.284   1.343  1.00  0.00     0.000 C 
ATOM     17  C   UNL     1     -17.439  11.489   1.042  1.00  0.00     0.031 C 
ATOM     18  C   UNL     1     -16.650  12.757   0.977  1.00  0.00    -0.027 C 
ATOM     19  C   UNL     1     -15.364  12.808   0.575  1.00  0.00    -0.065 C 
ATOM     20  C   UNL     1     -14.533  11.551   0.267  1.00  0.00    -0.008 C 
ATOM     21  C   UNL     1     -13.419  11.470   1.360  1.00  0.00     0.014 C 
ATOM     22  C   UNL     1     -12.623  12.778   1.559  1.00  0.00     0.033 C 
ATOM     23  C   UNL     1     -13.524  14.011   1.779  1.00  0.00     0.118 C 
ATOM     24  C   UNL     1     -14.624  14.125   0.709  1.00  0.00     0.063 C 
ATOM     25  C   UNL     1     -13.851  11.721  -1.119  1.00  0.00     0.016 C 
ATOM     26  C   UNL     1     -19.015   8.825  -0.529  1.00  0.00     0.012 C 
ATOM     27  C   UNL     1     -19.085   4.768  -0.473  1.00  0.00     0.014 C 
ATOM     28  O   UNL     1     -17.149   3.693   1.063  1.00  0.00    -0.349 OA
ATOM     29  C   UNL     1     -16.125   2.765   1.356  1.00  0.00     0.167 C 
ENDROOT
BRANCH  23  30
ATOM     30  O   UNL     1     -14.066  14.016   3.078  1.00  0.00    -0.393 OA
ATOM     31  H   UNL     1     -14.123  13.079   3.395  1.00  0.00     0.210 HD
ENDBRANCH  23  30
TORSDOF 1
ENDMDL
MODEL 6
REMARK VINA RESULT:    -2.061      3.714      5.494
REMARK INTER + INTRA:          -2.121
REMARK INTER:                  -2.121
REMARK INTRA:                   0.000
REMARK UNBOUND:                 0.000
REMARK SMILES C[C@@H]1CC[C@@]2(OC1)O[C@H]1C[C@H]3[C@@H]4CC=C5C[C@@H](O)CC[C@@]5(C)[C@@H]4CC[C@@]3(C)[C@H]1[C@@H]2C
REMARK SMILES IDX 1 1 2 2 3 3 4 4 5 5 29 6 28 7 9 8 8 9 10 10 11 11 26 12
REMARK SMILES IDX 25 13 24 14 23 15 12 16 13 17 14 18 15 19 21 20 20 21 19 22
REMARK SMILES IDX 17 23 16 24 22 25 27 26 30 27 6 28 7 29 18 30
REMARK H PARENT 18 31
REMARK Flexibility Score: inf
ROOT
ATOM      1  C   UNL     1     -16.514  13.310   8.890  1.00  0.00     0.010 C 
ATOM      2  C   UNL     1     -17.263  13.769   7.633  1.00  0.00     0.012 C 
ATOM      3  C   UNL     1     -18.336  12.742   7.205  1.00  0.00     0.011 C 
ATOM      4  C   UNL     1     -17.812  11.839   6.088  1.00  0.00     0.066 C 
ATOM      5  C   UNL     1     -17.325  12.689   4.867  1.00  0.00     0.171 C 
ATOM      6  C   UNL     1     -18.424  12.756   3.764  1.00  0.00     0.052 C 
ATOM      7  C   UNL     1     -17.665  12.413   2.480  1.00  0.00     0.033 C 
ATOM      8  C   UNL     1     -16.222  12.332   2.922  1.00  0.00     0.126 C 
ATOM      9  O   UNL     1     -16.201  12.048   4.300  1.00  0.00    -0.346 OA
ATOM     10  C   UNL     1     -15.566  11.212   2.118  1.00  0.00     0.037 C 
ATOM     11  C   UNL     1     -16.617  10.729   1.108  1.00  0.00     0.002 C 
ATOM     12  C   UNL     1     -17.987  11.063   1.759  1.00  0.00    -0.024 C 
ATOM     13  C   UNL     1     -18.425   9.925   2.733  1.00  0.00     0.008 C 
ATOM     14  C   UNL     1     -18.297   8.514   2.142  1.00  0.00     0.005 C 
ATOM     15  C   UNL     1     -16.836   8.214   1.728  1.00  0.00     0.003 C 
ATOM     16  C   UNL     1     -16.372   9.251   0.676  1.00  0.00     0.000 C 
ATOM     17  C   UNL     1     -17.002   8.953  -0.693  1.00  0.00     0.031 C 
ATOM     18  C   UNL     1     -16.728   7.550  -1.125  1.00  0.00    -0.027 C 
ATOM     19  C   UNL     1     -16.571   6.527  -0.260  1.00  0.00    -0.065 C 
ATOM     20  C   UNL     1     -16.528   6.721   1.265  1.00  0.00    -0.008 C 
ATOM     21  C   UNL     1     -15.077   6.362   1.722  1.00  0.00     0.014 C 
ATOM     22  C   UNL     1     -14.558   5.006   1.195  1.00  0.00     0.033 C 
ATOM     23  C   UNL     1     -14.710   4.849  -0.332  1.00  0.00     0.118 C 
ATOM     24  C   UNL     1     -16.134   5.184  -0.811  1.00  0.00     0.063 C 
ATOM     25  C   UNL     1     -17.515   5.723   1.932  1.00  0.00     0.016 C 
ATOM     26  C   UNL     1     -19.105  11.326   0.720  1.00  0.00     0.012 C 
ATOM     27  C   UNL     1     -19.124  14.123   3.660  1.00  0.00     0.014 C 
ATOM     28  O   UNL     1     -16.944  14.017   5.242  1.00  0.00    -0.349 OA
ATOM     29  C   UNL     1     -16.270  14.044   6.483  1.00  0.00     0.167 C 
ENDROOT
BRANCH  23  30
ATOM     30  O   UNL     1     -13.744   5.608  -1.018  1.00  0.00    -0.393 OA
ATOM     31  H   UNL     1     -12.933   5.664  -0.451  1.00  0.00     0.210 HD
ENDBRANCH  23  30
TORSDOF 1
ENDMDL
