MODEL 1
REMARK VINA RESULT:    -6.892      0.000      0.000
REMARK INTER + INTRA:          -8.337
REMARK INTER:                  -7.900
REMARK INTRA:                  -0.437
REMARK UNBOUND:                -0.437
REMARK SMILES O=C1C[C@H](c2ccc(O)cc2)Oc2cc(O)cc(O)c21
REMARK SMILES IDX 3 1 4 2 12 3 13 4 14 5 15 6 17 7 18 8 20 9 2 10 1 11 5 12
REMARK SMILES IDX 6 13 11 14 7 15 10 16 8 17 9 18 19 20 16 22
REMARK H PARENT 9 19 19 21 16 23
REMARK Flexibility Score: inf
ROOT
ATOM      1  C   UNL     1      22.957   8.723  31.196  1.00  0.00     0.131 C 
ATOM      2  C   UNL     1      21.522   8.819  31.749  1.00  0.00     0.211 C 
ATOM      3  O   UNL     1      20.618   9.363  30.778  1.00  0.00    -0.484 OA
ATOM      4  C   UNL     1      20.744   9.159  29.396  1.00  0.00     0.138 A 
ATOM      5  C   UNL     1      19.712   9.572  28.550  1.00  0.00     0.093 A 
ATOM      6  C   UNL     1      19.798   9.349  27.171  1.00  0.00     0.123 A 
ATOM      7  C   UNL     1      20.923   8.714  26.640  1.00  0.00     0.093 A 
ATOM      8  C   UNL     1      21.972   8.305  27.476  1.00  0.00     0.133 A 
ATOM      9  C   UNL     1      21.888   8.535  28.866  1.00  0.00     0.102 A 
ATOM     10  C   UNL     1      22.968   8.162  29.806  1.00  0.00     0.174 C 
ATOM     11  O   UNL     1      23.923   7.423  29.443  1.00  0.00    -0.294 OA
ENDROOT
BRANCH   2  12
ATOM     12  C   UNL     1      21.038   7.479  32.272  1.00  0.00    -0.007 A 
ATOM     13  C   UNL     1      21.843   6.666  33.091  1.00  0.00     0.011 A 
ATOM     14  C   UNL     1      19.726   7.061  31.985  1.00  0.00     0.011 A 
ATOM     15  C   UNL     1      21.354   5.452  33.586  1.00  0.00     0.046 A 
ATOM     16  C   UNL     1      19.240   5.848  32.480  1.00  0.00     0.046 A 
ATOM     17  C   UNL     1      20.055   5.039  33.282  1.00  0.00     0.115 A 
BRANCH  17  18
ATOM     18  O   UNL     1      19.583   3.828  33.782  1.00  0.00    -0.508 OA
ATOM     19  H   UNL     1      20.078   2.959  33.618  1.00  0.00     0.293 HD
ENDBRANCH  17  18
ENDBRANCH   2  12
BRANCH   8  20
ATOM     20  O   UNL     1      23.092   7.684  26.924  1.00  0.00    -0.507 OA
ATOM     21  H   UNL     1      23.752   7.171  27.498  1.00  0.00     0.293 HD
ENDBRANCH   8  20
BRANCH   6  22
ATOM     22  O   UNL     1      18.771   9.754  26.322  1.00  0.00    -0.508 OA
ATOM     23  H   UNL     1      18.626   9.316  25.419  1.00  0.00     0.293 HD
ENDBRANCH   6  22
TORSDOF 4
ENDMDL
MODEL 2
REMARK VINA RESULT:    -6.287      1.342      1.576
REMARK INTER + INTRA:          -7.643
REMARK INTER:                  -7.642
REMARK INTRA:                  -0.001
REMARK UNBOUND:                -0.437
REMARK SMILES O=C1C[C@H](c2ccc(O)cc2)Oc2cc(O)cc(O)c21
REMARK SMILES IDX 3 1 4 2 12 3 13 4 14 5 15 6 17 7 18 8 20 9 2 10 1 11 5 12
REMARK SMILES IDX 6 13 11 14 7 15 10 16 8 17 9 18 19 20 16 22
REMARK H PARENT 9 19 19 21 16 23
REMARK Flexibility Score: inf
ROOT
ATOM      1  C   UNL     1      21.683   8.697  32.217  1.00  0.00     0.131 C 
ATOM      2  C   UNL     1      20.388   7.871  32.106  1.00  0.00     0.211 C 
ATOM      3  O   UNL     1      19.720   8.103  30.859  1.00  0.00    -0.484 OA
ATOM      4  C   UNL     1      20.388   8.386  29.658  1.00  0.00     0.138 A 
ATOM      5  C   UNL     1      19.662   8.411  28.465  1.00  0.00     0.093 A 
ATOM      6  C   UNL     1      20.310   8.656  27.249  1.00  0.00     0.123 A 
ATOM      7  C   UNL     1      21.690   8.880  27.231  1.00  0.00     0.093 A 
ATOM      8  C   UNL     1      22.429   8.869  28.424  1.00  0.00     0.133 A 
ATOM      9  C   UNL     1      21.773   8.628  29.650  1.00  0.00     0.102 A 
ATOM     10  C   UNL     1      22.481   8.634  30.949  1.00  0.00     0.174 C 
ATOM     11  O   UNL     1      23.741   8.638  31.008  1.00  0.00    -0.294 OA
ENDROOT
BRANCH   2  12
ATOM     12  C   UNL     1      20.652   6.392  32.330  1.00  0.00    -0.007 A 
ATOM     13  C   UNL     1      21.790   5.752  31.803  1.00  0.00     0.011 A 
ATOM     14  C   UNL     1      19.771   5.651  33.136  1.00  0.00     0.011 A 
ATOM     15  C   UNL     1      22.022   4.397  32.057  1.00  0.00     0.046 A 
ATOM     16  C   UNL     1      20.005   4.296  33.388  1.00  0.00     0.046 A 
ATOM     17  C   UNL     1      21.132   3.665  32.847  1.00  0.00     0.115 A 
BRANCH  17  18
ATOM     18  O   UNL     1      21.377   2.315  33.090  1.00  0.00    -0.508 OA
ATOM     19  H   UNL     1      21.796   2.001  33.958  1.00  0.00     0.293 HD
ENDBRANCH  17  18
ENDBRANCH   2  12
BRANCH   8  20
ATOM     20  O   UNL     1      23.802   9.108  28.386  1.00  0.00    -0.507 OA
ATOM     21  H   UNL     1      24.432   8.700  29.067  1.00  0.00     0.293 HD
ENDBRANCH   8  20
BRANCH   6  22
ATOM     22  O   UNL     1      19.595   8.680  26.055  1.00  0.00    -0.508 OA
ATOM     23  H   UNL     1      19.674   7.932  25.375  1.00  0.00     0.293 HD
ENDBRANCH   6  22
TORSDOF 4
ENDMDL
MODEL 3
REMARK VINA RESULT:    -6.182      1.668      5.911
REMARK INTER + INTRA:          -7.523
REMARK INTER:                  -7.269
REMARK INTRA:                  -0.254
REMARK UNBOUND:                -0.437
REMARK SMILES O=C1C[C@H](c2ccc(O)cc2)Oc2cc(O)cc(O)c21
REMARK SMILES IDX 3 1 4 2 12 3 13 4 14 5 15 6 17 7 18 8 20 9 2 10 1 11 5 12
REMARK SMILES IDX 6 13 11 14 7 15 10 16 8 17 9 18 19 20 16 22
REMARK H PARENT 9 19 19 21 16 23
REMARK Flexibility Score: inf
ROOT
ATOM      1  C   UNL     1      23.098   9.139  30.846  1.00  0.00     0.131 C 
ATOM      2  C   UNL     1      23.022   8.440  29.475  1.00  0.00     0.211 C 
ATOM      3  O   UNL     1      23.138   7.017  29.600  1.00  0.00    -0.484 OA
ATOM      4  C   UNL     1      22.659   6.291  30.701  1.00  0.00     0.138 A 
ATOM      5  C   UNL     1      22.653   4.895  30.645  1.00  0.00     0.093 A 
ATOM      6  C   UNL     1      22.147   4.148  31.715  1.00  0.00     0.123 A 
ATOM      7  C   UNL     1      21.651   4.803  32.846  1.00  0.00     0.093 A 
ATOM      8  C   UNL     1      21.663   6.204  32.920  1.00  0.00     0.133 A 
ATOM      9  C   UNL     1      22.178   6.956  31.843  1.00  0.00     0.102 A 
ATOM     10  C   UNL     1      22.253   8.434  31.864  1.00  0.00     0.174 C 
ATOM     11  O   UNL     1      21.661   9.106  32.752  1.00  0.00    -0.294 OA
ENDROOT
BRANCH   2  12
ATOM     12  C   UNL     1      21.764   8.832  28.721  1.00  0.00    -0.007 A 
ATOM     13  C   UNL     1      20.841   9.758  29.245  1.00  0.00     0.011 A 
ATOM     14  C   UNL     1      21.539   8.306  27.436  1.00  0.00     0.011 A 
ATOM     15  C   UNL     1      19.709  10.124  28.510  1.00  0.00     0.046 A 
ATOM     16  C   UNL     1      20.407   8.674  26.704  1.00  0.00     0.046 A 
ATOM     17  C   UNL     1      19.488   9.584  27.240  1.00  0.00     0.115 A 
BRANCH  17  18
ATOM     18  O   UNL     1      18.355   9.959  26.521  1.00  0.00    -0.508 OA
ATOM     19  H   UNL     1      18.371  10.743  25.879  1.00  0.00     0.293 HD
ENDBRANCH  17  18
ENDBRANCH   2  12
BRANCH   8  20
ATOM     20  O   UNL     1      21.175   6.837  34.063  1.00  0.00    -0.507 OA
ATOM     21  H   UNL     1      21.791   7.321  34.706  1.00  0.00     0.293 HD
ENDBRANCH   8  20
BRANCH   6  22
ATOM     22  O   UNL     1      22.134   2.756  31.665  1.00  0.00    -0.508 OA
ATOM     23  H   UNL     1      22.208   2.195  32.506  1.00  0.00     0.293 HD
ENDBRANCH   6  22
TORSDOF 4
ENDMDL
MODEL 4
REMARK VINA RESULT:    -6.146      2.441      3.917
REMARK INTER + INTRA:          -7.481
REMARK INTER:                  -7.023
REMARK INTRA:                  -0.458
REMARK UNBOUND:                -0.437
REMARK SMILES O=C1C[C@H](c2ccc(O)cc2)Oc2cc(O)cc(O)c21
REMARK SMILES IDX 3 1 4 2 12 3 13 4 14 5 15 6 17 7 18 8 20 9 2 10 1 11 5 12
REMARK SMILES IDX 6 13 11 14 7 15 10 16 8 17 9 18 19 20 16 22
REMARK H PARENT 9 19 19 21 16 23
REMARK Flexibility Score: inf
ROOT
ATOM      1  C   UNL     1      21.366   6.740  34.629  1.00  0.00     0.131 C 
ATOM      2  C   UNL     1      20.518   5.519  34.228  1.00  0.00     0.211 C 
ATOM      3  O   UNL     1      19.671   5.809  33.108  1.00  0.00    -0.484 OA
ATOM      4  C   UNL     1      20.019   6.696  32.078  1.00  0.00     0.138 A 
ATOM      5  C   UNL     1      19.211   6.769  30.942  1.00  0.00     0.093 A 
ATOM      6  C   UNL     1      19.554   7.620  29.885  1.00  0.00     0.123 A 
ATOM      7  C   UNL     1      20.710   8.402  29.971  1.00  0.00     0.093 A 
ATOM      8  C   UNL     1      21.524   8.346  31.112  1.00  0.00     0.133 A 
ATOM      9  C   UNL     1      21.173   7.493  32.179  1.00  0.00     0.102 A 
ATOM     10  C   UNL     1      21.965   7.406  33.427  1.00  0.00     0.174 C 
ATOM     11  O   UNL     1      23.110   7.927  33.512  1.00  0.00    -0.294 OA
ENDROOT
BRANCH   2  12
ATOM     12  C   UNL     1      21.386   4.301  33.969  1.00  0.00    -0.007 A 
ATOM     13  C   UNL     1      22.504   4.001  34.770  1.00  0.00     0.011 A 
ATOM     14  C   UNL     1      21.031   3.410  32.941  1.00  0.00     0.011 A 
ATOM     15  C   UNL     1      23.262   2.851  34.527  1.00  0.00     0.046 A 
ATOM     16  C   UNL     1      21.791   2.261  32.700  1.00  0.00     0.046 A 
ATOM     17  C   UNL     1      22.911   1.980  33.492  1.00  0.00     0.115 A 
BRANCH  17  18
ATOM     18  O   UNL     1      23.677   0.840  33.263  1.00  0.00    -0.508 OA
ATOM     19  H   UNL     1      24.011   0.605  32.335  1.00  0.00     0.293 HD
ENDBRANCH  17  18
ENDBRANCH   2  12
BRANCH   8  20
ATOM     20  O   UNL     1      22.666   9.144  31.183  1.00  0.00    -0.507 OA
ATOM     21  H   UNL     1      22.732   9.920  31.832  1.00  0.00     0.293 HD
ENDBRANCH   8  20
BRANCH   6  22
ATOM     22  O   UNL     1      18.756   7.696  28.746  1.00  0.00    -0.508 OA
ATOM     23  H   UNL     1      19.113   7.447  27.831  1.00  0.00     0.293 HD
ENDBRANCH   6  22
TORSDOF 4
ENDMDL
MODEL 5
REMARK VINA RESULT:    -6.024      8.481     11.438
REMARK INTER + INTRA:          -7.342
REMARK INTER:                  -6.888
REMARK INTRA:                  -0.453
REMARK UNBOUND:                -0.437
REMARK SMILES O=C1C[C@H](c2ccc(O)cc2)Oc2cc(O)cc(O)c21
REMARK SMILES IDX 3 1 4 2 12 3 13 4 14 5 15 6 17 7 18 8 20 9 2 10 1 11 5 12
REMARK SMILES IDX 6 13 11 14 7 15 10 16 8 17 9 18 19 20 16 22
REMARK H PARENT 9 19 19 21 16 23
REMARK Flexibility Score: inf
ROOT
ATOM      1  C   UNL     1      28.618   3.424  23.503  1.00  0.00     0.131 C 
ATOM      2  C   UNL     1      28.044   2.049  23.110  1.00  0.00     0.211 C 
ATOM      3  O   UNL     1      27.093   1.579  24.074  1.00  0.00    -0.484 OA
ATOM      4  C   UNL     1      26.248   2.423  24.810  1.00  0.00     0.138 A 
ATOM      5  C   UNL     1      25.231   1.861  25.584  1.00  0.00     0.093 A 
ATOM      6  C   UNL     1      24.352   2.683  26.300  1.00  0.00     0.123 A 
ATOM      7  C   UNL     1      24.498   4.072  26.242  1.00  0.00     0.093 A 
ATOM      8  C   UNL     1      25.523   4.649  25.478  1.00  0.00     0.133 A 
ATOM      9  C   UNL     1      26.412   3.820  24.761  1.00  0.00     0.102 A 
ATOM     10  C   UNL     1      27.536   4.355  23.961  1.00  0.00     0.174 C 
ATOM     11  O   UNL     1      27.626   5.586  23.702  1.00  0.00    -0.294 OA
ENDROOT
BRANCH   2  12
ATOM     12  C   UNL     1      27.454   2.073  21.711  1.00  0.00    -0.007 A 
ATOM     13  C   UNL     1      26.196   1.510  21.426  1.00  0.00     0.011 A 
ATOM     14  C   UNL     1      28.151   2.730  20.681  1.00  0.00     0.011 A 
ATOM     15  C   UNL     1      25.664   1.580  20.134  1.00  0.00     0.046 A 
ATOM     16  C   UNL     1      27.617   2.798  19.391  1.00  0.00     0.046 A 
ATOM     17  C   UNL     1      26.372   2.221  19.114  1.00  0.00     0.115 A 
BRANCH  17  18
ATOM     18  O   UNL     1      25.829   2.281  17.833  1.00  0.00    -0.508 OA
ATOM     19  H   UNL     1      26.414   2.230  17.007  1.00  0.00     0.293 HD
ENDBRANCH  17  18
ENDBRANCH   2  12
BRANCH   8  20
ATOM     20  O   UNL     1      25.659   6.036  25.443  1.00  0.00    -0.507 OA
ATOM     21  H   UNL     1      25.289   6.625  26.180  1.00  0.00     0.293 HD
ENDBRANCH   8  20
BRANCH   6  22
ATOM     22  O   UNL     1      23.333   2.130  27.071  1.00  0.00    -0.508 OA
ATOM     23  H   UNL     1      22.481   2.642  27.269  1.00  0.00     0.293 HD
ENDBRANCH   6  22
TORSDOF 4
ENDMDL
MODEL 6
REMARK VINA RESULT:    -6.001      8.611     11.577
REMARK INTER + INTRA:          -7.315
REMARK INTER:                  -6.876
REMARK INTRA:                  -0.439
REMARK UNBOUND:                -0.437
REMARK SMILES O=C1C[C@H](c2ccc(O)cc2)Oc2cc(O)cc(O)c21
REMARK SMILES IDX 3 1 4 2 12 3 13 4 14 5 15 6 17 7 18 8 20 9 2 10 1 11 5 12
REMARK SMILES IDX 6 13 11 14 7 15 10 16 8 17 9 18 19 20 16 22
REMARK H PARENT 9 19 19 21 16 23
REMARK Flexibility Score: inf
ROOT
ATOM      1  C   UNL     1      28.785   3.558  23.343  1.00  0.00     0.131 C 
ATOM      2  C   UNL     1      28.234   2.186  22.912  1.00  0.00     0.211 C 
ATOM      3  O   UNL     1      27.304   1.666  23.872  1.00  0.00    -0.484 OA
ATOM      4  C   UNL     1      26.453   2.468  24.646  1.00  0.00     0.138 A 
ATOM      5  C   UNL     1      25.457   1.861  25.414  1.00  0.00     0.093 A 
ATOM      6  C   UNL     1      24.572   2.641  26.168  1.00  0.00     0.123 A 
ATOM      7  C   UNL     1      24.690   4.034  26.153  1.00  0.00     0.093 A 
ATOM      8  C   UNL     1      25.693   4.656  25.396  1.00  0.00     0.133 A 
ATOM      9  C   UNL     1      26.589   3.869  24.641  1.00  0.00     0.102 A 
ATOM     10  C   UNL     1      27.691   4.452  23.845  1.00  0.00     0.174 C 
ATOM     11  O   UNL     1      27.754   5.692  23.626  1.00  0.00    -0.294 OA
ENDROOT
BRANCH   2  12
ATOM     12  C   UNL     1      27.625   2.244  21.523  1.00  0.00    -0.007 A 
ATOM     13  C   UNL     1      28.269   2.898  20.455  1.00  0.00     0.011 A 
ATOM     14  C   UNL     1      26.414   1.574  21.273  1.00  0.00     0.011 A 
ATOM     15  C   UNL     1      27.699   2.902  19.178  1.00  0.00     0.046 A 
ATOM     16  C   UNL     1      25.846   1.580  19.996  1.00  0.00     0.046 A 
ATOM     17  C   UNL     1      26.488   2.247  18.945  1.00  0.00     0.115 A 
BRANCH  17  18
ATOM     18  O   UNL     1      25.933   2.261  17.667  1.00  0.00    -0.508 OA
ATOM     19  H   UNL     1      25.070   1.771  17.459  1.00  0.00     0.293 HD
ENDBRANCH  17  18
ENDBRANCH   2  12
BRANCH   8  20
ATOM     20  O   UNL     1      25.802   6.046  25.405  1.00  0.00    -0.507 OA
ATOM     21  H   UNL     1      24.999   6.641  25.574  1.00  0.00     0.293 HD
ENDBRANCH   8  20
BRANCH   6  22
ATOM     22  O   UNL     1      23.574   2.043  26.933  1.00  0.00    -0.508 OA
ATOM     23  H   UNL     1      22.593   2.156  26.705  1.00  0.00     0.293 HD
ENDBRANCH   6  22
TORSDOF 4
ENDMDL
MODEL 7
REMARK VINA RESULT:    -5.886      1.780      6.176
REMARK INTER + INTRA:          -7.183
REMARK INTER:                  -6.746
REMARK INTRA:                  -0.437
REMARK UNBOUND:                -0.437
REMARK SMILES O=C1C[C@H](c2ccc(O)cc2)Oc2cc(O)cc(O)c21
REMARK SMILES IDX 3 1 4 2 12 3 13 4 14 5 15 6 17 7 18 8 20 9 2 10 1 11 5 12
REMARK SMILES IDX 6 13 11 14 7 15 10 16 8 17 9 18 19 20 16 22
REMARK H PARENT 9 19 19 21 16 23
REMARK Flexibility Score: inf
ROOT
ATOM      1  C   UNL     1      21.014   8.971  32.333  1.00  0.00     0.131 C 
ATOM      2  C   UNL     1      22.444   8.773  31.796  1.00  0.00     0.211 C 
ATOM      3  O   UNL     1      23.013   7.540  32.253  1.00  0.00    -0.484 OA
ATOM      4  C   UNL     1      22.265   6.376  32.489  1.00  0.00     0.138 A 
ATOM      5  C   UNL     1      22.934   5.179  32.752  1.00  0.00     0.093 A 
ATOM      6  C   UNL     1      22.212   3.997  32.956  1.00  0.00     0.123 A 
ATOM      7  C   UNL     1      20.815   4.018  32.898  1.00  0.00     0.093 A 
ATOM      8  C   UNL     1      20.131   5.217  32.646  1.00  0.00     0.133 A 
ATOM      9  C   UNL     1      20.860   6.409  32.447  1.00  0.00     0.102 A 
ATOM     10  C   UNL     1      20.206   7.715  32.209  1.00  0.00     0.174 C 
ATOM     11  O   UNL     1      18.973   7.792  31.956  1.00  0.00    -0.294 OA
ENDROOT
BRANCH   2  12
ATOM     12  C   UNL     1      22.487   8.878  30.281  1.00  0.00    -0.007 A 
ATOM     13  C   UNL     1      23.089   7.885  29.485  1.00  0.00     0.011 A 
ATOM     14  C   UNL     1      21.857   9.964  29.648  1.00  0.00     0.011 A 
ATOM     15  C   UNL     1      23.081   7.994  28.090  1.00  0.00     0.046 A 
ATOM     16  C   UNL     1      21.851  10.070  28.255  1.00  0.00     0.046 A 
ATOM     17  C   UNL     1      22.465   9.084  27.472  1.00  0.00     0.115 A 
BRANCH  17  18
ATOM     18  O   UNL     1      22.466   9.178  26.082  1.00  0.00    -0.508 OA
ATOM     19  H   UNL     1      21.625   9.411  25.566  1.00  0.00     0.293 HD
ENDBRANCH  17  18
ENDBRANCH   2  12
BRANCH   8  20
ATOM     20  O   UNL     1      18.737   5.219  32.606  1.00  0.00    -0.507 OA
ATOM     21  H   UNL     1      18.194   5.955  33.043  1.00  0.00     0.293 HD
ENDBRANCH   8  20
BRANCH   6  22
ATOM     22  O   UNL     1      22.871   2.798  33.215  1.00  0.00    -0.508 OA
ATOM     23  H   UNL     1      23.648   2.750  33.865  1.00  0.00     0.293 HD
ENDBRANCH   6  22
TORSDOF 4
ENDMDL
MODEL 8
REMARK VINA RESULT:    -5.880     13.120     14.926
REMARK INTER + INTRA:          -7.176
REMARK INTER:                  -6.798
REMARK INTRA:                  -0.379
REMARK UNBOUND:                -0.437
REMARK SMILES O=C1C[C@H](c2ccc(O)cc2)Oc2cc(O)cc(O)c21
REMARK SMILES IDX 3 1 4 2 12 3 13 4 14 5 15 6 17 7 18 8 20 9 2 10 1 11 5 12
REMARK SMILES IDX 6 13 11 14 7 15 10 16 8 17 9 18 19 20 16 22
REMARK H PARENT 9 19 19 21 16 23
REMARK Flexibility Score: inf
ROOT
ATOM      1  C   UNL     1      30.251  -1.013  19.808  1.00  0.00     0.131 C 
ATOM      2  C   UNL     1      30.685  -0.511  21.198  1.00  0.00     0.211 C 
ATOM      3  O   UNL     1      29.797   0.500  21.694  1.00  0.00    -0.484 OA
ATOM      4  C   UNL     1      28.423   0.534  21.416  1.00  0.00     0.138 A 
ATOM      5  C   UNL     1      27.613   1.448  22.094  1.00  0.00     0.093 A 
ATOM      6  C   UNL     1      26.234   1.479  21.861  1.00  0.00     0.123 A 
ATOM      7  C   UNL     1      25.666   0.593  20.941  1.00  0.00     0.093 A 
ATOM      8  C   UNL     1      26.469  -0.322  20.244  1.00  0.00     0.133 A 
ATOM      9  C   UNL     1      27.861  -0.348  20.476  1.00  0.00     0.102 A 
ATOM     10  C   UNL     1      28.774  -1.261  19.754  1.00  0.00     0.174 C 
ATOM     11  O   UNL     1      28.330  -2.212  19.055  1.00  0.00    -0.294 OA
ENDROOT
BRANCH   2  12
ATOM     12  C   UNL     1      30.828  -1.658  22.182  1.00  0.00    -0.007 A 
ATOM     13  C   UNL     1      30.785  -1.452  23.574  1.00  0.00     0.011 A 
ATOM     14  C   UNL     1      30.946  -2.972  21.696  1.00  0.00     0.011 A 
ATOM     15  C   UNL     1      30.885  -2.534  24.455  1.00  0.00     0.046 A 
ATOM     16  C   UNL     1      31.045  -4.051  22.578  1.00  0.00     0.046 A 
ATOM     17  C   UNL     1      31.017  -3.834  23.962  1.00  0.00     0.115 A 
BRANCH  17  18
ATOM     18  O   UNL     1      31.116  -4.901  24.851  1.00  0.00    -0.508 OA
ATOM     19  H   UNL     1      30.543  -4.949  25.686  1.00  0.00     0.293 HD
ENDBRANCH  17  18
ENDBRANCH   2  12
BRANCH   8  20
ATOM     20  O   UNL     1      25.884  -1.188  19.321  1.00  0.00    -0.507 OA
ATOM     21  H   UNL     1      26.244  -1.281  18.377  1.00  0.00     0.293 HD
ENDBRANCH   8  20
BRANCH   6  22
ATOM     22  O   UNL     1      25.420   2.384  22.537  1.00  0.00    -0.508 OA
ATOM     23  H   UNL     1      25.549   3.385  22.444  1.00  0.00     0.293 HD
ENDBRANCH   6  22
TORSDOF 4
ENDMDL
MODEL 9
REMARK VINA RESULT:    -5.864      9.520     11.919
REMARK INTER + INTRA:          -7.158
REMARK INTER:                  -6.702
REMARK INTRA:                  -0.456
REMARK UNBOUND:                -0.437
REMARK SMILES O=C1C[C@H](c2ccc(O)cc2)Oc2cc(O)cc(O)c21
REMARK SMILES IDX 3 1 4 2 12 3 13 4 14 5 15 6 17 7 18 8 20 9 2 10 1 11 5 12
REMARK SMILES IDX 6 13 11 14 7 15 10 16 8 17 9 18 19 20 16 22
REMARK H PARENT 9 19 19 21 16 23
REMARK Flexibility Score: inf
ROOT
ATOM      1  C   UNL     1      26.883   0.916  22.480  1.00  0.00     0.131 C 
ATOM      2  C   UNL     1      27.873   1.900  23.131  1.00  0.00     0.211 C 
ATOM      3  O   UNL     1      28.786   2.444  22.168  1.00  0.00    -0.484 OA
ATOM      4  C   UNL     1      28.451   2.687  20.828  1.00  0.00     0.138 A 
ATOM      5  C   UNL     1      29.347   3.389  20.019  1.00  0.00     0.093 A 
ATOM      6  C   UNL     1      29.021   3.676  18.688  1.00  0.00     0.123 A 
ATOM      7  C   UNL     1      27.795   3.253  18.167  1.00  0.00     0.093 A 
ATOM      8  C   UNL     1      26.891   2.537  18.965  1.00  0.00     0.133 A 
ATOM      9  C   UNL     1      27.223   2.243  20.306  1.00  0.00     0.102 A 
ATOM     10  C   UNL     1      26.335   1.464  21.196  1.00  0.00     0.174 C 
ATOM     11  O   UNL     1      25.143   1.210  20.872  1.00  0.00    -0.294 OA
ENDROOT
BRANCH   2  12
ATOM     12  C   UNL     1      27.149   2.995  23.892  1.00  0.00    -0.007 A 
ATOM     13  C   UNL     1      25.884   2.785  24.474  1.00  0.00     0.011 A 
ATOM     14  C   UNL     1      27.781   4.237  24.079  1.00  0.00     0.011 A 
ATOM     15  C   UNL     1      25.259   3.803  25.200  1.00  0.00     0.046 A 
ATOM     16  C   UNL     1      27.154   5.254  24.804  1.00  0.00     0.046 A 
ATOM     17  C   UNL     1      25.889   5.039  25.366  1.00  0.00     0.115 A 
BRANCH  17  18
ATOM     18  O   UNL     1      25.252   6.044  26.091  1.00  0.00    -0.508 OA
ATOM     19  H   UNL     1      25.256   7.007  25.776  1.00  0.00     0.293 HD
ENDBRANCH  17  18
ENDBRANCH   2  12
BRANCH   8  20
ATOM     20  O   UNL     1      25.679   2.113  18.423  1.00  0.00    -0.507 OA
ATOM     21  H   UNL     1      24.992   1.615  18.979  1.00  0.00     0.293 HD
ENDBRANCH   8  20
BRANCH   6  22
ATOM     22  O   UNL     1      29.908   4.379  17.876  1.00  0.00    -0.508 OA
ATOM     23  H   UNL     1      30.911   4.252  17.952  1.00  0.00     0.293 HD
ENDBRANCH   6  22
TORSDOF 4
ENDMDL
