MODEL 1
REMARK VINA RESULT:    -7.545      0.000      0.000
REMARK INTER + INTRA:          -8.802
REMARK INTER:                  -9.088
REMARK INTRA:                   0.287
REMARK UNBOUND:                 0.287
REMARK SMILES O=c1c(O)c(-c2ccc(O)c(O)c2)oc2cc(O)cc(O)c12
REMARK SMILES IDX 5 1 3 2 2 3 1 4 22 5 20 6 19 7 17 8 16 9 15 10 14 11 6 12
REMARK SMILES IDX 7 13 8 14 9 15 13 16 11 17 10 18 12 20 4 22 21 24 18 26
REMARK H PARENT 10 19 12 21 4 23 21 25 18 27
REMARK Flexibility Score: inf
ROOT
ATOM      1  C   UNL     1       8.371  40.171  22.461  1.00  0.00     0.180 A 
ATOM      2  C   UNL     1       9.623  39.685  22.045  1.00  0.00     0.208 A 
ATOM      3  C   UNL     1      10.446  40.507  21.259  1.00  0.00     0.238 A 
ATOM      4  O   UNL     1      11.541  40.047  20.844  1.00  0.00    -0.285 OA
ATOM      5  C   UNL     1      10.014  41.809  20.911  1.00  0.00     0.111 A 
ATOM      6  C   UNL     1      10.782  42.742  20.152  1.00  0.00     0.134 A 
ATOM      7  C   UNL     1      10.203  43.955  19.756  1.00  0.00     0.093 A 
ATOM      8  C   UNL     1       8.908  44.295  20.146  1.00  0.00     0.123 A 
ATOM      9  C   UNL     1       8.169  43.416  20.939  1.00  0.00     0.094 A 
ATOM     10  C   UNL     1       8.707  42.184  21.318  1.00  0.00     0.146 A 
ATOM     11  O   UNL     1       7.966  41.372  22.063  1.00  0.00    -0.452 OA
ENDROOT
BRANCH   1  12
ATOM     12  C   UNL     1       7.459  39.373  23.312  1.00  0.00     0.025 A 
ATOM     13  C   UNL     1       7.449  37.968  23.256  1.00  0.00     0.016 A 
ATOM     14  C   UNL     1       6.598  37.234  24.087  1.00  0.00     0.051 A 
ATOM     15  C   UNL     1       5.755  37.892  24.992  1.00  0.00     0.157 A 
ATOM     16  C   UNL     1       6.628  40.026  24.237  1.00  0.00     0.062 A 
ATOM     17  C   UNL     1       5.773  39.290  25.070  1.00  0.00     0.158 A 
BRANCH  15  18
ATOM     18  O   UNL     1       4.903  37.163  25.821  1.00  0.00    -0.504 OA
ATOM     19  H   UNL     1       4.523  36.269  25.535  1.00  0.00     0.293 HD
ENDBRANCH  15  18
BRANCH  17  20
ATOM     20  O   UNL     1       4.938  39.941  25.977  1.00  0.00    -0.504 OA
ATOM     21  H   UNL     1       5.259  40.195  26.904  1.00  0.00     0.293 HD
ENDBRANCH  17  20
ENDBRANCH   1  12
BRANCH   2  22
ATOM     22  O   UNL     1      10.021  38.388  22.381  1.00  0.00    -0.502 OA
ATOM     23  H   UNL     1       9.499  37.569  22.098  1.00  0.00     0.293 HD
ENDBRANCH   2  22
BRANCH   6  24
ATOM     24  O   UNL     1      12.117  42.541  19.788  1.00  0.00    -0.507 OA
ATOM     25  H   UNL     1      12.557  42.942  18.974  1.00  0.00     0.293 HD
ENDBRANCH   6  24
BRANCH   8  26
ATOM     26  O   UNL     1       8.370  45.516  19.747  1.00  0.00    -0.508 OA
ATOM     27  H   UNL     1       7.476  45.572  19.274  1.00  0.00     0.293 HD
ENDBRANCH   8  26
TORSDOF 6
ENDMDL
MODEL 2
REMARK VINA RESULT:    -7.507      4.955     11.024
REMARK INTER + INTRA:          -8.756
REMARK INTER:                  -8.889
REMARK INTRA:                   0.132
REMARK UNBOUND:                 0.287
REMARK SMILES O=c1c(O)c(-c2ccc(O)c(O)c2)oc2cc(O)cc(O)c12
REMARK SMILES IDX 5 1 3 2 2 3 1 4 22 5 20 6 19 7 17 8 16 9 15 10 14 11 6 12
REMARK SMILES IDX 7 13 8 14 9 15 13 16 11 17 10 18 12 20 4 22 21 24 18 26
REMARK H PARENT 10 19 12 21 4 23 21 25 18 27
REMARK Flexibility Score: inf
ROOT
ATOM      1  C   UNL     1       4.074  36.911  27.914  1.00  0.00     0.180 A 
ATOM      2  C   UNL     1       4.086  37.314  29.260  1.00  0.00     0.208 A 
ATOM      3  C   UNL     1       3.495  36.482  30.225  1.00  0.00     0.238 A 
ATOM      4  O   UNL     1       3.460  36.874  31.421  1.00  0.00    -0.285 OA
ATOM      5  C   UNL     1       2.914  35.253  29.834  1.00  0.00     0.111 A 
ATOM      6  C   UNL     1       2.323  34.314  30.732  1.00  0.00     0.134 A 
ATOM      7  C   UNL     1       1.663  33.189  30.221  1.00  0.00     0.093 A 
ATOM      8  C   UNL     1       1.628  32.936  28.849  1.00  0.00     0.123 A 
ATOM      9  C   UNL     1       2.254  33.817  27.966  1.00  0.00     0.094 A 
ATOM     10  C   UNL     1       2.889  34.966  28.444  1.00  0.00     0.146 A 
ATOM     11  O   UNL     1       3.464  35.783  27.569  1.00  0.00    -0.452 OA
ENDROOT
BRANCH   1  12
ATOM     12  C   UNL     1       4.698  37.722  26.843  1.00  0.00     0.025 A 
ATOM     13  C   UNL     1       4.560  39.121  26.810  1.00  0.00     0.016 A 
ATOM     14  C   UNL     1       5.178  39.869  25.804  1.00  0.00     0.051 A 
ATOM     15  C   UNL     1       5.954  39.231  24.827  1.00  0.00     0.157 A 
ATOM     16  C   UNL     1       5.495  37.092  25.873  1.00  0.00     0.062 A 
ATOM     17  C   UNL     1       6.116  37.841  24.864  1.00  0.00     0.158 A 
BRANCH  15  18
ATOM     18  O   UNL     1       6.571  39.974  23.822  1.00  0.00    -0.504 OA
ATOM     19  H   UNL     1       7.295  39.576  23.237  1.00  0.00     0.293 HD
ENDBRANCH  15  18
BRANCH  17  20
ATOM     20  O   UNL     1       6.894  37.211  23.894  1.00  0.00    -0.504 OA
ATOM     21  H   UNL     1       6.711  37.337  22.905  1.00  0.00     0.293 HD
ENDBRANCH  17  20
ENDBRANCH   1  12
BRANCH   2  22
ATOM     22  O   UNL     1       4.644  38.543  29.622  1.00  0.00    -0.502 OA
ATOM     23  H   UNL     1       4.103  39.397  29.658  1.00  0.00     0.293 HD
ENDBRANCH   2  22
BRANCH   6  24
ATOM     24  O   UNL     1       2.380  34.423  32.125  1.00  0.00    -0.507 OA
ATOM     25  H   UNL     1       2.619  35.265  32.625  1.00  0.00     0.293 HD
ENDBRANCH   6  24
BRANCH   8  26
ATOM     26  O   UNL     1       0.976  31.800  28.377  1.00  0.00    -0.508 OA
ATOM     27  H   UNL     1       0.786  31.670  27.390  1.00  0.00     0.293 HD
ENDBRANCH   8  26
TORSDOF 6
ENDMDL
MODEL 3
REMARK VINA RESULT:    -7.298      9.050     11.731
REMARK INTER + INTRA:          -8.504
REMARK INTER:                  -8.181
REMARK INTRA:                  -0.323
REMARK UNBOUND:                 0.287
REMARK SMILES O=c1c(O)c(-c2ccc(O)c(O)c2)oc2cc(O)cc(O)c12
REMARK SMILES IDX 5 1 3 2 2 3 1 4 22 5 20 6 19 7 17 8 16 9 15 10 14 11 6 12
REMARK SMILES IDX 7 13 8 14 9 15 13 16 11 17 10 18 12 20 4 22 21 24 18 26
REMARK H PARENT 10 19 12 21 4 23 21 25 18 27
REMARK Flexibility Score: inf
ROOT
ATOM      1  C   UNL     1       4.235  33.377  30.416  1.00  0.00     0.180 A 
ATOM      2  C   UNL     1       5.230  32.550  30.965  1.00  0.00     0.208 A 
ATOM      3  C   UNL     1       6.513  33.079  31.180  1.00  0.00     0.238 A 
ATOM      4  O   UNL     1       7.414  32.319  31.620  1.00  0.00    -0.285 OA
ATOM      5  C   UNL     1       6.780  34.431  30.857  1.00  0.00     0.111 A 
ATOM      6  C   UNL     1       8.032  35.082  31.069  1.00  0.00     0.134 A 
ATOM      7  C   UNL     1       8.223  36.385  30.593  1.00  0.00     0.093 A 
ATOM      8  C   UNL     1       7.189  37.083  29.971  1.00  0.00     0.123 A 
ATOM      9  C   UNL     1       5.942  36.477  29.811  1.00  0.00     0.094 A 
ATOM     10  C   UNL     1       5.732  35.165  30.243  1.00  0.00     0.146 A 
ATOM     11  O   UNL     1       4.534  34.622  30.063  1.00  0.00    -0.452 OA
ENDROOT
BRANCH   1  12
ATOM     12  C   UNL     1       2.852  32.899  30.183  1.00  0.00     0.025 A 
ATOM     13  C   UNL     1       2.480  32.301  28.967  1.00  0.00     0.016 A 
ATOM     14  C   UNL     1       1.176  31.835  28.778  1.00  0.00     0.051 A 
ATOM     15  C   UNL     1       0.231  31.946  29.807  1.00  0.00     0.157 A 
ATOM     16  C   UNL     1       1.907  32.988  31.218  1.00  0.00     0.062 A 
ATOM     17  C   UNL     1       0.598  32.521  31.030  1.00  0.00     0.158 A 
BRANCH  15  18
ATOM     18  O   UNL     1      -1.071  31.483  29.621  1.00  0.00    -0.504 OA
ATOM     19  H   UNL     1      -1.582  31.669  28.768  1.00  0.00     0.293 HD
ENDBRANCH  15  18
BRANCH  17  20
ATOM     20  O   UNL     1      -0.343  32.624  32.053  1.00  0.00    -0.504 OA
ATOM     21  H   UNL     1      -1.331  32.479  31.880  1.00  0.00     0.293 HD
ENDBRANCH  17  20
ENDBRANCH   1  12
BRANCH   2  22
ATOM     22  O   UNL     1       4.951  31.212  31.255  1.00  0.00    -0.502 OA
ATOM     23  H   UNL     1       5.183  30.458  30.621  1.00  0.00     0.293 HD
ENDBRANCH   2  22
BRANCH   6  24
ATOM     24  O   UNL     1       9.103  34.508  31.762  1.00  0.00    -0.507 OA
ATOM     25  H   UNL     1       9.813  33.927  31.342  1.00  0.00     0.293 HD
ENDBRANCH   6  24
BRANCH   8  26
ATOM     26  O   UNL     1       7.409  38.383  29.523  1.00  0.00    -0.508 OA
ATOM     27  H   UNL     1       8.307  38.671  29.152  1.00  0.00     0.293 HD
ENDBRANCH   8  26
TORSDOF 6
ENDMDL
MODEL 4
REMARK VINA RESULT:    -7.184      3.468      9.045
REMARK INTER + INTRA:          -8.368
REMARK INTER:                  -8.047
REMARK INTRA:                  -0.321
REMARK UNBOUND:                 0.287
REMARK SMILES O=c1c(O)c(-c2ccc(O)c(O)c2)oc2cc(O)cc(O)c12
REMARK SMILES IDX 5 1 3 2 2 3 1 4 22 5 20 6 19 7 17 8 16 9 15 10 14 11 6 12
REMARK SMILES IDX 7 13 8 14 9 15 13 16 11 17 10 18 12 20 4 22 21 24 18 26
REMARK H PARENT 10 19 12 21 4 23 21 25 18 27
REMARK Flexibility Score: inf
ROOT
ATOM      1  C   UNL     1       6.153  37.997  26.286  1.00  0.00     0.180 A 
ATOM      2  C   UNL     1       6.394  38.718  27.468  1.00  0.00     0.208 A 
ATOM      3  C   UNL     1       5.666  38.393  28.624  1.00  0.00     0.238 A 
ATOM      4  O   UNL     1       5.847  39.078  29.664  1.00  0.00    -0.285 OA
ATOM      5  C   UNL     1       4.718  37.343  28.587  1.00  0.00     0.111 A 
ATOM      6  C   UNL     1       3.953  36.903  29.709  1.00  0.00     0.134 A 
ATOM      7  C   UNL     1       2.950  35.942  29.527  1.00  0.00     0.093 A 
ATOM      8  C   UNL     1       2.729  35.359  28.280  1.00  0.00     0.123 A 
ATOM      9  C   UNL     1       3.512  35.738  27.188  1.00  0.00     0.094 A 
ATOM     10  C   UNL     1       4.495  36.721  27.331  1.00  0.00     0.146 A 
ATOM     11  O   UNL     1       5.211  37.061  26.266  1.00  0.00    -0.452 OA
ENDROOT
BRANCH   1  12
ATOM     12  C   UNL     1       6.898  38.264  25.034  1.00  0.00     0.025 A 
ATOM     13  C   UNL     1       6.470  39.246  24.124  1.00  0.00     0.016 A 
ATOM     14  C   UNL     1       7.203  39.499  22.961  1.00  0.00     0.051 A 
ATOM     15  C   UNL     1       8.379  38.784  22.698  1.00  0.00     0.157 A 
ATOM     16  C   UNL     1       8.089  37.566  24.776  1.00  0.00     0.062 A 
ATOM     17  C   UNL     1       8.825  37.818  23.609  1.00  0.00     0.158 A 
BRANCH  15  18
ATOM     18  O   UNL     1       9.111  39.033  21.538  1.00  0.00    -0.504 OA
ATOM     19  H   UNL     1       8.662  39.101  20.633  1.00  0.00     0.293 HD
ENDBRANCH  15  18
BRANCH  17  20
ATOM     20  O   UNL     1       9.998  37.114  23.347  1.00  0.00    -0.504 OA
ATOM     21  H   UNL     1      10.280  36.325  23.917  1.00  0.00     0.293 HD
ENDBRANCH  17  20
ENDBRANCH   1  12
BRANCH   2  22
ATOM     22  O   UNL     1       7.319  39.766  27.476  1.00  0.00    -0.502 OA
ATOM     23  H   UNL     1       7.149  40.636  27.963  1.00  0.00     0.293 HD
ENDBRANCH   2  22
BRANCH   6  24
ATOM     24  O   UNL     1       4.155  37.353  31.017  1.00  0.00    -0.507 OA
ATOM     25  H   UNL     1       4.640  36.836  31.734  1.00  0.00     0.293 HD
ENDBRANCH   6  24
BRANCH   8  26
ATOM     26  O   UNL     1       1.734  34.395  28.139  1.00  0.00    -0.508 OA
ATOM     27  H   UNL     1       1.868  33.575  27.559  1.00  0.00     0.293 HD
ENDBRANCH   8  26
TORSDOF 6
ENDMDL
MODEL 5
REMARK VINA RESULT:    -7.184      3.300      8.881
REMARK INTER + INTRA:          -8.367
REMARK INTER:                  -8.050
REMARK INTRA:                  -0.318
REMARK UNBOUND:                 0.287
REMARK SMILES O=c1c(O)c(-c2ccc(O)c(O)c2)oc2cc(O)cc(O)c12
REMARK SMILES IDX 5 1 3 2 2 3 1 4 22 5 20 6 19 7 17 8 16 9 15 10 14 11 6 12
REMARK SMILES IDX 7 13 8 14 9 15 13 16 11 17 10 18 12 20 4 22 21 24 18 26
REMARK H PARENT 10 19 12 21 4 23 21 25 18 27
REMARK Flexibility Score: inf
ROOT
ATOM      1  C   UNL     1       6.038  37.866  26.121  1.00  0.00     0.180 A 
ATOM      2  C   UNL     1       5.045  36.876  26.015  1.00  0.00     0.208 A 
ATOM      3  C   UNL     1       4.335  36.498  27.166  1.00  0.00     0.238 A 
ATOM      4  O   UNL     1       3.486  35.573  27.075  1.00  0.00    -0.285 OA
ATOM      5  C   UNL     1       4.614  37.125  28.403  1.00  0.00     0.111 A 
ATOM      6  C   UNL     1       3.929  36.849  29.625  1.00  0.00     0.134 A 
ATOM      7  C   UNL     1       4.376  37.434  30.816  1.00  0.00     0.093 A 
ATOM      8  C   UNL     1       5.441  38.334  30.820  1.00  0.00     0.123 A 
ATOM      9  C   UNL     1       6.081  38.657  29.623  1.00  0.00     0.094 A 
ATOM     10  C   UNL     1       5.680  38.061  28.424  1.00  0.00     0.146 A 
ATOM     11  O   UNL     1       6.322  38.388  27.308  1.00  0.00    -0.452 OA
ENDROOT
BRANCH   1  12
ATOM     12  C   UNL     1       6.812  38.334  24.949  1.00  0.00     0.025 A 
ATOM     13  C   UNL     1       6.436  39.487  24.238  1.00  0.00     0.016 A 
ATOM     14  C   UNL     1       7.195  39.925  23.149  1.00  0.00     0.051 A 
ATOM     15  C   UNL     1       8.347  39.226  22.765  1.00  0.00     0.157 A 
ATOM     16  C   UNL     1       7.980  37.650  24.572  1.00  0.00     0.062 A 
ATOM     17  C   UNL     1       8.742  38.088  23.480  1.00  0.00     0.158 A 
BRANCH  15  18
ATOM     18  O   UNL     1       9.106  39.659  21.679  1.00  0.00    -0.504 OA
ATOM     19  H   UNL     1       9.359  39.032  20.925  1.00  0.00     0.293 HD
ENDBRANCH  15  18
BRANCH  17  20
ATOM     20  O   UNL     1       9.892  37.399  23.099  1.00  0.00    -0.504 OA
ATOM     21  H   UNL     1      10.554  37.055  23.785  1.00  0.00     0.293 HD
ENDBRANCH  17  20
ENDBRANCH   1  12
BRANCH   2  22
ATOM     22  O   UNL     1       4.801  36.254  24.787  1.00  0.00    -0.502 OA
ATOM     23  H   UNL     1       4.356  36.732  24.015  1.00  0.00     0.293 HD
ENDBRANCH   2  22
BRANCH   6  24
ATOM     24  O   UNL     1       2.795  36.035  29.717  1.00  0.00    -0.507 OA
ATOM     25  H   UNL     1       1.949  36.168  29.184  1.00  0.00     0.293 HD
ENDBRANCH   6  24
BRANCH   8  26
ATOM     26  O   UNL     1       5.849  38.909  32.021  1.00  0.00    -0.508 OA
ATOM     27  H   UNL     1       6.530  38.458  32.621  1.00  0.00     0.293 HD
ENDBRANCH   8  26
TORSDOF 6
ENDMDL
MODEL 6
REMARK VINA RESULT:    -7.139      2.468      4.136
REMARK INTER + INTRA:          -8.313
REMARK INTER:                  -7.999
REMARK INTRA:                  -0.314
REMARK UNBOUND:                 0.287
REMARK SMILES O=c1c(O)c(-c2ccc(O)c(O)c2)oc2cc(O)cc(O)c12
REMARK SMILES IDX 5 1 3 2 2 3 1 4 22 5 20 6 19 7 17 8 16 9 15 10 14 11 6 12
REMARK SMILES IDX 7 13 8 14 9 15 13 16 11 17 10 18 12 20 4 22 21 24 18 26
REMARK H PARENT 10 19 12 21 4 23 21 25 18 27
REMARK Flexibility Score: inf
ROOT
ATOM      1  C   UNL     1       6.667  38.436  25.595  1.00  0.00     0.180 A 
ATOM      2  C   UNL     1       7.796  37.619  25.407  1.00  0.00     0.208 A 
ATOM      3  C   UNL     1       8.730  37.967  24.418  1.00  0.00     0.238 A 
ATOM      4  O   UNL     1       9.710  37.203  24.217  1.00  0.00    -0.285 OA
ATOM      5  C   UNL     1       8.533  39.134  23.642  1.00  0.00     0.111 A 
ATOM      6  C   UNL     1       9.436  39.603  22.641  1.00  0.00     0.134 A 
ATOM      7  C   UNL     1       9.077  40.698  21.845  1.00  0.00     0.093 A 
ATOM      8  C   UNL     1       7.878  41.380  22.056  1.00  0.00     0.123 A 
ATOM      9  C   UNL     1       7.015  40.966  23.072  1.00  0.00     0.094 A 
ATOM     10  C   UNL     1       7.330  39.855  23.859  1.00  0.00     0.146 A 
ATOM     11  O   UNL     1       6.477  39.488  24.808  1.00  0.00    -0.452 OA
ENDROOT
BRANCH   1  12
ATOM     12  C   UNL     1       5.651  38.149  26.634  1.00  0.00     0.025 A 
ATOM     13  C   UNL     1       4.598  37.248  26.397  1.00  0.00     0.016 A 
ATOM     14  C   UNL     1       3.664  36.973  27.400  1.00  0.00     0.051 A 
ATOM     15  C   UNL     1       3.779  37.582  28.657  1.00  0.00     0.157 A 
ATOM     16  C   UNL     1       5.773  38.739  27.903  1.00  0.00     0.062 A 
ATOM     17  C   UNL     1       4.836  38.464  28.909  1.00  0.00     0.158 A 
BRANCH  15  18
ATOM     18  O   UNL     1       2.848  37.311  29.659  1.00  0.00    -0.504 OA
ATOM     19  H   UNL     1       2.661  36.364  29.966  1.00  0.00     0.293 HD
ENDBRANCH  15  18
BRANCH  17  20
ATOM     20  O   UNL     1       4.950  39.063  30.163  1.00  0.00    -0.504 OA
ATOM     21  H   UNL     1       4.231  38.955  30.869  1.00  0.00     0.293 HD
ENDBRANCH  17  20
ENDBRANCH   1  12
BRANCH   2  22
ATOM     22  O   UNL     1       7.959  36.459  26.169  1.00  0.00    -0.502 OA
ATOM     23  H   UNL     1       7.177  35.950  26.560  1.00  0.00     0.293 HD
ENDBRANCH   2  22
BRANCH   6  24
ATOM     24  O   UNL     1      10.699  39.052  22.408  1.00  0.00    -0.507 OA
ATOM     25  H   UNL     1      11.571  39.547  22.519  1.00  0.00     0.293 HD
ENDBRANCH   6  24
BRANCH   8  26
ATOM     26  O   UNL     1       7.560  42.474  21.256  1.00  0.00    -0.508 OA
ATOM     27  H   UNL     1       8.230  42.867  20.605  1.00  0.00     0.293 HD
ENDBRANCH   8  26
TORSDOF 6
ENDMDL
MODEL 7
REMARK VINA RESULT:    -7.108      2.234      7.018
REMARK INTER + INTRA:          -8.276
REMARK INTER:                  -8.090
REMARK INTRA:                  -0.186
REMARK UNBOUND:                 0.287
REMARK SMILES O=c1c(O)c(-c2ccc(O)c(O)c2)oc2cc(O)cc(O)c12
REMARK SMILES IDX 5 1 3 2 2 3 1 4 22 5 20 6 19 7 17 8 16 9 15 10 14 11 6 12
REMARK SMILES IDX 7 13 8 14 9 15 13 16 11 17 10 18 12 20 4 22 21 24 18 26
REMARK H PARENT 10 19 12 21 4 23 21 25 18 27
REMARK Flexibility Score: inf
ROOT
ATOM      1  C   UNL     1       9.409  40.627  23.157  1.00  0.00     0.180 A 
ATOM      2  C   UNL     1      10.296  40.567  24.246  1.00  0.00     0.208 A 
ATOM      3  C   UNL     1      10.088  39.597  25.241  1.00  0.00     0.238 A 
ATOM      4  O   UNL     1      10.852  39.584  26.240  1.00  0.00    -0.285 OA
ATOM      5  C   UNL     1       9.008  38.691  25.126  1.00  0.00     0.111 A 
ATOM      6  C   UNL     1       8.727  37.643  26.053  1.00  0.00     0.134 A 
ATOM      7  C   UNL     1       7.556  36.888  25.909  1.00  0.00     0.093 A 
ATOM      8  C   UNL     1       6.690  37.099  24.836  1.00  0.00     0.123 A 
ATOM      9  C   UNL     1       6.986  38.081  23.890  1.00  0.00     0.094 A 
ATOM     10  C   UNL     1       8.128  38.875  24.027  1.00  0.00     0.146 A 
ATOM     11  O   UNL     1       8.367  39.805  23.111  1.00  0.00    -0.452 OA
ENDROOT
BRANCH   1  12
ATOM     12  C   UNL     1       9.577  41.605  22.057  1.00  0.00     0.025 A 
ATOM     13  C   UNL     1       8.668  42.661  21.874  1.00  0.00     0.016 A 
ATOM     14  C   UNL     1       8.859  43.587  20.844  1.00  0.00     0.051 A 
ATOM     15  C   UNL     1       9.968  43.478  19.995  1.00  0.00     0.157 A 
ATOM     16  C   UNL     1      10.697  41.514  21.216  1.00  0.00     0.062 A 
ATOM     17  C   UNL     1      10.890  42.441  20.182  1.00  0.00     0.158 A 
BRANCH  15  18
ATOM     18  O   UNL     1      10.160  44.399  18.966  1.00  0.00    -0.504 OA
ATOM     19  H   UNL     1       9.492  45.137  18.783  1.00  0.00     0.293 HD
ENDBRANCH  15  18
BRANCH  17  20
ATOM     20  O   UNL     1      11.995  42.340  19.339  1.00  0.00    -0.504 OA
ATOM     21  H   UNL     1      12.884  42.763  19.579  1.00  0.00     0.293 HD
ENDBRANCH  17  20
ENDBRANCH   1  12
BRANCH   2  22
ATOM     22  O   UNL     1      11.343  41.487  24.352  1.00  0.00    -0.502 OA
ATOM     23  H   UNL     1      11.718  41.978  23.551  1.00  0.00     0.293 HD
ENDBRANCH   2  22
BRANCH   6  24
ATOM     24  O   UNL     1       9.572  37.287  27.109  1.00  0.00    -0.507 OA
ATOM     25  H   UNL     1       9.557  36.396  27.581  1.00  0.00     0.293 HD
ENDBRANCH   6  24
BRANCH   8  26
ATOM     26  O   UNL     1       5.543  36.319  24.716  1.00  0.00    -0.508 OA
ATOM     27  H   UNL     1       4.788  36.579  24.093  1.00  0.00     0.293 HD
ENDBRANCH   8  26
TORSDOF 6
ENDMDL
MODEL 8
REMARK VINA RESULT:    -6.697      6.630      9.981
REMARK INTER + INTRA:          -7.781
REMARK INTER:                  -7.680
REMARK INTRA:                  -0.101
REMARK UNBOUND:                 0.287
REMARK SMILES O=c1c(O)c(-c2ccc(O)c(O)c2)oc2cc(O)cc(O)c12
REMARK SMILES IDX 5 1 3 2 2 3 1 4 22 5 20 6 19 7 17 8 16 9 15 10 14 11 6 12
REMARK SMILES IDX 7 13 8 14 9 15 13 16 11 17 10 18 12 20 4 22 21 24 18 26
REMARK H PARENT 10 19 12 21 4 23 21 25 18 27
REMARK Flexibility Score: inf
ROOT
ATOM      1  C   UNL     1       3.819  34.890  29.330  1.00  0.00     0.180 A 
ATOM      2  C   UNL     1       4.981  34.757  30.109  1.00  0.00     0.208 A 
ATOM      3  C   UNL     1       6.029  35.673  29.931  1.00  0.00     0.238 A 
ATOM      4  O   UNL     1       7.088  35.516  30.592  1.00  0.00    -0.285 OA
ATOM      5  C   UNL     1       5.897  36.720  28.988  1.00  0.00     0.111 A 
ATOM      6  C   UNL     1       6.880  37.728  28.753  1.00  0.00     0.134 A 
ATOM      7  C   UNL     1       6.699  38.639  27.705  1.00  0.00     0.093 A 
ATOM      8  C   UNL     1       5.542  38.619  26.925  1.00  0.00     0.123 A 
ATOM      9  C   UNL     1       4.547  37.675  27.184  1.00  0.00     0.094 A 
ATOM     10  C   UNL     1       4.716  36.731  28.200  1.00  0.00     0.146 A 
ATOM     11  O   UNL     1       3.751  35.843  28.407  1.00  0.00    -0.452 OA
ENDROOT
BRANCH   1  12
ATOM     12  C   UNL     1       2.661  33.978  29.478  1.00  0.00     0.025 A 
ATOM     13  C   UNL     1       2.227  33.169  28.414  1.00  0.00     0.016 A 
ATOM     14  C   UNL     1       1.148  32.297  28.583  1.00  0.00     0.051 A 
ATOM     15  C   UNL     1       0.498  32.211  29.821  1.00  0.00     0.157 A 
ATOM     16  C   UNL     1       2.019  33.872  30.722  1.00  0.00     0.062 A 
ATOM     17  C   UNL     1       0.936  32.999  30.893  1.00  0.00     0.158 A 
BRANCH  15  18
ATOM     18  O   UNL     1      -0.580  31.344  29.993  1.00  0.00    -0.504 OA
ATOM     19  H   UNL     1      -1.535  31.652  29.856  1.00  0.00     0.293 HD
ENDBRANCH  15  18
BRANCH  17  20
ATOM     20  O   UNL     1       0.290  32.906  32.125  1.00  0.00    -0.504 OA
ATOM     21  H   UNL     1      -0.496  32.283  32.265  1.00  0.00     0.293 HD
ENDBRANCH  17  20
ENDBRANCH   1  12
BRANCH   2  22
ATOM     22  O   UNL     1       5.100  33.702  31.019  1.00  0.00    -0.502 OA
ATOM     23  H   UNL     1       5.549  33.809  31.919  1.00  0.00     0.293 HD
ENDBRANCH   2  22
BRANCH   6  24
ATOM     24  O   UNL     1       8.029  37.895  29.532  1.00  0.00    -0.507 OA
ATOM     25  H   UNL     1       8.973  37.793  29.192  1.00  0.00     0.293 HD
ENDBRANCH   6  24
BRANCH   8  26
ATOM     26  O   UNL     1       5.388  39.550  25.901  1.00  0.00    -0.508 OA
ATOM     27  H   UNL     1       5.345  40.544  26.090  1.00  0.00     0.293 HD
ENDBRANCH   8  26
TORSDOF 6
ENDMDL
MODEL 9
REMARK VINA RESULT:    -4.939      1.256      1.271
REMARK INTER + INTRA:          -5.663
REMARK INTER:                  -5.339
REMARK INTRA:                  -0.324
REMARK UNBOUND:                 0.287
REMARK SMILES O=c1c(O)c(-c2ccc(O)c(O)c2)oc2cc(O)cc(O)c12
REMARK SMILES IDX 5 1 3 2 2 3 1 4 22 5 20 6 19 7 17 8 16 9 15 10 14 11 6 12
REMARK SMILES IDX 7 13 8 14 9 15 13 16 11 17 10 18 12 20 4 22 21 24 18 26
REMARK H PARENT 10 19 12 21 4 23 21 25 18 27
REMARK Flexibility Score: inf
ROOT
ATOM      1  C   UNL     1       8.993  40.122  22.681  1.00  0.00     0.180 A 
ATOM      2  C   UNL     1      10.145  39.659  22.023  1.00  0.00     0.208 A 
ATOM      3  C   UNL     1      10.792  40.504  21.106  1.00  0.00     0.238 A 
ATOM      4  O   UNL     1      11.790  40.065  20.479  1.00  0.00    -0.285 OA
ATOM      5  C   UNL     1      10.287  41.805  20.871  1.00  0.00     0.111 A 
ATOM      6  C   UNL     1      10.884  42.760  19.994  1.00  0.00     0.134 A 
ATOM      7  C   UNL     1      10.227  43.970  19.740  1.00  0.00     0.093 A 
ATOM      8  C   UNL     1       9.029  44.288  20.379  1.00  0.00     0.123 A 
ATOM      9  C   UNL     1       8.466  43.387  21.284  1.00  0.00     0.094 A 
ATOM     10  C   UNL     1       9.080  42.156  21.531  1.00  0.00     0.146 A 
ATOM     11  O   UNL     1       8.507  41.323  22.391  1.00  0.00    -0.452 OA
ENDROOT
BRANCH   1  12
ATOM     12  C   UNL     1       8.272  39.298  23.679  1.00  0.00     0.025 A 
ATOM     13  C   UNL     1       7.239  38.424  23.297  1.00  0.00     0.016 A 
ATOM     14  C   UNL     1       6.588  37.638  24.252  1.00  0.00     0.051 A 
ATOM     15  C   UNL     1       6.970  37.704  25.598  1.00  0.00     0.157 A 
ATOM     16  C   UNL     1       8.664  39.344  25.027  1.00  0.00     0.062 A 
ATOM     17  C   UNL     1       8.011  38.557  25.986  1.00  0.00     0.158 A 
BRANCH  15  18
ATOM     18  O   UNL     1       6.322  36.923  26.554  1.00  0.00    -0.504 OA
ATOM     19  H   UNL     1       5.507  37.262  27.051  1.00  0.00     0.293 HD
ENDBRANCH  15  18
BRANCH  17  20
ATOM     20  O   UNL     1       8.392  38.615  27.326  1.00  0.00    -0.504 OA
ATOM     21  H   UNL     1       9.010  37.922  27.731  1.00  0.00     0.293 HD
ENDBRANCH  17  20
ENDBRANCH   1  12
BRANCH   2  22
ATOM     22  O   UNL     1      10.614  38.362  22.252  1.00  0.00    -0.502 OA
ATOM     23  H   UNL     1      11.493  38.176  22.717  1.00  0.00     0.293 HD
ENDBRANCH   2  22
BRANCH   6  24
ATOM     24  O   UNL     1      12.125  42.582  19.375  1.00  0.00    -0.507 OA
ATOM     25  H   UNL     1      12.707  43.330  19.030  1.00  0.00     0.293 HD
ENDBRANCH   6  24
BRANCH   8  26
ATOM     26  O   UNL     1       8.411  45.507  20.114  1.00  0.00    -0.508 OA
ATOM     27  H   UNL     1       7.425  45.653  20.296  1.00  0.00     0.293 HD
ENDBRANCH   8  26
TORSDOF 6
ENDMDL
