MODEL 1
REMARK VINA RESULT:    18.568      0.000      0.000
REMARK INTER + INTRA:          32.592
REMARK INTER:                  28.337
REMARK INTRA:                   4.254
REMARK UNBOUND:                 4.254
REMARK SMILES CC1=CCC[C@H](C)C(=O)C[C@H](C(C)C)C(=O)C1
REMARK SMILES IDX 8 1 9 2 6 3 7 4 5 5 4 6 3 7 2 8 1 9 10 11 11 12 15 13 16 14
REMARK SMILES IDX 17 15 12 17 13 18 14 19
REMARK H PARENT
REMARK Flexibility Score: 70.00
ROOT
ATOM      1  C   UNL     1      -4.433 -10.426  -8.850  1.00  0.00     0.136 C 
ATOM      2  O   UNL     1      -4.797  -9.276  -9.045  1.00  0.00    -0.299 OA
ENDROOT
BRANCH   1   3
ATOM      3  C   UNL     1      -4.428 -11.398 -10.018  1.00  0.00     0.053 C 
ATOM      4  C   UNL     1      -3.122 -11.271 -10.809  1.00  0.00     0.016 C 
BRANCH   3   5
ATOM      5  C   UNL     1      -4.662 -12.857  -9.576  1.00  0.00     0.015 C 
BRANCH   5   6
ATOM      6  C   UNL     1      -5.252 -12.942  -8.157  1.00  0.00     0.028 C 
BRANCH   6   7
ATOM      7  C   UNL     1      -4.211 -13.227  -7.104  1.00  0.00    -0.028 C 
ATOM      8  C   UNL     1      -4.324 -12.955  -5.779  1.00  0.00    -0.070 CG0
ATOM      9  C   UNL     1      -3.208 -13.428  -4.879  1.00  0.00     0.039 C 
ATOM     10  G   UNL     1      -5.465 -12.151  -5.160  1.00  0.00     0.000 G0
ENDBRANCH   6   7
ENDBRANCH   5   6
ENDBRANCH   3   5
ENDBRANCH   1   3
BRANCH   1  11
ATOM     11  C   UNL     1      -3.937 -10.812  -7.473  1.00  0.00     0.087 C 
BRANCH  11  12
ATOM     12  C   UNL     1      -4.607  -9.987  -6.338  1.00  0.00     0.066 C 
BRANCH  12  13
ATOM     13  C   UNL     1      -5.646 -10.770  -5.541  1.00  0.00     0.140 C 
ATOM     14  O   UNL     1      -6.631 -10.174  -5.127  1.00  0.00    -0.299 OA
BRANCH  13  15
ATOM     15  C   UNL     1      -5.436 -12.202  -5.111  1.00  0.00     0.106 CG0
ATOM     16  G   UNL     1      -4.274 -12.904  -5.809  1.00  0.00     0.000 G0
ENDBRANCH  13  15
ENDBRANCH  12  13
BRANCH  12  17
ATOM     17  C   UNL     1      -3.584  -9.280  -5.391  1.00  0.00    -0.006 C 
ATOM     18  C   UNL     1      -4.107  -7.913  -4.915  1.00  0.00     0.008 C 
ATOM     19  C   UNL     1      -2.178  -9.112  -5.991  1.00  0.00     0.008 C 
ENDBRANCH  12  17
ENDBRANCH  11  12
ENDBRANCH   1  11
TORSDOF 1
ENDMDL
MODEL 2
REMARK VINA RESULT:    21.083      1.799      4.429
REMARK INTER + INTRA:          36.430
REMARK INTER:                  34.445
REMARK INTRA:                   1.985
REMARK UNBOUND:                 4.254
REMARK SMILES CC1=CCC[C@H](C)C(=O)C[C@H](C(C)C)C(=O)C1
REMARK SMILES IDX 8 1 9 2 6 3 7 4 5 5 4 6 3 7 2 8 1 9 10 11 11 12 15 13 16 14
REMARK SMILES IDX 17 15 12 17 13 18 14 19
REMARK H PARENT
REMARK Flexibility Score: 70.00
ROOT
ATOM      1  C   UNL     1      -5.120 -10.832  -5.752  1.00  0.00     0.136 C 
ATOM      2  O   UNL     1      -6.283 -11.205  -5.706  1.00  0.00    -0.299 OA
ENDROOT
BRANCH   1   3
ATOM      3  C   UNL     1      -4.833  -9.377  -6.081  1.00  0.00     0.053 C 
ATOM      4  C   UNL     1      -3.742  -8.829  -5.154  1.00  0.00     0.016 C 
BRANCH   3   5
ATOM      5  C   UNL     1      -4.452  -9.168  -7.561  1.00  0.00     0.015 C 
BRANCH   5   6
ATOM      6  C   UNL     1      -3.578 -10.315  -8.098  1.00  0.00     0.028 C 
BRANCH   6   7
ATOM      7  C   UNL     1      -4.022 -10.808  -9.452  1.00  0.00    -0.028 C 
ATOM      8  C   UNL     1      -4.468 -12.058  -9.736  1.00  0.00    -0.070 CG0
ATOM      9  C   UNL     1      -4.972 -12.309 -11.137  1.00  0.00     0.039 C 
ATOM     10  G   UNL     1      -4.428 -13.230  -8.758  1.00  0.00     0.000 G0
ENDBRANCH   6   7
ENDBRANCH   5   6
ENDBRANCH   3   5
ENDBRANCH   1   3
BRANCH   1  11
ATOM     11  C   UNL     1      -4.023 -11.817  -5.411  1.00  0.00     0.087 C 
BRANCH  11  12
ATOM     12  C   UNL     1      -4.197 -13.185  -6.130  1.00  0.00     0.066 C 
BRANCH  12  13
ATOM     13  C   UNL     1      -5.015 -13.104  -7.416  1.00  0.00     0.140 C 
ATOM     14  O   UNL     1      -6.232 -13.027  -7.328  1.00  0.00    -0.299 OA
BRANCH  13  15
ATOM     15  C   UNL     1      -4.401 -13.270  -8.786  1.00  0.00     0.106 CG0
ATOM     16  G   UNL     1      -4.535 -12.045  -9.687  1.00  0.00     0.000 G0
ENDBRANCH  13  15
ENDBRANCH  12  13
BRANCH  12  17
ATOM     17  C   UNL     1      -2.852 -13.945  -6.364  1.00  0.00    -0.006 C 
ATOM     18  C   UNL     1      -3.047 -15.470  -6.310  1.00  0.00     0.008 C 
ATOM     19  C   UNL     1      -1.720 -13.536  -5.405  1.00  0.00     0.008 C 
ENDBRANCH  12  17
ENDBRANCH  11  12
ENDBRANCH   1  11
TORSDOF 1
ENDMDL
