MODEL 1
REMARK VINA RESULT:    -7.627      0.000      0.000
REMARK INTER + INTRA:         -12.378
REMARK INTER:                 -11.194
REMARK INTRA:                  -1.184
REMARK UNBOUND:                -1.184
REMARK SMILES O=c1c(O[C@@H]2O[C@H](CO)[C@@H](O)[C@@H](O)[C@@H]2O)c(-c2ccc(O)c(O)c2)oc2cc(O)cc(O)c12
REMARK SMILES IDX 4 1 3 2 16 3 25 4 2 5 26 6 1 7 33 8 27 9 31 10 28 11 30 12
REMARK SMILES IDX 17 13 18 14 19 15 20 16 24 17 22 18 21 19 23 21 32 23 29 25
REMARK SMILES IDX 5 27 14 28 6 29 12 30 7 31 10 32 15 33 13 35 8 37 9 38 11 40
REMARK H PARENT 21 20 23 22 32 24 29 26 15 34 13 36 9 39 11 41
REMARK Flexibility Score: inf
ROOT
ATOM      1  O   UNL     1      53.445   6.796  81.309  1.00  0.00    -0.454 OA
ENDROOT
BRANCH   1   2
ATOM      2  C   UNL     1      54.141   7.179  80.148  1.00  0.00     0.214 A 
ATOM      3  C   UNL     1      54.382   6.325  79.060  1.00  0.00     0.180 A 
ATOM      4  O   UNL     1      55.559   6.412  78.440  1.00  0.00    -0.452 OA
ATOM      5  C   UNL     1      54.897   8.352  80.247  1.00  0.00     0.239 A 
ATOM      6  C   UNL     1      56.484   7.314  78.766  1.00  0.00     0.146 A 
ATOM      7  O   UNL     1      54.488   9.299  80.964  1.00  0.00    -0.285 OA
ATOM      8  C   UNL     1      56.159   8.391  79.631  1.00  0.00     0.111 A 
ATOM      9  C   UNL     1      57.764   7.192  78.237  1.00  0.00     0.094 A 
ATOM     10  C   UNL     1      57.171   9.319  79.984  1.00  0.00     0.134 A 
ATOM     11  C   UNL     1      58.779   8.049  78.668  1.00  0.00     0.123 A 
ATOM     12  C   UNL     1      58.486   9.112  79.545  1.00  0.00     0.093 A 
BRANCH   3  13
ATOM     13  C   UNL     1      53.405   5.304  78.556  1.00  0.00     0.025 A 
ATOM     14  C   UNL     1      52.050   5.621  78.353  1.00  0.00     0.016 A 
ATOM     15  C   UNL     1      51.137   4.605  77.996  1.00  0.00     0.051 A 
ATOM     16  C   UNL     1      51.573   3.298  77.781  1.00  0.00     0.157 A 
ATOM     17  C   UNL     1      53.853   4.018  78.196  1.00  0.00     0.062 A 
ATOM     18  C   UNL     1      52.943   3.021  77.797  1.00  0.00     0.158 A 
BRANCH  16  19
ATOM     19  O   UNL     1      50.619   2.274  77.621  1.00  0.00    -0.504 OA
ATOM     20  H   UNL     1      49.782   2.233  78.188  1.00  0.00     0.293 HD
ENDBRANCH  16  19
BRANCH  18  21
ATOM     21  O   UNL     1      53.410   1.754  77.433  1.00  0.00    -0.504 OA
ATOM     22  H   UNL     1      54.291   1.638  76.946  1.00  0.00     0.293 HD
ENDBRANCH  18  21
ENDBRANCH   3  13
BRANCH  10  23
ATOM     23  O   UNL     1      56.865  10.396  80.813  1.00  0.00    -0.507 OA
ATOM     24  H   UNL     1      56.475  10.256  81.737  1.00  0.00     0.293 HD
ENDBRANCH  10  23
BRANCH  11  25
ATOM     25  O   UNL     1      60.093   7.794  78.299  1.00  0.00    -0.508 OA
ATOM     26  H   UNL     1      60.799   7.728  79.037  1.00  0.00     0.293 HD
ENDBRANCH  11  25
ENDBRANCH   1   2
BRANCH   1  27
ATOM     27  C   UNL     1      53.424   5.430  81.734  1.00  0.00     0.339 C 
ATOM     28  C   UNL     1      54.217   5.210  83.028  1.00  0.00     0.214 C 
ATOM     29  O   UNL     1      52.095   5.003  81.939  1.00  0.00    -0.332 OA
ATOM     30  C   UNL     1      54.365   3.681  83.214  1.00  0.00     0.180 C 
ATOM     31  C   UNL     1      52.049   3.584  81.902  1.00  0.00     0.179 C 
ATOM     32  C   UNL     1      53.053   2.876  82.881  1.00  0.00     0.177 C 
BRANCH  28  33
ATOM     33  O   UNL     1      53.539   5.776  84.117  1.00  0.00    -0.384 OA
ATOM     34  H   UNL     1      53.895   6.677  84.270  1.00  0.00     0.211 HD
ENDBRANCH  28  33
BRANCH  30  35
ATOM     35  O   UNL     1      55.484   3.192  82.514  1.00  0.00    -0.387 OA
ATOM     36  H   UNL     1      56.134   2.853  83.174  1.00  0.00     0.211 HD
ENDBRANCH  30  35
BRANCH  31  37
ATOM     37  C   UNL     1      50.597   3.140  82.185  1.00  0.00     0.191 C 
BRANCH  37  38
ATOM     38  O   UNL     1      49.716   3.743  81.271  1.00  0.00    -0.394 OA
ATOM     39  H   UNL     1      48.823   3.331  81.374  1.00  0.00     0.210 HD
ENDBRANCH  37  38
ENDBRANCH  31  37
BRANCH  32  40
ATOM     40  O   UNL     1      53.355   1.569  82.425  1.00  0.00    -0.387 OA
ATOM     41  H   UNL     1      54.295   1.584  82.088  1.00  0.00     0.211 HD
ENDBRANCH  32  40
ENDBRANCH   1  27
TORSDOF 12
ENDMDL
MODEL 2
REMARK VINA RESULT:    -7.287      1.952      4.660
REMARK INTER + INTRA:         -11.879
REMARK INTER:                 -10.544
REMARK INTRA:                  -1.335
REMARK UNBOUND:                -1.184
REMARK SMILES O=c1c(O[C@@H]2O[C@H](CO)[C@@H](O)[C@@H](O)[C@@H]2O)c(-c2ccc(O)c(O)c2)oc2cc(O)cc(O)c12
REMARK SMILES IDX 4 1 3 2 16 3 25 4 2 5 26 6 1 7 33 8 27 9 31 10 28 11 30 12
REMARK SMILES IDX 17 13 18 14 19 15 20 16 24 17 22 18 21 19 23 21 32 23 29 25
REMARK SMILES IDX 5 27 14 28 6 29 12 30 7 31 10 32 15 33 13 35 8 37 9 38 11 40
REMARK H PARENT 21 20 23 22 32 24 29 26 15 34 13 36 9 39 11 41
REMARK Flexibility Score: inf
ROOT
ATOM      1  O   UNL     1      54.953   6.799  79.024  1.00  0.00    -0.454 OA
ENDROOT
BRANCH   1   2
ATOM      2  C   UNL     1      56.086   6.500  79.802  1.00  0.00     0.214 A 
ATOM      3  C   UNL     1      56.043   6.230  81.179  1.00  0.00     0.180 A 
ATOM      4  O   UNL     1      57.027   6.699  81.945  1.00  0.00    -0.452 OA
ATOM      5  C   UNL     1      57.323   6.818  79.231  1.00  0.00     0.239 A 
ATOM      6  C   UNL     1      58.078   7.354  81.452  1.00  0.00     0.146 A 
ATOM      7  O   UNL     1      57.483   6.712  77.990  1.00  0.00    -0.285 OA
ATOM      8  C   UNL     1      58.321   7.367  80.054  1.00  0.00     0.111 A 
ATOM      9  C   UNL     1      58.937   8.010  82.326  1.00  0.00     0.094 A 
ATOM     10  C   UNL     1      59.430   8.096  79.555  1.00  0.00     0.134 A 
ATOM     11  C   UNL     1      59.966   8.808  81.822  1.00  0.00     0.123 A 
ATOM     12  C   UNL     1      60.213   8.856  80.435  1.00  0.00     0.093 A 
BRANCH   3  13
ATOM     13  C   UNL     1      54.946   5.458  81.853  1.00  0.00     0.025 A 
ATOM     14  C   UNL     1      53.954   6.103  82.612  1.00  0.00     0.016 A 
ATOM     15  C   UNL     1      53.010   5.336  83.331  1.00  0.00     0.051 A 
ATOM     16  C   UNL     1      53.013   3.944  83.249  1.00  0.00     0.157 A 
ATOM     17  C   UNL     1      54.847   4.066  81.666  1.00  0.00     0.062 A 
ATOM     18  C   UNL     1      53.876   3.312  82.351  1.00  0.00     0.158 A 
BRANCH  16  19
ATOM     19  O   UNL     1      52.194   3.205  84.125  1.00  0.00    -0.504 OA
ATOM     20  H   UNL     1      52.498   2.325  84.523  1.00  0.00     0.293 HD
ENDBRANCH  16  19
BRANCH  18  21
ATOM     21  O   UNL     1      53.787   1.932  82.142  1.00  0.00    -0.504 OA
ATOM     22  H   UNL     1      54.611   1.376  81.939  1.00  0.00     0.293 HD
ENDBRANCH  18  21
ENDBRANCH   3  13
BRANCH  10  23
ATOM     23  O   UNL     1      59.698   8.100  78.188  1.00  0.00    -0.507 OA
ATOM     24  H   UNL     1      59.045   7.706  77.522  1.00  0.00     0.293 HD
ENDBRANCH  10  23
BRANCH  11  25
ATOM     25  O   UNL     1      60.687   9.624  82.684  1.00  0.00    -0.508 OA
ATOM     26  H   UNL     1      61.481   9.217  83.184  1.00  0.00     0.293 HD
ENDBRANCH  11  25
ENDBRANCH   1   2
BRANCH   1  27
ATOM     27  C   UNL     1      54.008   5.781  78.683  1.00  0.00     0.339 C 
ATOM     28  C   UNL     1      52.953   6.275  77.687  1.00  0.00     0.214 C 
ATOM     29  O   UNL     1      54.670   4.667  78.125  1.00  0.00    -0.332 OA
ATOM     30  C   UNL     1      51.842   5.199  77.632  1.00  0.00     0.180 C 
ATOM     31  C   UNL     1      53.829   3.526  78.223  1.00  0.00     0.179 C 
ATOM     32  C   UNL     1      52.394   3.725  77.614  1.00  0.00     0.177 C 
BRANCH  28  33
ATOM     33  O   UNL     1      53.525   6.457  76.421  1.00  0.00    -0.384 OA
ATOM     34  H   UNL     1      52.806   6.477  75.755  1.00  0.00     0.211 HD
ENDBRANCH  28  33
BRANCH  30  35
ATOM     35  O   UNL     1      50.891   5.401  78.650  1.00  0.00    -0.387 OA
ATOM     36  H   UNL     1      51.059   4.739  79.362  1.00  0.00     0.211 HD
ENDBRANCH  30  35
BRANCH  31  37
ATOM     37  C   UNL     1      54.551   2.335  77.556  1.00  0.00     0.191 C 
BRANCH  37  38
ATOM     38  O   UNL     1      53.640   1.299  77.292  1.00  0.00    -0.394 OA
ATOM     39  H   UNL     1      52.729   1.682  77.248  1.00  0.00     0.210 HD
ENDBRANCH  37  38
ENDBRANCH  31  37
BRANCH  32  40
ATOM     40  O   UNL     1      51.474   2.824  78.206  1.00  0.00    -0.387 OA
ATOM     41  H   UNL     1      50.637   3.337  78.390  1.00  0.00     0.211 HD
ENDBRANCH  32  40
ENDBRANCH   1  27
TORSDOF 12
ENDMDL
MODEL 3
REMARK VINA RESULT:    -7.169      1.623      1.777
REMARK INTER + INTRA:         -11.706
REMARK INTER:                 -10.611
REMARK INTRA:                  -1.096
REMARK UNBOUND:                -1.184
REMARK SMILES O=c1c(O[C@@H]2O[C@H](CO)[C@@H](O)[C@@H](O)[C@@H]2O)c(-c2ccc(O)c(O)c2)oc2cc(O)cc(O)c12
REMARK SMILES IDX 4 1 3 2 16 3 25 4 2 5 26 6 1 7 33 8 27 9 31 10 28 11 30 12
REMARK SMILES IDX 17 13 18 14 19 15 20 16 24 17 22 18 21 19 23 21 32 23 29 25
REMARK SMILES IDX 5 27 14 28 6 29 12 30 7 31 10 32 15 33 13 35 8 37 9 38 11 40
REMARK H PARENT 21 20 23 22 32 24 29 26 15 34 13 36 9 39 11 41
REMARK Flexibility Score: inf
ROOT
ATOM      1  O   UNL     1      56.320   4.951  80.443  1.00  0.00    -0.454 OA
ENDROOT
BRANCH   1   2
ATOM      2  C   UNL     1      56.012   6.084  79.668  1.00  0.00     0.214 A 
ATOM      3  C   UNL     1      55.357   6.031  78.427  1.00  0.00     0.180 A 
ATOM      4  O   UNL     1      55.751   6.870  77.470  1.00  0.00    -0.452 OA
ATOM      5  C   UNL     1      56.690   7.260  80.007  1.00  0.00     0.239 A 
ATOM      6  C   UNL     1      56.691   7.795  77.661  1.00  0.00     0.146 A 
ATOM      7  O   UNL     1      56.972   7.494  81.208  1.00  0.00    -0.285 OA
ATOM      8  C   UNL     1      57.145   8.094  78.972  1.00  0.00     0.111 A 
ATOM      9  C   UNL     1      57.210   8.470  76.561  1.00  0.00     0.094 A 
ATOM     10  C   UNL     1      58.167   9.062  79.142  1.00  0.00     0.134 A 
ATOM     11  C   UNL     1      58.285   9.346  76.726  1.00  0.00     0.123 A 
ATOM     12  C   UNL     1      58.769   9.642  78.016  1.00  0.00     0.093 A 
BRANCH   3  13
ATOM     13  C   UNL     1      54.247   5.076  78.100  1.00  0.00     0.025 A 
ATOM     14  C   UNL     1      52.933   5.526  77.875  1.00  0.00     0.016 A 
ATOM     15  C   UNL     1      51.892   4.590  77.689  1.00  0.00     0.051 A 
ATOM     16  C   UNL     1      52.160   3.222  77.667  1.00  0.00     0.157 A 
ATOM     17  C   UNL     1      54.523   3.706  77.930  1.00  0.00     0.062 A 
ATOM     18  C   UNL     1      53.486   2.782  77.701  1.00  0.00     0.158 A 
BRANCH  16  19
ATOM     19  O   UNL     1      51.085   2.312  77.679  1.00  0.00    -0.504 OA
ATOM     20  H   UNL     1      50.160   2.585  77.986  1.00  0.00     0.293 HD
ENDBRANCH  16  19
BRANCH  18  21
ATOM     21  O   UNL     1      53.784   1.427  77.525  1.00  0.00    -0.504 OA
ATOM     22  H   UNL     1      53.312   0.872  76.819  1.00  0.00     0.293 HD
ENDBRANCH  18  21
ENDBRANCH   3  13
BRANCH  10  23
ATOM     23  O   UNL     1      58.608   9.386  80.423  1.00  0.00    -0.507 OA
ATOM     24  H   UNL     1      58.643  10.346  80.742  1.00  0.00     0.293 HD
ENDBRANCH  10  23
BRANCH  11  25
ATOM     25  O   UNL     1      58.932   9.855  75.608  1.00  0.00    -0.508 OA
ATOM     26  H   UNL     1      58.955   9.283  74.760  1.00  0.00     0.293 HD
ENDBRANCH  11  25
ENDBRANCH   1   2
BRANCH   1  27
ATOM     27  C   UNL     1      55.374   4.423  81.377  1.00  0.00     0.339 C 
ATOM     28  C   UNL     1      55.678   4.848  82.818  1.00  0.00     0.214 C 
ATOM     29  O   UNL     1      54.070   4.848  81.045  1.00  0.00    -0.332 OA
ATOM     30  C   UNL     1      54.784   3.988  83.743  1.00  0.00     0.180 C 
ATOM     31  C   UNL     1      53.126   3.982  81.658  1.00  0.00     0.179 C 
ATOM     32  C   UNL     1      53.313   3.811  83.208  1.00  0.00     0.177 C 
BRANCH  28  33
ATOM     33  O   UNL     1      55.402   6.211  82.993  1.00  0.00    -0.384 OA
ATOM     34  H   UNL     1      54.483   6.302  83.323  1.00  0.00     0.211 HD
ENDBRANCH  28  33
BRANCH  30  35
ATOM     35  O   UNL     1      55.397   2.756  84.039  1.00  0.00    -0.387 OA
ATOM     36  H   UNL     1      55.747   2.378  83.197  1.00  0.00     0.211 HD
ENDBRANCH  30  35
BRANCH  31  37
ATOM     37  C   UNL     1      51.709   4.500  81.328  1.00  0.00     0.191 C 
BRANCH  37  38
ATOM     38  O   UNL     1      50.928   3.469  80.778  1.00  0.00    -0.394 OA
ATOM     39  H   UNL     1      50.462   2.999  81.513  1.00  0.00     0.210 HD
ENDBRANCH  37  38
ENDBRANCH  31  37
BRANCH  32  40
ATOM     40  O   UNL     1      52.753   2.584  83.644  1.00  0.00    -0.387 OA
ATOM     41  H   UNL     1      51.760   2.687  83.619  1.00  0.00     0.211 HD
ENDBRANCH  32  40
ENDBRANCH   1  27
TORSDOF 12
ENDMDL
MODEL 4
REMARK VINA RESULT:    -7.129      2.598      4.377
REMARK INTER + INTRA:         -11.648
REMARK INTER:                 -10.354
REMARK INTRA:                  -1.294
REMARK UNBOUND:                -1.184
REMARK SMILES O=c1c(O[C@@H]2O[C@H](CO)[C@@H](O)[C@@H](O)[C@@H]2O)c(-c2ccc(O)c(O)c2)oc2cc(O)cc(O)c12
REMARK SMILES IDX 4 1 3 2 16 3 25 4 2 5 26 6 1 7 33 8 27 9 31 10 28 11 30 12
REMARK SMILES IDX 17 13 18 14 19 15 20 16 24 17 22 18 21 19 23 21 32 23 29 25
REMARK SMILES IDX 5 27 14 28 6 29 12 30 7 31 10 32 15 33 13 35 8 37 9 38 11 40
REMARK H PARENT 21 20 23 22 32 24 29 26 15 34 13 36 9 39 11 41
REMARK Flexibility Score: inf
ROOT
ATOM      1  O   UNL     1      54.596   5.144  78.581  1.00  0.00    -0.454 OA
ENDROOT
BRANCH   1   2
ATOM      2  C   UNL     1      54.867   6.329  79.289  1.00  0.00     0.214 A 
ATOM      3  C   UNL     1      54.745   7.616  78.740  1.00  0.00     0.180 A 
ATOM      4  O   UNL     1      55.651   8.533  79.078  1.00  0.00    -0.452 OA
ATOM      5  C   UNL     1      55.602   6.183  80.470  1.00  0.00     0.239 A 
ATOM      6  C   UNL     1      56.623   8.300  79.959  1.00  0.00     0.146 A 
ATOM      7  O   UNL     1      55.444   5.159  81.181  1.00  0.00    -0.285 OA
ATOM      8  C   UNL     1      56.591   7.135  80.768  1.00  0.00     0.111 A 
ATOM      9  C   UNL     1      57.659   9.220  80.082  1.00  0.00     0.094 A 
ATOM     10  C   UNL     1      57.654   6.899  81.676  1.00  0.00     0.134 A 
ATOM     11  C   UNL     1      58.751   8.932  80.903  1.00  0.00     0.123 A 
ATOM     12  C   UNL     1      58.753   7.769  81.700  1.00  0.00     0.093 A 
BRANCH   3  13
ATOM     13  C   UNL     1      53.667   8.025  77.780  1.00  0.00     0.025 A 
ATOM     14  C   UNL     1      53.862   7.968  76.389  1.00  0.00     0.016 A 
ATOM     15  C   UNL     1      52.871   8.475  75.519  1.00  0.00     0.051 A 
ATOM     16  C   UNL     1      51.671   8.976  76.022  1.00  0.00     0.157 A 
ATOM     17  C   UNL     1      52.398   8.398  78.264  1.00  0.00     0.062 A 
ATOM     18  C   UNL     1      51.398   8.860  77.388  1.00  0.00     0.158 A 
BRANCH  16  19
ATOM     19  O   UNL     1      50.792   9.651  75.153  1.00  0.00    -0.504 OA
ATOM     20  H   UNL     1      49.968  10.130  75.494  1.00  0.00     0.293 HD
ENDBRANCH  16  19
BRANCH  18  21
ATOM     21  O   UNL     1      50.141   9.215  77.888  1.00  0.00    -0.504 OA
ATOM     22  H   UNL     1      49.313   8.672  77.666  1.00  0.00     0.293 HD
ENDBRANCH  18  21
ENDBRANCH   3  13
BRANCH  10  23
ATOM     23  O   UNL     1      57.627   5.773  82.496  1.00  0.00    -0.507 OA
ATOM     24  H   UNL     1      58.344   5.060  82.436  1.00  0.00     0.293 HD
ENDBRANCH  10  23
BRANCH  11  25
ATOM     25  O   UNL     1      59.873   9.749  80.864  1.00  0.00    -0.508 OA
ATOM     26  H   UNL     1      59.890  10.577  81.464  1.00  0.00     0.293 HD
ENDBRANCH  11  25
ENDBRANCH   1   2
BRANCH   1  27
ATOM     27  C   UNL     1      53.272   4.605  78.532  1.00  0.00     0.339 C 
ATOM     28  C   UNL     1      53.207   3.289  77.748  1.00  0.00     0.214 C 
ATOM     29  O   UNL     1      52.788   4.379  79.838  1.00  0.00    -0.332 OA
ATOM     30  C   UNL     1      51.710   2.974  77.516  1.00  0.00     0.180 C 
ATOM     31  C   UNL     1      51.370   4.298  79.802  1.00  0.00     0.179 C 
ATOM     32  C   UNL     1      50.806   3.252  78.775  1.00  0.00     0.177 C 
BRANCH  28  33
ATOM     33  O   UNL     1      53.822   2.260  78.474  1.00  0.00    -0.384 OA
ATOM     34  H   UNL     1      54.327   1.698  77.849  1.00  0.00     0.211 HD
ENDBRANCH  28  33
BRANCH  30  35
ATOM     35  O   UNL     1      51.230   3.618  76.360  1.00  0.00    -0.387 OA
ATOM     36  H   UNL     1      50.657   4.369  76.644  1.00  0.00     0.211 HD
ENDBRANCH  30  35
BRANCH  31  37
ATOM     37  C   UNL     1      50.868   3.994  81.231  1.00  0.00     0.191 C 
BRANCH  37  38
ATOM     38  O   UNL     1      49.463   3.984  81.261  1.00  0.00    -0.394 OA
ATOM     39  H   UNL     1      49.132   4.849  80.912  1.00  0.00     0.210 HD
ENDBRANCH  37  38
ENDBRANCH  31  37
BRANCH  32  40
ATOM     40  O   UNL     1      49.485   3.593  78.392  1.00  0.00    -0.387 OA
ATOM     41  H   UNL     1      49.096   2.796  77.932  1.00  0.00     0.211 HD
ENDBRANCH  32  40
ENDBRANCH   1  27
TORSDOF 12
ENDMDL
MODEL 5
REMARK VINA RESULT:    -7.038      2.949      5.298
REMARK INTER + INTRA:         -11.514
REMARK INTER:                 -10.119
REMARK INTRA:                  -1.396
REMARK UNBOUND:                -1.184
REMARK SMILES O=c1c(O[C@@H]2O[C@H](CO)[C@@H](O)[C@@H](O)[C@@H]2O)c(-c2ccc(O)c(O)c2)oc2cc(O)cc(O)c12
REMARK SMILES IDX 4 1 3 2 16 3 25 4 2 5 26 6 1 7 33 8 27 9 31 10 28 11 30 12
REMARK SMILES IDX 17 13 18 14 19 15 20 16 24 17 22 18 21 19 23 21 32 23 29 25
REMARK SMILES IDX 5 27 14 28 6 29 12 30 7 31 10 32 15 33 13 35 8 37 9 38 11 40
REMARK H PARENT 21 20 23 22 32 24 29 26 15 34 13 36 9 39 11 41
REMARK Flexibility Score: inf
ROOT
ATOM      1  O   UNL     1      53.949   6.765  76.767  1.00  0.00    -0.454 OA
ENDROOT
BRANCH   1   2
ATOM      2  C   UNL     1      54.702   6.008  77.682  1.00  0.00     0.214 A 
ATOM      3  C   UNL     1      54.142   5.272  78.739  1.00  0.00     0.180 A 
ATOM      4  O   UNL     1      54.791   5.249  79.903  1.00  0.00    -0.452 OA
ATOM      5  C   UNL     1      56.073   6.283  77.723  1.00  0.00     0.239 A 
ATOM      6  C   UNL     1      55.972   5.837  80.085  1.00  0.00     0.146 A 
ATOM      7  O   UNL     1      56.677   6.604  76.670  1.00  0.00    -0.285 OA
ATOM      8  C   UNL     1      56.715   6.309  78.973  1.00  0.00     0.111 A 
ATOM      9  C   UNL     1      56.471   5.968  81.377  1.00  0.00     0.094 A 
ATOM     10  C   UNL     1      57.956   6.957  79.199  1.00  0.00     0.134 A 
ATOM     11  C   UNL     1      57.641   6.696  81.600  1.00  0.00     0.123 A 
ATOM     12  C   UNL     1      58.386   7.195  80.512  1.00  0.00     0.093 A 
BRANCH   3  13
ATOM     13  C   UNL     1      52.847   4.519  78.650  1.00  0.00     0.025 A 
ATOM     14  C   UNL     1      52.516   3.761  77.513  1.00  0.00     0.016 A 
ATOM     15  C   UNL     1      51.238   3.166  77.413  1.00  0.00     0.051 A 
ATOM     16  C   UNL     1      50.320   3.271  78.458  1.00  0.00     0.157 A 
ATOM     17  C   UNL     1      51.969   4.495  79.750  1.00  0.00     0.062 A 
ATOM     18  C   UNL     1      50.715   3.862  79.661  1.00  0.00     0.158 A 
BRANCH  16  19
ATOM     19  O   UNL     1      48.995   2.842  78.251  1.00  0.00    -0.504 OA
ATOM     20  H   UNL     1      48.748   1.860  78.242  1.00  0.00     0.293 HD
ENDBRANCH  16  19
BRANCH  18  21
ATOM     21  O   UNL     1      49.863   3.841  80.769  1.00  0.00    -0.504 OA
ATOM     22  H   UNL     1      49.499   2.968  81.136  1.00  0.00     0.293 HD
ENDBRANCH  18  21
ENDBRANCH   3  13
BRANCH  10  23
ATOM     23  O   UNL     1      58.711   7.405  78.117  1.00  0.00    -0.507 OA
ATOM     24  H   UNL     1      59.723   7.418  78.149  1.00  0.00     0.293 HD
ENDBRANCH  10  23
BRANCH  11  25
ATOM     25  O   UNL     1      58.021   7.002  82.900  1.00  0.00    -0.508 OA
ATOM     26  H   UNL     1      58.100   7.987  83.162  1.00  0.00     0.293 HD
ENDBRANCH  11  25
ENDBRANCH   1   2
BRANCH   1  27
ATOM     27  C   UNL     1      53.118   7.841  77.212  1.00  0.00     0.339 C 
ATOM     28  C   UNL     1      53.886   8.856  78.067  1.00  0.00     0.214 C 
ATOM     29  O   UNL     1      52.555   8.513  76.107  1.00  0.00    -0.332 OA
ATOM     30  C   UNL     1      52.836   9.785  78.721  1.00  0.00     0.180 C 
ATOM     31  C   UNL     1      51.413   9.241  76.535  1.00  0.00     0.179 C 
ATOM     32  C   UNL     1      51.677  10.210  77.743  1.00  0.00     0.177 C 
BRANCH  28  33
ATOM     33  O   UNL     1      54.770   9.595  77.269  1.00  0.00    -0.384 OA
ATOM     34  H   UNL     1      54.323   9.802  76.421  1.00  0.00     0.211 HD
ENDBRANCH  28  33
BRANCH  30  35
ATOM     35  O   UNL     1      52.347   9.233  79.920  1.00  0.00    -0.387 OA
ATOM     36  H   UNL     1      52.369   8.250  79.836  1.00  0.00     0.211 HD
ENDBRANCH  30  35
BRANCH  31  37
ATOM     37  C   UNL     1      50.849  10.013  75.322  1.00  0.00     0.191 C 
BRANCH  37  38
ATOM     38  O   UNL     1      49.444  10.014  75.355  1.00  0.00    -0.394 OA
ATOM     39  H   UNL     1      49.105  10.009  74.426  1.00  0.00     0.210 HD
ENDBRANCH  37  38
ENDBRANCH  31  37
BRANCH  32  40
ATOM     40  O   UNL     1      50.474  10.462  78.451  1.00  0.00    -0.387 OA
ATOM     41  H   UNL     1      49.761  10.623  77.771  1.00  0.00     0.211 HD
ENDBRANCH  32  40
ENDBRANCH   1  27
TORSDOF 12
ENDMDL
MODEL 6
REMARK VINA RESULT:    -6.874      2.141      6.533
REMARK INTER + INTRA:         -11.274
REMARK INTER:                  -9.509
REMARK INTRA:                  -1.765
REMARK UNBOUND:                -1.184
REMARK SMILES O=c1c(O[C@@H]2O[C@H](CO)[C@@H](O)[C@@H](O)[C@@H]2O)c(-c2ccc(O)c(O)c2)oc2cc(O)cc(O)c12
REMARK SMILES IDX 4 1 3 2 16 3 25 4 2 5 26 6 1 7 33 8 27 9 31 10 28 11 30 12
REMARK SMILES IDX 17 13 18 14 19 15 20 16 24 17 22 18 21 19 23 21 32 23 29 25
REMARK SMILES IDX 5 27 14 28 6 29 12 30 7 31 10 32 15 33 13 35 8 37 9 38 11 40
REMARK H PARENT 21 20 23 22 32 24 29 26 15 34 13 36 9 39 11 41
REMARK Flexibility Score: inf
ROOT
ATOM      1  O   UNL     1      53.612   7.038  80.800  1.00  0.00    -0.454 OA
ENDROOT
BRANCH   1   2
ATOM      2  C   UNL     1      53.585   5.736  80.266  1.00  0.00     0.214 A 
ATOM      3  C   UNL     1      54.352   5.324  79.166  1.00  0.00     0.180 A 
ATOM      4  O   UNL     1      53.798   4.488  78.289  1.00  0.00    -0.452 OA
ATOM      5  C   UNL     1      52.501   4.940  80.651  1.00  0.00     0.239 A 
ATOM      6  C   UNL     1      52.576   3.979  78.447  1.00  0.00     0.146 A 
ATOM      7  O   UNL     1      52.021   5.055  81.806  1.00  0.00    -0.285 OA
ATOM      8  C   UNL     1      51.901   4.112  79.687  1.00  0.00     0.111 A 
ATOM      9  C   UNL     1      51.981   3.307  77.385  1.00  0.00     0.094 A 
ATOM     10  C   UNL     1      50.590   3.587  79.817  1.00  0.00     0.134 A 
ATOM     11  C   UNL     1      50.654   2.882  77.487  1.00  0.00     0.123 A 
ATOM     12  C   UNL     1      49.954   3.024  78.702  1.00  0.00     0.093 A 
BRANCH   3  13
ATOM     13  C   UNL     1      55.758   5.777  78.900  1.00  0.00     0.025 A 
ATOM     14  C   UNL     1      56.863   5.100  79.445  1.00  0.00     0.016 A 
ATOM     15  C   UNL     1      58.163   5.626  79.275  1.00  0.00     0.051 A 
ATOM     16  C   UNL     1      58.372   6.779  78.518  1.00  0.00     0.157 A 
ATOM     17  C   UNL     1      55.998   6.853  78.023  1.00  0.00     0.062 A 
ATOM     18  C   UNL     1      57.301   7.344  77.821  1.00  0.00     0.158 A 
BRANCH  16  19
ATOM     19  O   UNL     1      59.642   7.386  78.530  1.00  0.00    -0.504 OA
ATOM     20  H   UNL     1      60.052   7.748  79.381  1.00  0.00     0.293 HD
ENDBRANCH  16  19
BRANCH  18  21
ATOM     21  O   UNL     1      57.518   8.406  76.937  1.00  0.00    -0.504 OA
ATOM     22  H   UNL     1      57.950   8.257  76.032  1.00  0.00     0.293 HD
ENDBRANCH  18  21
ENDBRANCH   3  13
BRANCH  10  23
ATOM     23  O   UNL     1      49.922   3.687  81.035  1.00  0.00    -0.507 OA
ATOM     24  H   UNL     1      49.028   3.236  81.185  1.00  0.00     0.293 HD
ENDBRANCH  10  23
BRANCH  11  25
ATOM     25  O   UNL     1      50.000   2.402  76.360  1.00  0.00    -0.508 OA
ATOM     26  H   UNL     1      49.841   3.046  75.582  1.00  0.00     0.293 HD
ENDBRANCH  11  25
ENDBRANCH   1   2
BRANCH   1  27
ATOM     27  C   UNL     1      54.579   7.405  81.789  1.00  0.00     0.339 C 
ATOM     28  C   UNL     1      53.941   8.092  83.001  1.00  0.00     0.214 C 
ATOM     29  O   UNL     1      55.281   6.265  82.232  1.00  0.00    -0.332 OA
ATOM     30  C   UNL     1      55.093   8.696  83.839  1.00  0.00     0.180 C 
ATOM     31  C   UNL     1      56.503   6.672  82.831  1.00  0.00     0.179 C 
ATOM     32  C   UNL     1      56.342   7.744  83.968  1.00  0.00     0.177 C 
BRANCH  28  33
ATOM     33  O   UNL     1      53.213   7.165  83.759  1.00  0.00    -0.384 OA
ATOM     34  H   UNL     1      52.834   7.629  84.536  1.00  0.00     0.211 HD
ENDBRANCH  28  33
BRANCH  30  35
ATOM     35  O   UNL     1      55.444   9.976  83.371  1.00  0.00    -0.387 OA
ATOM     36  H   UNL     1      56.345  10.190  83.709  1.00  0.00     0.211 HD
ENDBRANCH  30  35
BRANCH  31  37
ATOM     37  C   UNL     1      57.226   5.413  83.359  1.00  0.00     0.191 C 
BRANCH  37  38
ATOM     38  O   UNL     1      58.549   5.724  83.714  1.00  0.00    -0.394 OA
ATOM     39  H   UNL     1      58.792   5.205  84.520  1.00  0.00     0.210 HD
ENDBRANCH  37  38
ENDBRANCH  31  37
BRANCH  32  40
ATOM     40  O   UNL     1      57.539   8.487  84.125  1.00  0.00    -0.387 OA
ATOM     41  H   UNL     1      57.290   9.367  84.526  1.00  0.00     0.211 HD
ENDBRANCH  32  40
ENDBRANCH   1  27
TORSDOF 12
ENDMDL
MODEL 7
REMARK VINA RESULT:    -6.870      2.515      3.327
REMARK INTER + INTRA:         -11.268
REMARK INTER:                  -9.503
REMARK INTRA:                  -1.765
REMARK UNBOUND:                -1.184
REMARK SMILES O=c1c(O[C@@H]2O[C@H](CO)[C@@H](O)[C@@H](O)[C@@H]2O)c(-c2ccc(O)c(O)c2)oc2cc(O)cc(O)c12
REMARK SMILES IDX 4 1 3 2 16 3 25 4 2 5 26 6 1 7 33 8 27 9 31 10 28 11 30 12
REMARK SMILES IDX 17 13 18 14 19 15 20 16 24 17 22 18 21 19 23 21 32 23 29 25
REMARK SMILES IDX 5 27 14 28 6 29 12 30 7 31 10 32 15 33 13 35 8 37 9 38 11 40
REMARK H PARENT 21 20 23 22 32 24 29 26 15 34 13 36 9 39 11 41
REMARK Flexibility Score: inf
ROOT
ATOM      1  O   UNL     1      55.304   5.858  79.236  1.00  0.00    -0.454 OA
ENDROOT
BRANCH   1   2
ATOM      2  C   UNL     1      54.380   6.831  78.813  1.00  0.00     0.214 A 
ATOM      3  C   UNL     1      53.229   6.546  78.060  1.00  0.00     0.180 A 
ATOM      4  O   UNL     1      52.871   7.406  77.108  1.00  0.00    -0.452 OA
ATOM      5  C   UNL     1      54.819   8.157  78.870  1.00  0.00     0.239 A 
ATOM      6  C   UNL     1      53.516   8.550  76.886  1.00  0.00     0.146 A 
ATOM      7  O   UNL     1      55.595   8.519  79.789  1.00  0.00    -0.285 OA
ATOM      8  C   UNL     1      54.473   9.025  77.819  1.00  0.00     0.111 A 
ATOM      9  C   UNL     1      53.230   9.277  75.735  1.00  0.00     0.094 A 
ATOM     10  C   UNL     1      55.166  10.230  77.542  1.00  0.00     0.134 A 
ATOM     11  C   UNL     1      53.986  10.407  75.419  1.00  0.00     0.123 A 
ATOM     12  C   UNL     1      54.959  10.885  76.321  1.00  0.00     0.093 A 
BRANCH   3  13
ATOM     13  C   UNL     1      52.382   5.322  78.246  1.00  0.00     0.025 A 
ATOM     14  C   UNL     1      52.453   4.236  77.354  1.00  0.00     0.016 A 
ATOM     15  C   UNL     1      51.555   3.155  77.490  1.00  0.00     0.051 A 
ATOM     16  C   UNL     1      50.635   3.121  78.537  1.00  0.00     0.157 A 
ATOM     17  C   UNL     1      51.550   5.205  79.376  1.00  0.00     0.062 A 
ATOM     18  C   UNL     1      50.689   4.103  79.530  1.00  0.00     0.158 A 
BRANCH  16  19
ATOM     19  O   UNL     1      49.628   2.136  78.533  1.00  0.00    -0.504 OA
ATOM     20  H   UNL     1      49.677   1.321  79.130  1.00  0.00     0.293 HD
ENDBRANCH  16  19
BRANCH  18  21
ATOM     21  O   UNL     1      49.879   4.002  80.666  1.00  0.00    -0.504 OA
ATOM     22  H   UNL     1      48.917   3.687  80.600  1.00  0.00     0.293 HD
ENDBRANCH  18  21
ENDBRANCH   3  13
BRANCH  10  23
ATOM     23  O   UNL     1      56.091  10.724  78.460  1.00  0.00    -0.507 OA
ATOM     24  H   UNL     1      56.587  11.591  78.294  1.00  0.00     0.293 HD
ENDBRANCH  10  23
BRANCH  11  25
ATOM     25  O   UNL     1      53.839  11.005  74.175  1.00  0.00    -0.508 OA
ATOM     26  H   UNL     1      54.554  11.669  73.870  1.00  0.00     0.293 HD
ENDBRANCH  11  25
ENDBRANCH   1   2
BRANCH   1  27
ATOM     27  C   UNL     1      55.236   5.306  80.554  1.00  0.00     0.339 C 
ATOM     28  C   UNL     1      56.513   5.568  81.361  1.00  0.00     0.214 C 
ATOM     29  O   UNL     1      54.139   5.849  81.255  1.00  0.00    -0.332 OA
ATOM     30  C   UNL     1      56.437   4.684  82.629  1.00  0.00     0.180 C 
ATOM     31  C   UNL     1      53.807   4.992  82.338  1.00  0.00     0.179 C 
ATOM     32  C   UNL     1      55.009   4.659  83.293  1.00  0.00     0.177 C 
BRANCH  28  33
ATOM     33  O   UNL     1      56.601   6.923  81.708  1.00  0.00    -0.384 OA
ATOM     34  H   UNL     1      56.860   7.432  80.911  1.00  0.00     0.211 HD
ENDBRANCH  28  33
BRANCH  30  35
ATOM     35  O   UNL     1      56.932   3.391  82.376  1.00  0.00    -0.387 OA
ATOM     36  H   UNL     1      57.917   3.427  82.411  1.00  0.00     0.211 HD
ENDBRANCH  30  35
BRANCH  31  37
ATOM     37  C   UNL     1      52.642   5.635  83.123  1.00  0.00     0.191 C 
BRANCH  37  38
ATOM     38  O   UNL     1      51.502   4.816  83.059  1.00  0.00    -0.394 OA
ATOM     39  H   UNL     1      50.721   5.335  83.374  1.00  0.00     0.210 HD
ENDBRANCH  37  38
ENDBRANCH  31  37
BRANCH  32  40
ATOM     40  O   UNL     1      54.781   3.436  83.972  1.00  0.00    -0.387 OA
ATOM     41  H   UNL     1      53.913   3.071  83.639  1.00  0.00     0.211 HD
ENDBRANCH  32  40
ENDBRANCH   1  27
TORSDOF 12
ENDMDL
MODEL 8
REMARK VINA RESULT:    -6.803      1.862      3.157
REMARK INTER + INTRA:         -11.170
REMARK INTER:                  -9.950
REMARK INTRA:                  -1.219
REMARK UNBOUND:                -1.184
REMARK SMILES O=c1c(O[C@@H]2O[C@H](CO)[C@@H](O)[C@@H](O)[C@@H]2O)c(-c2ccc(O)c(O)c2)oc2cc(O)cc(O)c12
REMARK SMILES IDX 4 1 3 2 16 3 25 4 2 5 26 6 1 7 33 8 27 9 31 10 28 11 30 12
REMARK SMILES IDX 17 13 18 14 19 15 20 16 24 17 22 18 21 19 23 21 32 23 29 25
REMARK SMILES IDX 5 27 14 28 6 29 12 30 7 31 10 32 15 33 13 35 8 37 9 38 11 40
REMARK H PARENT 21 20 23 22 32 24 29 26 15 34 13 36 9 39 11 41
REMARK Flexibility Score: inf
ROOT
ATOM      1  O   UNL     1      54.310   6.809  81.021  1.00  0.00    -0.454 OA
ENDROOT
BRANCH   1   2
ATOM      2  C   UNL     1      54.392   7.450  79.771  1.00  0.00     0.214 A 
ATOM      3  C   UNL     1      54.244   6.790  78.540  1.00  0.00     0.180 A 
ATOM      4  O   UNL     1      55.024   7.166  77.527  1.00  0.00    -0.452 OA
ATOM      5  C   UNL     1      54.972   8.722  79.772  1.00  0.00     0.239 A 
ATOM      6  C   UNL     1      55.885   8.179  77.614  1.00  0.00     0.146 A 
ATOM      7  O   UNL     1      54.801   9.486  80.755  1.00  0.00    -0.285 OA
ATOM      8  C   UNL     1      55.837   9.066  78.719  1.00  0.00     0.111 A 
ATOM      9  C   UNL     1      56.821   8.359  76.601  1.00  0.00     0.094 A 
ATOM     10  C   UNL     1      56.785  10.118  78.799  1.00  0.00     0.134 A 
ATOM     11  C   UNL     1      57.814   9.332  76.737  1.00  0.00     0.123 A 
ATOM     12  C   UNL     1      57.800  10.212  77.838  1.00  0.00     0.093 A 
BRANCH   3  13
ATOM     13  C   UNL     1      53.274   5.672  78.294  1.00  0.00     0.025 A 
ATOM     14  C   UNL     1      51.886   5.896  78.271  1.00  0.00     0.016 A 
ATOM     15  C   UNL     1      51.000   4.802  78.157  1.00  0.00     0.051 A 
ATOM     16  C   UNL     1      51.486   3.504  78.006  1.00  0.00     0.157 A 
ATOM     17  C   UNL     1      53.749   4.380  77.996  1.00  0.00     0.062 A 
ATOM     18  C   UNL     1      52.859   3.301  77.839  1.00  0.00     0.158 A 
BRANCH  16  19
ATOM     19  O   UNL     1      50.590   2.421  78.094  1.00  0.00    -0.504 OA
ATOM     20  H   UNL     1      50.058   2.237  78.934  1.00  0.00     0.293 HD
ENDBRANCH  16  19
BRANCH  18  21
ATOM     21  O   UNL     1      53.351   2.028  77.532  1.00  0.00    -0.504 OA
ATOM     22  H   UNL     1      53.879   1.491  78.211  1.00  0.00     0.293 HD
ENDBRANCH  18  21
ENDBRANCH   3  13
BRANCH  10  23
ATOM     23  O   UNL     1      56.736  11.014  79.865  1.00  0.00    -0.507 OA
ATOM     24  H   UNL     1      56.321  10.756  80.752  1.00  0.00     0.293 HD
ENDBRANCH  10  23
BRANCH  11  25
ATOM     25  O   UNL     1      58.865   9.370  75.830  1.00  0.00    -0.508 OA
ATOM     26  H   UNL     1      59.153  10.280  75.462  1.00  0.00     0.293 HD
ENDBRANCH  11  25
ENDBRANCH   1   2
BRANCH   1  27
ATOM     27  C   UNL     1      55.357   5.946  81.474  1.00  0.00     0.339 C 
ATOM     28  C   UNL     1      54.818   4.658  82.106  1.00  0.00     0.214 C 
ATOM     29  O   UNL     1      56.205   5.603  80.400  1.00  0.00    -0.332 OA
ATOM     30  C   UNL     1      56.010   3.966  82.810  1.00  0.00     0.180 C 
ATOM     31  C   UNL     1      57.452   5.158  80.914  1.00  0.00     0.179 C 
ATOM     32  C   UNL     1      57.342   4.001  81.971  1.00  0.00     0.177 C 
BRANCH  28  33
ATOM     33  O   UNL     1      54.273   3.823  81.122  1.00  0.00    -0.384 OA
ATOM     34  H   UNL     1      53.947   3.006  81.554  1.00  0.00     0.211 HD
ENDBRANCH  28  33
BRANCH  30  35
ATOM     35  O   UNL     1      56.187   4.463  84.114  1.00  0.00    -0.387 OA
ATOM     36  H   UNL     1      56.912   5.132  84.092  1.00  0.00     0.211 HD
ENDBRANCH  30  35
BRANCH  31  37
ATOM     37  C   UNL     1      58.342   4.735  79.723  1.00  0.00     0.191 C 
BRANCH  37  38
ATOM     38  O   UNL     1      58.696   5.858  78.957  1.00  0.00    -0.394 OA
ATOM     39  H   UNL     1      59.678   5.863  78.837  1.00  0.00     0.210 HD
ENDBRANCH  37  38
ENDBRANCH  31  37
BRANCH  32  40
ATOM     40  O   UNL     1      58.481   3.989  82.815  1.00  0.00    -0.387 OA
ATOM     41  H   UNL     1      58.335   4.685  83.516  1.00  0.00     0.211 HD
ENDBRANCH  32  40
ENDBRANCH   1  27
TORSDOF 12
ENDMDL
