MODEL 1
REMARK VINA RESULT:    -5.803      0.000      0.000
REMARK INTER + INTRA:          -8.503
REMARK INTER:                  -8.178
REMARK INTRA:                  -0.326
REMARK UNBOUND:                -0.326
REMARK SMILES CCCCCCCCC(=O)[O-]
REMARK SMILES IDX 6 1 7 2 8 3 9 4 10 5 11 6 5 7 4 8 3 9 2 10 1 11
REMARK H PARENT
REMARK Flexibility Score: inf
ROOT
ATOM      1  C   UNL     1     -22.358 -22.265  31.634  1.00  0.00     0.000 C 
ENDROOT
BRANCH   1   2
ATOM      2  C   UNL     1     -22.265 -23.381  30.587  1.00  0.00     0.006 C 
BRANCH   2   3
ATOM      3  C   UNL     1     -23.196 -24.544  30.940  1.00  0.00     0.053 C 
BRANCH   3   4
ATOM      4  C   UNL     1     -23.834 -25.098  29.705  1.00  0.00     0.041 C 
ATOM      5  O   UNL     1     -23.157 -25.248  28.654  1.00  0.00    -0.550 OA
ATOM      6  O   UNL     1     -25.166 -25.492  29.728  1.00  0.00    -0.550 OA
ENDBRANCH   3   4
ENDBRANCH   2   3
ENDBRANCH   1   2
BRANCH   1   7
ATOM      7  C   UNL     1     -21.988 -20.904  31.022  1.00  0.00     0.000 C 
BRANCH   7   8
ATOM      8  C   UNL     1     -22.088 -20.898  29.489  1.00  0.00    -0.000 C 
BRANCH   8   9
ATOM      9  C   UNL     1     -21.372 -19.697  28.853  1.00  0.00    -0.000 C 
BRANCH   9  10
ATOM     10  C   UNL     1     -20.643 -18.867  29.918  1.00  0.00    -0.003 C 
ATOM     11  C   UNL     1     -20.239 -17.501  29.371  1.00  0.00     0.004 C 
ENDBRANCH   9  10
ENDBRANCH   8   9
ENDBRANCH   7   8
ENDBRANCH   1   7
TORSDOF 7
ENDMDL
MODEL 2
REMARK VINA RESULT:    -5.761      3.199      5.964
REMARK INTER + INTRA:          -8.444
REMARK INTER:                  -8.121
REMARK INTRA:                  -0.323
REMARK UNBOUND:                -0.326
REMARK SMILES CCCCCCCCC(=O)[O-]
REMARK SMILES IDX 6 1 7 2 8 3 9 4 10 5 11 6 5 7 4 8 3 9 2 10 1 11
REMARK H PARENT
REMARK Flexibility Score: inf
ROOT
ATOM      1  C   UNL     1     -21.701 -21.770  31.645  1.00  0.00     0.000 C 
ENDROOT
BRANCH   1   2
ATOM      2  C   UNL     1     -22.059 -20.493  30.876  1.00  0.00     0.006 C 
BRANCH   2   3
ATOM      3  C   UNL     1     -20.966 -19.431  31.033  1.00  0.00     0.053 C 
BRANCH   3   4
ATOM      4  C   UNL     1     -20.416 -19.044  29.697  1.00  0.00     0.041 C 
ATOM      5  O   UNL     1     -21.148 -19.088  28.674  1.00  0.00    -0.550 OA
ATOM      6  O   UNL     1     -19.108 -18.589  29.590  1.00  0.00    -0.550 OA
ENDBRANCH   3   4
ENDBRANCH   2   3
ENDBRANCH   1   2
BRANCH   1   7
ATOM      7  C   UNL     1     -22.380 -22.998  31.019  1.00  0.00     0.000 C 
BRANCH   7   8
ATOM      8  C   UNL     1     -22.092 -23.133  29.516  1.00  0.00    -0.000 C 
BRANCH   8   9
ATOM      9  C   UNL     1     -22.854 -24.298  28.869  1.00  0.00    -0.000 C 
BRANCH   9  10
ATOM     10  C   UNL     1     -23.486 -25.200  29.936  1.00  0.00    -0.003 C 
ATOM     11  C   UNL     1     -23.888 -26.550  29.350  1.00  0.00     0.004 C 
ENDBRANCH   9  10
ENDBRANCH   8   9
ENDBRANCH   7   8
ENDBRANCH   1   7
TORSDOF 7
ENDMDL
MODEL 3
REMARK VINA RESULT:    -5.697      3.933      6.422
REMARK INTER + INTRA:          -8.354
REMARK INTER:                  -8.027
REMARK INTRA:                  -0.326
REMARK UNBOUND:                -0.326
REMARK SMILES CCCCCCCCC(=O)[O-]
REMARK SMILES IDX 6 1 7 2 8 3 9 4 10 5 11 6 5 7 4 8 3 9 2 10 1 11
REMARK H PARENT
REMARK Flexibility Score: inf
ROOT
ATOM      1  C   UNL     1     -22.200 -20.718  29.645  1.00  0.00     0.000 C 
ENDROOT
BRANCH   1   2
ATOM      2  C   UNL     1     -21.264 -19.605  29.161  1.00  0.00     0.006 C 
BRANCH   2   3
ATOM      3  C   UNL     1     -20.570 -18.917  30.341  1.00  0.00     0.053 C 
BRANCH   3   4
ATOM      4  C   UNL     1     -20.016 -17.592  29.924  1.00  0.00     0.041 C 
ATOM      5  O   UNL     1     -20.143 -17.198  28.735  1.00  0.00    -0.550 OA
ATOM      6  O   UNL     1     -19.401 -16.770  30.860  1.00  0.00    -0.550 OA
ENDBRANCH   3   4
ENDBRANCH   2   3
ENDBRANCH   1   2
BRANCH   1   7
ATOM      7  C   UNL     1     -22.031 -20.962  31.153  1.00  0.00     0.000 C 
BRANCH   7   8
ATOM      8  C   UNL     1     -22.375 -22.402  31.562  1.00  0.00    -0.000 C 
BRANCH   8   9
ATOM      9  C   UNL     1     -22.271 -23.392  30.392  1.00  0.00    -0.000 C 
BRANCH   9  10
ATOM     10  C   UNL     1     -23.120 -24.642  30.654  1.00  0.00    -0.003 C 
ATOM     11  C   UNL     1     -23.482 -25.346  29.350  1.00  0.00     0.004 C 
ENDBRANCH   9  10
ENDBRANCH   8   9
ENDBRANCH   7   8
ENDBRANCH   1   7
TORSDOF 7
ENDMDL
MODEL 4
REMARK VINA RESULT:    -5.688      1.173      1.875
REMARK INTER + INTRA:          -8.341
REMARK INTER:                  -8.044
REMARK INTRA:                  -0.297
REMARK UNBOUND:                -0.326
REMARK SMILES CCCCCCCCC(=O)[O-]
REMARK SMILES IDX 6 1 7 2 8 3 9 4 10 5 11 6 5 7 4 8 3 9 2 10 1 11
REMARK H PARENT
REMARK Flexibility Score: inf
ROOT
ATOM      1  C   UNL     1     -22.291 -23.309  29.832  1.00  0.00     0.000 C 
ENDROOT
BRANCH   1   2
ATOM      2  C   UNL     1     -23.112 -24.572  29.552  1.00  0.00     0.006 C 
BRANCH   2   3
ATOM      3  C   UNL     1     -23.700 -25.145  30.845  1.00  0.00     0.053 C 
BRANCH   3   4
ATOM      4  C   UNL     1     -25.017 -25.802  30.576  1.00  0.00     0.041 C 
ATOM      5  O   UNL     1     -25.541 -25.727  29.434  1.00  0.00    -0.550 OA
ATOM      6  O   UNL     1     -25.642 -26.538  31.574  1.00  0.00    -0.550 OA
ENDBRANCH   3   4
ENDBRANCH   2   3
ENDBRANCH   1   2
BRANCH   1   7
ATOM      7  C   UNL     1     -22.445 -22.866  31.295  1.00  0.00     0.000 C 
BRANCH   7   8
ATOM      8  C   UNL     1     -21.632 -21.603  31.621  1.00  0.00    -0.000 C 
BRANCH   8   9
ATOM      9  C   UNL     1     -22.022 -20.405  30.743  1.00  0.00    -0.000 C 
BRANCH   9  10
ATOM     10  C   UNL     1     -20.922 -19.335  30.756  1.00  0.00    -0.003 C 
ATOM     11  C   UNL     1     -20.759 -18.695  29.381  1.00  0.00     0.004 C 
ENDBRANCH   9  10
ENDBRANCH   8   9
ENDBRANCH   7   8
ENDBRANCH   1   7
TORSDOF 7
ENDMDL
MODEL 5
REMARK VINA RESULT:    -5.654      4.324      6.809
REMARK INTER + INTRA:          -8.293
REMARK INTER:                  -7.937
REMARK INTRA:                  -0.356
REMARK UNBOUND:                -0.326
REMARK SMILES CCCCCCCCC(=O)[O-]
REMARK SMILES IDX 6 1 7 2 8 3 9 4 10 5 11 6 5 7 4 8 3 9 2 10 1 11
REMARK H PARENT
REMARK Flexibility Score: inf
ROOT
ATOM      1  C   UNL     1     -21.269 -19.479  28.859  1.00  0.00     0.000 C 
ENDROOT
BRANCH   1   2
ATOM      2  C   UNL     1     -20.209 -18.956  29.835  1.00  0.00     0.006 C 
BRANCH   2   3
ATOM      3  C   UNL     1     -19.913 -17.474  29.585  1.00  0.00     0.053 C 
BRANCH   3   4
ATOM      4  C   UNL     1     -19.030 -16.927  30.661  1.00  0.00     0.041 C 
ATOM      5  O   UNL     1     -18.334 -15.900  30.449  1.00  0.00    -0.550 OA
ATOM      6  O   UNL     1     -19.010 -17.525  31.915  1.00  0.00    -0.550 OA
ENDBRANCH   3   4
ENDBRANCH   2   3
ENDBRANCH   1   2
BRANCH   1   7
ATOM      7  C   UNL     1     -22.116 -20.585  29.507  1.00  0.00     0.000 C 
BRANCH   7   8
ATOM      8  C   UNL     1     -21.948 -20.642  31.033  1.00  0.00    -0.000 C 
BRANCH   8   9
ATOM      9  C   UNL     1     -22.201 -22.045  31.605  1.00  0.00    -0.000 C 
BRANCH   9  10
ATOM     10  C   UNL     1     -22.129 -23.108  30.501  1.00  0.00    -0.003 C 
ATOM     11  C   UNL     1     -22.926 -24.352  30.882  1.00  0.00     0.004 C 
ENDBRANCH   9  10
ENDBRANCH   8   9
ENDBRANCH   7   8
ENDBRANCH   1   7
TORSDOF 7
ENDMDL
MODEL 6
REMARK VINA RESULT:    -5.568      1.348      1.848
REMARK INTER + INTRA:          -8.173
REMARK INTER:                  -7.782
REMARK INTRA:                  -0.390
REMARK UNBOUND:                -0.326
REMARK SMILES CCCCCCCCC(=O)[O-]
REMARK SMILES IDX 6 1 7 2 8 3 9 4 10 5 11 6 5 7 4 8 3 9 2 10 1 11
REMARK H PARENT
REMARK Flexibility Score: inf
ROOT
ATOM      1  C   UNL     1     -22.145 -21.384  29.077  1.00  0.00     0.000 C 
ENDROOT
BRANCH   1   2
ATOM      2  C   UNL     1     -22.191 -22.916  29.114  1.00  0.00     0.006 C 
BRANCH   2   3
ATOM      3  C   UNL     1     -22.304 -23.428  30.553  1.00  0.00     0.053 C 
BRANCH   3   4
ATOM      4  C   UNL     1     -23.234 -24.598  30.621  1.00  0.00     0.041 C 
ATOM      5  O   UNL     1     -23.455 -25.169  31.722  1.00  0.00    -0.550 OA
ATOM      6  O   UNL     1     -23.895 -25.028  29.478  1.00  0.00    -0.550 OA
ENDBRANCH   3   4
ENDBRANCH   2   3
ENDBRANCH   1   2
BRANCH   1   7
ATOM      7  C   UNL     1     -22.268 -20.796  30.491  1.00  0.00     0.000 C 
BRANCH   7   8
ATOM      8  C   UNL     1     -21.243 -19.684  30.762  1.00  0.00    -0.000 C 
BRANCH   8   9
ATOM      9  C   UNL     1     -20.727 -19.027  29.473  1.00  0.00    -0.000 C 
BRANCH   9  10
ATOM     10  C   UNL     1     -19.316 -18.460  29.674  1.00  0.00    -0.003 C 
ATOM     11  C   UNL     1     -18.992 -18.300  31.156  1.00  0.00     0.004 C 
ENDBRANCH   9  10
ENDBRANCH   8   9
ENDBRANCH   7   8
ENDBRANCH   1   7
TORSDOF 7
ENDMDL
MODEL 7
REMARK VINA RESULT:    -5.530      1.752      2.855
REMARK INTER + INTRA:          -8.118
REMARK INTER:                  -7.776
REMARK INTRA:                  -0.342
REMARK UNBOUND:                -0.326
REMARK SMILES CCCCCCCCC(=O)[O-]
REMARK SMILES IDX 6 1 7 2 8 3 9 4 10 5 11 6 5 7 4 8 3 9 2 10 1 11
REMARK H PARENT
REMARK Flexibility Score: inf
ROOT
ATOM      1  C   UNL     1     -23.076 -24.350  28.976  1.00  0.00     0.000 C 
ENDROOT
BRANCH   1   2
ATOM      2  C   UNL     1     -23.554 -25.308  30.073  1.00  0.00     0.006 C 
BRANCH   2   3
ATOM      3  C   UNL     1     -24.798 -26.082  29.625  1.00  0.00     0.053 C 
BRANCH   3   4
ATOM      4  C   UNL     1     -25.334 -26.908  30.750  1.00  0.00     0.041 C 
ATOM      5  O   UNL     1     -25.208 -26.518  31.940  1.00  0.00    -0.550 OA
ATOM      6  O   UNL     1     -26.016 -28.088  30.481  1.00  0.00    -0.550 OA
ENDBRANCH   3   4
ENDBRANCH   2   3
ENDBRANCH   1   2
BRANCH   1   7
ATOM      7  C   UNL     1     -21.957 -23.434  29.495  1.00  0.00     0.000 C 
BRANCH   7   8
ATOM      8  C   UNL     1     -22.278 -22.827  30.870  1.00  0.00    -0.000 C 
BRANCH   8   9
ATOM      9  C   UNL     1     -22.074 -21.305  30.908  1.00  0.00    -0.000 C 
BRANCH   9  10
ATOM     10  C   UNL     1     -22.392 -20.675  29.547  1.00  0.00    -0.003 C 
ATOM     11  C   UNL     1     -21.298 -19.699  29.122  1.00  0.00     0.004 C 
ENDBRANCH   9  10
ENDBRANCH   8   9
ENDBRANCH   7   8
ENDBRANCH   1   7
TORSDOF 7
ENDMDL
MODEL 8
REMARK VINA RESULT:    -5.408      2.784      6.083
REMARK INTER + INTRA:          -7.946
REMARK INTER:                  -7.492
REMARK INTRA:                  -0.454
REMARK UNBOUND:                -0.326
REMARK SMILES CCCCCCCCC(=O)[O-]
REMARK SMILES IDX 6 1 7 2 8 3 9 4 10 5 11 6 5 7 4 8 3 9 2 10 1 11
REMARK H PARENT
REMARK Flexibility Score: inf
ROOT
ATOM      1  C   UNL     1     -22.728 -24.157  31.081  1.00  0.00     0.000 C 
ENDROOT
BRANCH   1   2
ATOM      2  C   UNL     1     -23.007 -22.753  31.629  1.00  0.00     0.006 C 
BRANCH   2   3
ATOM      3  C   UNL     1     -21.737 -21.897  31.624  1.00  0.00     0.053 C 
BRANCH   3   4
ATOM      4  C   UNL     1     -21.927 -20.683  30.770  1.00  0.00     0.041 C 
ATOM      5  O   UNL     1     -22.452 -20.785  29.631  1.00  0.00    -0.550 OA
ATOM      6  O   UNL     1     -21.568 -19.432  31.253  1.00  0.00    -0.550 OA
ENDBRANCH   3   4
ENDBRANCH   2   3
ENDBRANCH   1   2
BRANCH   1   7
ATOM      7  C   UNL     1     -23.104 -24.252  29.594  1.00  0.00     0.000 C 
BRANCH   7   8
ATOM      8  C   UNL     1     -23.508 -25.674  29.175  1.00  0.00    -0.000 C 
BRANCH   8   9
ATOM      9  C   UNL     1     -25.023 -25.911  29.268  1.00  0.00    -0.000 C 
BRANCH   9  10
ATOM     10  C   UNL     1     -25.342 -27.029  30.268  1.00  0.00    -0.003 C 
ATOM     11  C   UNL     1     -25.468 -26.481  31.686  1.00  0.00     0.004 C 
ENDBRANCH   9  10
ENDBRANCH   8   9
ENDBRANCH   7   8
ENDBRANCH   1   7
TORSDOF 7
ENDMDL
MODEL 9
REMARK VINA RESULT:    -5.361      3.225      6.098
REMARK INTER + INTRA:          -7.881
REMARK INTER:                  -7.526
REMARK INTRA:                  -0.355
REMARK UNBOUND:                -0.326
REMARK SMILES CCCCCCCCC(=O)[O-]
REMARK SMILES IDX 6 1 7 2 8 3 9 4 10 5 11 6 5 7 4 8 3 9 2 10 1 11
REMARK H PARENT
REMARK Flexibility Score: inf
ROOT
ATOM      1  C   UNL     1     -21.982 -23.008  29.441  1.00  0.00     0.000 C 
ENDROOT
BRANCH   1   2
ATOM      2  C   UNL     1     -22.273 -21.586  28.946  1.00  0.00     0.006 C 
BRANCH   2   3
ATOM      3  C   UNL     1     -22.334 -20.599  30.116  1.00  0.00     0.053 C 
BRANCH   3   4
ATOM      4  C   UNL     1     -21.167 -19.663  30.072  1.00  0.00     0.041 C 
ATOM      5  O   UNL     1     -20.807 -19.149  28.980  1.00  0.00    -0.550 OA
ATOM      6  O   UNL     1     -20.506 -19.321  31.245  1.00  0.00    -0.550 OA
ENDBRANCH   3   4
ENDBRANCH   2   3
ENDBRANCH   1   2
BRANCH   1   7
ATOM      7  C   UNL     1     -22.432 -23.186  30.899  1.00  0.00     0.000 C 
BRANCH   7   8
ATOM      8  C   UNL     1     -23.080 -24.556  31.156  1.00  0.00    -0.000 C 
BRANCH   8   9
ATOM      9  C   UNL     1     -23.526 -25.252  29.862  1.00  0.00    -0.000 C 
BRANCH   9  10
ATOM     10  C   UNL     1     -24.974 -25.746  29.977  1.00  0.00    -0.003 C 
ATOM     11  C   UNL     1     -25.229 -26.926  29.043  1.00  0.00     0.004 C 
ENDBRANCH   9  10
ENDBRANCH   8   9
ENDBRANCH   7   8
ENDBRANCH   1   7
TORSDOF 7
ENDMDL
