MODEL 1
REMARK VINA RESULT:    -5.945      0.000      0.000
REMARK INTER + INTRA:          -6.689
REMARK INTER:                  -6.466
REMARK INTRA:                  -0.222
REMARK UNBOUND:                -0.222
REMARK SMILES O=C([O-])c1ccccc1O
REMARK SMILES IDX 4 1 9 2 5 3 8 4 6 5 7 6 2 7 1 8 3 9 10 10
REMARK H PARENT 10 11
REMARK Flexibility Score: inf
ROOT
ATOM      1  C   UNL     1      17.364  -1.397  -4.377  1.00  0.00     0.039 A 
ATOM      2  C   UNL     1      18.371  -2.230  -3.822  1.00  0.00     0.124 A 
ATOM      3  C   UNL     1      17.464  -1.018  -5.728  1.00  0.00     0.014 A 
ATOM      4  C   UNL     1      19.471  -2.602  -4.607  1.00  0.00     0.047 A 
ATOM      5  C   UNL     1      18.557  -1.415  -6.502  1.00  0.00     0.001 A 
ATOM      6  C   UNL     1      19.563  -2.198  -5.939  1.00  0.00     0.004 A 
ENDROOT
BRANCH   1   7
ATOM      7  C   UNL     1      16.224  -0.882  -3.587  1.00  0.00     0.075 C 
ATOM      8  O   UNL     1      15.188  -0.447  -4.153  1.00  0.00    -0.545 OA
ATOM      9  O   UNL     1      16.260  -0.939  -2.198  1.00  0.00    -0.545 OA
ENDBRANCH   1   7
BRANCH   2  10
ATOM     10  O   UNL     1      18.303  -2.732  -2.521  1.00  0.00    -0.507 OA
ATOM     11  H   UNL     1      18.595  -3.665  -2.266  1.00  0.00     0.293 HD
ENDBRANCH   2  10
TORSDOF 2
ENDMDL
MODEL 2
REMARK VINA RESULT:    -5.860     10.128     11.844
REMARK INTER + INTRA:          -6.596
REMARK INTER:                  -6.385
REMARK INTRA:                  -0.212
REMARK UNBOUND:                -0.222
REMARK SMILES O=C([O-])c1ccccc1O
REMARK SMILES IDX 4 1 9 2 5 3 8 4 6 5 7 6 2 7 1 8 3 9 10 10
REMARK H PARENT 10 11
REMARK Flexibility Score: inf
ROOT
ATOM      1  C   UNL     1      27.676  -7.003  -5.803  1.00  0.00     0.039 A 
ATOM      2  C   UNL     1      26.996  -5.970  -6.500  1.00  0.00     0.124 A 
ATOM      3  C   UNL     1      27.647  -7.008  -4.397  1.00  0.00     0.014 A 
ATOM      4  C   UNL     1      26.366  -4.947  -5.778  1.00  0.00     0.047 A 
ATOM      5  C   UNL     1      26.997  -5.991  -3.693  1.00  0.00     0.001 A 
ATOM      6  C   UNL     1      26.366  -4.958  -4.383  1.00  0.00     0.004 A 
ENDROOT
BRANCH   1   7
ATOM      7  C   UNL     1      28.445  -8.063  -6.492  1.00  0.00     0.075 C 
ATOM      8  O   UNL     1      28.415  -8.174  -7.745  1.00  0.00    -0.545 OA
ATOM      9  O   UNL     1      29.271  -8.909  -5.761  1.00  0.00    -0.545 OA
ENDBRANCH   1   7
BRANCH   2  10
ATOM     10  O   UNL     1      26.892  -5.940  -7.892  1.00  0.00    -0.507 OA
ATOM     11  H   UNL     1      26.768  -5.091  -8.425  1.00  0.00     0.293 HD
ENDBRANCH   2  10
TORSDOF 2
ENDMDL
MODEL 3
REMARK VINA RESULT:    -5.762      0.915      1.367
REMARK INTER + INTRA:          -6.490
REMARK INTER:                  -6.251
REMARK INTRA:                  -0.239
REMARK UNBOUND:                -0.222
REMARK SMILES O=C([O-])c1ccccc1O
REMARK SMILES IDX 4 1 9 2 5 3 8 4 6 5 7 6 2 7 1 8 3 9 10 10
REMARK H PARENT 10 11
REMARK Flexibility Score: inf
ROOT
ATOM      1  C   UNL     1      17.329  -1.144  -4.650  1.00  0.00     0.039 A 
ATOM      2  C   UNL     1      17.905  -1.882  -3.582  1.00  0.00     0.124 A 
ATOM      3  C   UNL     1      17.979  -1.135  -5.897  1.00  0.00     0.014 A 
ATOM      4  C   UNL     1      19.133  -2.530  -3.771  1.00  0.00     0.047 A 
ATOM      5  C   UNL     1      19.193  -1.803  -6.075  1.00  0.00     0.001 A 
ATOM      6  C   UNL     1      19.773  -2.491  -5.010  1.00  0.00     0.004 A 
ENDROOT
BRANCH   1   7
ATOM      7  C   UNL     1      16.087  -0.355  -4.500  1.00  0.00     0.075 C 
ATOM      8  O   UNL     1      15.189  -0.707  -3.691  1.00  0.00    -0.545 OA
ATOM      9  O   UNL     1      15.928   0.832  -5.208  1.00  0.00    -0.545 OA
ENDBRANCH   1   7
BRANCH   2  10
ATOM     10  O   UNL     1      17.281  -2.024  -2.340  1.00  0.00    -0.507 OA
ATOM     11  H   UNL     1      16.373  -2.451  -2.217  1.00  0.00     0.293 HD
ENDBRANCH   2  10
TORSDOF 2
ENDMDL
MODEL 4
REMARK VINA RESULT:    -5.655      1.250      2.889
REMARK INTER + INTRA:          -6.373
REMARK INTER:                  -6.162
REMARK INTRA:                  -0.212
REMARK UNBOUND:                -0.222
REMARK SMILES O=C([O-])c1ccccc1O
REMARK SMILES IDX 4 1 9 2 5 3 8 4 6 5 7 6 2 7 1 8 3 9 10 10
REMARK H PARENT 10 11
REMARK Flexibility Score: inf
ROOT
ATOM      1  C   UNL     1      17.220  -0.702  -4.422  1.00  0.00     0.039 A 
ATOM      2  C   UNL     1      16.191   0.106  -4.972  1.00  0.00     0.124 A 
ATOM      3  C   UNL     1      18.339  -1.012  -5.217  1.00  0.00     0.014 A 
ATOM      4  C   UNL     1      16.277   0.521  -6.308  1.00  0.00     0.047 A 
ATOM      5  C   UNL     1      18.418  -0.573  -6.540  1.00  0.00     0.001 A 
ATOM      6  C   UNL     1      17.384   0.185  -7.088  1.00  0.00     0.004 A 
ENDROOT
BRANCH   1   7
ATOM      7  C   UNL     1      17.156  -1.260  -3.053  1.00  0.00     0.075 C 
ATOM      8  O   UNL     1      16.163  -1.042  -2.311  1.00  0.00    -0.545 OA
ATOM      9  O   UNL     1      18.168  -2.095  -2.595  1.00  0.00    -0.545 OA
ENDBRANCH   1   7
BRANCH   2  10
ATOM     10  O   UNL     1      15.093   0.542  -4.227  1.00  0.00    -0.507 OA
ATOM     11  H   UNL     1      15.116   0.676  -3.226  1.00  0.00     0.293 HD
ENDBRANCH   2  10
TORSDOF 2
ENDMDL
MODEL 5
REMARK VINA RESULT:    -5.587      1.382      2.377
REMARK INTER + INTRA:          -6.299
REMARK INTER:                  -6.088
REMARK INTRA:                  -0.212
REMARK UNBOUND:                -0.222
REMARK SMILES O=C([O-])c1ccccc1O
REMARK SMILES IDX 4 1 9 2 5 3 8 4 6 5 7 6 2 7 1 8 3 9 10 10
REMARK H PARENT 10 11
REMARK Flexibility Score: inf
ROOT
ATOM      1  C   UNL     1      17.254  -0.894  -5.092  1.00  0.00     0.039 A 
ATOM      2  C   UNL     1      17.179  -1.253  -3.721  1.00  0.00     0.124 A 
ATOM      3  C   UNL     1      18.237  -1.495  -5.899  1.00  0.00     0.014 A 
ATOM      4  C   UNL     1      18.119  -2.144  -3.186  1.00  0.00     0.047 A 
ATOM      5  C   UNL     1      19.153  -2.398  -5.355  1.00  0.00     0.001 A 
ATOM      6  C   UNL     1      19.100  -2.714  -3.999  1.00  0.00     0.004 A 
ENDROOT
BRANCH   1   7
ATOM      7  C   UNL     1      16.361   0.112  -5.707  1.00  0.00     0.075 C 
ATOM      8  O   UNL     1      15.462   0.679  -5.032  1.00  0.00    -0.545 OA
ATOM      9  O   UNL     1      16.552   0.495  -7.030  1.00  0.00    -0.545 OA
ENDBRANCH   1   7
BRANCH   2  10
ATOM     10  O   UNL     1      16.178  -0.779  -2.870  1.00  0.00    -0.507 OA
ATOM     11  H   UNL     1      15.277  -1.224  -2.766  1.00  0.00     0.293 HD
ENDBRANCH   2  10
TORSDOF 2
ENDMDL
MODEL 6
REMARK VINA RESULT:    -5.577      0.852      2.405
REMARK INTER + INTRA:          -6.289
REMARK INTER:                  -6.063
REMARK INTRA:                  -0.226
REMARK UNBOUND:                -0.222
REMARK SMILES O=C([O-])c1ccccc1O
REMARK SMILES IDX 4 1 9 2 5 3 8 4 6 5 7 6 2 7 1 8 3 9 10 10
REMARK H PARENT 10 11
REMARK Flexibility Score: inf
ROOT
ATOM      1  C   UNL     1      17.402  -1.386  -4.314  1.00  0.00     0.039 A 
ATOM      2  C   UNL     1      17.503  -1.060  -5.692  1.00  0.00     0.124 A 
ATOM      3  C   UNL     1      18.401  -2.185  -3.729  1.00  0.00     0.014 A 
ATOM      4  C   UNL     1      18.555  -1.589  -6.453  1.00  0.00     0.047 A 
ATOM      5  C   UNL     1      19.454  -2.688  -4.498  1.00  0.00     0.001 A 
ATOM      6  C   UNL     1      19.525  -2.398  -5.859  1.00  0.00     0.004 A 
ENDROOT
BRANCH   1   7
ATOM      7  C   UNL     1      16.270  -0.947  -3.468  1.00  0.00     0.075 C 
ATOM      8  O   UNL     1      16.370  -0.927  -2.213  1.00  0.00    -0.545 OA
ATOM      9  O   UNL     1      15.100  -0.483  -4.058  1.00  0.00    -0.545 OA
ENDBRANCH   1   7
BRANCH   2  10
ATOM     10  O   UNL     1      16.611  -0.196  -6.331  1.00  0.00    -0.507 OA
ATOM     11  H   UNL     1      16.617   0.806  -6.206  1.00  0.00     0.293 HD
ENDBRANCH   2  10
TORSDOF 2
ENDMDL
MODEL 7
REMARK VINA RESULT:    -5.402     10.916     12.272
REMARK INTER + INTRA:          -6.098
REMARK INTER:                  -5.868
REMARK INTRA:                  -0.230
REMARK UNBOUND:                -0.222
REMARK SMILES O=C([O-])c1ccccc1O
REMARK SMILES IDX 4 1 9 2 5 3 8 4 6 5 7 6 2 7 1 8 3 9 10 10
REMARK H PARENT 10 11
REMARK Flexibility Score: inf
ROOT
ATOM      1  C   UNL     1      28.434  -6.591  -5.062  1.00  0.00     0.039 A 
ATOM      2  C   UNL     1      28.589  -7.645  -6.000  1.00  0.00     0.124 A 
ATOM      3  C   UNL     1      27.342  -5.716  -5.197  1.00  0.00     0.014 A 
ATOM      4  C   UNL     1      27.693  -7.755  -7.071  1.00  0.00     0.047 A 
ATOM      5  C   UNL     1      26.445  -5.852  -6.260  1.00  0.00     0.001 A 
ATOM      6  C   UNL     1      26.627  -6.864  -7.201  1.00  0.00     0.004 A 
ENDROOT
BRANCH   1   7
ATOM      7  C   UNL     1      29.394  -6.350  -3.962  1.00  0.00     0.075 C 
ATOM      8  O   UNL     1      30.123  -7.278  -3.524  1.00  0.00    -0.545 OA
ATOM      9  O   UNL     1      29.549  -5.070  -3.443  1.00  0.00    -0.545 OA
ENDBRANCH   1   7
BRANCH   2  10
ATOM     10  O   UNL     1      29.587  -8.616  -5.887  1.00  0.00    -0.507 OA
ATOM     11  H   UNL     1      29.459  -9.582  -6.152  1.00  0.00     0.293 HD
ENDBRANCH   2  10
TORSDOF 2
ENDMDL
MODEL 8
REMARK VINA RESULT:    -5.400     10.526     11.774
REMARK INTER + INTRA:          -6.096
REMARK INTER:                  -5.898
REMARK INTRA:                  -0.198
REMARK UNBOUND:                -0.222
REMARK SMILES O=C([O-])c1ccccc1O
REMARK SMILES IDX 4 1 9 2 5 3 8 4 6 5 7 6 2 7 1 8 3 9 10 10
REMARK H PARENT 10 11
REMARK Flexibility Score: inf
ROOT
ATOM      1  C   UNL     1      27.747  -6.900  -5.720  1.00  0.00     0.039 A 
ATOM      2  C   UNL     1      27.742  -6.821  -4.303  1.00  0.00     0.124 A 
ATOM      3  C   UNL     1      27.056  -5.922  -6.458  1.00  0.00     0.014 A 
ATOM      4  C   UNL     1      27.001  -5.815  -3.669  1.00  0.00     0.047 A 
ATOM      5  C   UNL     1      26.339  -4.914  -5.810  1.00  0.00     0.001 A 
ATOM      6  C   UNL     1      26.304  -4.866  -4.417  1.00  0.00     0.004 A 
ENDROOT
BRANCH   1   7
ATOM      7  C   UNL     1      28.424  -7.988  -6.461  1.00  0.00     0.075 C 
ATOM      8  O   UNL     1      28.307  -8.092  -7.709  1.00  0.00    -0.545 OA
ATOM      9  O   UNL     1      29.259  -8.872  -5.787  1.00  0.00    -0.545 OA
ENDBRANCH   1   7
BRANCH   2  10
ATOM     10  O   UNL     1      28.479  -7.692  -3.496  1.00  0.00    -0.507 OA
ATOM     11  H   UNL     1      29.231  -7.391  -2.892  1.00  0.00     0.293 HD
ENDBRANCH   2  10
TORSDOF 2
ENDMDL
MODEL 9
REMARK VINA RESULT:    -5.302      1.291      3.105
REMARK INTER + INTRA:          -5.989
REMARK INTER:                  -5.748
REMARK INTRA:                  -0.241
REMARK UNBOUND:                -0.222
REMARK SMILES O=C([O-])c1ccccc1O
REMARK SMILES IDX 4 1 9 2 5 3 8 4 6 5 7 6 2 7 1 8 3 9 10 10
REMARK H PARENT 10 11
REMARK Flexibility Score: inf
ROOT
ATOM      1  C   UNL     1      17.578  -1.164  -4.609  1.00  0.00     0.039 A 
ATOM      2  C   UNL     1      16.386  -0.534  -4.166  1.00  0.00     0.124 A 
ATOM      3  C   UNL     1      18.088  -0.839  -5.878  1.00  0.00     0.014 A 
ATOM      4  C   UNL     1      15.709   0.346  -5.021  1.00  0.00     0.047 A 
ATOM      5  C   UNL     1      17.412   0.056  -6.711  1.00  0.00     0.001 A 
ATOM      6  C   UNL     1      16.219   0.640  -6.286  1.00  0.00     0.004 A 
ENDROOT
BRANCH   1   7
ATOM      7  C   UNL     1      18.296  -2.178  -3.803  1.00  0.00     0.075 C 
ATOM      8  O   UNL     1      18.992  -3.068  -4.356  1.00  0.00    -0.545 OA
ATOM      9  O   UNL     1      18.263  -2.112  -2.415  1.00  0.00    -0.545 OA
ENDBRANCH   1   7
BRANCH   2  10
ATOM     10  O   UNL     1      15.862  -0.725  -2.885  1.00  0.00    -0.507 OA
ATOM     11  H   UNL     1      15.204  -1.456  -2.654  1.00  0.00     0.293 HD
ENDBRANCH   2  10
TORSDOF 2
ENDMDL
