MODEL 1
REMARK VINA RESULT:    -3.554      0.000      0.000
REMARK INTER + INTRA:          -8.046
REMARK INTER:                  -6.464
REMARK INTRA:                  -1.583
REMARK UNBOUND:                -1.583
REMARK SMILES CCCCCCCCCCCCCC[C@@H](C)C(=O)[O-]
REMARK SMILES IDX 9 1 10 2 11 3 12 4 13 5 14 6 15 7 16 8 17 9 18 10 19 11 8 12
REMARK SMILES IDX 7 13 6 14 5 15 4 16 3 17 2 18 1 19
REMARK H PARENT
REMARK Flexibility Score: inf
ROOT
ATOM      1  C   UNL     1      62.134  44.635  16.546  1.00  0.00     0.000 C 
ENDROOT
BRANCH   1   2
ATOM      2  C   UNL     1      61.049  45.498  17.222  1.00  0.00     0.000 C 
BRANCH   2   3
ATOM      3  C   UNL     1      60.060  44.722  18.115  1.00  0.00     0.000 C 
BRANCH   3   4
ATOM      4  C   UNL     1      59.115  43.764  17.362  1.00  0.00     0.000 C 
BRANCH   4   5
ATOM      5  C   UNL     1      57.704  44.318  17.094  1.00  0.00     0.001 C 
BRANCH   5   6
ATOM      6  C   UNL     1      57.571  44.967  15.704  1.00  0.00     0.009 C 
BRANCH   6   7
ATOM      7  C   UNL     1      56.722  46.255  15.744  1.00  0.00     0.032 C 
ATOM      8  C   UNL     1      57.481  47.380  16.457  1.00  0.00     0.014 C 
BRANCH   7   9
ATOM      9  C   UNL     1      56.339  46.702  14.359  1.00  0.00     0.044 C 
ATOM     10  O   UNL     1      57.230  46.910  13.493  1.00  0.00    -0.550 OA
ATOM     11  O   UNL     1      55.002  46.882  14.022  1.00  0.00    -0.550 OA
ENDBRANCH   7   9
ENDBRANCH   6   7
ENDBRANCH   5   6
ENDBRANCH   4   5
ENDBRANCH   3   4
ENDBRANCH   2   3
ENDBRANCH   1   2
BRANCH   1  12
ATOM     12  C   UNL     1      63.537  45.267  16.502  1.00  0.00     0.000 C 
BRANCH  12  13
ATOM     13  C   UNL     1      64.441  44.641  15.427  1.00  0.00    -0.000 C 
BRANCH  13  14
ATOM     14  C   UNL     1      63.893  43.303  14.904  1.00  0.00    -0.000 C 
BRANCH  14  15
ATOM     15  C   UNL     1      64.805  42.115  15.258  1.00  0.00    -0.000 C 
BRANCH  15  16
ATOM     16  C   UNL     1      64.043  40.973  15.950  1.00  0.00    -0.000 C 
BRANCH  16  17
ATOM     17  C   UNL     1      64.417  40.821  17.433  1.00  0.00    -0.000 C 
BRANCH  17  18
ATOM     18  C   UNL     1      63.639  41.819  18.299  1.00  0.00    -0.003 C 
ATOM     19  C   UNL     1      62.288  41.249  18.719  1.00  0.00     0.004 C 
ENDBRANCH  17  18
ENDBRANCH  16  17
ENDBRANCH  15  16
ENDBRANCH  14  15
ENDBRANCH  13  14
ENDBRANCH  12  13
ENDBRANCH   1  12
TORSDOF 14
ENDMDL
MODEL 2
REMARK VINA RESULT:    -3.533     11.021     13.736
REMARK INTER + INTRA:          -8.008
REMARK INTER:                  -5.494
REMARK INTRA:                  -2.514
REMARK UNBOUND:                -1.583
REMARK SMILES CCCCCCCCCCCCCC[C@@H](C)C(=O)[O-]
REMARK SMILES IDX 9 1 10 2 11 3 12 4 13 5 14 6 15 7 16 8 17 9 18 10 19 11 8 12
REMARK SMILES IDX 7 13 6 14 5 15 4 16 3 17 2 18 1 19
REMARK H PARENT
REMARK Flexibility Score: inf
ROOT
ATOM      1  C   UNL     1      45.732  44.294  17.899  1.00  0.00     0.000 C 
ENDROOT
BRANCH   1   2
ATOM      2  C   UNL     1      45.252  45.517  17.091  1.00  0.00     0.000 C 
BRANCH   2   3
ATOM      3  C   UNL     1      46.372  46.332  16.414  1.00  0.00     0.000 C 
BRANCH   3   4
ATOM      4  C   UNL     1      47.363  47.009  17.382  1.00  0.00     0.000 C 
BRANCH   4   5
ATOM      5  C   UNL     1      48.849  46.738  17.087  1.00  0.00     0.001 C 
BRANCH   5   6
ATOM      6  C   UNL     1      49.489  47.819  16.198  1.00  0.00     0.009 C 
BRANCH   6   7
ATOM      7  C   UNL     1      49.469  47.429  14.705  1.00  0.00     0.032 C 
ATOM      8  C   UNL     1      49.008  48.611  13.845  1.00  0.00     0.014 C 
BRANCH   7   9
ATOM      9  C   UNL     1      50.823  46.964  14.241  1.00  0.00     0.044 C 
ATOM     10  O   UNL     1      51.235  47.266  13.090  1.00  0.00    -0.550 OA
ATOM     11  O   UNL     1      51.632  46.204  15.080  1.00  0.00    -0.550 OA
ENDBRANCH   7   9
ENDBRANCH   6   7
ENDBRANCH   5   6
ENDBRANCH   4   5
ENDBRANCH   3   4
ENDBRANCH   2   3
ENDBRANCH   1   2
BRANCH   1  12
ATOM     12  C   UNL     1      44.892  43.017  17.712  1.00  0.00     0.000 C 
BRANCH  12  13
ATOM     13  C   UNL     1      45.494  42.054  16.675  1.00  0.00    -0.000 C 
BRANCH  13  14
ATOM     14  C   UNL     1      45.050  42.380  15.240  1.00  0.00    -0.000 C 
BRANCH  14  15
ATOM     15  C   UNL     1      46.161  43.060  14.420  1.00  0.00    -0.000 C 
BRANCH  15  16
ATOM     16  C   UNL     1      47.567  42.594  14.832  1.00  0.00    -0.000 C 
BRANCH  16  17
ATOM     17  C   UNL     1      48.592  43.739  14.846  1.00  0.00    -0.000 C 
BRANCH  17  18
ATOM     18  C   UNL     1      49.686  43.481  15.888  1.00  0.00    -0.003 C 
ATOM     19  C   UNL     1      49.100  42.896  17.171  1.00  0.00     0.004 C 
ENDBRANCH  17  18
ENDBRANCH  16  17
ENDBRANCH  15  16
ENDBRANCH  14  15
ENDBRANCH  13  14
ENDBRANCH  12  13
ENDBRANCH   1  12
TORSDOF 14
ENDMDL
MODEL 3
REMARK VINA RESULT:    -3.502      9.340     12.060
REMARK INTER + INTRA:          -7.951
REMARK INTER:                  -5.806
REMARK INTRA:                  -2.145
REMARK UNBOUND:                -1.583
REMARK SMILES CCCCCCCCCCCCCC[C@@H](C)C(=O)[O-]
REMARK SMILES IDX 9 1 10 2 11 3 12 4 13 5 14 6 15 7 16 8 17 9 18 10 19 11 8 12
REMARK SMILES IDX 7 13 6 14 5 15 4 16 3 17 2 18 1 19
REMARK H PARENT
REMARK Flexibility Score: inf
ROOT
ATOM      1  C   UNL     1      52.532  47.594  16.347  1.00  0.00     0.000 C 
ENDROOT
BRANCH   1   2
ATOM      2  C   UNL     1      51.210  46.805  16.429  1.00  0.00     0.000 C 
BRANCH   2   3
ATOM      3  C   UNL     1      51.234  45.418  15.757  1.00  0.00     0.000 C 
BRANCH   3   4
ATOM      4  C   UNL     1      50.339  45.282  14.509  1.00  0.00     0.000 C 
BRANCH   4   5
ATOM      5  C   UNL     1      49.191  44.265  14.638  1.00  0.00     0.001 C 
BRANCH   5   6
ATOM      6  C   UNL     1      47.840  44.927  14.965  1.00  0.00     0.009 C 
BRANCH   6   7
ATOM      7  C   UNL     1      46.649  43.995  14.656  1.00  0.00     0.032 C 
ATOM      8  C   UNL     1      47.144  42.630  14.167  1.00  0.00     0.014 C 
BRANCH   7   9
ATOM      9  C   UNL     1      45.770  43.812  15.864  1.00  0.00     0.044 C 
ATOM     10  O   UNL     1      45.622  42.668  16.370  1.00  0.00    -0.550 OA
ATOM     11  O   UNL     1      45.121  44.901  16.435  1.00  0.00    -0.550 OA
ENDBRANCH   7   9
ENDBRANCH   6   7
ENDBRANCH   5   6
ENDBRANCH   4   5
ENDBRANCH   3   4
ENDBRANCH   2   3
ENDBRANCH   1   2
BRANCH   1  12
ATOM     12  C   UNL     1      53.498  47.135  15.238  1.00  0.00     0.000 C 
BRANCH  12  13
ATOM     13  C   UNL     1      54.262  48.303  14.591  1.00  0.00    -0.000 C 
BRANCH  13  14
ATOM     14  C   UNL     1      53.603  48.788  13.289  1.00  0.00    -0.000 C 
BRANCH  14  15
ATOM     15  C   UNL     1      52.522  47.819  12.780  1.00  0.00    -0.000 C 
BRANCH  15  16
ATOM     16  C   UNL     1      51.133  48.474  12.698  1.00  0.00    -0.000 C 
BRANCH  16  17
ATOM     17  C   UNL     1      51.019  49.736  13.567  1.00  0.00    -0.000 C 
BRANCH  17  18
ATOM     18  C   UNL     1      49.738  49.706  14.409  1.00  0.00    -0.003 C 
ATOM     19  C   UNL     1      48.858  48.517  14.033  1.00  0.00     0.004 C 
ENDBRANCH  17  18
ENDBRANCH  16  17
ENDBRANCH  15  16
ENDBRANCH  14  15
ENDBRANCH  13  14
ENDBRANCH  12  13
ENDBRANCH   1  12
TORSDOF 14
ENDMDL
MODEL 4
REMARK VINA RESULT:    -3.488      7.867     12.409
REMARK INTER + INTRA:          -7.926
REMARK INTER:                  -6.478
REMARK INTRA:                  -1.448
REMARK UNBOUND:                -1.583
REMARK SMILES CCCCCCCCCCCCCC[C@@H](C)C(=O)[O-]
REMARK SMILES IDX 9 1 10 2 11 3 12 4 13 5 14 6 15 7 16 8 17 9 18 10 19 11 8 12
REMARK SMILES IDX 7 13 6 14 5 15 4 16 3 17 2 18 1 19
REMARK H PARENT
REMARK Flexibility Score: inf
ROOT
ATOM      1  C   UNL     1      49.473  48.571  14.871  1.00  0.00     0.000 C 
ENDROOT
BRANCH   1   2
ATOM      2  C   UNL     1      49.195  49.462  13.643  1.00  0.00     0.000 C 
BRANCH   2   3
ATOM      3  C   UNL     1      50.451  49.978  12.913  1.00  0.00     0.000 C 
BRANCH   3   4
ATOM      4  C   UNL     1      51.104  48.971  11.945  1.00  0.00     0.000 C 
BRANCH   4   5
ATOM      5  C   UNL     1      52.323  48.222  12.511  1.00  0.00     0.001 C 
BRANCH   5   6
ATOM      6  C   UNL     1      53.412  49.169  13.046  1.00  0.00     0.009 C 
BRANCH   6   7
ATOM      7  C   UNL     1      54.147  48.576  14.267  1.00  0.00     0.032 C 
ATOM      8  C   UNL     1      53.285  47.507  14.949  1.00  0.00     0.014 C 
BRANCH   7   9
ATOM      9  C   UNL     1      55.472  47.981  13.873  1.00  0.00     0.044 C 
ATOM     10  O   UNL     1      55.530  46.802  13.434  1.00  0.00    -0.550 OA
ATOM     11  O   UNL     1      56.640  48.728  13.985  1.00  0.00    -0.550 OA
ENDBRANCH   7   9
ENDBRANCH   6   7
ENDBRANCH   5   6
ENDBRANCH   4   5
ENDBRANCH   3   4
ENDBRANCH   2   3
ENDBRANCH   1   2
BRANCH   1  12
ATOM     12  C   UNL     1      48.886  47.150  14.793  1.00  0.00     0.000 C 
BRANCH  12  13
ATOM     13  C   UNL     1      49.959  46.073  14.558  1.00  0.00    -0.000 C 
BRANCH  13  14
ATOM     14  C   UNL     1      49.368  44.655  14.498  1.00  0.00    -0.000 C 
BRANCH  14  15
ATOM     15  C   UNL     1      48.161  44.480  15.437  1.00  0.00    -0.000 C 
BRANCH  15  16
ATOM     16  C   UNL     1      46.891  44.042  14.690  1.00  0.00    -0.000 C 
BRANCH  16  17
ATOM     17  C   UNL     1      47.028  42.652  14.048  1.00  0.00    -0.000 C 
BRANCH  17  18
ATOM     18  C   UNL     1      46.656  41.550  15.046  1.00  0.00    -0.003 C 
ATOM     19  C   UNL     1      45.141  41.425  15.191  1.00  0.00     0.004 C 
ENDBRANCH  17  18
ENDBRANCH  16  17
ENDBRANCH  15  16
ENDBRANCH  14  15
ENDBRANCH  13  14
ENDBRANCH  12  13
ENDBRANCH   1  12
TORSDOF 14
ENDMDL
MODEL 5
REMARK VINA RESULT:    -3.422      9.478     12.018
REMARK INTER + INTRA:          -7.806
REMARK INTER:                  -5.660
REMARK INTRA:                  -2.145
REMARK UNBOUND:                -1.583
REMARK SMILES CCCCCCCCCCCCCC[C@@H](C)C(=O)[O-]
REMARK SMILES IDX 9 1 10 2 11 3 12 4 13 5 14 6 15 7 16 8 17 9 18 10 19 11 8 12
REMARK SMILES IDX 7 13 6 14 5 15 4 16 3 17 2 18 1 19
REMARK H PARENT
REMARK Flexibility Score: inf
ROOT
ATOM      1  C   UNL     1      52.940  47.079  15.555  1.00  0.00     0.000 C 
ENDROOT
BRANCH   1   2
ATOM      2  C   UNL     1      51.471  46.718  15.854  1.00  0.00     0.000 C 
BRANCH   2   3
ATOM      3  C   UNL     1      51.079  45.261  15.537  1.00  0.00     0.000 C 
BRANCH   3   4
ATOM      4  C   UNL     1      49.954  45.100  14.496  1.00  0.00     0.000 C 
BRANCH   4   5
ATOM      5  C   UNL     1      48.863  44.080  14.868  1.00  0.00     0.001 C 
BRANCH   5   6
ATOM      6  C   UNL     1      47.453  44.696  14.900  1.00  0.00     0.009 C 
BRANCH   6   7
ATOM      7  C   UNL     1      46.925  44.861  16.341  1.00  0.00     0.032 C 
ATOM      8  C   UNL     1      47.787  44.064  17.326  1.00  0.00     0.014 C 
BRANCH   7   9
ATOM      9  C   UNL     1      46.895  46.309  16.752  1.00  0.00     0.044 C 
ATOM     10  O   UNL     1      45.948  46.746  17.459  1.00  0.00    -0.550 OA
ATOM     11  O   UNL     1      47.912  47.172  16.360  1.00  0.00    -0.550 OA
ENDBRANCH   7   9
ENDBRANCH   6   7
ENDBRANCH   5   6
ENDBRANCH   4   5
ENDBRANCH   3   4
ENDBRANCH   2   3
ENDBRANCH   1   2
BRANCH   1  12
ATOM     12  C   UNL     1      53.244  48.588  15.503  1.00  0.00     0.000 C 
BRANCH  12  13
ATOM     13  C   UNL     1      53.295  49.137  14.067  1.00  0.00    -0.000 C 
BRANCH  13  14
ATOM     14  C   UNL     1      53.239  48.023  13.008  1.00  0.00    -0.000 C 
BRANCH  14  15
ATOM     15  C   UNL     1      51.879  47.960  12.292  1.00  0.00    -0.000 C 
BRANCH  15  16
ATOM     16  C   UNL     1      51.424  49.331  11.767  1.00  0.00    -0.000 C 
BRANCH  16  17
ATOM     17  C   UNL     1      50.015  49.714  12.246  1.00  0.00    -0.000 C 
BRANCH  17  18
ATOM     18  C   UNL     1      49.618  48.902  13.484  1.00  0.00    -0.003 C 
ATOM     19  C   UNL     1      49.649  49.765  14.743  1.00  0.00     0.004 C 
ENDBRANCH  17  18
ENDBRANCH  16  17
ENDBRANCH  15  16
ENDBRANCH  14  15
ENDBRANCH  13  14
ENDBRANCH  12  13
ENDBRANCH   1  12
TORSDOF 14
ENDMDL
MODEL 6
REMARK VINA RESULT:    -3.398      8.643     11.978
REMARK INTER + INTRA:          -7.761
REMARK INTER:                  -5.500
REMARK INTRA:                  -2.261
REMARK UNBOUND:                -1.583
REMARK SMILES CCCCCCCCCCCCCC[C@@H](C)C(=O)[O-]
REMARK SMILES IDX 9 1 10 2 11 3 12 4 13 5 14 6 15 7 16 8 17 9 18 10 19 11 8 12
REMARK SMILES IDX 7 13 6 14 5 15 4 16 3 17 2 18 1 19
REMARK H PARENT
REMARK Flexibility Score: inf
ROOT
ATOM      1  C   UNL     1      50.671  48.886  15.576  1.00  0.00     0.000 C 
ENDROOT
BRANCH   1   2
ATOM      2  C   UNL     1      50.675  47.499  16.251  1.00  0.00     0.000 C 
BRANCH   2   3
ATOM      3  C   UNL     1      51.353  46.379  15.438  1.00  0.00     0.000 C 
BRANCH   3   4
ATOM      4  C   UNL     1      50.473  45.743  14.343  1.00  0.00     0.000 C 
BRANCH   4   5
ATOM      5  C   UNL     1      49.406  44.759  14.855  1.00  0.00     0.001 C 
BRANCH   5   6
ATOM      6  C   UNL     1      47.985  45.349  14.827  1.00  0.00     0.009 C 
BRANCH   6   7
ATOM      7  C   UNL     1      46.904  44.254  14.707  1.00  0.00     0.032 C 
ATOM      8  C   UNL     1      47.550  42.867  14.614  1.00  0.00     0.014 C 
BRANCH   7   9
ATOM      9  C   UNL     1      45.953  44.292  15.873  1.00  0.00     0.044 C 
ATOM     10  O   UNL     1      45.644  45.393  16.400  1.00  0.00    -0.550 OA
ATOM     11  O   UNL     1      45.404  43.116  16.372  1.00  0.00    -0.550 OA
ENDBRANCH   7   9
ENDBRANCH   6   7
ENDBRANCH   5   6
ENDBRANCH   4   5
ENDBRANCH   3   4
ENDBRANCH   2   3
ENDBRANCH   1   2
BRANCH   1  12
ATOM     12  C   UNL     1      49.402  49.215  14.768  1.00  0.00     0.000 C 
BRANCH  12  13
ATOM     13  C   UNL     1      49.631  49.161  13.249  1.00  0.00    -0.000 C 
BRANCH  13  14
ATOM     14  C   UNL     1      51.065  49.552  12.855  1.00  0.00    -0.000 C 
BRANCH  14  15
ATOM     15  C   UNL     1      51.815  48.409  12.149  1.00  0.00    -0.000 C 
BRANCH  15  16
ATOM     16  C   UNL     1      53.176  48.108  12.796  1.00  0.00    -0.000 C 
BRANCH  16  17
ATOM     17  C   UNL     1      53.770  49.323  13.526  1.00  0.00    -0.000 C 
BRANCH  17  18
ATOM     18  C   UNL     1      54.377  48.910  14.871  1.00  0.00    -0.003 C 
ATOM     19  C   UNL     1      54.742  47.427  14.880  1.00  0.00     0.004 C 
ENDBRANCH  17  18
ENDBRANCH  16  17
ENDBRANCH  15  16
ENDBRANCH  14  15
ENDBRANCH  13  14
ENDBRANCH  12  13
ENDBRANCH   1  12
TORSDOF 14
ENDMDL
MODEL 7
REMARK VINA RESULT:    -3.393      1.324      2.630
REMARK INTER + INTRA:          -7.753
REMARK INTER:                  -5.662
REMARK INTRA:                  -2.091
REMARK UNBOUND:                -1.583
REMARK SMILES CCCCCCCCCCCCCC[C@@H](C)C(=O)[O-]
REMARK SMILES IDX 9 1 10 2 11 3 12 4 13 5 14 6 15 7 16 8 17 9 18 10 19 11 8 12
REMARK SMILES IDX 7 13 6 14 5 15 4 16 3 17 2 18 1 19
REMARK H PARENT
REMARK Flexibility Score: inf
ROOT
ATOM      1  C   UNL     1      63.183  44.089  15.547  1.00  0.00     0.000 C 
ENDROOT
BRANCH   1   2
ATOM      2  C   UNL     1      63.507  45.381  16.325  1.00  0.00     0.000 C 
BRANCH   2   3
ATOM      3  C   UNL     1      62.569  45.683  17.510  1.00  0.00     0.000 C 
BRANCH   3   4
ATOM      4  C   UNL     1      61.088  45.321  17.278  1.00  0.00     0.000 C 
BRANCH   4   5
ATOM      5  C   UNL     1      60.113  45.850  18.346  1.00  0.00     0.001 C 
BRANCH   5   6
ATOM      6  C   UNL     1      58.684  45.305  18.173  1.00  0.00     0.009 C 
BRANCH   6   7
ATOM      7  C   UNL     1      58.428  44.793  16.740  1.00  0.00     0.032 C 
ATOM      8  C   UNL     1      57.746  43.420  16.772  1.00  0.00     0.014 C 
BRANCH   7   9
ATOM      9  C   UNL     1      57.581  45.759  15.956  1.00  0.00     0.044 C 
ATOM     10  O   UNL     1      56.968  45.371  14.927  1.00  0.00    -0.550 OA
ATOM     11  O   UNL     1      57.465  47.084  16.364  1.00  0.00    -0.550 OA
ENDBRANCH   7   9
ENDBRANCH   6   7
ENDBRANCH   5   6
ENDBRANCH   4   5
ENDBRANCH   3   4
ENDBRANCH   2   3
ENDBRANCH   1   2
BRANCH   1  12
ATOM     12  C   UNL     1      64.363  43.485  14.765  1.00  0.00     0.000 C 
BRANCH  12  13
ATOM     13  C   UNL     1      65.099  42.385  15.550  1.00  0.00    -0.000 C 
BRANCH  13  14
ATOM     14  C   UNL     1      64.196  41.179  15.860  1.00  0.00    -0.000 C 
BRANCH  14  15
ATOM     15  C   UNL     1      64.130  40.865  17.365  1.00  0.00    -0.000 C 
BRANCH  15  16
ATOM     16  C   UNL     1      62.825  41.354  18.013  1.00  0.00    -0.000 C 
BRANCH  16  17
ATOM     17  C   UNL     1      63.065  42.187  19.281  1.00  0.00    -0.000 C 
BRANCH  17  18
ATOM     18  C   UNL     1      61.752  42.783  19.802  1.00  0.00    -0.003 C 
ATOM     19  C   UNL     1      60.545  42.114  19.148  1.00  0.00     0.004 C 
ENDBRANCH  17  18
ENDBRANCH  16  17
ENDBRANCH  15  16
ENDBRANCH  14  15
ENDBRANCH  13  14
ENDBRANCH  12  13
ENDBRANCH   1  12
TORSDOF 14
ENDMDL
MODEL 8
REMARK VINA RESULT:    -3.358      5.256     10.861
REMARK INTER + INTRA:          -7.689
REMARK INTER:                  -5.319
REMARK INTRA:                  -2.370
REMARK UNBOUND:                -1.583
REMARK SMILES CCCCCCCCCCCCCC[C@@H](C)C(=O)[O-]
REMARK SMILES IDX 9 1 10 2 11 3 12 4 13 5 14 6 15 7 16 8 17 9 18 10 19 11 8 12
REMARK SMILES IDX 7 13 6 14 5 15 4 16 3 17 2 18 1 19
REMARK H PARENT
REMARK Flexibility Score: inf
ROOT
ATOM      1  C   UNL     1      52.916  47.952  14.525  1.00  0.00     0.000 C 
ENDROOT
BRANCH   1   2
ATOM      2  C   UNL     1      53.678  49.144  15.139  1.00  0.00     0.000 C 
BRANCH   2   3
ATOM      3  C   UNL     1      54.915  49.607  14.344  1.00  0.00     0.000 C 
BRANCH   3   4
ATOM      4  C   UNL     1      56.261  49.049  14.847  1.00  0.00     0.000 C 
BRANCH   4   5
ATOM      5  C   UNL     1      56.915  48.001  13.930  1.00  0.00     0.001 C 
BRANCH   5   6
ATOM      6  C   UNL     1      56.302  46.598  14.092  1.00  0.00     0.009 C 
BRANCH   6   7
ATOM      7  C   UNL     1      56.260  46.151  15.569  1.00  0.00     0.032 C 
ATOM      8  C   UNL     1      55.047  45.249  15.825  1.00  0.00     0.014 C 
BRANCH   7   9
ATOM      9  C   UNL     1      57.520  45.426  15.958  1.00  0.00     0.044 C 
ATOM     10  O   UNL     1      58.378  45.995  16.684  1.00  0.00    -0.550 OA
ATOM     11  O   UNL     1      57.745  44.123  15.527  1.00  0.00    -0.550 OA
ENDBRANCH   7   9
ENDBRANCH   6   7
ENDBRANCH   5   6
ENDBRANCH   4   5
ENDBRANCH   3   4
ENDBRANCH   2   3
ENDBRANCH   1   2
BRANCH   1  12
ATOM     12  C   UNL     1      53.030  47.822  12.994  1.00  0.00     0.000 C 
BRANCH  12  13
ATOM     13  C   UNL     1      51.720  48.167  12.267  1.00  0.00    -0.000 C 
BRANCH  13  14
ATOM     14  C   UNL     1      51.546  49.679  12.051  1.00  0.00    -0.000 C 
BRANCH  14  15
ATOM     15  C   UNL     1      50.077  50.124  12.160  1.00  0.00    -0.000 C 
BRANCH  15  16
ATOM     16  C   UNL     1      49.319  49.390  13.278  1.00  0.00    -0.000 C 
BRANCH  16  17
ATOM     17  C   UNL     1      49.713  49.877  14.682  1.00  0.00    -0.000 C 
BRANCH  17  18
ATOM     18  C   UNL     1      49.416  48.804  15.736  1.00  0.00    -0.003 C 
ATOM     19  C   UNL     1      49.253  47.429  15.094  1.00  0.00     0.004 C 
ENDBRANCH  17  18
ENDBRANCH  16  17
ENDBRANCH  15  16
ENDBRANCH  14  15
ENDBRANCH  13  14
ENDBRANCH  12  13
ENDBRANCH   1  12
TORSDOF 14
ENDMDL
MODEL 9
REMARK VINA RESULT:    -3.358      9.517     13.322
REMARK INTER + INTRA:          -7.689
REMARK INTER:                  -5.707
REMARK INTRA:                  -1.982
REMARK UNBOUND:                -1.583
REMARK SMILES CCCCCCCCCCCCCC[C@@H](C)C(=O)[O-]
REMARK SMILES IDX 9 1 10 2 11 3 12 4 13 5 14 6 15 7 16 8 17 9 18 10 19 11 8 12
REMARK SMILES IDX 7 13 6 14 5 15 4 16 3 17 2 18 1 19
REMARK H PARENT
REMARK Flexibility Score: inf
ROOT
ATOM      1  C   UNL     1      47.715  45.027  17.561  1.00  0.00     0.000 C 
ENDROOT
BRANCH   1   2
ATOM      2  C   UNL     1      48.724  43.901  17.259  1.00  0.00     0.000 C 
BRANCH   2   3
ATOM      3  C   UNL     1      49.626  44.144  16.033  1.00  0.00     0.000 C 
BRANCH   3   4
ATOM      4  C   UNL     1      49.347  45.452  15.266  1.00  0.00     0.000 C 
BRANCH   4   5
ATOM      5  C   UNL     1      50.294  45.730  14.085  1.00  0.00     0.001 C 
BRANCH   5   6
ATOM      6  C   UNL     1      50.643  47.222  13.936  1.00  0.00     0.009 C 
BRANCH   6   7
ATOM      7  C   UNL     1      51.904  47.439  13.073  1.00  0.00     0.032 C 
ATOM      8  C   UNL     1      51.654  48.520  12.016  1.00  0.00     0.014 C 
BRANCH   7   9
ATOM      9  C   UNL     1      53.088  47.822  13.919  1.00  0.00     0.044 C 
ATOM     10  O   UNL     1      53.526  47.026  14.791  1.00  0.00    -0.550 OA
ATOM     11  O   UNL     1      53.711  49.053  13.741  1.00  0.00    -0.550 OA
ENDBRANCH   7   9
ENDBRANCH   6   7
ENDBRANCH   5   6
ENDBRANCH   4   5
ENDBRANCH   3   4
ENDBRANCH   2   3
ENDBRANCH   1   2
BRANCH   1  12
ATOM     12  C   UNL     1      46.233  44.618  17.471  1.00  0.00     0.000 C 
BRANCH  12  13
ATOM     13  C   UNL     1      45.570  45.063  16.157  1.00  0.00    -0.000 C 
BRANCH  13  14
ATOM     14  C   UNL     1      45.280  43.883  15.214  1.00  0.00    -0.000 C 
BRANCH  14  15
ATOM     15  C   UNL     1      46.478  43.544  14.310  1.00  0.00    -0.000 C 
BRANCH  15  16
ATOM     16  C   UNL     1      46.765  42.035  14.252  1.00  0.00    -0.000 C 
BRANCH  16  17
ATOM     17  C   UNL     1      45.931  41.232  15.263  1.00  0.00    -0.000 C 
BRANCH  17  18
ATOM     18  C   UNL     1      46.771  40.853  16.488  1.00  0.00    -0.003 C 
ATOM     19  C   UNL     1      45.945  40.928  17.769  1.00  0.00     0.004 C 
ENDBRANCH  17  18
ENDBRANCH  16  17
ENDBRANCH  15  16
ENDBRANCH  14  15
ENDBRANCH  13  14
ENDBRANCH  12  13
ENDBRANCH   1  12
TORSDOF 14
ENDMDL
