MODEL 1
REMARK VINA RESULT:    -3.724      0.000      0.000
REMARK INTER + INTRA:          -9.128
REMARK INTER:                  -6.989
REMARK INTRA:                  -2.139
REMARK UNBOUND:                -2.139
REMARK SMILES O=C([O-])CCCCCCCCCCCCCCC(=O)[O-]
REMARK SMILES IDX 10 1 9 2 8 3 7 4 6 5 5 6 4 7 2 8 1 9 3 10 11 11 12 12 13 13
REMARK SMILES IDX 14 14 15 15 16 16 17 17 18 18 19 19 20 20
REMARK H PARENT
REMARK Flexibility Score: inf
ROOT
ATOM      1  C   UNL     1      22.691  13.980 -17.705  1.00  0.00     0.000 C 
ENDROOT
BRANCH   1   2
ATOM      2  C   UNL     1      23.008  15.460 -17.440  1.00  0.00     0.000 C 
BRANCH   2   3
ATOM      3  C   UNL     1      22.531  16.378 -18.579  1.00  0.00     0.000 C 
BRANCH   3   4
ATOM      4  C   UNL     1      21.369  17.290 -18.153  1.00  0.00     0.000 C 
BRANCH   4   5
ATOM      5  C   UNL     1      19.993  16.685 -18.469  1.00  0.00     0.000 C 
BRANCH   5   6
ATOM      6  C   UNL     1      20.036  15.875 -19.774  1.00  0.00     0.006 C 
BRANCH   6   7
ATOM      7  C   UNL     1      19.527  14.440 -19.584  1.00  0.00     0.053 C 
BRANCH   7   8
ATOM      8  C   UNL     1      18.707  13.984 -20.753  1.00  0.00     0.041 C 
ATOM      9  O   UNL     1      18.436  12.763 -20.900  1.00  0.00    -0.550 OA
ATOM     10  O   UNL     1      18.213  14.913 -21.660  1.00  0.00    -0.550 OA
ENDBRANCH   7   8
ENDBRANCH   6   7
ENDBRANCH   5   6
ENDBRANCH   4   5
ENDBRANCH   3   4
ENDBRANCH   2   3
ENDBRANCH   1   2
BRANCH   1  11
ATOM     11  C   UNL     1      21.734  13.381 -16.659  1.00  0.00     0.000 C 
BRANCH  11  12
ATOM     12  C   UNL     1      20.925  14.458 -15.919  1.00  0.00     0.000 C 
BRANCH  12  13
ATOM     13  C   UNL     1      19.606  13.916 -15.344  1.00  0.00     0.000 C 
BRANCH  13  14
ATOM     14  C   UNL     1      19.269  12.502 -15.851  1.00  0.00     0.000 C 
BRANCH  14  15
ATOM     15  C   UNL     1      18.205  12.449 -16.963  1.00  0.00     0.000 C 
BRANCH  15  16
ATOM     16  C   UNL     1      18.217  11.125 -17.741  1.00  0.00     0.006 C 
BRANCH  16  17
ATOM     17  C   UNL     1      19.545  10.387 -17.548  1.00  0.00     0.053 C 
BRANCH  17  18
ATOM     18  C   UNL     1      19.305   8.941 -17.250  1.00  0.00     0.041 C 
ATOM     19  O   UNL     1      18.798   8.190 -18.125  1.00  0.00    -0.550 OA
ATOM     20  O   UNL     1      19.689   8.411 -16.025  1.00  0.00    -0.550 OA
ENDBRANCH  17  18
ENDBRANCH  16  17
ENDBRANCH  15  16
ENDBRANCH  14  15
ENDBRANCH  13  14
ENDBRANCH  12  13
ENDBRANCH  11  12
ENDBRANCH   1  11
TORSDOF 15
ENDMDL
MODEL 2
REMARK VINA RESULT:    -3.704      2.045      3.535
REMARK INTER + INTRA:          -9.092
REMARK INTER:                  -6.899
REMARK INTRA:                  -2.193
REMARK UNBOUND:                -2.139
REMARK SMILES O=C([O-])CCCCCCCCCCCCCCC(=O)[O-]
REMARK SMILES IDX 10 1 9 2 8 3 7 4 6 5 5 6 4 7 2 8 1 9 3 10 11 11 12 12 13 13
REMARK SMILES IDX 14 14 15 15 16 16 17 17 18 18 19 19 20 20
REMARK H PARENT
REMARK Flexibility Score: inf
ROOT
ATOM      1  C   UNL     1      20.555  13.385 -19.893  1.00  0.00     0.000 C 
ENDROOT
BRANCH   1   2
ATOM      2  C   UNL     1      21.172  12.005 -19.614  1.00  0.00     0.000 C 
BRANCH   2   3
ATOM      3  C   UNL     1      22.130  12.020 -18.411  1.00  0.00     0.000 C 
BRANCH   3   4
ATOM      4  C   UNL     1      22.487  13.445 -17.960  1.00  0.00     0.000 C 
BRANCH   4   5
ATOM      5  C   UNL     1      21.809  13.836 -16.637  1.00  0.00     0.000 C 
BRANCH   5   6
ATOM      6  C   UNL     1      21.948  15.344 -16.374  1.00  0.00     0.006 C 
BRANCH   6   7
ATOM      7  C   UNL     1      20.636  16.100 -16.625  1.00  0.00     0.053 C 
BRANCH   7   8
ATOM      8  C   UNL     1      20.603  16.712 -17.992  1.00  0.00     0.041 C 
ATOM      9  O   UNL     1      19.505  16.876 -18.588  1.00  0.00    -0.550 OA
ATOM     10  O   UNL     1      21.781  17.133 -18.595  1.00  0.00    -0.550 OA
ENDBRANCH   7   8
ENDBRANCH   6   7
ENDBRANCH   5   6
ENDBRANCH   4   5
ENDBRANCH   3   4
ENDBRANCH   2   3
ENDBRANCH   1   2
BRANCH   1  11
ATOM     11  C   UNL     1      19.028  13.402 -19.703  1.00  0.00     0.000 C 
BRANCH  11  12
ATOM     12  C   UNL     1      18.622  13.464 -18.221  1.00  0.00     0.000 C 
BRANCH  12  13
ATOM     13  C   UNL     1      17.623  12.360 -17.837  1.00  0.00     0.000 C 
BRANCH  13  14
ATOM     14  C   UNL     1      17.933  11.721 -16.471  1.00  0.00     0.000 C 
BRANCH  14  15
ATOM     15  C   UNL     1      19.299  11.016 -16.381  1.00  0.00     0.000 C 
BRANCH  15  16
ATOM     16  C   UNL     1      19.377   9.748 -17.246  1.00  0.00     0.006 C 
BRANCH  16  17
ATOM     17  C   UNL     1      19.502   8.496 -16.374  1.00  0.00     0.053 C 
BRANCH  17  18
ATOM     18  C   UNL     1      19.449   7.261 -17.216  1.00  0.00     0.041 C 
ATOM     19  O   UNL     1      20.359   6.395 -17.127  1.00  0.00    -0.550 OA
ATOM     20  O   UNL     1      18.371   7.042 -18.063  1.00  0.00    -0.550 OA
ENDBRANCH  17  18
ENDBRANCH  16  17
ENDBRANCH  15  16
ENDBRANCH  14  15
ENDBRANCH  13  14
ENDBRANCH  12  13
ENDBRANCH  11  12
ENDBRANCH   1  11
TORSDOF 15
ENDMDL
MODEL 3
REMARK VINA RESULT:    -3.665      1.445      5.406
REMARK INTER + INTRA:          -9.018
REMARK INTER:                  -6.900
REMARK INTRA:                  -2.118
REMARK UNBOUND:                -2.139
REMARK SMILES O=C([O-])CCCCCCCCCCCCCCC(=O)[O-]
REMARK SMILES IDX 10 1 9 2 8 3 7 4 6 5 5 6 4 7 2 8 1 9 3 10 11 11 12 12 13 13
REMARK SMILES IDX 14 14 15 15 16 16 17 17 18 18 19 19 20 20
REMARK H PARENT
REMARK Flexibility Score: inf
ROOT
ATOM      1  C   UNL     1      20.987  13.383 -16.572  1.00  0.00     0.000 C 
ENDROOT
BRANCH   1   2
ATOM      2  C   UNL     1      19.569  13.449 -15.983  1.00  0.00     0.000 C 
BRANCH   2   3
ATOM      3  C   UNL     1      18.490  13.029 -16.996  1.00  0.00     0.000 C 
BRANCH   3   4
ATOM      4  C   UNL     1      17.944  11.618 -16.726  1.00  0.00     0.000 C 
BRANCH   4   5
ATOM      5  C   UNL     1      18.542  10.561 -17.668  1.00  0.00     0.000 C 
BRANCH   5   6
ATOM      6  C   UNL     1      19.749   9.866 -17.018  1.00  0.00     0.006 C 
BRANCH   6   7
ATOM      7  C   UNL     1      19.365   8.537 -16.355  1.00  0.00     0.053 C 
BRANCH   7   8
ATOM      8  C   UNL     1      19.228   7.435 -17.360  1.00  0.00     0.041 C 
ATOM      9  O   UNL     1      18.150   6.791 -17.454  1.00  0.00    -0.550 OA
ATOM     10  O   UNL     1      20.281   7.143 -18.219  1.00  0.00    -0.550 OA
ENDBRANCH   7   8
ENDBRANCH   6   7
ENDBRANCH   5   6
ENDBRANCH   4   5
ENDBRANCH   3   4
ENDBRANCH   2   3
ENDBRANCH   1   2
BRANCH   1  11
ATOM     11  C   UNL     1      21.769  14.695 -16.386  1.00  0.00     0.000 C 
BRANCH  11  12
ATOM     12  C   UNL     1      20.844  15.904 -16.170  1.00  0.00     0.000 C 
BRANCH  12  13
ATOM     13  C   UNL     1      20.849  16.871 -17.366  1.00  0.00     0.000 C 
BRANCH  13  14
ATOM     14  C   UNL     1      19.685  16.621 -18.343  1.00  0.00     0.000 C 
BRANCH  14  15
ATOM     15  C   UNL     1      20.106  16.130 -19.740  1.00  0.00     0.000 C 
BRANCH  15  16
ATOM     16  C   UNL     1      19.713  14.669 -20.005  1.00  0.00     0.006 C 
BRANCH  16  17
ATOM     17  C   UNL     1      20.954  13.781 -20.128  1.00  0.00     0.053 C 
BRANCH  17  18
ATOM     18  C   UNL     1      20.561  12.347 -20.295  1.00  0.00     0.041 C 
ATOM     19  O   UNL     1      19.521  12.048 -20.940  1.00  0.00    -0.550 OA
ATOM     20  O   UNL     1      21.368  11.340 -19.784  1.00  0.00    -0.550 OA
ENDBRANCH  17  18
ENDBRANCH  16  17
ENDBRANCH  15  16
ENDBRANCH  14  15
ENDBRANCH  13  14
ENDBRANCH  12  13
ENDBRANCH  11  12
ENDBRANCH   1  11
TORSDOF 15
ENDMDL
MODEL 4
REMARK VINA RESULT:    -3.663      2.244      6.363
REMARK INTER + INTRA:          -9.015
REMARK INTER:                  -6.533
REMARK INTRA:                  -2.481
REMARK UNBOUND:                -2.139
REMARK SMILES O=C([O-])CCCCCCCCCCCCCCC(=O)[O-]
REMARK SMILES IDX 10 1 9 2 8 3 7 4 6 5 5 6 4 7 2 8 1 9 3 10 11 11 12 12 13 13
REMARK SMILES IDX 14 14 15 15 16 16 17 17 18 18 19 19 20 20
REMARK H PARENT
REMARK Flexibility Score: inf
ROOT
ATOM      1  C   UNL     1      18.326  12.594 -19.633  1.00  0.00     0.000 C 
ENDROOT
BRANCH   1   2
ATOM      2  C   UNL     1      19.843  12.780 -19.797  1.00  0.00     0.000 C 
BRANCH   2   3
ATOM      3  C   UNL     1      20.631  11.494 -19.490  1.00  0.00     0.000 C 
BRANCH   3   4
ATOM      4  C   UNL     1      20.039  10.260 -20.189  1.00  0.00     0.000 C 
BRANCH   4   5
ATOM      5  C   UNL     1      19.613   9.165 -19.199  1.00  0.00     0.000 C 
BRANCH   5   6
ATOM      6  C   UNL     1      20.359   9.311 -17.864  1.00  0.00     0.006 C 
BRANCH   6   7
ATOM      7  C   UNL     1      19.776   8.406 -16.771  1.00  0.00     0.053 C 
BRANCH   7   8
ATOM      8  C   UNL     1      19.735   6.972 -17.204  1.00  0.00     0.041 C 
ATOM      9  O   UNL     1      18.631   6.377 -17.326  1.00  0.00    -0.550 OA
ATOM     10  O   UNL     1      20.913   6.303 -17.508  1.00  0.00    -0.550 OA
ENDBRANCH   7   8
ENDBRANCH   6   7
ENDBRANCH   5   6
ENDBRANCH   4   5
ENDBRANCH   3   4
ENDBRANCH   2   3
ENDBRANCH   1   2
BRANCH   1  11
ATOM     11  C   UNL     1      17.827  12.988 -18.232  1.00  0.00     0.000 C 
BRANCH  11  12
ATOM     12  C   UNL     1      17.701  11.779 -17.292  1.00  0.00     0.000 C 
BRANCH  12  13
ATOM     13  C   UNL     1      18.547  11.932 -16.017  1.00  0.00     0.000 C 
BRANCH  13  14
ATOM     14  C   UNL     1      19.387  13.223 -16.008  1.00  0.00     0.000 C 
BRANCH  14  15
ATOM     15  C   UNL     1      20.901  13.011 -16.197  1.00  0.00     0.000 C 
BRANCH  15  16
ATOM     16  C   UNL     1      21.592  14.203 -16.876  1.00  0.00     0.006 C 
BRANCH  16  17
ATOM     17  C   UNL     1      21.109  15.529 -16.282  1.00  0.00     0.053 C 
BRANCH  17  18
ATOM     18  C   UNL     1      20.596  16.432 -17.358  1.00  0.00     0.041 C 
ATOM     19  O   UNL     1      19.530  16.149 -17.967  1.00  0.00    -0.550 OA
ATOM     20  O   UNL     1      21.266  17.612 -17.654  1.00  0.00    -0.550 OA
ENDBRANCH  17  18
ENDBRANCH  16  17
ENDBRANCH  15  16
ENDBRANCH  14  15
ENDBRANCH  13  14
ENDBRANCH  12  13
ENDBRANCH  11  12
ENDBRANCH   1  11
TORSDOF 15
ENDMDL
MODEL 5
REMARK VINA RESULT:    -3.660      2.185      3.284
REMARK INTER + INTRA:          -9.008
REMARK INTER:                  -6.720
REMARK INTRA:                  -2.288
REMARK UNBOUND:                -2.139
REMARK SMILES O=C([O-])CCCCCCCCCCCCCCC(=O)[O-]
REMARK SMILES IDX 10 1 9 2 8 3 7 4 6 5 5 6 4 7 2 8 1 9 3 10 11 11 12 12 13 13
REMARK SMILES IDX 14 14 15 15 16 16 17 17 18 18 19 19 20 20
REMARK H PARENT
REMARK Flexibility Score: inf
ROOT
ATOM      1  C   UNL     1      21.562  14.162 -16.345  1.00  0.00     0.000 C 
ENDROOT
BRANCH   1   2
ATOM      2  C   UNL     1      20.481  15.216 -16.054  1.00  0.00     0.000 C 
BRANCH   2   3
ATOM      3  C   UNL     1      20.663  16.494 -16.890  1.00  0.00     0.000 C 
BRANCH   3   4
ATOM      4  C   UNL     1      19.694  16.562 -18.081  1.00  0.00     0.000 C 
BRANCH   4   5
ATOM      5  C   UNL     1      20.407  16.853 -19.411  1.00  0.00     0.000 C 
BRANCH   5   6
ATOM      6  C   UNL     1      19.435  16.725 -20.594  1.00  0.00     0.006 C 
BRANCH   6   7
ATOM      7  C   UNL     1      19.556  17.899 -21.574  1.00  0.00     0.053 C 
BRANCH   7   8
ATOM      8  C   UNL     1      18.240  18.228 -22.209  1.00  0.00     0.041 C 
ATOM      9  O   UNL     1      18.145  18.322 -23.462  1.00  0.00    -0.550 OA
ATOM     10  O   UNL     1      17.109  18.396 -21.420  1.00  0.00    -0.550 OA
ENDBRANCH   7   8
ENDBRANCH   6   7
ENDBRANCH   5   6
ENDBRANCH   4   5
ENDBRANCH   3   4
ENDBRANCH   2   3
ENDBRANCH   1   2
BRANCH   1  11
ATOM     11  C   UNL     1      22.672  14.690 -17.272  1.00  0.00     0.000 C 
BRANCH  11  12
ATOM     12  C   UNL     1      22.805  13.860 -18.559  1.00  0.00     0.000 C 
BRANCH  12  13
ATOM     13  C   UNL     1      21.686  12.814 -18.705  1.00  0.00     0.000 C 
BRANCH  13  14
ATOM     14  C   UNL     1      20.617  13.222 -19.735  1.00  0.00     0.000 C 
BRANCH  14  15
ATOM     15  C   UNL     1      19.264  12.502 -19.584  1.00  0.00     0.000 C 
BRANCH  15  16
ATOM     16  C   UNL     1      18.366  13.133 -18.509  1.00  0.00     0.006 C 
BRANCH  16  17
ATOM     17  C   UNL     1      17.753  12.059 -17.607  1.00  0.00     0.053 C 
BRANCH  17  18
ATOM     18  C   UNL     1      18.711  11.670 -16.526  1.00  0.00     0.041 C 
ATOM     19  O   UNL     1      18.762  12.334 -15.456  1.00  0.00    -0.550 OA
ATOM     20  O   UNL     1      19.512  10.546 -16.677  1.00  0.00    -0.550 OA
ENDBRANCH  17  18
ENDBRANCH  16  17
ENDBRANCH  15  16
ENDBRANCH  14  15
ENDBRANCH  13  14
ENDBRANCH  12  13
ENDBRANCH  11  12
ENDBRANCH   1  11
TORSDOF 15
ENDMDL
MODEL 6
REMARK VINA RESULT:    -3.620      2.100      6.377
REMARK INTER + INTRA:          -8.934
REMARK INTER:                  -6.902
REMARK INTRA:                  -2.032
REMARK UNBOUND:                -2.139
REMARK SMILES O=C([O-])CCCCCCCCCCCCCCC(=O)[O-]
REMARK SMILES IDX 10 1 9 2 8 3 7 4 6 5 5 6 4 7 2 8 1 9 3 10 11 11 12 12 13 13
REMARK SMILES IDX 14 14 15 15 16 16 17 17 18 18 19 19 20 20
REMARK H PARENT
REMARK Flexibility Score: inf
ROOT
ATOM      1  C   UNL     1      19.164  13.476 -19.471  1.00  0.00     0.000 C 
ENDROOT
BRANCH   1   2
ATOM      2  C   UNL     1      18.587  12.146 -18.959  1.00  0.00     0.000 C 
BRANCH   2   3
ATOM      3  C   UNL     1      17.846  12.301 -17.620  1.00  0.00     0.000 C 
BRANCH   3   4
ATOM      4  C   UNL     1      18.154  11.158 -16.640  1.00  0.00     0.000 C 
BRANCH   4   5
ATOM      5  C   UNL     1      19.227  10.194 -17.170  1.00  0.00     0.000 C 
BRANCH   5   6
ATOM      6  C   UNL     1      19.321   8.939 -16.289  1.00  0.00     0.006 C 
BRANCH   6   7
ATOM      7  C   UNL     1      19.799   7.712 -17.077  1.00  0.00     0.053 C 
BRANCH   7   8
ATOM      8  C   UNL     1      18.681   7.077 -17.846  1.00  0.00     0.041 C 
ATOM      9  O   UNL     1      18.183   5.986 -17.460  1.00  0.00    -0.550 OA
ATOM     10  O   UNL     1      18.163   7.709 -18.970  1.00  0.00    -0.550 OA
ENDBRANCH   7   8
ENDBRANCH   6   7
ENDBRANCH   5   6
ENDBRANCH   4   5
ENDBRANCH   3   4
ENDBRANCH   2   3
ENDBRANCH   1   2
BRANCH   1  11
ATOM     11  C   UNL     1      20.659  13.380 -19.822  1.00  0.00     0.000 C 
BRANCH  11  12
ATOM     12  C   UNL     1      21.273  12.033 -19.408  1.00  0.00     0.000 C 
BRANCH  12  13
ATOM     13  C   UNL     1      22.444  12.196 -18.424  1.00  0.00     0.000 C 
BRANCH  13  14
ATOM     14  C   UNL     1      22.291  13.425 -17.509  1.00  0.00     0.000 C 
BRANCH  14  15
ATOM     15  C   UNL     1      21.286  13.252 -16.356  1.00  0.00     0.000 C 
BRANCH  15  16
ATOM     16  C   UNL     1      20.425  14.502 -16.120  1.00  0.00     0.006 C 
BRANCH  16  17
ATOM     17  C   UNL     1      21.248  15.779 -16.309  1.00  0.00     0.053 C 
BRANCH  17  18
ATOM     18  C   UNL     1      20.733  16.570 -17.469  1.00  0.00     0.041 C 
ATOM     19  O   UNL     1      19.504  16.567 -17.741  1.00  0.00    -0.550 OA
ATOM     20  O   UNL     1      21.603  17.350 -18.220  1.00  0.00    -0.550 OA
ENDBRANCH  17  18
ENDBRANCH  16  17
ENDBRANCH  15  16
ENDBRANCH  14  15
ENDBRANCH  13  14
ENDBRANCH  12  13
ENDBRANCH  11  12
ENDBRANCH   1  11
TORSDOF 15
ENDMDL
MODEL 7
REMARK VINA RESULT:    -3.605      1.963      6.963
REMARK INTER + INTRA:          -8.905
REMARK INTER:                  -7.826
REMARK INTRA:                  -1.079
REMARK UNBOUND:                -2.139
REMARK SMILES O=C([O-])CCCCCCCCCCCCCCC(=O)[O-]
REMARK SMILES IDX 10 1 9 2 8 3 7 4 6 5 5 6 4 7 2 8 1 9 3 10 11 11 12 12 13 13
REMARK SMILES IDX 14 14 15 15 16 16 17 17 18 18 19 19 20 20
REMARK H PARENT
REMARK Flexibility Score: inf
ROOT
ATOM      1  C   UNL     1      21.249  13.969 -16.361  1.00  0.00     0.000 C 
ENDROOT
BRANCH   1   2
ATOM      2  C   UNL     1      19.946  13.977 -15.544  1.00  0.00     0.000 C 
BRANCH   2   3
ATOM      3  C   UNL     1      19.142  12.676 -15.705  1.00  0.00     0.000 C 
BRANCH   3   4
ATOM      4  C   UNL     1      18.476  12.562 -17.085  1.00  0.00     0.000 C 
BRANCH   4   5
ATOM      5  C   UNL     1      18.356  11.108 -17.567  1.00  0.00     0.000 C 
BRANCH   5   6
ATOM      6  C   UNL     1      19.570  10.279 -17.118  1.00  0.00     0.006 C 
BRANCH   6   7
ATOM      7  C   UNL     1      19.157   8.986 -16.403  1.00  0.00     0.053 C 
BRANCH   7   8
ATOM      8  C   UNL     1      19.320   7.788 -17.287  1.00  0.00     0.041 C 
ATOM      9  O   UNL     1      18.513   7.579 -18.230  1.00  0.00    -0.550 OA
ATOM     10  O   UNL     1      20.388   6.920 -17.091  1.00  0.00    -0.550 OA
ENDBRANCH   7   8
ENDBRANCH   6   7
ENDBRANCH   5   6
ENDBRANCH   4   5
ENDBRANCH   3   4
ENDBRANCH   2   3
ENDBRANCH   1   2
BRANCH   1  11
ATOM     11  C   UNL     1      21.703  15.382 -16.769  1.00  0.00     0.000 C 
BRANCH  11  12
ATOM     12  C   UNL     1      20.555  16.403 -16.725  1.00  0.00     0.000 C 
BRANCH  12  13
ATOM     13  C   UNL     1      19.894  16.607 -18.098  1.00  0.00     0.000 C 
BRANCH  13  14
ATOM     14  C   UNL     1      20.808  16.203 -19.269  1.00  0.00     0.000 C 
BRANCH  14  15
ATOM     15  C   UNL     1      20.543  16.953 -20.587  1.00  0.00     0.000 C 
BRANCH  15  16
ATOM     16  C   UNL     1      19.115  17.511 -20.681  1.00  0.00     0.006 C 
BRANCH  16  17
ATOM     17  C   UNL     1      18.922  18.307 -21.975  1.00  0.00     0.053 C 
BRANCH  17  18
ATOM     18  C   UNL     1      17.574  18.035 -22.563  1.00  0.00     0.041 C 
ATOM     19  O   UNL     1      17.416  18.039 -23.813  1.00  0.00    -0.550 OA
ATOM     20  O   UNL     1      16.502  17.727 -21.735  1.00  0.00    -0.550 OA
ENDBRANCH  17  18
ENDBRANCH  16  17
ENDBRANCH  15  16
ENDBRANCH  14  15
ENDBRANCH  13  14
ENDBRANCH  12  13
ENDBRANCH  11  12
ENDBRANCH   1  11
TORSDOF 15
ENDMDL
MODEL 8
REMARK VINA RESULT:    -3.598      2.651      4.972
REMARK INTER + INTRA:          -8.893
REMARK INTER:                  -7.034
REMARK INTRA:                  -1.859
REMARK UNBOUND:                -2.139
REMARK SMILES O=C([O-])CCCCCCCCCCCCCCC(=O)[O-]
REMARK SMILES IDX 10 1 9 2 8 3 7 4 6 5 5 6 4 7 2 8 1 9 3 10 11 11 12 12 13 13
REMARK SMILES IDX 14 14 15 15 16 16 17 17 18 18 19 19 20 20
REMARK H PARENT
REMARK Flexibility Score: inf
ROOT
ATOM      1  C   UNL     1      18.738  11.570 -18.821  1.00  0.00     0.000 C 
ENDROOT
BRANCH   1   2
ATOM      2  C   UNL     1      17.569  11.833 -17.858  1.00  0.00     0.000 C 
BRANCH   2   3
ATOM      3  C   UNL     1      17.973  11.671 -16.382  1.00  0.00     0.000 C 
BRANCH   3   4
ATOM      4  C   UNL     1      19.439  12.057 -16.127  1.00  0.00     0.000 C 
BRANCH   4   5
ATOM      5  C   UNL     1      19.597  13.515 -15.668  1.00  0.00     0.000 C 
BRANCH   5   6
ATOM      6  C   UNL     1      20.729  14.213 -16.438  1.00  0.00     0.006 C 
BRANCH   6   7
ATOM      7  C   UNL     1      20.260  14.754 -17.795  1.00  0.00     0.053 C 
BRANCH   7   8
ATOM      8  C   UNL     1      20.113  16.245 -17.776  1.00  0.00     0.041 C 
ATOM      9  O   UNL     1      20.538  16.913 -16.796  1.00  0.00    -0.550 OA
ATOM     10  O   UNL     1      19.539  16.901 -18.857  1.00  0.00    -0.550 OA
ENDBRANCH   7   8
ENDBRANCH   6   7
ENDBRANCH   5   6
ENDBRANCH   4   5
ENDBRANCH   3   4
ENDBRANCH   2   3
ENDBRANCH   1   2
BRANCH   1  11
ATOM     11  C   UNL     1      18.510  10.333 -19.707  1.00  0.00     0.000 C 
BRANCH  11  12
ATOM     12  C   UNL     1      19.750   9.428 -19.781  1.00  0.00     0.000 C 
BRANCH  12  13
ATOM     13  C   UNL     1      20.725   9.666 -18.616  1.00  0.00     0.000 C 
BRANCH  13  14
ATOM     14  C   UNL     1      20.777   8.487 -17.627  1.00  0.00     0.000 C 
BRANCH  14  15
ATOM     15  C   UNL     1      19.501   8.289 -16.788  1.00  0.00     0.000 C 
BRANCH  15  16
ATOM     16  C   UNL     1      18.681   7.065 -17.225  1.00  0.00     0.006 C 
BRANCH  16  17
ATOM     17  C   UNL     1      19.580   5.838 -17.403  1.00  0.00     0.053 C 
BRANCH  17  18
ATOM     18  C   UNL     1      18.787   4.673 -17.904  1.00  0.00     0.041 C 
ATOM     19  O   UNL     1      17.548   4.610 -17.684  1.00  0.00    -0.550 OA
ATOM     20  O   UNL     1      19.405   3.683 -18.656  1.00  0.00    -0.550 OA
ENDBRANCH  17  18
ENDBRANCH  16  17
ENDBRANCH  15  16
ENDBRANCH  14  15
ENDBRANCH  13  14
ENDBRANCH  12  13
ENDBRANCH  11  12
ENDBRANCH   1  11
TORSDOF 15
ENDMDL
MODEL 9
REMARK VINA RESULT:    -3.546      1.982      6.766
REMARK INTER + INTRA:          -8.796
REMARK INTER:                  -6.992
REMARK INTRA:                  -1.803
REMARK UNBOUND:                -2.139
REMARK SMILES O=C([O-])CCCCCCCCCCCCCCC(=O)[O-]
REMARK SMILES IDX 10 1 9 2 8 3 7 4 6 5 5 6 4 7 2 8 1 9 3 10 11 11 12 12 13 13
REMARK SMILES IDX 14 14 15 15 16 16 17 17 18 18 19 19 20 20
REMARK H PARENT
REMARK Flexibility Score: inf
ROOT
ATOM      1  C   UNL     1      18.299  12.582 -17.871  1.00  0.00     0.000 C 
ENDROOT
BRANCH   1   2
ATOM      2  C   UNL     1      17.349  11.677 -18.673  1.00  0.00     0.000 C 
BRANCH   2   3
ATOM      3  C   UNL     1      18.065  10.936 -19.815  1.00  0.00     0.000 C 
BRANCH   3   4
ATOM      4  C   UNL     1      18.388   9.476 -19.460  1.00  0.00     0.000 C 
BRANCH   4   5
ATOM      5  C   UNL     1      19.876   9.256 -19.150  1.00  0.00     0.000 C 
BRANCH   5   6
ATOM      6  C   UNL     1      20.143   9.357 -17.640  1.00  0.00     0.006 C 
BRANCH   6   7
ATOM      7  C   UNL     1      19.175   8.493 -16.820  1.00  0.00     0.053 C 
BRANCH   7   8
ATOM      8  C   UNL     1      19.315   7.039 -17.151  1.00  0.00     0.041 C 
ATOM      9  O   UNL     1      18.306   6.363 -17.483  1.00  0.00    -0.550 OA
ATOM     10  O   UNL     1      20.567   6.437 -17.127  1.00  0.00    -0.550 OA
ENDBRANCH   7   8
ENDBRANCH   6   7
ENDBRANCH   5   6
ENDBRANCH   4   5
ENDBRANCH   3   4
ENDBRANCH   2   3
ENDBRANCH   1   2
BRANCH   1  11
ATOM     11  C   UNL     1      18.245  12.307 -16.358  1.00  0.00     0.000 C 
BRANCH  11  12
ATOM     12  C   UNL     1      19.506  12.797 -15.627  1.00  0.00     0.000 C 
BRANCH  12  13
ATOM     13  C   UNL     1      20.720  12.917 -16.563  1.00  0.00     0.000 C 
BRANCH  13  14
ATOM     14  C   UNL     1      21.452  14.265 -16.425  1.00  0.00     0.000 C 
BRANCH  14  15
ATOM     15  C   UNL     1      20.534  15.478 -16.187  1.00  0.00     0.000 C 
BRANCH  15  16
ATOM     16  C   UNL     1      19.883  15.999 -17.477  1.00  0.00     0.006 C 
BRANCH  16  17
ATOM     17  C   UNL     1      20.838  16.923 -18.238  1.00  0.00     0.053 C 
BRANCH  17  18
ATOM     18  C   UNL     1      20.523  16.915 -19.701  1.00  0.00     0.041 C 
ATOM     19  O   UNL     1      19.361  17.193 -20.099  1.00  0.00    -0.550 OA
ATOM     20  O   UNL     1      21.524  16.651 -20.626  1.00  0.00    -0.550 OA
ENDBRANCH  17  18
ENDBRANCH  16  17
ENDBRANCH  15  16
ENDBRANCH  14  15
ENDBRANCH  13  14
ENDBRANCH  12  13
ENDBRANCH  11  12
ENDBRANCH   1  11
TORSDOF 15
ENDMDL
