MODEL 1
REMARK VINA RESULT:    -3.002      0.000      0.000
REMARK INTER + INTRA:          -3.880
REMARK INTER:                  -3.705
REMARK INTRA:                  -0.175
REMARK UNBOUND:                -0.175
REMARK SMILES CCCCCC(=O)[O-]
REMARK SMILES IDX 4 1 5 2 6 3 7 4 8 5 3 6 2 7 1 8
REMARK H PARENT
REMARK Flexibility Score: inf
ROOT
ATOM      1  C   UNL     1      -1.150   8.715  38.908  1.00  0.00     0.006 C 
ENDROOT
BRANCH   1   2
ATOM      2  C   UNL     1      -2.670   8.697  39.122  1.00  0.00     0.053 C 
BRANCH   2   3
ATOM      3  C   UNL     1      -3.082   7.637  40.098  1.00  0.00     0.041 C 
ATOM      4  O   UNL     1      -3.060   7.872  41.335  1.00  0.00    -0.550 OA
ATOM      5  O   UNL     1      -3.458   6.380  39.643  1.00  0.00    -0.550 OA
ENDBRANCH   2   3
ENDBRANCH   1   2
BRANCH   1   6
ATOM      6  C   UNL     1      -0.552  10.115  39.107  1.00  0.00     0.000 C 
BRANCH   6   7
ATOM      7  C   UNL     1       0.629  10.073  40.083  1.00  0.00    -0.003 C 
ATOM      8  C   UNL     1       0.245   9.371  41.382  1.00  0.00     0.004 C 
ENDBRANCH   6   7
ENDBRANCH   1   6
TORSDOF 4
ENDMDL
MODEL 2
REMARK VINA RESULT:    -2.941      2.843      4.136
REMARK INTER + INTRA:          -3.804
REMARK INTER:                  -3.590
REMARK INTRA:                  -0.214
REMARK UNBOUND:                -0.175
REMARK SMILES CCCCCC(=O)[O-]
REMARK SMILES IDX 4 1 5 2 6 3 7 4 8 5 3 6 2 7 1 8
REMARK H PARENT
REMARK Flexibility Score: inf
ROOT
ATOM      1  C   UNL     1      -1.845   8.451  39.330  1.00  0.00     0.006 C 
ENDROOT
BRANCH   1   2
ATOM      2  C   UNL     1      -2.293   9.409  38.218  1.00  0.00     0.053 C 
BRANCH   2   3
ATOM      3  C   UNL     1      -1.705   9.035  36.891  1.00  0.00     0.041 C 
ATOM      4  O   UNL     1      -1.413   7.836  36.643  1.00  0.00    -0.550 OA
ATOM      5  O   UNL     1      -1.449  10.017  35.943  1.00  0.00    -0.550 OA
ENDBRANCH   2   3
ENDBRANCH   1   2
BRANCH   1   6
ATOM      6  C   UNL     1      -3.032   7.893  40.130  1.00  0.00     0.000 C 
BRANCH   6   7
ATOM      7  C   UNL     1      -3.386   6.476  39.667  1.00  0.00    -0.003 C 
ATOM      8  C   UNL     1      -2.130   5.668  39.352  1.00  0.00     0.004 C 
ENDBRANCH   6   7
ENDBRANCH   1   6
TORSDOF 4
ENDMDL
MODEL 3
REMARK VINA RESULT:    -2.929      1.968      2.890
REMARK INTER + INTRA:          -3.789
REMARK INTER:                  -3.576
REMARK INTRA:                  -0.213
REMARK UNBOUND:                -0.175
REMARK SMILES CCCCCC(=O)[O-]
REMARK SMILES IDX 4 1 5 2 6 3 7 4 8 5 3 6 2 7 1 8
REMARK H PARENT
REMARK Flexibility Score: inf
ROOT
ATOM      1  C   UNL     1      -1.821   8.849  39.214  1.00  0.00     0.006 C 
ENDROOT
BRANCH   1   2
ATOM      2  C   UNL     1      -2.964   7.978  39.752  1.00  0.00     0.053 C 
BRANCH   2   3
ATOM      3  C   UNL     1      -2.775   6.533  39.402  1.00  0.00     0.041 C 
ATOM      4  O   UNL     1      -3.714   5.711  39.575  1.00  0.00    -0.550 OA
ATOM      5  O   UNL     1      -1.553   6.090  38.915  1.00  0.00    -0.550 OA
ENDBRANCH   2   3
ENDBRANCH   1   2
BRANCH   1   6
ATOM      6  C   UNL     1      -2.246   9.674  37.991  1.00  0.00     0.000 C 
BRANCH   6   7
ATOM      7  C   UNL     1      -1.244   9.509  36.843  1.00  0.00    -0.003 C 
ATOM      8  C   UNL     1      -1.484   8.206  36.085  1.00  0.00     0.004 C 
ENDBRANCH   6   7
ENDBRANCH   1   6
TORSDOF 4
ENDMDL
MODEL 4
REMARK VINA RESULT:    -2.919     12.859     13.715
REMARK INTER + INTRA:          -3.777
REMARK INTER:                  -3.574
REMARK INTRA:                  -0.203
REMARK UNBOUND:                -0.175
REMARK SMILES CCCCCC(=O)[O-]
REMARK SMILES IDX 4 1 5 2 6 3 7 4 8 5 3 6 2 7 1 8
REMARK H PARENT
REMARK Flexibility Score: inf
ROOT
ATOM      1  C   UNL     1       1.944   8.761  27.093  1.00  0.00     0.006 C 
ENDROOT
BRANCH   1   2
ATOM      2  C   UNL     1       3.046   8.424  28.105  1.00  0.00     0.053 C 
BRANCH   2   3
ATOM      3  C   UNL     1       3.236   9.522  29.107  1.00  0.00     0.041 C 
ATOM      4  O   UNL     1       4.340  10.123  29.186  1.00  0.00    -0.550 OA
ATOM      5  O   UNL     1       2.205   9.859  29.974  1.00  0.00    -0.550 OA
ENDBRANCH   2   3
ENDBRANCH   1   2
BRANCH   1   6
ATOM      6  C   UNL     1       2.178  10.116  26.408  1.00  0.00     0.000 C 
BRANCH   6   7
ATOM      7  C   UNL     1       3.245  10.000  25.314  1.00  0.00    -0.003 C 
ATOM      8  C   UNL     1       2.891   8.905  24.313  1.00  0.00     0.004 C 
ENDBRANCH   6   7
ENDBRANCH   1   6
TORSDOF 4
ENDMDL
MODEL 5
REMARK VINA RESULT:    -2.885      3.108      4.298
REMARK INTER + INTRA:          -3.735
REMARK INTER:                  -3.652
REMARK INTRA:                  -0.084
REMARK UNBOUND:                -0.175
REMARK SMILES CCCCCC(=O)[O-]
REMARK SMILES IDX 4 1 5 2 6 3 7 4 8 5 3 6 2 7 1 8
REMARK H PARENT
REMARK Flexibility Score: inf
ROOT
ATOM      1  C   UNL     1      -2.293   9.436  38.207  1.00  0.00     0.006 C 
ENDROOT
BRANCH   1   2
ATOM      2  C   UNL     1      -1.106   9.973  37.395  1.00  0.00     0.053 C 
BRANCH   2   3
ATOM      3  C   UNL     1      -0.946   9.245  36.095  1.00  0.00     0.041 C 
ATOM      4  O   UNL     1      -0.181   9.700  35.205  1.00  0.00    -0.550 OA
ATOM      5  O   UNL     1      -1.668   8.083  35.855  1.00  0.00    -0.550 OA
ENDBRANCH   2   3
ENDBRANCH   1   2
BRANCH   1   6
ATOM      6  C   UNL     1      -1.843   8.554  39.381  1.00  0.00     0.000 C 
BRANCH   6   7
ATOM      7  C   UNL     1      -3.049   7.931  40.092  1.00  0.00    -0.003 C 
ATOM      8  C   UNL     1      -3.227   6.468  39.696  1.00  0.00     0.004 C 
ENDBRANCH   6   7
ENDBRANCH   1   6
TORSDOF 4
ENDMDL
MODEL 6
REMARK VINA RESULT:    -2.868      2.200      3.863
REMARK INTER + INTRA:          -3.714
REMARK INTER:                  -3.452
REMARK INTRA:                  -0.262
REMARK UNBOUND:                -0.175
REMARK SMILES CCCCCC(=O)[O-]
REMARK SMILES IDX 4 1 5 2 6 3 7 4 8 5 3 6 2 7 1 8
REMARK H PARENT
REMARK Flexibility Score: inf
ROOT
ATOM      1  C   UNL     1      -2.137   8.579  38.698  1.00  0.00     0.006 C 
ENDROOT
BRANCH   1   2
ATOM      2  C   UNL     1      -1.061   9.603  39.081  1.00  0.00     0.053 C 
BRANCH   2   3
ATOM      3  C   UNL     1      -0.043   9.019  40.013  1.00  0.00     0.041 C 
ATOM      4  O   UNL     1       0.523   7.930  39.730  1.00  0.00    -0.550 OA
ATOM      5  O   UNL     1       0.257   9.661  41.207  1.00  0.00    -0.550 OA
ENDBRANCH   2   3
ENDBRANCH   1   2
BRANCH   1   6
ATOM      6  C   UNL     1      -2.960   8.120  39.911  1.00  0.00     0.000 C 
BRANCH   6   7
ATOM      7  C   UNL     1      -3.089   6.593  39.940  1.00  0.00    -0.003 C 
ATOM      8  C   UNL     1      -2.317   5.953  38.790  1.00  0.00     0.004 C 
ENDBRANCH   6   7
ENDBRANCH   1   6
TORSDOF 4
ENDMDL
MODEL 7
REMARK VINA RESULT:    -2.861      2.136      2.809
REMARK INTER + INTRA:          -3.706
REMARK INTER:                  -3.605
REMARK INTRA:                  -0.101
REMARK UNBOUND:                -0.175
REMARK SMILES CCCCCC(=O)[O-]
REMARK SMILES IDX 4 1 5 2 6 3 7 4 8 5 3 6 2 7 1 8
REMARK H PARENT
REMARK Flexibility Score: inf
ROOT
ATOM      1  C   UNL     1      -1.862   8.345  38.948  1.00  0.00     0.006 C 
ENDROOT
BRANCH   1   2
ATOM      2  C   UNL     1      -3.013   7.798  39.803  1.00  0.00     0.053 C 
BRANCH   2   3
ATOM      3  C   UNL     1      -2.604   7.612  41.233  1.00  0.00     0.041 C 
ATOM      4  O   UNL     1      -3.369   7.982  42.163  1.00  0.00    -0.550 OA
ATOM      5  O   UNL     1      -1.366   7.062  41.537  1.00  0.00    -0.550 OA
ENDBRANCH   2   3
ENDBRANCH   1   2
BRANCH   1   6
ATOM      6  C   UNL     1      -2.258   9.616  38.184  1.00  0.00     0.000 C 
BRANCH   6   7
ATOM      7  C   UNL     1      -1.602   9.651  36.799  1.00  0.00    -0.003 C 
ATOM      8  C   UNL     1      -1.410   8.242  36.245  1.00  0.00     0.004 C 
ENDBRANCH   6   7
ENDBRANCH   1   6
TORSDOF 4
ENDMDL
MODEL 8
REMARK VINA RESULT:    -2.809      2.568      3.765
REMARK INTER + INTRA:          -3.641
REMARK INTER:                  -3.398
REMARK INTRA:                  -0.243
REMARK UNBOUND:                -0.175
REMARK SMILES CCCCCC(=O)[O-]
REMARK SMILES IDX 4 1 5 2 6 3 7 4 8 5 3 6 2 7 1 8
REMARK H PARENT
REMARK Flexibility Score: inf
ROOT
ATOM      1  C   UNL     1      -0.940   8.097  38.767  1.00  0.00     0.006 C 
ENDROOT
BRANCH   1   2
ATOM      2  C   UNL     1      -0.219   7.982  40.116  1.00  0.00     0.053 C 
BRANCH   2   3
ATOM      3  C   UNL     1       0.349   9.297  40.558  1.00  0.00     0.041 C 
ATOM      4  O   UNL     1       0.227   9.669  41.755  1.00  0.00    -0.550 OA
ATOM      5  O   UNL     1       0.982  10.125  39.640  1.00  0.00    -0.550 OA
ENDBRANCH   2   3
ENDBRANCH   1   2
BRANCH   1   6
ATOM      6  C   UNL     1      -2.249   8.894  38.874  1.00  0.00     0.000 C 
BRANCH   6   7
ATOM      7  C   UNL     1      -2.258  10.068  37.889  1.00  0.00    -0.003 C 
ATOM      8  C   UNL     1      -1.406   9.764  36.661  1.00  0.00     0.004 C 
ENDBRANCH   6   7
ENDBRANCH   1   6
TORSDOF 4
ENDMDL
MODEL 9
REMARK VINA RESULT:    -2.801      3.318      4.233
REMARK INTER + INTRA:          -3.631
REMARK INTER:                  -3.514
REMARK INTRA:                  -0.117
REMARK UNBOUND:                -0.175
REMARK SMILES CCCCCC(=O)[O-]
REMARK SMILES IDX 4 1 5 2 6 3 7 4 8 5 3 6 2 7 1 8
REMARK H PARENT
REMARK Flexibility Score: inf
ROOT
ATOM      1  C   UNL     1      -2.270   9.396  38.393  1.00  0.00     0.006 C 
ENDROOT
BRANCH   1   2
ATOM      2  C   UNL     1      -0.919  10.124  38.389  1.00  0.00     0.053 C 
BRANCH   2   3
ATOM      3  C   UNL     1      -0.187   9.931  37.096  1.00  0.00     0.041 C 
ATOM      4  O   UNL     1      -0.821   9.895  36.008  1.00  0.00    -0.550 OA
ATOM      5  O   UNL     1       1.191   9.757  37.096  1.00  0.00    -0.550 OA
ENDBRANCH   2   3
ENDBRANCH   1   2
BRANCH   1   6
ATOM      6  C   UNL     1      -2.162   7.975  38.966  1.00  0.00     0.000 C 
BRANCH   6   7
ATOM      7  C   UNL     1      -3.103   7.794  40.162  1.00  0.00    -0.003 C 
ATOM      8  C   UNL     1      -2.319   7.586  41.455  1.00  0.00     0.004 C 
ENDBRANCH   6   7
ENDBRANCH   1   6
TORSDOF 4
ENDMDL
