MODEL 1
REMARK VINA RESULT:    -4.501      0.000      0.000
REMARK INTER + INTRA:          -5.419
REMARK INTER:                  -5.291
REMARK INTRA:                  -0.128
REMARK UNBOUND:                -0.128
REMARK SMILES O=C([O-])C=Cc1ccc(O)c(O)c1
REMARK SMILES IDX 6 1 13 2 7 3 11 4 8 5 9 6 5 7 4 8 2 9 1 10 3 11 12 12 10 14
REMARK H PARENT 12 13 10 15
REMARK Flexibility Score: inf
ROOT
ATOM      1  C   UNL     1      29.892  -5.713 -31.180  1.00  0.00    -0.022 A 
ATOM      2  C   UNL     1      29.886  -6.955 -31.838  1.00  0.00     0.058 A 
ATOM      3  C   UNL     1      28.827  -5.399 -30.312  1.00  0.00     0.012 A 
ATOM      4  C   UNL     1      28.855  -7.880 -31.616  1.00  0.00     0.157 A 
ATOM      5  C   UNL     1      27.798  -6.320 -30.093  1.00  0.00     0.051 A 
ATOM      6  C   UNL     1      27.808  -7.559 -30.737  1.00  0.00     0.157 A 
ENDROOT
BRANCH   1   7
ATOM      7  C   UNL     1      31.002  -4.768 -31.456  1.00  0.00     0.010 C 
ATOM      8  C   UNL     1      31.487  -4.525 -32.682  1.00  0.00     0.025 C 
BRANCH   8   9
ATOM      9  C   UNL     1      32.582  -3.571 -32.920  1.00  0.00     0.064 C 
ATOM     10  O   UNL     1      33.785  -3.950 -32.941  1.00  0.00    -0.545 OA
ATOM     11  O   UNL     1      32.288  -2.230 -33.125  1.00  0.00    -0.545 OA
ENDBRANCH   8   9
ENDBRANCH   1   7
BRANCH   4  12
ATOM     12  O   UNL     1      28.867  -9.112 -32.268  1.00  0.00    -0.504 OA
ATOM     13  H   UNL     1      28.024  -9.510 -32.667  1.00  0.00     0.293 HD
ENDBRANCH   4  12
BRANCH   6  14
ATOM     14  O   UNL     1      26.768  -8.456 -30.496  1.00  0.00    -0.504 OA
ATOM     15  H   UNL     1      25.978  -8.220 -29.906  1.00  0.00     0.293 HD
ENDBRANCH   6  14
TORSDOF 4
ENDMDL
MODEL 2
REMARK VINA RESULT:    -4.320      5.291      6.964
REMARK INTER + INTRA:          -5.206
REMARK INTER:                  -5.074
REMARK INTRA:                  -0.131
REMARK UNBOUND:                -0.128
REMARK SMILES O=C([O-])C=Cc1ccc(O)c(O)c1
REMARK SMILES IDX 6 1 13 2 7 3 11 4 8 5 9 6 5 7 4 8 2 9 1 10 3 11 12 12 10 14
REMARK H PARENT 12 13 10 15
REMARK Flexibility Score: inf
ROOT
ATOM      1  C   UNL     1      32.852  -8.398 -28.741  1.00  0.00    -0.022 A 
ATOM      2  C   UNL     1      31.696  -8.577 -29.520  1.00  0.00     0.058 A 
ATOM      3  C   UNL     1      34.073  -8.125 -29.390  1.00  0.00     0.012 A 
ATOM      4  C   UNL     1      31.747  -8.459 -30.917  1.00  0.00     0.157 A 
ATOM      5  C   UNL     1      34.124  -8.009 -30.782  1.00  0.00     0.051 A 
ATOM      6  C   UNL     1      32.968  -8.171 -31.549  1.00  0.00     0.157 A 
ENDROOT
BRANCH   1   7
ATOM      7  C   UNL     1      32.745  -8.542 -27.268  1.00  0.00     0.010 C 
ATOM      8  C   UNL     1      32.001  -9.478 -26.663  1.00  0.00     0.025 C 
BRANCH   8   9
ATOM      9  C   UNL     1      31.928  -9.599 -25.197  1.00  0.00     0.064 C 
ATOM     10  O   UNL     1      32.667  -8.905 -24.448  1.00  0.00    -0.545 OA
ATOM     11  O   UNL     1      31.030 -10.492 -24.629  1.00  0.00    -0.545 OA
ENDBRANCH   8   9
ENDBRANCH   1   7
BRANCH   4  12
ATOM     12  O   UNL     1      30.590  -8.629 -31.677  1.00  0.00    -0.504 OA
ATOM     13  H   UNL     1      30.054  -7.836 -32.011  1.00  0.00     0.293 HD
ENDBRANCH   4  12
BRANCH   6  14
ATOM     14  O   UNL     1      33.051  -8.048 -32.935  1.00  0.00    -0.504 OA
ATOM     15  H   UNL     1      33.940  -8.032 -33.422  1.00  0.00     0.293 HD
ENDBRANCH   6  14
TORSDOF 4
ENDMDL
MODEL 3
REMARK VINA RESULT:    -4.205      3.097      4.470
REMARK INTER + INTRA:          -5.070
REMARK INTER:                  -4.942
REMARK INTRA:                  -0.128
REMARK UNBOUND:                -0.128
REMARK SMILES O=C([O-])C=Cc1ccc(O)c(O)c1
REMARK SMILES IDX 6 1 13 2 7 3 11 4 8 5 9 6 5 7 4 8 2 9 1 10 3 11 12 12 10 14
REMARK H PARENT 12 13 10 15
REMARK Flexibility Score: inf
ROOT
ATOM      1  C   UNL     1      28.547  -5.359 -30.125  1.00  0.00    -0.022 A 
ATOM      2  C   UNL     1      27.588  -6.358 -29.883  1.00  0.00     0.058 A 
ATOM      3  C   UNL     1      29.581  -5.619 -31.045  1.00  0.00     0.012 A 
ATOM      4  C   UNL     1      27.640  -7.583 -30.565  1.00  0.00     0.157 A 
ATOM      5  C   UNL     1      29.635  -6.840 -31.723  1.00  0.00     0.051 A 
ATOM      6  C   UNL     1      28.669  -7.822 -31.491  1.00  0.00     0.157 A 
ENDROOT
BRANCH   1   7
ATOM      7  C   UNL     1      28.451  -4.085 -29.370  1.00  0.00     0.010 C 
ATOM      8  C   UNL     1      27.292  -3.478 -29.076  1.00  0.00     0.025 C 
BRANCH   8   9
ATOM      9  C   UNL     1      27.235  -2.219 -28.315  1.00  0.00     0.064 C 
ATOM     10  O   UNL     1      27.287  -2.215 -27.056  1.00  0.00    -0.545 OA
ATOM     11  O   UNL     1      27.123  -1.014 -28.996  1.00  0.00    -0.545 OA
ENDBRANCH   8   9
ENDBRANCH   1   7
BRANCH   4  12
ATOM     12  O   UNL     1      26.677  -8.561 -30.323  1.00  0.00    -0.504 OA
ATOM     13  H   UNL     1      25.972  -8.794 -31.013  1.00  0.00     0.293 HD
ENDBRANCH   4  12
BRANCH   6  14
ATOM     14  O   UNL     1      28.748  -9.029 -32.185  1.00  0.00    -0.504 OA
ATOM     15  H   UNL     1      29.361  -9.780 -31.889  1.00  0.00     0.293 HD
ENDBRANCH   6  14
TORSDOF 4
ENDMDL
MODEL 4
REMARK VINA RESULT:    -4.132     14.669     16.091
REMARK INTER + INTRA:          -4.984
REMARK INTER:                  -4.861
REMARK INTRA:                  -0.124
REMARK UNBOUND:                -0.128
REMARK SMILES O=C([O-])C=Cc1ccc(O)c(O)c1
REMARK SMILES IDX 6 1 13 2 7 3 11 4 8 5 9 6 5 7 4 8 2 9 1 10 3 11 12 12 10 14
REMARK H PARENT 12 13 10 15
REMARK Flexibility Score: inf
ROOT
ATOM      1  C   UNL     1      23.960   5.695 -23.725  1.00  0.00    -0.022 A 
ATOM      2  C   UNL     1      23.400   4.546 -24.308  1.00  0.00     0.058 A 
ATOM      3  C   UNL     1      24.433   6.721 -24.566  1.00  0.00     0.012 A 
ATOM      4  C   UNL     1      23.286   4.431 -25.701  1.00  0.00     0.157 A 
ATOM      5  C   UNL     1      24.321   6.607 -25.954  1.00  0.00     0.051 A 
ATOM      6  C   UNL     1      23.747   5.469 -26.526  1.00  0.00     0.157 A 
ENDROOT
BRANCH   1   7
ATOM      7  C   UNL     1      24.065   5.762 -22.246  1.00  0.00     0.010 C 
ATOM      8  C   UNL     1      23.169   6.377 -21.462  1.00  0.00     0.025 C 
BRANCH   8   9
ATOM      9  C   UNL     1      23.300   6.413 -19.996  1.00  0.00     0.064 C 
ATOM     10  O   UNL     1      23.554   7.490 -19.390  1.00  0.00    -0.545 OA
ATOM     11  O   UNL     1      23.141   5.243 -19.267  1.00  0.00    -0.545 OA
ENDBRANCH   8   9
ENDBRANCH   1   7
BRANCH   4  12
ATOM     12  O   UNL     1      22.718   3.289 -26.266  1.00  0.00    -0.504 OA
ATOM     13  H   UNL     1      22.140   3.339 -27.097  1.00  0.00     0.293 HD
ENDBRANCH   4  12
BRANCH   6  14
ATOM     14  O   UNL     1      23.648   5.385 -27.915  1.00  0.00    -0.504 OA
ATOM     15  H   UNL     1      22.770   5.523 -28.402  1.00  0.00     0.293 HD
ENDBRANCH   6  14
TORSDOF 4
ENDMDL
MODEL 5
REMARK VINA RESULT:    -4.103     17.283     18.699
REMARK INTER + INTRA:          -4.950
REMARK INTER:                  -4.816
REMARK INTRA:                  -0.134
REMARK UNBOUND:                -0.128
REMARK SMILES O=C([O-])C=Cc1ccc(O)c(O)c1
REMARK SMILES IDX 6 1 13 2 7 3 11 4 8 5 9 6 5 7 4 8 2 9 1 10 3 11 12 12 10 14
REMARK H PARENT 12 13 10 15
REMARK Flexibility Score: inf
ROOT
ATOM      1  C   UNL     1      23.562   7.102 -20.618  1.00  0.00    -0.022 A 
ATOM      2  C   UNL     1      22.785   6.579 -19.571  1.00  0.00     0.058 A 
ATOM      3  C   UNL     1      24.243   8.319 -20.416  1.00  0.00     0.012 A 
ATOM      4  C   UNL     1      22.708   7.240 -18.336  1.00  0.00     0.157 A 
ATOM      5  C   UNL     1      24.165   8.978 -19.186  1.00  0.00     0.051 A 
ATOM      6  C   UNL     1      23.404   8.444 -18.144  1.00  0.00     0.157 A 
ENDROOT
BRANCH   1   7
ATOM      7  C   UNL     1      23.602   6.369 -21.908  1.00  0.00     0.010 C 
ATOM      8  C   UNL     1      22.980   5.201 -22.121  1.00  0.00     0.025 C 
BRANCH   8   9
ATOM      9  C   UNL     1      23.033   4.507 -23.419  1.00  0.00     0.064 C 
ATOM     10  O   UNL     1      24.099   4.461 -24.091  1.00  0.00    -0.545 OA
ATOM     11  O   UNL     1      21.890   3.892 -23.911  1.00  0.00    -0.545 OA
ENDBRANCH   8   9
ENDBRANCH   1   7
BRANCH   4  12
ATOM     12  O   UNL     1      21.940   6.704 -17.302  1.00  0.00    -0.504 OA
ATOM     13  H   UNL     1      22.327   6.034 -16.647  1.00  0.00     0.293 HD
ENDBRANCH   4  12
BRANCH   6  14
ATOM     14  O   UNL     1      23.348   9.124 -16.928  1.00  0.00    -0.504 OA
ATOM     15  H   UNL     1      22.880  10.018 -16.832  1.00  0.00     0.293 HD
ENDBRANCH   6  14
TORSDOF 4
ENDMDL
MODEL 6
REMARK VINA RESULT:    -4.035      1.688      2.082
REMARK INTER + INTRA:          -4.870
REMARK INTER:                  -4.730
REMARK INTRA:                  -0.140
REMARK UNBOUND:                -0.128
REMARK SMILES O=C([O-])C=Cc1ccc(O)c(O)c1
REMARK SMILES IDX 6 1 13 2 7 3 11 4 8 5 9 6 5 7 4 8 2 9 1 10 3 11 12 12 10 14
REMARK H PARENT 12 13 10 15
REMARK Flexibility Score: inf
ROOT
ATOM      1  C   UNL     1      29.339  -5.583 -30.559  1.00  0.00    -0.022 A 
ATOM      2  C   UNL     1      29.457  -6.720 -31.376  1.00  0.00     0.058 A 
ATOM      3  C   UNL     1      28.245  -5.493 -29.676  1.00  0.00     0.012 A 
ATOM      4  C   UNL     1      28.521  -7.761 -31.297  1.00  0.00     0.157 A 
ATOM      5  C   UNL     1      27.311  -6.529 -29.598  1.00  0.00     0.051 A 
ATOM      6  C   UNL     1      27.444  -7.664 -30.400  1.00  0.00     0.157 A 
ENDROOT
BRANCH   1   7
ATOM      7  C   UNL     1      30.352  -4.506 -30.689  1.00  0.00     0.010 C 
ATOM      8  C   UNL     1      30.394  -3.423 -29.900  1.00  0.00     0.025 C 
BRANCH   8   9
ATOM      9  C   UNL     1      31.421  -2.379 -30.051  1.00  0.00     0.064 C 
ATOM     10  O   UNL     1      31.291  -1.252 -29.502  1.00  0.00    -0.545 OA
ATOM     11  O   UNL     1      32.553  -2.641 -30.810  1.00  0.00    -0.545 OA
ENDBRANCH   8   9
ENDBRANCH   1   7
BRANCH   4  12
ATOM     12  O   UNL     1      28.657  -8.888 -32.106  1.00  0.00    -0.504 OA
ATOM     13  H   UNL     1      29.162  -8.853 -32.984  1.00  0.00     0.293 HD
ENDBRANCH   4  12
BRANCH   6  14
ATOM     14  O   UNL     1      26.497  -8.682 -30.298  1.00  0.00    -0.504 OA
ATOM     15  H   UNL     1      26.461  -9.452 -30.956  1.00  0.00     0.293 HD
ENDBRANCH   6  14
TORSDOF 4
ENDMDL
MODEL 7
REMARK VINA RESULT:    -4.031     17.213     18.532
REMARK INTER + INTRA:          -4.865
REMARK INTER:                  -4.725
REMARK INTRA:                  -0.140
REMARK UNBOUND:                -0.128
REMARK SMILES O=C([O-])C=Cc1ccc(O)c(O)c1
REMARK SMILES IDX 6 1 13 2 7 3 11 4 8 5 9 6 5 7 4 8 2 9 1 10 3 11 12 12 10 14
REMARK H PARENT 12 13 10 15
REMARK Flexibility Score: inf
ROOT
ATOM      1  C   UNL     1      23.953   7.156 -20.642  1.00  0.00    -0.022 A 
ATOM      2  C   UNL     1      23.202   6.518 -19.640  1.00  0.00     0.058 A 
ATOM      3  C   UNL     1      24.454   8.449 -20.396  1.00  0.00     0.012 A 
ATOM      4  C   UNL     1      22.976   7.144 -18.405  1.00  0.00     0.157 A 
ATOM      5  C   UNL     1      24.228   9.073 -19.167  1.00  0.00     0.051 A 
ATOM      6  C   UNL     1      23.495   8.427 -18.169  1.00  0.00     0.157 A 
ENDROOT
BRANCH   1   7
ATOM      7  C   UNL     1      24.155   6.453 -21.934  1.00  0.00     0.010 C 
ATOM      8  C   UNL     1      24.376   7.081 -23.098  1.00  0.00     0.025 C 
BRANCH   8   9
ATOM      9  C   UNL     1      24.583   6.351 -24.359  1.00  0.00     0.064 C 
ATOM     10  O   UNL     1      24.178   6.818 -25.458  1.00  0.00    -0.545 OA
ATOM     11  O   UNL     1      25.235   5.126 -24.339  1.00  0.00    -0.545 OA
ENDBRANCH   8   9
ENDBRANCH   1   7
BRANCH   4  12
ATOM     12  O   UNL     1      22.237   6.496 -17.416  1.00  0.00    -0.504 OA
ATOM     13  H   UNL     1      21.925   5.538 -17.530  1.00  0.00     0.293 HD
ENDBRANCH   4  12
BRANCH   6  14
ATOM     14  O   UNL     1      23.288   9.076 -16.952  1.00  0.00    -0.504 OA
ATOM     15  H   UNL     1      23.365  10.082 -16.858  1.00  0.00     0.293 HD
ENDBRANCH   6  14
TORSDOF 4
ENDMDL
MODEL 8
REMARK VINA RESULT:    -3.982     16.221     17.709
REMARK INTER + INTRA:          -4.808
REMARK INTER:                  -4.678
REMARK INTRA:                  -0.131
REMARK UNBOUND:                -0.128
REMARK SMILES O=C([O-])C=Cc1ccc(O)c(O)c1
REMARK SMILES IDX 6 1 13 2 7 3 11 4 8 5 9 6 5 7 4 8 2 9 1 10 3 11 12 12 10 14
REMARK H PARENT 12 13 10 15
REMARK Flexibility Score: inf
ROOT
ATOM      1  C   UNL     1      23.155   5.798 -21.280  1.00  0.00    -0.022 A 
ATOM      2  C   UNL     1      22.903   7.172 -21.130  1.00  0.00     0.058 A 
ATOM      3  C   UNL     1      23.312   5.006 -20.126  1.00  0.00     0.012 A 
ATOM      4  C   UNL     1      22.782   7.744 -19.854  1.00  0.00     0.157 A 
ATOM      5  C   UNL     1      23.192   5.575 -18.855  1.00  0.00     0.051 A 
ATOM      6  C   UNL     1      22.925   6.939 -18.713  1.00  0.00     0.157 A 
ENDROOT
BRANCH   1   7
ATOM      7  C   UNL     1      23.284   5.246 -22.652  1.00  0.00     0.010 C 
ATOM      8  C   UNL     1      22.520   4.253 -23.130  1.00  0.00     0.025 C 
BRANCH   8   9
ATOM      9  C   UNL     1      22.669   3.738 -24.501  1.00  0.00     0.064 C 
ATOM     10  O   UNL     1      23.695   3.995 -25.188  1.00  0.00    -0.545 OA
ATOM     11  O   UNL     1      21.662   2.953 -25.048  1.00  0.00    -0.545 OA
ENDBRANCH   8   9
ENDBRANCH   1   7
BRANCH   4  12
ATOM     12  O   UNL     1      22.522   9.107 -19.720  1.00  0.00    -0.504 OA
ATOM     13  H   UNL     1      21.853   9.581 -20.316  1.00  0.00     0.293 HD
ENDBRANCH   4  12
BRANCH   6  14
ATOM     14  O   UNL     1      22.810   7.477 -17.431  1.00  0.00    -0.504 OA
ATOM     15  H   UNL     1      23.620   7.746 -16.886  1.00  0.00     0.293 HD
ENDBRANCH   6  14
TORSDOF 4
ENDMDL
MODEL 9
REMARK VINA RESULT:    -3.980     14.427     15.873
REMARK INTER + INTRA:          -4.806
REMARK INTER:                  -4.672
REMARK INTRA:                  -0.134
REMARK UNBOUND:                -0.128
REMARK SMILES O=C([O-])C=Cc1ccc(O)c(O)c1
REMARK SMILES IDX 6 1 13 2 7 3 11 4 8 5 9 6 5 7 4 8 2 9 1 10 3 11 12 12 10 14
REMARK H PARENT 12 13 10 15
REMARK Flexibility Score: inf
ROOT
ATOM      1  C   UNL     1      23.919   5.567 -23.988  1.00  0.00    -0.022 A 
ATOM      2  C   UNL     1      24.320   6.174 -25.189  1.00  0.00     0.058 A 
ATOM      3  C   UNL     1      23.290   4.308 -24.040  1.00  0.00     0.012 A 
ATOM      4  C   UNL     1      24.123   5.530 -26.420  1.00  0.00     0.157 A 
ATOM      5  C   UNL     1      23.092   3.666 -25.266  1.00  0.00     0.051 A 
ATOM      6  C   UNL     1      23.508   4.269 -26.456  1.00  0.00     0.157 A 
ENDROOT
BRANCH   1   7
ATOM      7  C   UNL     1      24.143   6.295 -22.714  1.00  0.00     0.010 C 
ATOM      8  C   UNL     1      23.183   6.518 -21.805  1.00  0.00     0.025 C 
BRANCH   8   9
ATOM      9  C   UNL     1      23.444   7.235 -20.546  1.00  0.00     0.064 C 
ATOM     10  O   UNL     1      22.813   6.954 -19.491  1.00  0.00    -0.545 OA
ATOM     11  O   UNL     1      24.403   8.239 -20.518  1.00  0.00    -0.545 OA
ENDBRANCH   8   9
ENDBRANCH   1   7
BRANCH   4  12
ATOM     12  O   UNL     1      24.535   6.141 -27.604  1.00  0.00    -0.504 OA
ATOM     13  H   UNL     1      25.517   6.269 -27.822  1.00  0.00     0.293 HD
ENDBRANCH   4  12
BRANCH   6  14
ATOM     14  O   UNL     1      23.298   3.602 -27.663  1.00  0.00    -0.504 OA
ATOM     15  H   UNL     1      22.431   3.120 -27.868  1.00  0.00     0.293 HD
ENDBRANCH   6  14
TORSDOF 4
ENDMDL
