MODEL 1
REMARK VINA RESULT:    -3.211      0.000      0.000
REMARK INTER + INTRA:          -8.022
REMARK INTER:                  -6.214
REMARK INTRA:                  -1.808
REMARK UNBOUND:                -1.808
REMARK SMILES CCCCCCCCCCCCCCCCCC(=O)[O-]
REMARK SMILES IDX 10 1 11 2 12 3 13 4 14 5 15 6 16 7 17 8 18 9 19 10 20 11
REMARK SMILES IDX 9 12 8 13 7 14 6 15 5 16 4 17 3 18 2 19 1 20
REMARK H PARENT
REMARK Flexibility Score: inf
ROOT
ATOM      1  C   UNL     1      26.657  19.943  58.063  1.00  0.00     0.000 C 
ENDROOT
BRANCH   1   2
ATOM      2  C   UNL     1      26.858  21.348  58.659  1.00  0.00     0.000 C 
BRANCH   2   3
ATOM      3  C   UNL     1      25.532  22.034  59.028  1.00  0.00     0.000 C 
BRANCH   3   4
ATOM      4  C   UNL     1      24.352  21.051  59.069  1.00  0.00     0.000 C 
BRANCH   4   5
ATOM      5  C   UNL     1      23.442  21.272  60.290  1.00  0.00     0.000 C 
BRANCH   5   6
ATOM      6  C   UNL     1      24.170  21.956  61.463  1.00  0.00     0.000 C 
BRANCH   6   7
ATOM      7  C   UNL     1      23.985  21.275  62.831  1.00  0.00     0.006 C 
BRANCH   7   8
ATOM      8  C   UNL     1      25.226  21.382  63.726  1.00  0.00     0.053 C 
BRANCH   8   9
ATOM      9  C   UNL     1      26.225  20.329  63.361  1.00  0.00     0.041 C 
ATOM     10  O   UNL     1      26.621  19.503  64.225  1.00  0.00    -0.550 OA
ATOM     11  O   UNL     1      26.758  20.291  62.078  1.00  0.00    -0.550 OA
ENDBRANCH   8   9
ENDBRANCH   7   8
ENDBRANCH   6   7
ENDBRANCH   5   6
ENDBRANCH   4   5
ENDBRANCH   3   4
ENDBRANCH   2   3
ENDBRANCH   1   2
BRANCH   1  12
ATOM     12  C   UNL     1      26.446  19.901  56.536  1.00  0.00     0.000 C 
BRANCH  12  13
ATOM     13  C   UNL     1      27.239  20.951  55.735  1.00  0.00    -0.000 C 
BRANCH  13  14
ATOM     14  C   UNL     1      26.364  22.125  55.260  1.00  0.00    -0.000 C 
BRANCH  14  15
ATOM     15  C   UNL     1      24.864  21.792  55.297  1.00  0.00    -0.000 C 
BRANCH  15  16
ATOM     16  C   UNL     1      24.347  21.242  53.959  1.00  0.00    -0.000 C 
BRANCH  16  17
ATOM     17  C   UNL     1      23.197  20.251  54.180  1.00  0.00    -0.000 C 
BRANCH  17  18
ATOM     18  C   UNL     1      23.717  18.809  54.240  1.00  0.00    -0.000 C 
BRANCH  18  19
ATOM     19  C   UNL     1      22.875  17.961  55.201  1.00  0.00    -0.003 C 
ATOM     20  C   UNL     1      23.105  18.379  56.650  1.00  0.00     0.004 C 
ENDBRANCH  18  19
ENDBRANCH  17  18
ENDBRANCH  16  17
ENDBRANCH  15  16
ENDBRANCH  14  15
ENDBRANCH  13  14
ENDBRANCH  12  13
ENDBRANCH   1  12
TORSDOF 16
ENDMDL
MODEL 2
REMARK VINA RESULT:    -2.810      2.329      6.586
REMARK INTER + INTRA:          -7.247
REMARK INTER:                  -5.585
REMARK INTRA:                  -1.662
REMARK UNBOUND:                -1.808
REMARK SMILES CCCCCCCCCCCCCCCCCC(=O)[O-]
REMARK SMILES IDX 10 1 11 2 12 3 13 4 14 5 15 6 16 7 17 8 18 9 19 10 20 11
REMARK SMILES IDX 9 12 8 13 7 14 6 15 5 16 4 17 3 18 2 19 1 20
REMARK H PARENT
REMARK Flexibility Score: inf
ROOT
ATOM      1  C   UNL     1      27.373  20.818  59.290  1.00  0.00     0.000 C 
ENDROOT
BRANCH   1   2
ATOM      2  C   UNL     1      27.812  22.099  58.558  1.00  0.00     0.000 C 
BRANCH   2   3
ATOM      3  C   UNL     1      27.370  22.124  57.084  1.00  0.00     0.000 C 
BRANCH   3   4
ATOM      4  C   UNL     1      26.734  20.798  56.638  1.00  0.00     0.000 C 
BRANCH   4   5
ATOM      5  C   UNL     1      26.459  20.757  55.125  1.00  0.00     0.000 C 
BRANCH   5   6
ATOM      6  C   UNL     1      24.959  20.842  54.786  1.00  0.00     0.000 C 
BRANCH   6   7
ATOM      7  C   UNL     1      24.057  21.330  55.935  1.00  0.00     0.006 C 
BRANCH   7   8
ATOM      8  C   UNL     1      22.947  20.333  56.290  1.00  0.00     0.053 C 
BRANCH   8   9
ATOM      9  C   UNL     1      23.464  19.289  57.229  1.00  0.00     0.041 C 
ATOM     10  O   UNL     1      23.416  19.475  58.473  1.00  0.00    -0.550 OA
ATOM     11  O   UNL     1      24.045  18.130  56.729  1.00  0.00    -0.550 OA
ENDBRANCH   8   9
ENDBRANCH   7   8
ENDBRANCH   6   7
ENDBRANCH   5   6
ENDBRANCH   4   5
ENDBRANCH   3   4
ENDBRANCH   2   3
ENDBRANCH   1   2
BRANCH   1  12
ATOM     12  C   UNL     1      26.528  21.044  60.561  1.00  0.00     0.000 C 
BRANCH  12  13
ATOM     13  C   UNL     1      27.061  22.125  61.519  1.00  0.00    -0.000 C 
BRANCH  13  14
ATOM     14  C   UNL     1      26.636  21.889  62.979  1.00  0.00    -0.000 C 
BRANCH  14  15
ATOM     15  C   UNL     1      26.208  20.436  63.239  1.00  0.00    -0.000 C 
BRANCH  15  16
ATOM     16  C   UNL     1      24.697  20.296  63.474  1.00  0.00    -0.000 C 
BRANCH  16  17
ATOM     17  C   UNL     1      24.054  21.664  63.734  1.00  0.00    -0.000 C 
BRANCH  17  18
ATOM     18  C   UNL     1      22.939  21.952  62.719  1.00  0.00    -0.000 C 
BRANCH  18  19
ATOM     19  C   UNL     1      23.172  21.182  61.414  1.00  0.00    -0.003 C 
ATOM     20  C   UNL     1      23.133  22.117  60.209  1.00  0.00     0.004 C 
ENDBRANCH  18  19
ENDBRANCH  17  18
ENDBRANCH  16  17
ENDBRANCH  15  16
ENDBRANCH  14  15
ENDBRANCH  13  14
ENDBRANCH  12  13
ENDBRANCH   1  12
TORSDOF 16
ENDMDL
MODEL 3
REMARK VINA RESULT:    -2.627      0.853      2.597
REMARK INTER + INTRA:          -6.892
REMARK INTER:                  -4.880
REMARK INTRA:                  -2.012
REMARK UNBOUND:                -1.808
REMARK SMILES CCCCCCCCCCCCCCCCCC(=O)[O-]
REMARK SMILES IDX 10 1 11 2 12 3 13 4 14 5 15 6 16 7 17 8 18 9 19 10 20 11
REMARK SMILES IDX 9 12 8 13 7 14 6 15 5 16 4 17 3 18 2 19 1 20
REMARK H PARENT
REMARK Flexibility Score: inf
ROOT
ATOM      1  C   UNL     1      26.810  19.856  57.486  1.00  0.00     0.000 C 
ENDROOT
BRANCH   1   2
ATOM      2  C   UNL     1      26.175  20.605  58.671  1.00  0.00     0.000 C 
BRANCH   2   3
ATOM      3  C   UNL     1      25.564  21.957  58.263  1.00  0.00     0.000 C 
BRANCH   3   4
ATOM      4  C   UNL     1      24.059  22.036  58.561  1.00  0.00     0.000 C 
BRANCH   4   5
ATOM      5  C   UNL     1      23.663  21.233  59.812  1.00  0.00     0.000 C 
BRANCH   5   6
ATOM      6  C   UNL     1      23.868  22.021  61.119  1.00  0.00     0.000 C 
BRANCH   6   7
ATOM      7  C   UNL     1      23.837  21.173  62.404  1.00  0.00     0.006 C 
BRANCH   7   8
ATOM      8  C   UNL     1      24.979  21.508  63.371  1.00  0.00     0.053 C 
BRANCH   8   9
ATOM      9  C   UNL     1      26.130  20.576  63.162  1.00  0.00     0.041 C 
ATOM     10  O   UNL     1      26.787  20.610  62.088  1.00  0.00    -0.550 OA
ATOM     11  O   UNL     1      26.448  19.633  64.132  1.00  0.00    -0.550 OA
ENDBRANCH   8   9
ENDBRANCH   7   8
ENDBRANCH   6   7
ENDBRANCH   5   6
ENDBRANCH   4   5
ENDBRANCH   3   4
ENDBRANCH   2   3
ENDBRANCH   1   2
BRANCH   1  12
ATOM     12  C   UNL     1      25.998  18.656  56.957  1.00  0.00     0.000 C 
BRANCH  12  13
ATOM     13  C   UNL     1      24.495  18.921  56.749  1.00  0.00    -0.000 C 
BRANCH  13  14
ATOM     14  C   UNL     1      23.859  17.972  55.719  1.00  0.00    -0.000 C 
BRANCH  14  15
ATOM     15  C   UNL     1      22.875  18.693  54.784  1.00  0.00    -0.000 C 
BRANCH  15  16
ATOM     16  C   UNL     1      23.546  19.805  53.963  1.00  0.00    -0.000 C 
BRANCH  16  17
ATOM     17  C   UNL     1      22.998  21.183  54.354  1.00  0.00    -0.000 C 
BRANCH  17  18
ATOM     18  C   UNL     1      24.130  22.125  54.785  1.00  0.00    -0.000 C 
BRANCH  18  19
ATOM     19  C   UNL     1      25.413  21.840  53.996  1.00  0.00    -0.003 C 
ATOM     20  C   UNL     1      26.652  22.120  54.841  1.00  0.00     0.004 C 
ENDBRANCH  18  19
ENDBRANCH  17  18
ENDBRANCH  16  17
ENDBRANCH  15  16
ENDBRANCH  14  15
ENDBRANCH  13  14
ENDBRANCH  12  13
ENDBRANCH   1  12
TORSDOF 16
ENDMDL
MODEL 4
REMARK VINA RESULT:    -2.441      1.818      3.866
REMARK INTER + INTRA:          -6.533
REMARK INTER:                  -5.572
REMARK INTRA:                  -0.961
REMARK UNBOUND:                -1.808
REMARK SMILES CCCCCCCCCCCCCCCCCC(=O)[O-]
REMARK SMILES IDX 10 1 11 2 12 3 13 4 14 5 15 6 16 7 17 8 18 9 19 10 20 11
REMARK SMILES IDX 9 12 8 13 7 14 6 15 5 16 4 17 3 18 2 19 1 20
REMARK H PARENT
REMARK Flexibility Score: inf
ROOT
ATOM      1  C   UNL     1      23.802  21.911  60.719  1.00  0.00     0.000 C 
ENDROOT
BRANCH   1   2
ATOM      2  C   UNL     1      23.175  21.168  61.912  1.00  0.00     0.000 C 
BRANCH   2   3
ATOM      3  C   UNL     1      23.308  21.943  63.235  1.00  0.00     0.000 C 
BRANCH   3   4
ATOM      4  C   UNL     1      24.552  21.530  64.036  1.00  0.00     0.000 C 
BRANCH   4   5
ATOM      5  C   UNL     1      25.134  20.185  63.569  1.00  0.00     0.000 C 
BRANCH   5   6
ATOM      6  C   UNL     1      26.522  20.326  62.917  1.00  0.00     0.000 C 
BRANCH   6   7
ATOM      7  C   UNL     1      26.940  21.769  62.579  1.00  0.00     0.006 C 
BRANCH   7   8
ATOM      8  C   UNL     1      26.724  22.125  61.103  1.00  0.00     0.053 C 
BRANCH   8   9
ATOM      9  C   UNL     1      27.684  21.372  60.238  1.00  0.00     0.041 C 
ATOM     10  O   UNL     1      28.662  21.965  59.710  1.00  0.00    -0.550 OA
ATOM     11  O   UNL     1      27.472  20.024  59.972  1.00  0.00    -0.550 OA
ENDBRANCH   8   9
ENDBRANCH   7   8
ENDBRANCH   6   7
ENDBRANCH   5   6
ENDBRANCH   4   5
ENDBRANCH   3   4
ENDBRANCH   2   3
ENDBRANCH   1   2
BRANCH   1  12
ATOM     12  C   UNL     1      22.875  22.098  59.501  1.00  0.00     0.000 C 
BRANCH  12  13
ATOM     13  C   UNL     1      22.960  20.989  58.436  1.00  0.00    -0.000 C 
BRANCH  13  14
ATOM     14  C   UNL     1      24.378  20.411  58.289  1.00  0.00    -0.000 C 
BRANCH  14  15
ATOM     15  C   UNL     1      25.181  21.099  57.173  1.00  0.00    -0.000 C 
BRANCH  15  16
ATOM     16  C   UNL     1      26.001  20.107  56.336  1.00  0.00    -0.000 C 
BRANCH  16  17
ATOM     17  C   UNL     1      25.433  19.985  54.916  1.00  0.00    -0.000 C 
BRANCH  17  18
ATOM     18  C   UNL     1      24.234  20.921  54.720  1.00  0.00    -0.000 C 
BRANCH  18  19
ATOM     19  C   UNL     1      23.531  20.644  53.386  1.00  0.00    -0.003 C 
ATOM     20  C   UNL     1      23.225  19.158  53.224  1.00  0.00     0.004 C 
ENDBRANCH  18  19
ENDBRANCH  17  18
ENDBRANCH  16  17
ENDBRANCH  15  16
ENDBRANCH  14  15
ENDBRANCH  13  14
ENDBRANCH  12  13
ENDBRANCH   1  12
TORSDOF 16
ENDMDL
MODEL 5
REMARK VINA RESULT:    -2.294      2.580      6.974
REMARK INTER + INTRA:          -6.249
REMARK INTER:                  -4.916
REMARK INTRA:                  -1.333
REMARK UNBOUND:                -1.808
REMARK SMILES CCCCCCCCCCCCCCCCCC(=O)[O-]
REMARK SMILES IDX 10 1 11 2 12 3 13 4 14 5 15 6 16 7 17 8 18 9 19 10 20 11
REMARK SMILES IDX 9 12 8 13 7 14 6 15 5 16 4 17 3 18 2 19 1 20
REMARK H PARENT
REMARK Flexibility Score: inf
ROOT
ATOM      1  C   UNL     1      26.175  21.259  57.122  1.00  0.00     0.000 C 
ENDROOT
BRANCH   1   2
ATOM      2  C   UNL     1      24.755  21.722  57.493  1.00  0.00     0.000 C 
BRANCH   2   3
ATOM      3  C   UNL     1      23.784  21.681  56.300  1.00  0.00     0.000 C 
BRANCH   3   4
ATOM      4  C   UNL     1      24.492  21.353  54.976  1.00  0.00     0.000 C 
BRANCH   4   5
ATOM      5  C   UNL     1      23.509  21.218  53.800  1.00  0.00     0.000 C 
BRANCH   5   6
ATOM      6  C   UNL     1      23.456  19.791  53.224  1.00  0.00     0.000 C 
BRANCH   6   7
ATOM      7  C   UNL     1      24.126  18.711  54.093  1.00  0.00     0.006 C 
BRANCH   7   8
ATOM      8  C   UNL     1      23.154  18.041  55.071  1.00  0.00     0.053 C 
BRANCH   8   9
ATOM      9  C   UNL     1      23.702  18.081  56.462  1.00  0.00     0.041 C 
ATOM     10  O   UNL     1      24.902  17.765  56.681  1.00  0.00    -0.550 OA
ATOM     11  O   UNL     1      22.875  18.418  57.527  1.00  0.00    -0.550 OA
ENDBRANCH   8   9
ENDBRANCH   7   8
ENDBRANCH   6   7
ENDBRANCH   5   6
ENDBRANCH   4   5
ENDBRANCH   3   4
ENDBRANCH   2   3
ENDBRANCH   1   2
BRANCH   1  12
ATOM     12  C   UNL     1      26.898  20.427  58.201  1.00  0.00     0.000 C 
BRANCH  12  13
ATOM     13  C   UNL     1      28.009  21.170  58.967  1.00  0.00    -0.000 C 
BRANCH  13  14
ATOM     14  C   UNL     1      27.458  22.125  60.041  1.00  0.00    -0.000 C 
BRANCH  14  15
ATOM     15  C   UNL     1      26.153  21.610  60.670  1.00  0.00    -0.000 C 
BRANCH  15  16
ATOM     16  C   UNL     1      26.326  21.202  62.140  1.00  0.00    -0.000 C 
BRANCH  16  17
ATOM     17  C   UNL     1      25.015  21.378  62.917  1.00  0.00    -0.000 C 
BRANCH  17  18
ATOM     18  C   UNL     1      24.963  20.443  64.132  1.00  0.00    -0.000 C 
BRANCH  18  19
ATOM     19  C   UNL     1      26.144  19.466  64.125  1.00  0.00    -0.003 C 
ATOM     20  C   UNL     1      25.737  18.105  64.683  1.00  0.00     0.004 C 
ENDBRANCH  18  19
ENDBRANCH  17  18
ENDBRANCH  16  17
ENDBRANCH  15  16
ENDBRANCH  14  15
ENDBRANCH  13  14
ENDBRANCH  12  13
ENDBRANCH   1  12
TORSDOF 16
ENDMDL
MODEL 6
REMARK VINA RESULT:    -2.187      2.104      6.278
REMARK INTER + INTRA:          -6.041
REMARK INTER:                  -5.027
REMARK INTRA:                  -1.014
REMARK UNBOUND:                -1.808
REMARK SMILES CCCCCCCCCCCCCCCCCC(=O)[O-]
REMARK SMILES IDX 10 1 11 2 12 3 13 4 14 5 15 6 16 7 17 8 18 9 19 10 20 11
REMARK SMILES IDX 9 12 8 13 7 14 6 15 5 16 4 17 3 18 2 19 1 20
REMARK H PARENT
REMARK Flexibility Score: inf
ROOT
ATOM      1  C   UNL     1      27.506  20.832  56.877  1.00  0.00     0.000 C 
ENDROOT
BRANCH   1   2
ATOM      2  C   UNL     1      27.311  20.558  55.375  1.00  0.00     0.000 C 
BRANCH   2   3
ATOM      3  C   UNL     1      26.314  21.528  54.717  1.00  0.00     0.000 C 
BRANCH   3   4
ATOM      4  C   UNL     1      24.874  20.992  54.735  1.00  0.00     0.000 C 
BRANCH   4   5
ATOM      5  C   UNL     1      24.814  19.461  54.596  1.00  0.00     0.000 C 
BRANCH   5   6
ATOM      6  C   UNL     1      23.415  18.887  54.889  1.00  0.00     0.000 C 
BRANCH   6   7
ATOM      7  C   UNL     1      23.186  18.438  56.344  1.00  0.00     0.006 C 
BRANCH   7   8
ATOM      8  C   UNL     1      24.132  19.124  57.338  1.00  0.00     0.053 C 
BRANCH   8   9
ATOM      9  C   UNL     1      23.439  20.260  58.021  1.00  0.00     0.041 C 
ATOM     10  O   UNL     1      23.314  20.267  59.274  1.00  0.00    -0.550 OA
ATOM     11  O   UNL     1      22.884  21.289  57.269  1.00  0.00    -0.550 OA
ENDBRANCH   8   9
ENDBRANCH   7   8
ENDBRANCH   6   7
ENDBRANCH   5   6
ENDBRANCH   4   5
ENDBRANCH   3   4
ENDBRANCH   2   3
ENDBRANCH   1   2
BRANCH   1  12
ATOM     12  C   UNL     1      26.848  22.125  57.400  1.00  0.00     0.000 C 
BRANCH  12  13
ATOM     13  C   UNL     1      26.442  22.099  58.886  1.00  0.00    -0.000 C 
BRANCH  13  14
ATOM     14  C   UNL     1      26.743  20.751  59.563  1.00  0.00    -0.000 C 
BRANCH  14  15
ATOM     15  C   UNL     1      27.356  20.920  60.963  1.00  0.00    -0.000 C 
BRANCH  15  16
ATOM     16  C   UNL     1      26.726  22.081  61.748  1.00  0.00    -0.000 C 
BRANCH  16  17
ATOM     17  C   UNL     1      25.195  22.028  61.672  1.00  0.00    -0.000 C 
BRANCH  17  18
ATOM     18  C   UNL     1      24.632  20.966  62.626  1.00  0.00    -0.000 C 
BRANCH  18  19
ATOM     19  C   UNL     1      25.560  20.759  63.828  1.00  0.00    -0.003 C 
ATOM     20  C   UNL     1      26.044  19.314  63.908  1.00  0.00     0.004 C 
ENDBRANCH  18  19
ENDBRANCH  17  18
ENDBRANCH  16  17
ENDBRANCH  15  16
ENDBRANCH  14  15
ENDBRANCH  13  14
ENDBRANCH  12  13
ENDBRANCH   1  12
TORSDOF 16
ENDMDL
MODEL 7
REMARK VINA RESULT:    -0.596      1.152      1.635
REMARK INTER + INTRA:          -2.961
REMARK INTER:                  -1.344
REMARK INTRA:                  -1.617
REMARK UNBOUND:                -1.808
REMARK SMILES CCCCCCCCCCCCCCCCCC(=O)[O-]
REMARK SMILES IDX 10 1 11 2 12 3 13 4 14 5 15 6 16 7 17 8 18 9 19 10 20 11
REMARK SMILES IDX 9 12 8 13 7 14 6 15 5 16 4 17 3 18 2 19 1 20
REMARK H PARENT
REMARK Flexibility Score: inf
ROOT
ATOM      1  C   UNL     1      27.493  21.436  58.837  1.00  0.00     0.000 C 
ENDROOT
BRANCH   1   2
ATOM      2  C   UNL     1      26.569  21.755  60.026  1.00  0.00     0.000 C 
BRANCH   2   3
ATOM      3  C   UNL     1      25.141  22.125  59.588  1.00  0.00     0.000 C 
BRANCH   3   4
ATOM      4  C   UNL     1      24.073  21.253  60.267  1.00  0.00     0.000 C 
BRANCH   4   5
ATOM      5  C   UNL     1      23.054  22.085  61.065  1.00  0.00     0.000 C 
BRANCH   5   6
ATOM      6  C   UNL     1      23.074  21.773  62.573  1.00  0.00     0.000 C 
BRANCH   6   7
ATOM      7  C   UNL     1      24.471  21.770  63.219  1.00  0.00     0.006 C 
BRANCH   7   8
ATOM      8  C   UNL     1      24.740  20.514  64.058  1.00  0.00     0.053 C 
BRANCH   8   9
ATOM      9  C   UNL     1      26.029  19.876  63.645  1.00  0.00     0.041 C 
ATOM     10  O   UNL     1      26.559  20.174  62.543  1.00  0.00    -0.550 OA
ATOM     11  O   UNL     1      26.620  18.914  64.455  1.00  0.00    -0.550 OA
ENDBRANCH   8   9
ENDBRANCH   7   8
ENDBRANCH   6   7
ENDBRANCH   5   6
ENDBRANCH   4   5
ENDBRANCH   3   4
ENDBRANCH   2   3
ENDBRANCH   1   2
BRANCH   1  12
ATOM     12  C   UNL     1      27.116  22.123  57.508  1.00  0.00     0.000 C 
BRANCH  12  13
ATOM     13  C   UNL     1      27.717  21.480  56.244  1.00  0.00    -0.000 C 
BRANCH  13  14
ATOM     14  C   UNL     1      26.782  21.574  55.026  1.00  0.00    -0.000 C 
BRANCH  14  15
ATOM     15  C   UNL     1      25.520  20.711  55.185  1.00  0.00    -0.000 C 
BRANCH  15  16
ATOM     16  C   UNL     1      24.240  21.550  55.308  1.00  0.00    -0.000 C 
BRANCH  16  17
ATOM     17  C   UNL     1      23.373  21.061  56.475  1.00  0.00    -0.000 C 
BRANCH  17  18
ATOM     18  C   UNL     1      23.805  19.663  56.935  1.00  0.00    -0.000 C 
BRANCH  18  19
ATOM     19  C   UNL     1      22.945  18.577  56.278  1.00  0.00    -0.003 C 
ATOM     20  C   UNL     1      23.815  17.508  55.622  1.00  0.00     0.004 C 
ENDBRANCH  18  19
ENDBRANCH  17  18
ENDBRANCH  16  17
ENDBRANCH  15  16
ENDBRANCH  14  15
ENDBRANCH  13  14
ENDBRANCH  12  13
ENDBRANCH   1  12
TORSDOF 16
ENDMDL
