MODEL 1
REMARK VINA RESULT:    -4.132      0.000      0.000
REMARK INTER + INTRA:          -4.396
REMARK INTER:                  -4.374
REMARK INTRA:                  -0.022
REMARK UNBOUND:                -0.022
REMARK SMILES O=C([O-])c1cccnc1
REMARK SMILES IDX 4 1 5 2 9 3 6 4 8 5 7 6 2 7 1 8 3 9
REMARK H PARENT
REMARK Flexibility Score: inf
ROOT
ATOM      1  C   UNL     1       9.666 -10.014  12.863  1.00  0.00     0.016 A 
ATOM      2  C   UNL     1       9.639  -8.761  13.497  1.00  0.00     0.013 A 
ATOM      3  C   UNL     1      10.569 -10.982  13.332  1.00  0.00     0.120 A 
ATOM      4  C   UNL     1      10.496  -8.499  14.567  1.00  0.00     0.021 A 
ATOM      5  N   UNL     1      11.394 -10.701  14.377  1.00  0.00    -0.264 NA
ATOM      6  C   UNL     1      11.375  -9.492  14.998  1.00  0.00     0.111 A 
ENDROOT
BRANCH   1   7
ATOM      7  C   UNL     1       8.766 -10.312  11.727  1.00  0.00     0.073 C 
ATOM      8  O   UNL     1       9.115 -11.125  10.830  1.00  0.00    -0.545 OA
ATOM      9  O   UNL     1       7.522  -9.699  11.635  1.00  0.00    -0.545 OA
ENDBRANCH   1   7
TORSDOF 1
ENDMDL
MODEL 2
REMARK VINA RESULT:    -4.110      3.509      4.238
REMARK INTER + INTRA:          -4.372
REMARK INTER:                  -4.354
REMARK INTRA:                  -0.018
REMARK UNBOUND:                -0.022
REMARK SMILES O=C([O-])c1cccnc1
REMARK SMILES IDX 4 1 5 2 9 3 6 4 8 5 7 6 2 7 1 8 3 9
REMARK H PARENT
REMARK Flexibility Score: inf
ROOT
ATOM      1  C   UNL     1      11.148  -9.296  15.166  1.00  0.00     0.016 A 
ATOM      2  C   UNL     1      10.385  -8.355  14.454  1.00  0.00     0.013 A 
ATOM      3  C   UNL     1      11.292 -10.585  14.626  1.00  0.00     0.120 A 
ATOM      4  C   UNL     1       9.791  -8.707  13.241  1.00  0.00     0.021 A 
ATOM      5  N   UNL     1      10.703 -10.903  13.443  1.00  0.00    -0.264 NA
ATOM      6  C   UNL     1       9.963 -10.000  12.746  1.00  0.00     0.111 A 
ENDROOT
BRANCH   1   7
ATOM      7  C   UNL     1      11.787  -8.942  16.453  1.00  0.00     0.073 C 
ATOM      8  O   UNL     1      12.683  -8.058  16.501  1.00  0.00    -0.545 OA
ATOM      9  O   UNL     1      11.406  -9.581  17.627  1.00  0.00    -0.545 OA
ENDBRANCH   1   7
TORSDOF 1
ENDMDL
MODEL 3
REMARK VINA RESULT:    -4.004      1.919      2.669
REMARK INTER + INTRA:          -4.260
REMARK INTER:                  -4.242
REMARK INTRA:                  -0.018
REMARK UNBOUND:                -0.022
REMARK SMILES O=C([O-])c1cccnc1
REMARK SMILES IDX 4 1 5 2 9 3 6 4 8 5 7 6 2 7 1 8 3 9
REMARK H PARENT
REMARK Flexibility Score: inf
ROOT
ATOM      1  C   UNL     1       9.973  -8.799  13.636  1.00  0.00     0.016 A 
ATOM      2  C   UNL     1      10.707  -8.884  14.830  1.00  0.00     0.013 A 
ATOM      3  C   UNL     1       9.968  -9.907  12.773  1.00  0.00     0.120 A 
ATOM      4  C   UNL     1      11.410 -10.050  15.138  1.00  0.00     0.021 A 
ATOM      5  N   UNL     1      10.661 -11.032  13.097  1.00  0.00    -0.264 NA
ATOM      6  C   UNL     1      11.375 -11.125  14.250  1.00  0.00     0.111 A 
ENDROOT
BRANCH   1   7
ATOM      7  C   UNL     1       9.220  -7.572  13.291  1.00  0.00     0.073 C 
ATOM      8  O   UNL     1       7.970  -7.610  13.138  1.00  0.00    -0.545 OA
ATOM      9  O   UNL     1       9.883  -6.361  13.132  1.00  0.00    -0.545 OA
ENDBRANCH   1   7
TORSDOF 1
ENDMDL
MODEL 4
REMARK VINA RESULT:    -3.830     14.614     15.332
REMARK INTER + INTRA:          -4.075
REMARK INTER:                  -4.054
REMARK INTRA:                  -0.021
REMARK UNBOUND:                -0.022
REMARK SMILES O=C([O-])c1cccnc1
REMARK SMILES IDX 4 1 5 2 9 3 6 4 8 5 7 6 2 7 1 8 3 9
REMARK H PARENT
REMARK Flexibility Score: inf
ROOT
ATOM      1  C   UNL     1      -0.207   0.263   9.193  1.00  0.00     0.016 A 
ATOM      2  C   UNL     1       1.010   0.317   8.492  1.00  0.00     0.013 A 
ATOM      3  C   UNL     1      -1.376  -0.050   8.479  1.00  0.00     0.120 A 
ATOM      4  C   UNL     1       1.040   0.062   7.120  1.00  0.00     0.021 A 
ATOM      5  N   UNL     1      -1.319  -0.294   7.142  1.00  0.00    -0.264 NA
ATOM      6  C   UNL     1      -0.147  -0.245   6.455  1.00  0.00     0.111 A 
ENDROOT
BRANCH   1   7
ATOM      7  C   UNL     1      -0.261   0.529  10.647  1.00  0.00     0.073 C 
ATOM      8  O   UNL     1      -1.283   1.054  11.164  1.00  0.00    -0.545 OA
ATOM      9  O   UNL     1       0.816   0.202  11.463  1.00  0.00    -0.545 OA
ENDBRANCH   1   7
TORSDOF 1
ENDMDL
MODEL 5
REMARK VINA RESULT:    -3.771     14.441     15.325
REMARK INTER + INTRA:          -4.013
REMARK INTER:                  -3.991
REMARK INTRA:                  -0.022
REMARK UNBOUND:                -0.022
REMARK SMILES O=C([O-])c1cccnc1
REMARK SMILES IDX 4 1 5 2 9 3 6 4 8 5 7 6 2 7 1 8 3 9
REMARK H PARENT
REMARK Flexibility Score: inf
ROOT
ATOM      1  C   UNL     1      -0.226   0.264   9.201  1.00  0.00     0.016 A 
ATOM      2  C   UNL     1      -1.414  -0.021   8.507  1.00  0.00     0.013 A 
ATOM      3  C   UNL     1       0.978   0.304   8.478  1.00  0.00     0.120 A 
ATOM      4  C   UNL     1      -1.381  -0.256   7.131  1.00  0.00     0.021 A 
ATOM      5  N   UNL     1       0.982   0.071   7.138  1.00  0.00    -0.264 NA
ATOM      6  C   UNL     1      -0.161  -0.205   6.457  1.00  0.00     0.111 A 
ENDROOT
BRANCH   1   7
ATOM      7  C   UNL     1      -0.238   0.517  10.659  1.00  0.00     0.073 C 
ATOM      8  O   UNL     1      -1.239   1.050  11.207  1.00  0.00    -0.545 OA
ATOM      9  O   UNL     1       0.855   0.168  11.443  1.00  0.00    -0.545 OA
ENDBRANCH   1   7
TORSDOF 1
ENDMDL
MODEL 6
REMARK VINA RESULT:    -3.705     14.542     15.462
REMARK INTER + INTRA:          -3.943
REMARK INTER:                  -3.925
REMARK INTRA:                  -0.018
REMARK UNBOUND:                -0.022
REMARK SMILES O=C([O-])c1cccnc1
REMARK SMILES IDX 4 1 5 2 9 3 6 4 8 5 7 6 2 7 1 8 3 9
REMARK H PARENT
REMARK Flexibility Score: inf
ROOT
ATOM      1  C   UNL     1       0.102   0.873   9.212  1.00  0.00     0.016 A 
ATOM      2  C   UNL     1      -0.311   2.082   8.626  1.00  0.00     0.013 A 
ATOM      3  C   UNL     1       0.920   0.012   8.461  1.00  0.00     0.120 A 
ATOM      4  C   UNL     1       0.090   2.405   7.329  1.00  0.00     0.021 A 
ATOM      5  N   UNL     1       1.296   0.351   7.198  1.00  0.00    -0.264 NA
ATOM      6  C   UNL     1       0.902   1.518   6.623  1.00  0.00     0.111 A 
ENDROOT
BRANCH   1   7
ATOM      7  C   UNL     1      -0.311   0.511  10.586  1.00  0.00     0.073 C 
ATOM      8  O   UNL     1      -1.531   0.432  10.886  1.00  0.00    -0.545 OA
ATOM      9  O   UNL     1       0.643   0.254  11.563  1.00  0.00    -0.545 OA
ENDBRANCH   1   7
TORSDOF 1
ENDMDL
MODEL 7
REMARK VINA RESULT:    -3.547     15.299     16.216
REMARK INTER + INTRA:          -3.776
REMARK INTER:                  -3.759
REMARK INTRA:                  -0.016
REMARK UNBOUND:                -0.022
REMARK SMILES O=C([O-])c1cccnc1
REMARK SMILES IDX 4 1 5 2 9 3 6 4 8 5 7 6 2 7 1 8 3 9
REMARK H PARENT
REMARK Flexibility Score: inf
ROOT
ATOM      1  C   UNL     1      -0.459   0.950   8.575  1.00  0.00     0.016 A 
ATOM      2  C   UNL     1      -0.246   2.288   8.203  1.00  0.00     0.013 A 
ATOM      3  C   UNL     1      -0.996   0.069   7.622  1.00  0.00     0.120 A 
ATOM      4  C   UNL     1      -0.566   2.717   6.914  1.00  0.00     0.021 A 
ATOM      5  N   UNL     1      -1.300   0.512   6.372  1.00  0.00    -0.264 NA
ATOM      6  C   UNL     1      -1.097   1.804   6.002  1.00  0.00     0.111 A 
ENDROOT
BRANCH   1   7
ATOM      7  C   UNL     1      -0.126   0.475   9.936  1.00  0.00     0.073 C 
ATOM      8  O   UNL     1       0.888  -0.247  10.131  1.00  0.00    -0.545 OA
ATOM      9  O   UNL     1      -0.927   0.820  11.017  1.00  0.00    -0.545 OA
ENDBRANCH   1   7
TORSDOF 1
ENDMDL
MODEL 8
REMARK VINA RESULT:    -3.500      8.603      9.461
REMARK INTER + INTRA:          -3.726
REMARK INTER:                  -3.710
REMARK INTRA:                  -0.016
REMARK UNBOUND:                -0.022
REMARK SMILES O=C([O-])c1cccnc1
REMARK SMILES IDX 4 1 5 2 9 3 6 4 8 5 7 6 2 7 1 8 3 9
REMARK H PARENT
REMARK Flexibility Score: inf
ROOT
ATOM      1  C   UNL     1       4.972  -8.622   5.905  1.00  0.00     0.016 A 
ATOM      2  C   UNL     1       3.851  -8.408   6.725  1.00  0.00     0.013 A 
ATOM      3  C   UNL     1       5.317  -7.629   4.973  1.00  0.00     0.120 A 
ATOM      4  C   UNL     1       3.108  -7.232   6.604  1.00  0.00     0.021 A 
ATOM      5  N   UNL     1       4.576  -6.492   4.875  1.00  0.00    -0.264 NA
ATOM      6  C   UNL     1       3.490  -6.276   5.664  1.00  0.00     0.111 A 
ENDROOT
BRANCH   1   7
ATOM      7  C   UNL     1       5.773  -9.860   6.017  1.00  0.00     0.073 C 
ATOM      8  O   UNL     1       6.824  -9.882   6.711  1.00  0.00    -0.545 OA
ATOM      9  O   UNL     1       5.375 -11.018   5.359  1.00  0.00    -0.545 OA
ENDBRANCH   1   7
TORSDOF 1
ENDMDL
