MODEL 1
REMARK VINA RESULT:    -3.590      0.000      0.000
REMARK INTER + INTRA:          -4.963
REMARK INTER:                  -4.639
REMARK INTRA:                  -0.323
REMARK UNBOUND:                -0.323
REMARK SMILES CCCCCCC(=O)[O-]
REMARK SMILES IDX 5 1 6 2 7 3 8 4 9 5 4 6 3 7 2 8 1 9
REMARK H PARENT
REMARK Flexibility Score: inf
ROOT
ATOM      1  C   UNL     1     181.819 184.730 181.293  1.00  0.00     0.006 C 
ENDROOT
BRANCH   1   2
ATOM      2  C   UNL     1     180.714 183.670 181.401  1.00  0.00     0.053 C 
BRANCH   2   3
ATOM      3  C   UNL     1     180.248 183.545 182.817  1.00  0.00     0.041 C 
ATOM      4  O   UNL     1     181.041 183.152 183.712  1.00  0.00    -0.550 OA
ATOM      5  O   UNL     1     178.925 183.816 183.139  1.00  0.00    -0.550 OA
ENDBRANCH   2   3
ENDBRANCH   1   2
BRANCH   1   6
ATOM      6  C   UNL     1     183.155 184.145 180.808  1.00  0.00     0.000 C 
BRANCH   6   7
ATOM      7  C   UNL     1     183.044 182.664 180.416  1.00  0.00    -0.000 C 
BRANCH   7   8
ATOM      8  C   UNL     1     183.301 182.474 178.917  1.00  0.00    -0.003 C 
ATOM      9  C   UNL     1     182.053 181.962 178.203  1.00  0.00     0.004 C 
ENDBRANCH   7   8
ENDBRANCH   6   7
ENDBRANCH   1   6
TORSDOF 5
ENDMDL
MODEL 2
REMARK VINA RESULT:    -3.573      1.554      2.592
REMARK INTER + INTRA:          -4.941
REMARK INTER:                  -4.580
REMARK INTRA:                  -0.361
REMARK UNBOUND:                -0.323
REMARK SMILES CCCCCCC(=O)[O-]
REMARK SMILES IDX 5 1 6 2 7 3 8 4 9 5 4 6 3 7 2 8 1 9
REMARK H PARENT
REMARK Flexibility Score: inf
ROOT
ATOM      1  C   UNL     1     181.019 181.752 181.766  1.00  0.00     0.006 C 
ENDROOT
BRANCH   1   2
ATOM      2  C   UNL     1     179.932 182.536 181.019  1.00  0.00     0.053 C 
BRANCH   2   3
ATOM      3  C   UNL     1     178.935 183.095 181.984  1.00  0.00     0.041 C 
ATOM      4  O   UNL     1     179.324 183.736 182.996  1.00  0.00    -0.550 OA
ATOM      5  O   UNL     1     177.579 182.865 181.793  1.00  0.00    -0.550 OA
ENDBRANCH   2   3
ENDBRANCH   1   2
BRANCH   1   6
ATOM      6  C   UNL     1     182.425 182.335 181.549  1.00  0.00     0.000 C 
BRANCH   6   7
ATOM      7  C   UNL     1     182.464 183.380 180.423  1.00  0.00    -0.000 C 
BRANCH   7   8
ATOM      8  C   UNL     1     183.132 184.674 180.902  1.00  0.00    -0.003 C 
ATOM      9  C   UNL     1     182.092 185.715 181.306  1.00  0.00     0.004 C 
ENDBRANCH   7   8
ENDBRANCH   6   7
ENDBRANCH   1   6
TORSDOF 5
ENDMDL
MODEL 3
REMARK VINA RESULT:    -3.565      3.479      4.547
REMARK INTER + INTRA:          -4.931
REMARK INTER:                  -4.543
REMARK INTRA:                  -0.388
REMARK UNBOUND:                -0.323
REMARK SMILES CCCCCCC(=O)[O-]
REMARK SMILES IDX 5 1 6 2 7 3 8 4 9 5 4 6 3 7 2 8 1 9
REMARK H PARENT
REMARK Flexibility Score: inf
ROOT
ATOM      1  C   UNL     1     183.331 182.582 181.276  1.00  0.00     0.006 C 
ENDROOT
BRANCH   1   2
ATOM      2  C   UNL     1     184.425 181.701 180.657  1.00  0.00     0.053 C 
BRANCH   2   3
ATOM      3  C   UNL     1     185.226 181.033 181.730  1.00  0.00     0.041 C 
ATOM      4  O   UNL     1     186.481 180.989 181.649  1.00  0.00    -0.550 OA
ATOM      5  O   UNL     1     184.582 180.416 182.795  1.00  0.00    -0.550 OA
ENDBRANCH   2   3
ENDBRANCH   1   2
BRANCH   1   6
ATOM      6  C   UNL     1     181.930 182.255 180.735  1.00  0.00     0.000 C 
BRANCH   6   7
ATOM      7  C   UNL     1     181.850 180.852 180.112  1.00  0.00    -0.000 C 
BRANCH   7   8
ATOM      8  C   UNL     1     181.111 179.883 181.042  1.00  0.00    -0.003 C 
ATOM      9  C   UNL     1     181.910 178.598 181.248  1.00  0.00     0.004 C 
ENDBRANCH   7   8
ENDBRANCH   6   7
ENDBRANCH   1   6
TORSDOF 5
ENDMDL
MODEL 4
REMARK VINA RESULT:    -3.554      2.779      3.245
REMARK INTER + INTRA:          -4.917
REMARK INTER:                  -4.584
REMARK INTRA:                  -0.333
REMARK UNBOUND:                -0.323
REMARK SMILES CCCCCCC(=O)[O-]
REMARK SMILES IDX 5 1 6 2 7 3 8 4 9 5 4 6 3 7 2 8 1 9
REMARK H PARENT
REMARK Flexibility Score: inf
ROOT
ATOM      1  C   UNL     1     180.724 181.901 182.404  1.00  0.00     0.006 C 
ENDROOT
BRANCH   1   2
ATOM      2  C   UNL     1     179.894 183.131 182.011  1.00  0.00     0.053 C 
BRANCH   2   3
ATOM      3  C   UNL     1     178.664 182.715 181.267  1.00  0.00     0.041 C 
ATOM      4  O   UNL     1     178.762 182.154 180.144  1.00  0.00    -0.550 OA
ATOM      5  O   UNL     1     177.409 182.991 181.792  1.00  0.00    -0.550 OA
ENDBRANCH   2   3
ENDBRANCH   1   2
BRANCH   1   6
ATOM      6  C   UNL     1     182.052 181.813 181.636  1.00  0.00     0.000 C 
BRANCH   6   7
ATOM      7  C   UNL     1     182.069 180.666 180.614  1.00  0.00    -0.000 C 
BRANCH   7   8
ATOM      8  C   UNL     1     181.056 179.580 180.994  1.00  0.00    -0.003 C 
ATOM      9  C   UNL     1     181.756 178.271 181.350  1.00  0.00     0.004 C 
ENDBRANCH   7   8
ENDBRANCH   6   7
ENDBRANCH   1   6
TORSDOF 5
ENDMDL
MODEL 5
REMARK VINA RESULT:    -3.492      2.629      3.251
REMARK INTER + INTRA:          -4.836
REMARK INTER:                  -4.527
REMARK INTRA:                  -0.309
REMARK UNBOUND:                -0.323
REMARK SMILES CCCCCCC(=O)[O-]
REMARK SMILES IDX 5 1 6 2 7 3 8 4 9 5 4 6 3 7 2 8 1 9
REMARK H PARENT
REMARK Flexibility Score: inf
ROOT
ATOM      1  C   UNL     1     182.676 181.241 183.275  1.00  0.00     0.006 C 
ENDROOT
BRANCH   1   2
ATOM      2  C   UNL     1     182.146 182.412 182.436  1.00  0.00     0.053 C 
BRANCH   2   3
ATOM      3  C   UNL     1     180.652 182.374 182.373  1.00  0.00     0.041 C 
ATOM      4  O   UNL     1     180.062 181.344 181.952  1.00  0.00    -0.550 OA
ATOM      5  O   UNL     1     179.913 183.492 182.732  1.00  0.00    -0.550 OA
ENDBRANCH   2   3
ENDBRANCH   1   2
BRANCH   1   6
ATOM      6  C   UNL     1     183.717 180.396 182.523  1.00  0.00     0.000 C 
BRANCH   6   7
ATOM      7  C   UNL     1     183.879 180.827 181.057  1.00  0.00    -0.000 C 
BRANCH   7   8
ATOM      8  C   UNL     1     185.343 181.155 180.742  1.00  0.00    -0.003 C 
ATOM      9  C   UNL     1     186.189 181.180 182.013  1.00  0.00     0.004 C 
ENDBRANCH   7   8
ENDBRANCH   6   7
ENDBRANCH   1   6
TORSDOF 5
ENDMDL
MODEL 6
REMARK VINA RESULT:    -3.472      3.002      4.609
REMARK INTER + INTRA:          -4.810
REMARK INTER:                  -4.409
REMARK INTRA:                  -0.401
REMARK UNBOUND:                -0.323
REMARK SMILES CCCCCCC(=O)[O-]
REMARK SMILES IDX 5 1 6 2 7 3 8 4 9 5 4 6 3 7 2 8 1 9
REMARK H PARENT
REMARK Flexibility Score: inf
ROOT
ATOM      1  C   UNL     1     182.140 179.452 181.055  1.00  0.00     0.006 C 
ENDROOT
BRANCH   1   2
ATOM      2  C   UNL     1     183.186 180.573 181.131  1.00  0.00     0.053 C 
BRANCH   2   3
ATOM      3  C   UNL     1     183.817 180.606 182.487  1.00  0.00     0.041 C 
ATOM      4  O   UNL     1     185.071 180.597 182.602  1.00  0.00    -0.550 OA
ATOM      5  O   UNL     1     183.021 180.598 183.624  1.00  0.00    -0.550 OA
ENDBRANCH   2   3
ENDBRANCH   1   2
BRANCH   1   6
ATOM      6  C   UNL     1     180.699 179.987 181.023  1.00  0.00     0.000 C 
BRANCH   6   7
ATOM      7  C   UNL     1     180.639 181.510 180.826  1.00  0.00    -0.000 C 
BRANCH   7   8
ATOM      8  C   UNL     1     179.943 182.187 182.012  1.00  0.00    -0.003 C 
ATOM      9  C   UNL     1     180.849 183.230 182.662  1.00  0.00     0.004 C 
ENDBRANCH   7   8
ENDBRANCH   6   7
ENDBRANCH   1   6
TORSDOF 5
ENDMDL
MODEL 7
REMARK VINA RESULT:    -3.467      2.665      3.350
REMARK INTER + INTRA:          -4.804
REMARK INTER:                  -4.407
REMARK INTRA:                  -0.398
REMARK UNBOUND:                -0.323
REMARK SMILES CCCCCCC(=O)[O-]
REMARK SMILES IDX 5 1 6 2 7 3 8 4 9 5 4 6 3 7 2 8 1 9
REMARK H PARENT
REMARK Flexibility Score: inf
ROOT
ATOM      1  C   UNL     1     183.708 182.702 181.624  1.00  0.00     0.006 C 
ENDROOT
BRANCH   1   2
ATOM      2  C   UNL     1     184.153 181.233 181.609  1.00  0.00     0.053 C 
BRANCH   2   3
ATOM      3  C   UNL     1     183.233 180.401 182.445  1.00  0.00     0.041 C 
ATOM      4  O   UNL     1     182.473 179.557 181.902  1.00  0.00    -0.550 OA
ATOM      5  O   UNL     1     183.179 180.593 183.819  1.00  0.00    -0.550 OA
ENDBRANCH   2   3
ENDBRANCH   1   2
BRANCH   1   6
ATOM      6  C   UNL     1     182.756 183.045 180.467  1.00  0.00     0.000 C 
BRANCH   6   7
ATOM      7  C   UNL     1     183.136 182.333 179.159  1.00  0.00    -0.000 C 
BRANCH   7   8
ATOM      8  C   UNL     1     181.890 181.789 178.451  1.00  0.00    -0.003 C 
ATOM      9  C   UNL     1     180.747 181.566 179.439  1.00  0.00     0.004 C 
ENDBRANCH   7   8
ENDBRANCH   6   7
ENDBRANCH   1   6
TORSDOF 5
ENDMDL
MODEL 8
REMARK VINA RESULT:    -3.462      1.398      2.081
REMARK INTER + INTRA:          -4.798
REMARK INTER:                  -4.450
REMARK INTRA:                  -0.348
REMARK UNBOUND:                -0.323
REMARK SMILES CCCCCCC(=O)[O-]
REMARK SMILES IDX 5 1 6 2 7 3 8 4 9 5 4 6 3 7 2 8 1 9
REMARK H PARENT
REMARK Flexibility Score: inf
ROOT
ATOM      1  C   UNL     1     181.785 184.403 181.174  1.00  0.00     0.006 C 
ENDROOT
BRANCH   1   2
ATOM      2  C   UNL     1     180.548 183.505 181.315  1.00  0.00     0.053 C 
BRANCH   2   3
ATOM      3  C   UNL     1     180.033 183.544 182.719  1.00  0.00     0.041 C 
ATOM      4  O   UNL     1     180.835 183.519 183.689  1.00  0.00    -0.550 OA
ATOM      5  O   UNL     1     178.665 183.559 182.956  1.00  0.00    -0.550 OA
ENDBRANCH   2   3
ENDBRANCH   1   2
BRANCH   1   6
ATOM      6  C   UNL     1     183.020 183.638 180.673  1.00  0.00     0.000 C 
BRANCH   6   7
ATOM      7  C   UNL     1     183.753 182.895 181.802  1.00  0.00    -0.000 C 
BRANCH   7   8
ATOM      8  C   UNL     1     183.539 181.382 181.689  1.00  0.00    -0.003 C 
ATOM      9  C   UNL     1     183.316 180.753 183.062  1.00  0.00     0.004 C 
ENDBRANCH   7   8
ENDBRANCH   6   7
ENDBRANCH   1   6
TORSDOF 5
ENDMDL
MODEL 9
REMARK VINA RESULT:    -3.448      2.215      3.822
REMARK INTER + INTRA:          -4.780
REMARK INTER:                  -4.343
REMARK INTRA:                  -0.436
REMARK UNBOUND:                -0.323
REMARK SMILES CCCCCCC(=O)[O-]
REMARK SMILES IDX 5 1 6 2 7 3 8 4 9 5 4 6 3 7 2 8 1 9
REMARK H PARENT
REMARK Flexibility Score: inf
ROOT
ATOM      1  C   UNL     1     183.138 182.339 180.284  1.00  0.00     0.006 C 
ENDROOT
BRANCH   1   2
ATOM      2  C   UNL     1     183.843 181.202 181.037  1.00  0.00     0.053 C 
BRANCH   2   3
ATOM      3  C   UNL     1     182.918 180.588 182.040  1.00  0.00     0.041 C 
ATOM      4  O   UNL     1     181.778 180.186 181.688  1.00  0.00    -0.550 OA
ATOM      5  O   UNL     1     183.296 180.505 183.373  1.00  0.00    -0.550 OA
ENDBRANCH   2   3
ENDBRANCH   1   2
BRANCH   1   6
ATOM      6  C   UNL     1     183.223 183.682 181.026  1.00  0.00     0.000 C 
BRANCH   6   7
ATOM      7  C   UNL     1     181.904 184.469 180.976  1.00  0.00    -0.000 C 
BRANCH   7   8
ATOM      8  C   UNL     1     180.743 183.623 181.509  1.00  0.00    -0.003 C 
ATOM      9  C   UNL     1     180.808 183.490 183.029  1.00  0.00     0.004 C 
ENDBRANCH   7   8
ENDBRANCH   6   7
ENDBRANCH   1   6
TORSDOF 5
ENDMDL
