MODEL 1
REMARK VINA RESULT:    -3.164      0.000      0.000
REMARK INTER + INTRA:          -8.138
REMARK INTER:                  -5.754
REMARK INTRA:                  -2.384
REMARK UNBOUND:                -2.384
REMARK SMILES CCCCCCCCCCCCCCCC(=O)[O-]
REMARK SMILES IDX 9 1 10 2 11 3 12 4 13 5 14 6 15 7 16 8 17 9 18 10 8 11 7 12
REMARK SMILES IDX 6 13 5 14 4 15 3 16 2 17 1 18
REMARK H PARENT
REMARK Flexibility Score: inf
ROOT
ATOM      1  C   UNL     1      71.095  16.283  80.171  1.00  0.00     0.000 C 
ENDROOT
BRANCH   1   2
ATOM      2  C   UNL     1      69.766  15.520  80.353  1.00  0.00     0.000 C 
BRANCH   2   3
ATOM      3  C   UNL     1      68.575  16.470  80.571  1.00  0.00     0.000 C 
BRANCH   3   4
ATOM      4  C   UNL     1      67.219  15.783  80.348  1.00  0.00     0.000 C 
BRANCH   4   5
ATOM      5  C   UNL     1      66.298  16.582  79.413  1.00  0.00     0.000 C 
BRANCH   5   6
ATOM      6  C   UNL     1      65.094  15.735  78.973  1.00  0.00     0.006 C 
BRANCH   6   7
ATOM      7  C   UNL     1      65.292  15.124  77.580  1.00  0.00     0.053 C 
BRANCH   7   8
ATOM      8  C   UNL     1      64.149  14.236  77.196  1.00  0.00     0.041 C 
ATOM      9  O   UNL     1      62.973  14.687  77.181  1.00  0.00    -0.550 OA
ATOM     10  O   UNL     1      64.379  12.902  76.885  1.00  0.00    -0.550 OA
ENDBRANCH   7   8
ENDBRANCH   6   7
ENDBRANCH   5   6
ENDBRANCH   4   5
ENDBRANCH   3   4
ENDBRANCH   2   3
ENDBRANCH   1   2
BRANCH   1  11
ATOM     11  C   UNL     1      71.883  15.854  78.922  1.00  0.00     0.000 C 
BRANCH  11  12
ATOM     12  C   UNL     1      71.267  14.633  78.218  1.00  0.00    -0.000 C 
BRANCH  12  13
ATOM     13  C   UNL     1      70.774  14.956  76.799  1.00  0.00    -0.000 C 
BRANCH  13  14
ATOM     14  C   UNL     1      69.246  14.823  76.661  1.00  0.00    -0.000 C 
BRANCH  14  15
ATOM     15  C   UNL     1      68.542  16.185  76.583  1.00  0.00    -0.000 C 
BRANCH  15  16
ATOM     16  C   UNL     1      69.529  17.364  76.628  1.00  0.00    -0.000 C 
BRANCH  16  17
ATOM     17  C   UNL     1      69.057  18.492  77.558  1.00  0.00    -0.003 C 
ATOM     18  C   UNL     1      70.216  19.268  78.182  1.00  0.00     0.004 C 
ENDBRANCH  16  17
ENDBRANCH  15  16
ENDBRANCH  14  15
ENDBRANCH  13  14
ENDBRANCH  12  13
ENDBRANCH  11  12
ENDBRANCH   1  11
TORSDOF 14
ENDMDL
MODEL 2
REMARK VINA RESULT:    -3.154      2.161      3.936
REMARK INTER + INTRA:          -8.120
REMARK INTER:                  -5.596
REMARK INTRA:                  -2.524
REMARK UNBOUND:                -2.384
REMARK SMILES CCCCCCCCCCCCCCCC(=O)[O-]
REMARK SMILES IDX 9 1 10 2 11 3 12 4 13 5 14 6 15 7 16 8 17 9 18 10 8 11 7 12
REMARK SMILES IDX 6 13 5 14 4 15 3 16 2 17 1 18
REMARK H PARENT
REMARK Flexibility Score: inf
ROOT
ATOM      1  C   UNL     1      69.862  15.262  76.237  1.00  0.00     0.000 C 
ENDROOT
BRANCH   1   2
ATOM      2  C   UNL     1      71.062  14.657  76.998  1.00  0.00     0.000 C 
BRANCH   2   3
ATOM      3  C   UNL     1      70.991  14.934  78.510  1.00  0.00     0.000 C 
BRANCH   3   4
ATOM      4  C   UNL     1      70.994  16.435  78.839  1.00  0.00     0.000 C 
BRANCH   4   5
ATOM      5  C   UNL     1      69.897  16.823  79.842  1.00  0.00     0.000 C 
BRANCH   5   6
ATOM      6  C   UNL     1      68.887  15.680  80.020  1.00  0.00     0.006 C 
BRANCH   6   7
ATOM      7  C   UNL     1      68.063  15.827  81.307  1.00  0.00     0.053 C 
BRANCH   7   8
ATOM      8  C   UNL     1      66.706  16.398  81.034  1.00  0.00     0.041 C 
ATOM      9  O   UNL     1      66.526  17.644  81.049  1.00  0.00    -0.550 OA
ATOM     10  O   UNL     1      65.631  15.550  80.795  1.00  0.00    -0.550 OA
ENDBRANCH   7   8
ENDBRANCH   6   7
ENDBRANCH   5   6
ENDBRANCH   4   5
ENDBRANCH   3   4
ENDBRANCH   2   3
ENDBRANCH   1   2
BRANCH   1  11
ATOM     11  C   UNL     1      68.603  14.380  76.278  1.00  0.00     0.000 C 
BRANCH  11  12
ATOM     12  C   UNL     1      67.342  15.158  76.689  1.00  0.00    -0.000 C 
BRANCH  12  13
ATOM     13  C   UNL     1      67.418  16.645  76.311  1.00  0.00    -0.000 C 
BRANCH  13  14
ATOM     14  C   UNL     1      67.110  17.573  77.500  1.00  0.00    -0.000 C 
BRANCH  14  15
ATOM     15  C   UNL     1      67.841  18.920  77.401  1.00  0.00    -0.000 C 
BRANCH  15  16
ATOM     16  C   UNL     1      69.156  18.821  76.609  1.00  0.00    -0.000 C 
BRANCH  16  17
ATOM     17  C   UNL     1      70.061  20.046  76.816  1.00  0.00    -0.003 C 
ATOM     18  C   UNL     1      70.669  20.102  78.217  1.00  0.00     0.004 C 
ENDBRANCH  16  17
ENDBRANCH  15  16
ENDBRANCH  14  15
ENDBRANCH  13  14
ENDBRANCH  12  13
ENDBRANCH  11  12
ENDBRANCH   1  11
TORSDOF 14
ENDMDL
MODEL 3
REMARK VINA RESULT:    -3.047      3.573      5.761
REMARK INTER + INTRA:          -7.925
REMARK INTER:                  -5.549
REMARK INTRA:                  -2.377
REMARK UNBOUND:                -2.384
REMARK SMILES CCCCCCCCCCCCCCCC(=O)[O-]
REMARK SMILES IDX 9 1 10 2 11 3 12 4 13 5 14 6 15 7 16 8 17 9 18 10 8 11 7 12
REMARK SMILES IDX 6 13 5 14 4 15 3 16 2 17 1 18
REMARK H PARENT
REMARK Flexibility Score: inf
ROOT
ATOM      1  C   UNL     1      68.200  14.776  76.979  1.00  0.00     0.000 C 
ENDROOT
BRANCH   1   2
ATOM      2  C   UNL     1      67.023  15.696  76.590  1.00  0.00     0.000 C 
BRANCH   2   3
ATOM      3  C   UNL     1      67.484  17.129  76.276  1.00  0.00     0.000 C 
BRANCH   3   4
ATOM      4  C   UNL     1      67.848  17.926  77.539  1.00  0.00     0.000 C 
BRANCH   4   5
ATOM      5  C   UNL     1      69.294  18.444  77.515  1.00  0.00     0.000 C 
BRANCH   5   6
ATOM      6  C   UNL     1      69.686  18.916  76.107  1.00  0.00     0.006 C 
BRANCH   6   7
ATOM      7  C   UNL     1      69.347  20.395  75.875  1.00  0.00     0.053 C 
BRANCH   7   8
ATOM      8  C   UNL     1      69.941  21.272  76.933  1.00  0.00     0.041 C 
ATOM      9  O   UNL     1      71.190  21.419  77.010  1.00  0.00    -0.550 OA
ATOM     10  O   UNL     1      69.116  21.904  77.856  1.00  0.00    -0.550 OA
ENDBRANCH   7   8
ENDBRANCH   6   7
ENDBRANCH   5   6
ENDBRANCH   4   5
ENDBRANCH   3   4
ENDBRANCH   2   3
ENDBRANCH   1   2
BRANCH   1  11
ATOM     11  C   UNL     1      69.410  14.898  76.038  1.00  0.00     0.000 C 
BRANCH  11  12
ATOM     12  C   UNL     1      70.751  14.920  76.790  1.00  0.00    -0.000 C 
BRANCH  12  13
ATOM     13  C   UNL     1      70.581  14.733  78.305  1.00  0.00    -0.000 C 
BRANCH  13  14
ATOM     14  C   UNL     1      71.164  15.906  79.114  1.00  0.00    -0.000 C 
BRANCH  14  15
ATOM     15  C   UNL     1      70.767  15.854  80.597  1.00  0.00    -0.000 C 
BRANCH  15  16
ATOM     16  C   UNL     1      69.456  16.606  80.884  1.00  0.00    -0.000 C 
BRANCH  16  17
ATOM     17  C   UNL     1      68.296  15.658  81.225  1.00  0.00    -0.003 C 
ATOM     18  C   UNL     1      67.073  15.878  80.336  1.00  0.00     0.004 C 
ENDBRANCH  16  17
ENDBRANCH  15  16
ENDBRANCH  14  15
ENDBRANCH  13  14
ENDBRANCH  12  13
ENDBRANCH  11  12
ENDBRANCH   1  11
TORSDOF 14
ENDMDL
MODEL 4
REMARK VINA RESULT:    -2.986      2.090      3.461
REMARK INTER + INTRA:          -7.814
REMARK INTER:                  -5.331
REMARK INTRA:                  -2.483
REMARK UNBOUND:                -2.384
REMARK SMILES CCCCCCCCCCCCCCCC(=O)[O-]
REMARK SMILES IDX 9 1 10 2 11 3 12 4 13 5 14 6 15 7 16 8 17 9 18 10 8 11 7 12
REMARK SMILES IDX 6 13 5 14 4 15 3 16 2 17 1 18
REMARK H PARENT
REMARK Flexibility Score: inf
ROOT
ATOM      1  C   UNL     1      69.235  14.312  76.161  1.00  0.00     0.000 C 
ENDROOT
BRANCH   1   2
ATOM      2  C   UNL     1      67.775  14.812  76.111  1.00  0.00     0.000 C 
BRANCH   2   3
ATOM      3  C   UNL     1      67.571  16.092  76.941  1.00  0.00     0.000 C 
BRANCH   3   4
ATOM      4  C   UNL     1      66.556  15.904  78.080  1.00  0.00     0.000 C 
BRANCH   4   5
ATOM      5  C   UNL     1      66.012  17.237  78.614  1.00  0.00     0.000 C 
BRANCH   5   6
ATOM      6  C   UNL     1      66.078  17.282  80.148  1.00  0.00     0.006 C 
BRANCH   6   7
ATOM      7  C   UNL     1      66.191  15.882  80.766  1.00  0.00     0.053 C 
BRANCH   7   8
ATOM      8  C   UNL     1      65.017  15.565  81.640  1.00  0.00     0.041 C 
ATOM      9  O   UNL     1      65.013  15.913  82.850  1.00  0.00    -0.550 OA
ATOM     10  O   UNL     1      63.939  14.855  81.125  1.00  0.00    -0.550 OA
ENDBRANCH   7   8
ENDBRANCH   6   7
ENDBRANCH   5   6
ENDBRANCH   4   5
ENDBRANCH   3   4
ENDBRANCH   2   3
ENDBRANCH   1   2
BRANCH   1  11
ATOM     11  C   UNL     1      70.216  15.343  76.744  1.00  0.00     0.000 C 
BRANCH  11  12
ATOM     12  C   UNL     1      71.244  14.714  77.700  1.00  0.00    -0.000 C 
BRANCH  12  13
ATOM     13  C   UNL     1      71.400  15.509  79.005  1.00  0.00    -0.000 C 
BRANCH  13  14
ATOM     14  C   UNL     1      70.093  15.574  79.817  1.00  0.00    -0.000 C 
BRANCH  14  15
ATOM     15  C   UNL     1      69.679  17.015  80.151  1.00  0.00    -0.000 C 
BRANCH  15  16
ATOM     16  C   UNL     1      70.366  18.052  79.246  1.00  0.00    -0.000 C 
BRANCH  16  17
ATOM     17  C   UNL     1      69.359  18.903  78.457  1.00  0.00    -0.003 C 
ATOM     18  C   UNL     1      69.753  19.076  76.990  1.00  0.00     0.004 C 
ENDBRANCH  16  17
ENDBRANCH  15  16
ENDBRANCH  14  15
ENDBRANCH  13  14
ENDBRANCH  12  13
ENDBRANCH  11  12
ENDBRANCH   1  11
TORSDOF 14
ENDMDL
MODEL 5
REMARK VINA RESULT:    -2.983      3.218      5.197
REMARK INTER + INTRA:          -7.809
REMARK INTER:                  -5.458
REMARK INTRA:                  -2.351
REMARK UNBOUND:                -2.384
REMARK SMILES CCCCCCCCCCCCCCCC(=O)[O-]
REMARK SMILES IDX 9 1 10 2 11 3 12 4 13 5 14 6 15 7 16 8 17 9 18 10 8 11 7 12
REMARK SMILES IDX 6 13 5 14 4 15 3 16 2 17 1 18
REMARK H PARENT
REMARK Flexibility Score: inf
ROOT
ATOM      1  C   UNL     1      70.870  14.956  78.791  1.00  0.00     0.000 C 
ENDROOT
BRANCH   1   2
ATOM      2  C   UNL     1      71.319  14.582  77.362  1.00  0.00     0.000 C 
BRANCH   2   3
ATOM      3  C   UNL     1      70.271  14.969  76.304  1.00  0.00     0.000 C 
BRANCH   3   4
ATOM      4  C   UNL     1      68.830  14.857  76.827  1.00  0.00     0.000 C 
BRANCH   4   5
ATOM      5  C   UNL     1      68.021  16.144  76.611  1.00  0.00     0.000 C 
BRANCH   5   6
ATOM      6  C   UNL     1      68.928  17.382  76.683  1.00  0.00     0.006 C 
BRANCH   6   7
ATOM      7  C   UNL     1      68.192  18.610  77.234  1.00  0.00     0.053 C 
BRANCH   7   8
ATOM      8  C   UNL     1      68.942  19.877  76.959  1.00  0.00     0.041 C 
ATOM      9  O   UNL     1      70.193  19.917  77.101  1.00  0.00    -0.550 OA
ATOM     10  O   UNL     1      68.256  21.022  76.575  1.00  0.00    -0.550 OA
ENDBRANCH   7   8
ENDBRANCH   6   7
ENDBRANCH   5   6
ENDBRANCH   4   5
ENDBRANCH   3   4
ENDBRANCH   2   3
ENDBRANCH   1   2
BRANCH   1  11
ATOM     11  C   UNL     1      71.804  15.961  79.485  1.00  0.00     0.000 C 
BRANCH  11  12
ATOM     12  C   UNL     1      71.406  17.423  79.225  1.00  0.00    -0.000 C 
BRANCH  12  13
ATOM     13  C   UNL     1      70.836  18.111  80.475  1.00  0.00    -0.000 C 
BRANCH  13  14
ATOM     14  C   UNL     1      69.326  17.864  80.646  1.00  0.00    -0.000 C 
BRANCH  14  15
ATOM     15  C   UNL     1      69.021  16.803  81.714  1.00  0.00    -0.000 C 
BRANCH  15  16
ATOM     16  C   UNL     1      68.078  15.702  81.201  1.00  0.00    -0.000 C 
BRANCH  16  17
ATOM     17  C   UNL     1      67.226  16.165  80.009  1.00  0.00    -0.003 C 
ATOM     18  C   UNL     1      65.755  15.776  80.146  1.00  0.00     0.004 C 
ENDBRANCH  16  17
ENDBRANCH  15  16
ENDBRANCH  14  15
ENDBRANCH  13  14
ENDBRANCH  12  13
ENDBRANCH  11  12
ENDBRANCH   1  11
TORSDOF 14
ENDMDL
MODEL 6
REMARK VINA RESULT:    -2.962      3.481      5.108
REMARK INTER + INTRA:          -7.770
REMARK INTER:                  -5.168
REMARK INTRA:                  -2.602
REMARK UNBOUND:                -2.384
REMARK SMILES CCCCCCCCCCCCCCCC(=O)[O-]
REMARK SMILES IDX 9 1 10 2 11 3 12 4 13 5 14 6 15 7 16 8 17 9 18 10 8 11 7 12
REMARK SMILES IDX 6 13 5 14 4 15 3 16 2 17 1 18
REMARK H PARENT
REMARK Flexibility Score: inf
ROOT
ATOM      1  C   UNL     1      69.954  15.270  76.324  1.00  0.00     0.000 C 
ENDROOT
BRANCH   1   2
ATOM      2  C   UNL     1      70.919  14.919  77.476  1.00  0.00     0.000 C 
BRANCH   2   3
ATOM      3  C   UNL     1      71.060  16.071  78.487  1.00  0.00     0.000 C 
BRANCH   3   4
ATOM      4  C   UNL     1      70.679  15.655  79.917  1.00  0.00     0.000 C 
BRANCH   4   5
ATOM      5  C   UNL     1      69.171  15.410  80.080  1.00  0.00     0.000 C 
BRANCH   5   6
ATOM      6  C   UNL     1      68.579  16.329  81.159  1.00  0.00     0.006 C 
BRANCH   6   7
ATOM      7  C   UNL     1      69.563  17.423  81.594  1.00  0.00     0.053 C 
BRANCH   7   8
ATOM      8  C   UNL     1      69.649  17.532  83.085  1.00  0.00     0.041 C 
ATOM      9  O   UNL     1      70.752  17.370  83.671  1.00  0.00    -0.550 OA
ATOM     10  O   UNL     1      68.503  17.781  83.830  1.00  0.00    -0.550 OA
ENDBRANCH   7   8
ENDBRANCH   6   7
ENDBRANCH   5   6
ENDBRANCH   4   5
ENDBRANCH   3   4
ENDBRANCH   2   3
ENDBRANCH   1   2
BRANCH   1  11
ATOM     11  C   UNL     1      68.674  14.417  76.313  1.00  0.00     0.000 C 
BRANCH  11  12
ATOM     12  C   UNL     1      67.435  15.194  76.787  1.00  0.00    -0.000 C 
BRANCH  12  13
ATOM     13  C   UNL     1      67.564  16.708  76.558  1.00  0.00    -0.000 C 
BRANCH  13  14
ATOM     14  C   UNL     1      67.190  17.527  77.806  1.00  0.00    -0.000 C 
BRANCH  14  15
ATOM     15  C   UNL     1      68.280  18.535  78.198  1.00  0.00    -0.000 C 
BRANCH  15  16
ATOM     16  C   UNL     1      69.183  18.918  77.013  1.00  0.00    -0.000 C 
BRANCH  16  17
ATOM     17  C   UNL     1      70.259  19.945  77.400  1.00  0.00    -0.003 C 
ATOM     18  C   UNL     1      70.658  19.855  78.873  1.00  0.00     0.004 C 
ENDBRANCH  16  17
ENDBRANCH  15  16
ENDBRANCH  14  15
ENDBRANCH  13  14
ENDBRANCH  12  13
ENDBRANCH  11  12
ENDBRANCH   1  11
TORSDOF 14
ENDMDL
MODEL 7
REMARK VINA RESULT:    -2.950      2.670      4.219
REMARK INTER + INTRA:          -7.748
REMARK INTER:                  -5.938
REMARK INTRA:                  -1.810
REMARK UNBOUND:                -2.384
REMARK SMILES CCCCCCCCCCCCCCCC(=O)[O-]
REMARK SMILES IDX 9 1 10 2 11 3 12 4 13 5 14 6 15 7 16 8 17 9 18 10 8 11 7 12
REMARK SMILES IDX 6 13 5 14 4 15 3 16 2 17 1 18
REMARK H PARENT
REMARK Flexibility Score: inf
ROOT
ATOM      1  C   UNL     1      70.956  14.946  78.623  1.00  0.00     0.000 C 
ENDROOT
BRANCH   1   2
ATOM      2  C   UNL     1      70.774  15.573  80.022  1.00  0.00     0.000 C 
BRANCH   2   3
ATOM      3  C   UNL     1      69.456  16.359  80.139  1.00  0.00     0.000 C 
BRANCH   3   4
ATOM      4  C   UNL     1      68.313  15.517  80.727  1.00  0.00     0.000 C 
BRANCH   4   5
ATOM      5  C   UNL     1      66.944  16.201  80.593  1.00  0.00     0.000 C 
BRANCH   5   6
ATOM      6  C   UNL     1      67.105  17.679  80.209  1.00  0.00     0.006 C 
BRANCH   6   7
ATOM      7  C   UNL     1      66.305  18.043  78.951  1.00  0.00     0.053 C 
BRANCH   7   8
ATOM      8  C   UNL     1      67.028  19.044  78.104  1.00  0.00     0.041 C 
ATOM      9  O   UNL     1      66.572  20.210  77.970  1.00  0.00    -0.550 OA
ATOM     10  O   UNL     1      68.191  18.679  77.437  1.00  0.00    -0.550 OA
ENDBRANCH   7   8
ENDBRANCH   6   7
ENDBRANCH   5   6
ENDBRANCH   4   5
ENDBRANCH   3   4
ENDBRANCH   2   3
ENDBRANCH   1   2
BRANCH   1  11
ATOM     11  C   UNL     1      70.275  15.745  77.499  1.00  0.00     0.000 C 
BRANCH  11  12
ATOM     12  C   UNL     1      69.995  14.895  76.249  1.00  0.00    -0.000 C 
BRANCH  12  13
ATOM     13  C   UNL     1      68.543  14.395  76.188  1.00  0.00    -0.000 C 
BRANCH  13  14
ATOM     14  C   UNL     1      67.568  15.322  76.937  1.00  0.00    -0.000 C 
BRANCH  14  15
ATOM     15  C   UNL     1      66.156  15.300  76.334  1.00  0.00    -0.000 C 
BRANCH  15  16
ATOM     16  C   UNL     1      65.731  13.894  75.875  1.00  0.00    -0.000 C 
BRANCH  16  17
ATOM     17  C   UNL     1      64.358  13.484  76.428  1.00  0.00    -0.003 C 
ATOM     18  C   UNL     1      64.001  14.212  77.723  1.00  0.00     0.004 C 
ENDBRANCH  16  17
ENDBRANCH  15  16
ENDBRANCH  14  15
ENDBRANCH  13  14
ENDBRANCH  12  13
ENDBRANCH  11  12
ENDBRANCH   1  11
TORSDOF 14
ENDMDL
MODEL 8
REMARK VINA RESULT:    -2.938      2.739      4.504
REMARK INTER + INTRA:          -7.727
REMARK INTER:                  -5.696
REMARK INTRA:                  -2.031
REMARK UNBOUND:                -2.384
REMARK SMILES CCCCCCCCCCCCCCCC(=O)[O-]
REMARK SMILES IDX 9 1 10 2 11 3 12 4 13 5 14 6 15 7 16 8 17 9 18 10 8 11 7 12
REMARK SMILES IDX 6 13 5 14 4 15 3 16 2 17 1 18
REMARK H PARENT
REMARK Flexibility Score: inf
ROOT
ATOM      1  C   UNL     1      67.963  14.436  76.178  1.00  0.00     0.000 C 
ENDROOT
BRANCH   1   2
ATOM      2  C   UNL     1      66.445  14.224  75.999  1.00  0.00     0.000 C 
BRANCH   2   3
ATOM      3  C   UNL     1      65.624  15.400  76.558  1.00  0.00     0.000 C 
BRANCH   3   4
ATOM      4  C   UNL     1      65.121  15.146  77.988  1.00  0.00     0.000 C 
BRANCH   4   5
ATOM      5  C   UNL     1      65.524  16.261  78.965  1.00  0.00     0.000 C 
BRANCH   5   6
ATOM      6  C   UNL     1      66.996  16.123  79.377  1.00  0.00     0.006 C 
BRANCH   6   7
ATOM      7  C   UNL     1      67.155  15.826  80.875  1.00  0.00     0.053 C 
BRANCH   7   8
ATOM      8  C   UNL     1      67.794  16.968  81.602  1.00  0.00     0.041 C 
ATOM      9  O   UNL     1      68.605  16.750  82.540  1.00  0.00    -0.550 OA
ATOM     10  O   UNL     1      67.468  18.276  81.264  1.00  0.00    -0.550 OA
ENDBRANCH   7   8
ENDBRANCH   6   7
ENDBRANCH   5   6
ENDBRANCH   4   5
ENDBRANCH   3   4
ENDBRANCH   2   3
ENDBRANCH   1   2
BRANCH   1  11
ATOM     11  C   UNL     1      68.375  15.917  76.216  1.00  0.00     0.000 C 
BRANCH  11  12
ATOM     12  C   UNL     1      69.849  16.116  76.607  1.00  0.00    -0.000 C 
BRANCH  12  13
ATOM     13  C   UNL     1      70.590  14.786  76.811  1.00  0.00    -0.000 C 
BRANCH  13  14
ATOM     14  C   UNL     1      71.349  14.733  78.150  1.00  0.00    -0.000 C 
BRANCH  14  15
ATOM     15  C   UNL     1      70.550  15.358  79.304  1.00  0.00    -0.000 C 
BRANCH  15  16
ATOM     16  C   UNL     1      71.452  15.833  80.456  1.00  0.00    -0.000 C 
BRANCH  16  17
ATOM     17  C   UNL     1      71.637  17.358  80.468  1.00  0.00    -0.003 C 
ATOM     18  C   UNL     1      70.632  18.083  79.574  1.00  0.00     0.004 C 
ENDBRANCH  16  17
ENDBRANCH  15  16
ENDBRANCH  14  15
ENDBRANCH  13  14
ENDBRANCH  12  13
ENDBRANCH  11  12
ENDBRANCH   1  11
TORSDOF 14
ENDMDL
MODEL 9
REMARK VINA RESULT:    -2.923      3.609      5.142
REMARK INTER + INTRA:          -7.700
REMARK INTER:                  -5.306
REMARK INTRA:                  -2.394
REMARK UNBOUND:                -2.384
REMARK SMILES CCCCCCCCCCCCCCCC(=O)[O-]
REMARK SMILES IDX 9 1 10 2 11 3 12 4 13 5 14 6 15 7 16 8 17 9 18 10 8 11 7 12
REMARK SMILES IDX 6 13 5 14 4 15 3 16 2 17 1 18
REMARK H PARENT
REMARK Flexibility Score: inf
ROOT
ATOM      1  C   UNL     1      69.968  15.948  79.651  1.00  0.00     0.000 C 
ENDROOT
BRANCH   1   2
ATOM      2  C   UNL     1      68.514  15.946  80.169  1.00  0.00     0.000 C 
BRANCH   2   3
ATOM      3  C   UNL     1      67.697  17.125  79.611  1.00  0.00     0.000 C 
BRANCH   3   4
ATOM      4  C   UNL     1      68.578  18.200  78.955  1.00  0.00     0.000 C 
BRANCH   4   5
ATOM      5  C   UNL     1      68.226  18.432  77.477  1.00  0.00     0.000 C 
BRANCH   5   6
ATOM      6  C   UNL     1      69.496  18.504  76.616  1.00  0.00     0.006 C 
BRANCH   6   7
ATOM      7  C   UNL     1      69.620  19.842  75.875  1.00  0.00     0.053 C 
BRANCH   7   8
ATOM      8  C   UNL     1      70.188  20.913  76.754  1.00  0.00     0.041 C 
ATOM      9  O   UNL     1      69.951  22.126  76.513  1.00  0.00    -0.550 OA
ATOM     10  O   UNL     1      71.007  20.571  77.823  1.00  0.00    -0.550 OA
ENDBRANCH   7   8
ENDBRANCH   6   7
ENDBRANCH   5   6
ENDBRANCH   4   5
ENDBRANCH   3   4
ENDBRANCH   2   3
ENDBRANCH   1   2
BRANCH   1  11
ATOM     11  C   UNL     1      70.300  14.747  78.750  1.00  0.00     0.000 C 
BRANCH  11  12
ATOM     12  C   UNL     1      71.027  15.153  77.457  1.00  0.00    -0.000 C 
BRANCH  12  13
ATOM     13  C   UNL     1      70.138  15.014  76.212  1.00  0.00    -0.000 C 
BRANCH  13  14
ATOM     14  C   UNL     1      68.764  14.396  76.534  1.00  0.00    -0.000 C 
BRANCH  14  15
ATOM     15  C   UNL     1      67.598  15.310  76.128  1.00  0.00    -0.000 C 
BRANCH  15  16
ATOM     16  C   UNL     1      66.319  15.027  76.933  1.00  0.00    -0.000 C 
BRANCH  16  17
ATOM     17  C   UNL     1      65.072  15.665  76.300  1.00  0.00    -0.003 C 
ATOM     18  C   UNL     1      64.913  17.140  76.667  1.00  0.00     0.004 C 
ENDBRANCH  16  17
ENDBRANCH  15  16
ENDBRANCH  14  15
ENDBRANCH  13  14
ENDBRANCH  12  13
ENDBRANCH  11  12
ENDBRANCH   1  11
TORSDOF 14
ENDMDL
