MODEL 1
REMARK VINA RESULT:    -3.995      0.000      0.000
REMARK INTER + INTRA:          -4.478
REMARK INTER:                  -4.346
REMARK INTRA:                  -0.132
REMARK UNBOUND:                -0.132
REMARK SMILES C=C(C)[C@H]1CC[C@H](C)[C@@H](O)C1
REMARK SMILES IDX 8 1 7 2 6 3 5 4 4 5 11 6 9 7 10 8 2 10 1 11 3 12
REMARK H PARENT 10 9
REMARK Flexibility Score: inf
ROOT
ATOM      1  C   UNL     1     130.282 124.347 145.398  1.00  0.00     0.010 C 
ATOM      2  C   UNL     1     129.458 123.713 146.529  1.00  0.00     0.015 C 
ATOM      3  C   UNL     1     129.204 122.205 146.241  1.00  0.00     0.006 C 
ATOM      4  C   UNL     1     129.395 121.313 147.470  1.00  0.00     0.008 C 
ATOM      5  C   UNL     1     130.817 121.483 148.040  1.00  0.00     0.017 C 
ATOM      6  C   UNL     1     131.220 122.971 148.250  1.00  0.00     0.040 C 
ATOM      7  C   UNL     1     130.105 123.986 147.914  1.00  0.00     0.117 C 
ENDROOT
BRANCH   7   8
ATOM      8  O   UNL     1     129.111 123.960 148.907  1.00  0.00    -0.393 OA
ATOM      9  H   UNL     1     128.994 123.012 149.176  1.00  0.00     0.210 HD
ENDBRANCH   7   8
BRANCH   5  10
ATOM     10  C   UNL     1     130.989 120.660 149.310  1.00  0.00    -0.077 C 
ATOM     11  C   UNL     1     129.917 120.287 150.027  1.00  0.00     0.008 C 
ATOM     12  C   UNL     1     132.358 120.257 149.796  1.00  0.00     0.039 C 
ENDBRANCH   5  10
TORSDOF 2
ENDMDL
MODEL 2
REMARK VINA RESULT:    -3.846     14.541     15.822
REMARK INTER + INTRA:          -4.316
REMARK INTER:                  -4.213
REMARK INTRA:                  -0.103
REMARK UNBOUND:                -0.132
REMARK SMILES C=C(C)[C@H]1CC[C@H](C)[C@@H](O)C1
REMARK SMILES IDX 8 1 7 2 6 3 5 4 4 5 11 6 9 7 10 8 2 10 1 11 3 12
REMARK H PARENT 10 9
REMARK Flexibility Score: inf
ROOT
ATOM      1  C   UNL     1     125.370 135.766 147.988  1.00  0.00     0.010 C 
ATOM      2  C   UNL     1     125.789 136.931 147.079  1.00  0.00     0.015 C 
ATOM      3  C   UNL     1     126.447 138.066 147.914  1.00  0.00     0.006 C 
ATOM      4  C   UNL     1     127.703 138.649 147.261  1.00  0.00     0.008 C 
ATOM      5  C   UNL     1     128.744 137.538 147.017  1.00  0.00     0.017 C 
ATOM      6  C   UNL     1     128.154 136.293 146.293  1.00  0.00     0.040 C 
ATOM      7  C   UNL     1     126.666 136.431 145.899  1.00  0.00     0.117 C 
ENDROOT
BRANCH   7   8
ATOM      8  O   UNL     1     126.533 137.313 144.812  1.00  0.00    -0.393 OA
ATOM      9  H   UNL     1     126.135 138.151 145.165  1.00  0.00     0.210 HD
ENDBRANCH   7   8
BRANCH   5  10
ATOM     10  C   UNL     1     129.964 138.094 146.295  1.00  0.00    -0.077 C 
ATOM     11  C   UNL     1     130.797 137.272 145.639  1.00  0.00     0.008 C 
ATOM     12  C   UNL     1     130.271 139.570 146.310  1.00  0.00     0.039 C 
ENDBRANCH   5  10
TORSDOF 2
ENDMDL
MODEL 3
REMARK VINA RESULT:    -3.723     16.093     17.407
REMARK INTER + INTRA:          -4.182
REMARK INTER:                  -4.025
REMARK INTRA:                  -0.157
REMARK UNBOUND:                -0.132
REMARK SMILES C=C(C)[C@H]1CC[C@H](C)[C@@H](O)C1
REMARK SMILES IDX 8 1 7 2 6 3 5 4 4 5 11 6 9 7 10 8 2 10 1 11 3 12
REMARK H PARENT 10 9
REMARK Flexibility Score: inf
ROOT
ATOM      1  C   UNL     1     134.830 136.769 141.145  1.00  0.00     0.010 C 
ATOM      2  C   UNL     1     135.936 135.870 141.718  1.00  0.00     0.015 C 
ATOM      3  C   UNL     1     137.073 135.673 140.676  1.00  0.00     0.006 C 
ATOM      4  C   UNL     1     138.475 135.782 141.281  1.00  0.00     0.008 C 
ATOM      5  C   UNL     1     138.656 137.150 141.969  1.00  0.00     0.017 C 
ATOM      6  C   UNL     1     137.498 137.503 142.946  1.00  0.00     0.040 C 
ATOM      7  C   UNL     1     136.429 136.397 143.093  1.00  0.00     0.117 C 
ENDROOT
BRANCH   7   8
ATOM      8  O   UNL     1     136.940 135.326 143.847  1.00  0.00    -0.393 OA
ATOM      9  H   UNL     1     136.364 135.236 144.650  1.00  0.00     0.210 HD
ENDBRANCH   7   8
BRANCH   5  10
ATOM     10  C   UNL     1     140.020 137.236 142.643  1.00  0.00    -0.077 C 
ATOM     11  C   UNL     1     140.358 136.361 143.603  1.00  0.00     0.008 C 
ATOM     12  C   UNL     1     141.010 138.305 142.259  1.00  0.00     0.039 C 
ENDBRANCH   5  10
TORSDOF 2
ENDMDL
MODEL 4
REMARK VINA RESULT:    -3.716     15.041     17.208
REMARK INTER + INTRA:          -4.174
REMARK INTER:                  -4.019
REMARK INTRA:                  -0.155
REMARK UNBOUND:                -0.132
REMARK SMILES C=C(C)[C@H]1CC[C@H](C)[C@@H](O)C1
REMARK SMILES IDX 8 1 7 2 6 3 5 4 4 5 11 6 9 7 10 8 2 10 1 11 3 12
REMARK H PARENT 10 9
REMARK Flexibility Score: inf
ROOT
ATOM      1  C   UNL     1     140.399 137.820 142.725  1.00  0.00     0.010 C 
ATOM      2  C   UNL     1     139.360 136.888 143.366  1.00  0.00     0.015 C 
ATOM      3  C   UNL     1     138.177 137.710 143.952  1.00  0.00     0.006 C 
ATOM      4  C   UNL     1     136.806 137.100 143.648  1.00  0.00     0.008 C 
ATOM      5  C   UNL     1     136.610 136.955 142.127  1.00  0.00     0.017 C 
ATOM      6  C   UNL     1     137.804 136.252 141.418  1.00  0.00     0.040 C 
ATOM      7  C   UNL     1     138.921 135.776 142.374  1.00  0.00     0.117 C 
ENDROOT
BRANCH   7   8
ATOM      8  O   UNL     1     138.492 134.649 143.098  1.00  0.00    -0.393 OA
ATOM      9  H   UNL     1     139.269 134.330 143.626  1.00  0.00     0.210 HD
ENDBRANCH   7   8
BRANCH   5  10
ATOM     10  C   UNL     1     135.283 136.275 141.818  1.00  0.00    -0.077 C 
ATOM     11  C   UNL     1     134.926 135.156 142.467  1.00  0.00     0.008 C 
ATOM     12  C   UNL     1     134.349 136.832 140.774  1.00  0.00     0.039 C 
ENDBRANCH   5  10
TORSDOF 2
ENDMDL
MODEL 5
REMARK VINA RESULT:    -3.713     14.945     16.811
REMARK INTER + INTRA:          -4.171
REMARK INTER:                  -4.039
REMARK INTRA:                  -0.132
REMARK UNBOUND:                -0.132
REMARK SMILES C=C(C)[C@H]1CC[C@H](C)[C@@H](O)C1
REMARK SMILES IDX 8 1 7 2 6 3 5 4 4 5 11 6 9 7 10 8 2 10 1 11 3 12
REMARK H PARENT 10 9
REMARK Flexibility Score: inf
ROOT
ATOM      1  C   UNL     1     136.173 132.945 140.257  1.00  0.00     0.010 C 
ATOM      2  C   UNL     1     136.412 134.445 140.028  1.00  0.00     0.015 C 
ATOM      3  C   UNL     1     135.351 135.289 140.790  1.00  0.00     0.006 C 
ATOM      4  C   UNL     1     135.945 136.503 141.509  1.00  0.00     0.008 C 
ATOM      5  C   UNL     1     137.037 136.057 142.500  1.00  0.00     0.017 C 
ATOM      6  C   UNL     1     138.088 135.100 141.867  1.00  0.00     0.040 C 
ATOM      7  C   UNL     1     137.879 134.833 140.359  1.00  0.00     0.117 C 
ENDROOT
BRANCH   7   8
ATOM      8  O   UNL     1     138.241 135.968 139.612  1.00  0.00    -0.393 OA
ATOM      9  H   UNL     1     137.755 135.913 138.748  1.00  0.00     0.210 HD
ENDBRANCH   7   8
BRANCH   5  10
ATOM     10  C   UNL     1     137.689 137.264 143.161  1.00  0.00    -0.077 C 
ATOM     11  C   UNL     1     136.940 138.172 143.807  1.00  0.00     0.008 C 
ATOM     12  C   UNL     1     139.180 137.475 143.097  1.00  0.00     0.039 C 
ENDBRANCH   5  10
TORSDOF 2
ENDMDL
MODEL 6
REMARK VINA RESULT:    -3.702     15.615     17.621
REMARK INTER + INTRA:          -4.159
REMARK INTER:                  -4.014
REMARK INTRA:                  -0.145
REMARK UNBOUND:                -0.132
REMARK SMILES C=C(C)[C@H]1CC[C@H](C)[C@@H](O)C1
REMARK SMILES IDX 8 1 7 2 6 3 5 4 4 5 11 6 9 7 10 8 2 10 1 11 3 12
REMARK H PARENT 10 9
REMARK Flexibility Score: inf
ROOT
ATOM      1  C   UNL     1     135.548 136.204 144.354  1.00  0.00     0.010 C 
ATOM      2  C   UNL     1     137.041 136.075 144.690  1.00  0.00     0.015 C 
ATOM      3  C   UNL     1     137.699 134.957 143.831  1.00  0.00     0.006 C 
ATOM      4  C   UNL     1     139.065 135.354 143.265  1.00  0.00     0.008 C 
ATOM      5  C   UNL     1     138.942 136.634 142.415  1.00  0.00     0.017 C 
ATOM      6  C   UNL     1     138.183 137.781 143.141  1.00  0.00     0.040 C 
ATOM      7  C   UNL     1     137.758 137.449 144.589  1.00  0.00     0.117 C 
ENDROOT
BRANCH   7   8
ATOM      8  O   UNL     1     138.880 137.453 145.436  1.00  0.00    -0.393 OA
ATOM      9  H   UNL     1     139.059 136.509 145.685  1.00  0.00     0.210 HD
ENDBRANCH   7   8
BRANCH   5  10
ATOM     10  C   UNL     1     140.309 137.080 141.915  1.00  0.00    -0.077 C 
ATOM     11  C   UNL     1     140.797 138.283 142.255  1.00  0.00     0.008 C 
ATOM     12  C   UNL     1     141.138 136.193 141.020  1.00  0.00     0.039 C 
ENDBRANCH   5  10
TORSDOF 2
ENDMDL
MODEL 7
REMARK VINA RESULT:    -3.697      9.274     11.062
REMARK INTER + INTRA:          -4.153
REMARK INTER:                  -4.049
REMARK INTRA:                  -0.103
REMARK UNBOUND:                -0.132
REMARK SMILES C=C(C)[C@H]1CC[C@H](C)[C@@H](O)C1
REMARK SMILES IDX 8 1 7 2 6 3 5 4 4 5 11 6 9 7 10 8 2 10 1 11 3 12
REMARK H PARENT 10 9
REMARK Flexibility Score: inf
ROOT
ATOM      1  C   UNL     1     131.197 122.625 133.991  1.00  0.00     0.010 C 
ATOM      2  C   UNL     1     131.691 123.283 135.289  1.00  0.00     0.015 C 
ATOM      3  C   UNL     1     130.505 123.511 136.270  1.00  0.00     0.006 C 
ATOM      4  C   UNL     1     130.837 123.141 137.718  1.00  0.00     0.008 C 
ATOM      5  C   UNL     1     131.284 121.668 137.805  1.00  0.00     0.017 C 
ATOM      6  C   UNL     1     132.387 121.300 136.771  1.00  0.00     0.040 C 
ATOM      7  C   UNL     1     132.871 122.485 135.906  1.00  0.00     0.117 C 
ENDROOT
BRANCH   7   8
ATOM      8  O   UNL     1     133.669 123.351 136.673  1.00  0.00    -0.393 OA
ATOM      9  H   UNL     1     133.954 122.847 137.479  1.00  0.00     0.210 HD
ENDBRANCH   7   8
BRANCH   5  10
ATOM     10  C   UNL     1     131.693 121.314 139.228  1.00  0.00    -0.077 C 
ATOM     11  C   UNL     1     131.957 120.041 139.561  1.00  0.00     0.008 C 
ATOM     12  C   UNL     1     131.799 122.375 140.294  1.00  0.00     0.039 C 
ENDBRANCH   5  10
TORSDOF 2
ENDMDL
MODEL 8
REMARK VINA RESULT:    -3.652     17.025     18.345
REMARK INTER + INTRA:          -4.105
REMARK INTER:                  -3.979
REMARK INTRA:                  -0.125
REMARK UNBOUND:                -0.132
REMARK SMILES C=C(C)[C@H]1CC[C@H](C)[C@@H](O)C1
REMARK SMILES IDX 8 1 7 2 6 3 5 4 4 5 11 6 9 7 10 8 2 10 1 11 3 12
REMARK H PARENT 10 9
REMARK Flexibility Score: inf
ROOT
ATOM      1  C   UNL     1     142.300 135.835 143.512  1.00  0.00     0.010 C 
ATOM      2  C   UNL     1     141.438 136.456 142.402  1.00  0.00     0.015 C 
ATOM      3  C   UNL     1     140.454 135.401 141.820  1.00  0.00     0.006 C 
ATOM      4  C   UNL     1     139.040 135.947 141.603  1.00  0.00     0.008 C 
ATOM      5  C   UNL     1     138.467 136.492 142.925  1.00  0.00     0.017 C 
ATOM      6  C   UNL     1     139.434 137.468 143.657  1.00  0.00     0.040 C 
ATOM      7  C   UNL     1     140.745 137.756 142.894  1.00  0.00     0.117 C 
ENDROOT
BRANCH   7   8
ATOM      8  O   UNL     1     140.492 138.594 141.794  1.00  0.00    -0.393 OA
ATOM      9  H   UNL     1     140.852 138.136 140.991  1.00  0.00     0.210 HD
ENDBRANCH   7   8
BRANCH   5  10
ATOM     10  C   UNL     1     137.093 137.110 142.702  1.00  0.00    -0.077 C 
ATOM     11  C   UNL     1     136.764 138.267 143.298  1.00  0.00     0.008 C 
ATOM     12  C   UNL     1     136.071 136.436 141.822  1.00  0.00     0.039 C 
ENDBRANCH   5  10
TORSDOF 2
ENDMDL
MODEL 9
REMARK VINA RESULT:    -3.651     17.519     18.845
REMARK INTER + INTRA:          -4.104
REMARK INTER:                  -3.955
REMARK INTRA:                  -0.149
REMARK UNBOUND:                -0.132
REMARK SMILES C=C(C)[C@H]1CC[C@H](C)[C@@H](O)C1
REMARK SMILES IDX 8 1 7 2 6 3 5 4 4 5 11 6 9 7 10 8 2 10 1 11 3 12
REMARK H PARENT 10 9
REMARK Flexibility Score: inf
ROOT
ATOM      1  C   UNL     1     142.543 135.908 140.447  1.00  0.00     0.010 C 
ATOM      2  C   UNL     1     142.266 136.594 141.793  1.00  0.00     0.015 C 
ATOM      3  C   UNL     1     141.651 138.005 141.570  1.00  0.00     0.006 C 
ATOM      4  C   UNL     1     140.481 138.312 142.509  1.00  0.00     0.008 C 
ATOM      5  C   UNL     1     139.374 137.251 142.349  1.00  0.00     0.017 C 
ATOM      6  C   UNL     1     139.907 135.791 142.431  1.00  0.00     0.040 C 
ATOM      7  C   UNL     1     141.420 135.681 142.722  1.00  0.00     0.117 C 
ENDROOT
BRANCH   7   8
ATOM      8  O   UNL     1     141.681 136.010 144.063  1.00  0.00    -0.393 OA
ATOM      9  H   UNL     1     141.121 136.800 144.283  1.00  0.00     0.210 HD
ENDBRANCH   7   8
BRANCH   5  10
ATOM     10  C   UNL     1     138.242 137.503 143.336  1.00  0.00    -0.077 C 
ATOM     11  C   UNL     1     137.091 138.055 142.922  1.00  0.00     0.008 C 
ATOM     12  C   UNL     1     138.390 137.152 144.795  1.00  0.00     0.039 C 
ENDBRANCH   5  10
TORSDOF 2
ENDMDL
