MODEL 1
REMARK VINA RESULT:    -2.987      0.000      0.000
REMARK INTER + INTRA:          -6.700
REMARK INTER:                  -6.304
REMARK INTRA:                  -0.396
REMARK UNBOUND:                -0.396
REMARK SMILES CCC(=O)CCCCC[C@H]1NC(=O)[C@@H]2CCCCN2C(=O)[C@H]([C@@H](C)CC)NC(=O)[C@@H](Cc2cn(OC)c3ccccc23)NC1=O
REMARK SMILES IDX 9 1 10 2 44 3 43 4 45 6 30 7 28 8 27 9 29 11 22 12 23 14
REMARK SMILES IDX 24 15 25 16 26 17 31 18 32 19 33 20 42 21 34 22 37 23 41 24
REMARK SMILES IDX 38 25 40 26 39 27 35 28 36 29 11 30 12 31 13 33 14 34 19 35
REMARK SMILES IDX 15 36 18 37 16 38 17 39 20 40 21 41 8 43 7 44 6 45 5 46 3 47
REMARK SMILES IDX 4 48 2 49 1 50
REMARK H PARENT 43 5 27 10 11 32
REMARK Flexibility Score: 80.00
ROOT
ATOM      1  C   UNL     1      10.926 -21.039  37.000  1.00  0.00     0.035 C 
ENDROOT
BRANCH   1   2
ATOM      2  C   UNL     1      10.854 -21.616  38.428  1.00  0.00     0.171 C 
BRANCH   2   3
ATOM      3  C   UNL     1      12.045 -21.198  39.247  1.00  0.00     0.243 C 
ATOM      4  N   UNL     1      13.341 -21.060  38.644  1.00  0.00    -0.342 N 
ATOM      5  H   UNL     1      13.416 -21.128  37.603  1.00  0.00     0.164 HD
ATOM      6  O   UNL     1      11.902 -21.010  40.487  1.00  0.00    -0.273 OA
BRANCH   4   7
ATOM      7  C   UNL     1      14.574 -21.215  39.418  1.00  0.00     0.175 C 
BRANCH   7   8
ATOM      8  C   UNL     1      15.114 -22.597  39.165  1.00  0.00     0.243 C 
ATOM      9  N   UNL     1      14.537 -23.716  39.854  1.00  0.00    -0.342 N 
ATOM     10  H   UNL     1      13.927 -23.523  40.679  1.00  0.00     0.164 HD
ATOM     11  O   UNL     1      15.985 -22.784  38.272  1.00  0.00    -0.273 OA
BRANCH   9  12
ATOM     12  C   UNL     1      14.572 -25.077  39.308  1.00  0.00     0.174 CG0
ATOM     13  G   UNL     1      13.205 -25.709  39.435  1.00  0.00     0.000 G0
BRANCH  12  14
ATOM     14  C   UNL     1      15.701 -25.927  39.961  1.00  0.00     0.018 C 
ATOM     15  C   UNL     1      15.550 -27.399  39.535  1.00  0.00     0.010 C 
BRANCH  14  16
ATOM     16  C   UNL     1      17.127 -25.409  39.633  1.00  0.00     0.002 C 
ATOM     17  C   UNL     1      17.958 -26.420  38.841  1.00  0.00     0.004 C 
ENDBRANCH  14  16
ENDBRANCH  12  14
ENDBRANCH   9  12
ENDBRANCH   7   8
BRANCH   7  18
ATOM     18  C   UNL     1      15.571 -20.104  39.038  1.00  0.00     0.073 C 
BRANCH  18  19
ATOM     19  C   UNL     1      14.930 -18.745  39.085  1.00  0.00    -0.016 A 
ATOM     20  C   UNL     1      13.955 -18.333  39.991  1.00  0.00     0.134 A 
ATOM     21  C   UNL     1      15.195 -17.645  38.284  1.00  0.00     0.006 A 
ATOM     22  N   UNL     1      13.628 -17.039  39.755  1.00  0.00    -0.191 N 
ATOM     23  C   UNL     1      14.382 -16.627  38.722  1.00  0.00     0.087 A 
ATOM     24  C   UNL     1      16.070 -17.471  37.210  1.00  0.00     0.011 A 
ATOM     25  C   UNL     1      14.392 -15.368  38.123  1.00  0.00     0.030 A 
ATOM     26  C   UNL     1      16.102 -16.210  36.587  1.00  0.00     0.001 A 
ATOM     27  C   UNL     1      15.269 -15.164  37.042  1.00  0.00     0.002 A 
BRANCH  22  28
ATOM     28  O   UNL     1      12.695 -16.267  40.424  1.00  0.00    -0.417 OA
ATOM     29  C   UNL     1      11.324 -16.235  40.050  1.00  0.00     0.313 C 
ENDBRANCH  22  28
ENDBRANCH  18  19
ENDBRANCH   7  18
ENDBRANCH   4   7
ENDBRANCH   2   3
BRANCH   2  30
ATOM     30  N   UNL     1      10.783 -23.081  38.395  1.00  0.00    -0.343 N 
ATOM     31  C   UNL     1      11.747 -23.883  37.697  1.00  0.00     0.243 C 
ATOM     32  H   UNL     1       9.923 -23.547  38.764  1.00  0.00     0.164 HD
ATOM     33  O   UNL     1      12.779 -23.347  37.206  1.00  0.00    -0.273 OA
BRANCH  31  34
ATOM     34  C   UNL     1      11.502 -25.365  37.514  1.00  0.00     0.174 C 
ATOM     35  N   UNL     1      12.486 -26.202  38.227  1.00  0.00    -0.329 N 
ATOM     36  C   UNL     1      10.085 -25.791  37.937  1.00  0.00     0.035 C 
ATOM     37  C   UNL     1      12.378 -27.646  37.990  1.00  0.00     0.120 C 
ATOM     38  C   UNL     1       9.889 -27.297  37.702  1.00  0.00     0.004 C 
ATOM     39  C   UNL     1      10.980 -28.124  38.401  1.00  0.00     0.022 C 
BRANCH  35  40
ATOM     40  C   UNL     1      13.169 -25.746  39.412  1.00  0.00     0.246 CG0
ATOM     41  O   UNL     1      12.605 -25.843  40.534  1.00  0.00    -0.272 OA
ATOM     42  G   UNL     1      14.534 -25.106  39.303  1.00  0.00     0.000 G0
ENDBRANCH  35  40
ENDBRANCH  31  34
ENDBRANCH   2  30
ENDBRANCH   1   2
BRANCH   1  43
ATOM     43  C   UNL     1      10.045 -19.786  36.851  1.00  0.00     0.003 C 
BRANCH  43  44
ATOM     44  C   UNL     1       9.994 -18.943  38.135  1.00  0.00     0.001 C 
BRANCH  44  45
ATOM     45  C   UNL     1       9.897 -17.435  37.851  1.00  0.00     0.008 C 
BRANCH  45  46
ATOM     46  C   UNL     1      10.495 -17.071  36.485  1.00  0.00     0.075 C 
BRANCH  46  47
ATOM     47  C   UNL     1      10.124 -15.674  36.050  1.00  0.00     0.132 C 
ATOM     48  O   UNL     1       9.985 -15.436  34.860  1.00  0.00    -0.300 OA
BRANCH  47  49
ATOM     49  C   UNL     1      10.006 -14.552  37.053  1.00  0.00     0.072 C 
ATOM     50  C   UNL     1      11.299 -13.748  37.158  1.00  0.00     0.012 C 
ENDBRANCH  47  49
ENDBRANCH  46  47
ENDBRANCH  45  46
ENDBRANCH  44  45
ENDBRANCH  43  44
ENDBRANCH   1  43
TORSDOF 12
ENDMDL
MODEL 2
REMARK VINA RESULT:    -2.490      3.313      5.457
REMARK INTER + INTRA:          -5.652
REMARK INTER:                  -6.604
REMARK INTRA:                   0.952
REMARK UNBOUND:                -0.396
REMARK SMILES CCC(=O)CCCCC[C@H]1NC(=O)[C@@H]2CCCCN2C(=O)[C@H]([C@@H](C)CC)NC(=O)[C@@H](Cc2cn(OC)c3ccccc23)NC1=O
REMARK SMILES IDX 9 1 10 2 44 3 43 4 45 6 30 7 28 8 27 9 29 11 22 12 23 14
REMARK SMILES IDX 24 15 25 16 26 17 31 18 32 19 33 20 42 21 34 22 37 23 41 24
REMARK SMILES IDX 38 25 40 26 39 27 35 28 36 29 11 30 12 31 13 33 14 34 19 35
REMARK SMILES IDX 15 36 18 37 16 38 17 39 20 40 21 41 8 43 7 44 6 45 5 46 3 47
REMARK SMILES IDX 4 48 2 49 1 50
REMARK H PARENT 43 5 27 10 11 32
REMARK Flexibility Score: 80.00
ROOT
ATOM      1  C   UNL     1      13.868 -15.746  40.014  1.00  0.00     0.035 C 
ENDROOT
BRANCH   1   2
ATOM      2  C   UNL     1      14.379 -17.188  40.203  1.00  0.00     0.171 C 
BRANCH   2   3
ATOM      3  C   UNL     1      15.033 -17.705  38.951  1.00  0.00     0.243 C 
ATOM      4  N   UNL     1      14.738 -17.122  37.671  1.00  0.00    -0.342 N 
ATOM      5  H   UNL     1      14.161 -16.251  37.642  1.00  0.00     0.164 HD
ATOM      6  O   UNL     1      15.819 -18.690  39.030  1.00  0.00    -0.273 OA
BRANCH   4   7
ATOM      7  C   UNL     1      14.871 -17.882  36.428  1.00  0.00     0.175 C 
BRANCH   7   8
ATOM      8  C   UNL     1      13.656 -18.760  36.284  1.00  0.00     0.243 C 
ATOM      9  N   UNL     1      13.357 -19.721  37.308  1.00  0.00    -0.342 N 
ATOM     10  H   UNL     1      14.105 -19.951  37.999  1.00  0.00     0.164 HD
ATOM     11  O   UNL     1      12.848 -18.575  35.334  1.00  0.00    -0.273 OA
BRANCH   9  12
ATOM     12  C   UNL     1      11.993 -20.197  37.561  1.00  0.00     0.174 CG0
ATOM     13  G   UNL     1      11.414 -19.465  38.751  1.00  0.00     0.000 G0
BRANCH  12  14
ATOM     14  C   UNL     1      11.946 -21.746  37.716  1.00  0.00     0.018 C 
ATOM     15  C   UNL     1      10.827 -22.319  36.827  1.00  0.00     0.010 C 
BRANCH  14  16
ATOM     16  C   UNL     1      13.300 -22.435  37.399  1.00  0.00     0.002 C 
ATOM     17  C   UNL     1      13.438 -23.805  38.065  1.00  0.00     0.004 C 
ENDBRANCH  14  16
ENDBRANCH  12  14
ENDBRANCH   9  12
ENDBRANCH   7   8
BRANCH   7  18
ATOM     18  C   UNL     1      15.052 -16.915  35.243  1.00  0.00     0.073 C 
BRANCH  18  19
ATOM     19  C   UNL     1      15.660 -15.611  35.681  1.00  0.00    -0.016 A 
ATOM     20  C   UNL     1      15.264 -14.855  36.782  1.00  0.00     0.134 A 
ATOM     21  C   UNL     1      16.731 -14.933  35.119  1.00  0.00     0.006 A 
ATOM     22  N   UNL     1      16.050 -13.756  36.889  1.00  0.00    -0.191 N 
ATOM     23  C   UNL     1      16.936 -13.809  35.881  1.00  0.00     0.087 A 
ATOM     24  C   UNL     1      17.520 -15.213  34.001  1.00  0.00     0.011 A 
ATOM     25  C   UNL     1      17.944 -12.893  35.584  1.00  0.00     0.030 A 
ATOM     26  C   UNL     1      18.546 -14.307  33.679  1.00  0.00     0.001 A 
ATOM     27  C   UNL     1      18.758 -13.154  34.467  1.00  0.00     0.002 A 
BRANCH  22  28
ATOM     28  O   UNL     1      15.972 -12.750  37.836  1.00  0.00    -0.417 OA
ATOM     29  C   UNL     1      15.276 -12.913  39.065  1.00  0.00     0.313 C 
ENDBRANCH  22  28
ENDBRANCH  18  19
ENDBRANCH   7  18
ENDBRANCH   4   7
ENDBRANCH   2   3
BRANCH   2  30
ATOM     30  N   UNL     1      13.279 -18.085  40.576  1.00  0.00    -0.343 N 
ATOM     31  C   UNL     1      13.474 -19.489  40.805  1.00  0.00     0.243 C 
ATOM     32  H   UNL     1      12.301 -17.720  40.529  1.00  0.00     0.164 HD
ATOM     33  O   UNL     1      14.641 -19.970  40.831  1.00  0.00    -0.273 OA
BRANCH  31  34
ATOM     34  C   UNL     1      12.275 -20.398  40.970  1.00  0.00     0.174 C 
ATOM     35  N   UNL     1      11.172 -20.065  40.047  1.00  0.00    -0.329 N 
ATOM     36  C   UNL     1      12.629 -21.887  40.808  1.00  0.00     0.035 C 
ATOM     37  C   UNL     1       9.935 -20.828  40.241  1.00  0.00     0.120 C 
ATOM     38  C   UNL     1      11.380 -22.756  41.014  1.00  0.00     0.004 C 
ATOM     39  C   UNL     1      10.232 -22.324  40.085  1.00  0.00     0.022 C 
BRANCH  35  40
ATOM     40  C   UNL     1      11.400 -19.429  38.774  1.00  0.00     0.246 CG0
ATOM     41  O   UNL     1      11.080 -18.221  38.613  1.00  0.00    -0.272 OA
ATOM     42  G   UNL     1      11.973 -20.221  37.621  1.00  0.00     0.000 G0
ENDBRANCH  35  40
ENDBRANCH  31  34
ENDBRANCH   2  30
ENDBRANCH   1   2
BRANCH   1  43
ATOM     43  C   UNL     1      12.811 -15.377  41.070  1.00  0.00     0.003 C 
BRANCH  43  44
ATOM     44  C   UNL     1      11.374 -15.522  40.544  1.00  0.00     0.001 C 
BRANCH  44  45
ATOM     45  C   UNL     1      10.496 -14.303  40.869  1.00  0.00     0.008 C 
BRANCH  45  46
ATOM     46  C   UNL     1      10.115 -13.519  39.605  1.00  0.00     0.075 C 
BRANCH  46  47
ATOM     47  C   UNL     1      11.257 -12.685  39.080  1.00  0.00     0.132 C 
ATOM     48  O   UNL     1      11.472 -11.589  39.573  1.00  0.00    -0.300 OA
BRANCH  47  49
ATOM     49  C   UNL     1      12.083 -13.148  37.904  1.00  0.00     0.072 C 
ATOM     50  C   UNL     1      11.630 -14.515  37.398  1.00  0.00     0.012 C 
ENDBRANCH  47  49
ENDBRANCH  46  47
ENDBRANCH  45  46
ENDBRANCH  44  45
ENDBRANCH  43  44
ENDBRANCH   1  43
TORSDOF 12
ENDMDL
MODEL 3
REMARK VINA RESULT:    -1.747      3.177      5.458
REMARK INTER + INTRA:          -4.084
REMARK INTER:                  -6.494
REMARK INTRA:                   2.410
REMARK UNBOUND:                -0.396
REMARK SMILES CCC(=O)CCCCC[C@H]1NC(=O)[C@@H]2CCCCN2C(=O)[C@H]([C@@H](C)CC)NC(=O)[C@@H](Cc2cn(OC)c3ccccc23)NC1=O
REMARK SMILES IDX 9 1 10 2 44 3 43 4 45 6 30 7 28 8 27 9 29 11 22 12 23 14
REMARK SMILES IDX 24 15 25 16 26 17 31 18 32 19 33 20 42 21 34 22 37 23 41 24
REMARK SMILES IDX 38 25 40 26 39 27 35 28 36 29 11 30 12 31 13 33 14 34 19 35
REMARK SMILES IDX 15 36 18 37 16 38 17 39 20 40 21 41 8 43 7 44 6 45 5 46 3 47
REMARK SMILES IDX 4 48 2 49 1 50
REMARK H PARENT 43 5 27 10 11 32
REMARK Flexibility Score: 80.00
ROOT
ATOM      1  C   UNL     1      13.807 -15.949  40.032  1.00  0.00     0.035 C 
ENDROOT
BRANCH   1   2
ATOM      2  C   UNL     1      14.336 -17.383  40.230  1.00  0.00     0.171 C 
BRANCH   2   3
ATOM      3  C   UNL     1      14.951 -17.918  38.965  1.00  0.00     0.243 C 
ATOM      4  N   UNL     1      14.602 -17.366  37.686  1.00  0.00    -0.342 N 
ATOM      5  H   UNL     1      14.014 -16.502  37.660  1.00  0.00     0.164 HD
ATOM      6  O   UNL     1      15.751 -18.892  39.036  1.00  0.00    -0.273 OA
BRANCH   4   7
ATOM      7  C   UNL     1      14.699 -18.149  36.453  1.00  0.00     0.175 C 
BRANCH   7   8
ATOM      8  C   UNL     1      13.473 -19.017  36.353  1.00  0.00     0.243 C 
ATOM      9  N   UNL     1      13.137 -19.890  37.441  1.00  0.00    -0.342 N 
ATOM     10  H   UNL     1      13.866 -20.078  38.164  1.00  0.00     0.164 HD
ATOM     11  O   UNL     1      12.686 -18.893  35.374  1.00  0.00    -0.273 OA
BRANCH   9  12
ATOM     12  C   UNL     1      11.760 -20.323  37.702  1.00  0.00     0.174 CG0
ATOM     13  G   UNL     1      11.238 -19.632  38.941  1.00  0.00     0.000 G0
BRANCH  12  14
ATOM     14  C   UNL     1      11.652 -21.875  37.778  1.00  0.00     0.018 C 
ATOM     15  C   UNL     1      10.500 -22.357  36.878  1.00  0.00     0.010 C 
BRANCH  14  16
ATOM     16  C   UNL     1      12.973 -22.601  37.407  1.00  0.00     0.002 C 
ATOM     17  C   UNL     1      13.088 -23.985  38.045  1.00  0.00     0.004 C 
ENDBRANCH  14  16
ENDBRANCH  12  14
ENDBRANCH   9  12
ENDBRANCH   7   8
BRANCH   7  18
ATOM     18  C   UNL     1      14.865 -17.206  35.247  1.00  0.00     0.073 C 
BRANCH  18  19
ATOM     19  C   UNL     1      15.645 -15.974  35.612  1.00  0.00    -0.016 A 
ATOM     20  C   UNL     1      16.922 -15.652  35.158  1.00  0.00     0.134 A 
ATOM     21  C   UNL     1      15.252 -14.919  36.421  1.00  0.00     0.006 A 
ATOM     22  N   UNL     1      17.303 -14.456  35.669  1.00  0.00    -0.191 N 
ATOM     23  C   UNL     1      16.288 -14.016  36.432  1.00  0.00     0.087 A 
ATOM     24  C   UNL     1      14.080 -14.696  37.147  1.00  0.00     0.011 A 
ATOM     25  C   UNL     1      16.223 -12.830  37.162  1.00  0.00     0.030 A 
ATOM     26  C   UNL     1      13.986 -13.506  37.892  1.00  0.00     0.001 A 
ATOM     27  C   UNL     1      15.051 -12.577  37.898  1.00  0.00     0.002 A 
BRANCH  22  28
ATOM     28  O   UNL     1      18.502 -13.795  35.472  1.00  0.00    -0.417 OA
ATOM     29  C   UNL     1      18.809 -13.120  34.259  1.00  0.00     0.313 C 
ENDBRANCH  22  28
ENDBRANCH  18  19
ENDBRANCH   7  18
ENDBRANCH   4   7
ENDBRANCH   2   3
BRANCH   2  30
ATOM     30  N   UNL     1      13.257 -18.281  40.657  1.00  0.00    -0.343 N 
ATOM     31  C   UNL     1      13.454 -19.692  40.834  1.00  0.00     0.243 C 
ATOM     32  H   UNL     1      12.281 -17.908  40.689  1.00  0.00     0.164 HD
ATOM     33  O   UNL     1      14.615 -20.183  40.764  1.00  0.00    -0.273 OA
BRANCH  31  34
ATOM     34  C   UNL     1      12.261 -20.596  41.060  1.00  0.00     0.174 C 
ATOM     35  N   UNL     1      11.105 -20.242  40.214  1.00  0.00    -0.329 N 
ATOM     36  C   UNL     1      12.594 -22.084  40.854  1.00  0.00     0.035 C 
ATOM     37  C   UNL     1       9.876 -21.000  40.473  1.00  0.00     0.120 C 
ATOM     38  C   UNL     1      11.353 -22.949  41.125  1.00  0.00     0.004 C 
ATOM     39  C   UNL     1      10.153 -22.495  40.277  1.00  0.00     0.022 C 
BRANCH  35  40
ATOM     40  C   UNL     1      11.257 -19.587  38.938  1.00  0.00     0.246 CG0
ATOM     41  O   UNL     1      10.932 -18.376  38.815  1.00  0.00    -0.272 OA
ATOM     42  G   UNL     1      11.756 -20.364  37.741  1.00  0.00     0.000 G0
ENDBRANCH  35  40
ENDBRANCH  31  34
ENDBRANCH   2  30
ENDBRANCH   1   2
BRANCH   1  43
ATOM     43  C   UNL     1      12.692 -15.613  41.037  1.00  0.00     0.003 C 
BRANCH  43  44
ATOM     44  C   UNL     1      11.363 -15.260  40.350  1.00  0.00     0.001 C 
BRANCH  44  45
ATOM     45  C   UNL     1      11.278 -13.778  39.948  1.00  0.00     0.008 C 
BRANCH  45  46
ATOM     46  C   UNL     1      10.947 -13.608  38.458  1.00  0.00     0.075 C 
BRANCH  46  47
ATOM     47  C   UNL     1      10.266 -14.823  37.878  1.00  0.00     0.132 C 
ATOM     48  O   UNL     1       9.891 -15.712  38.628  1.00  0.00    -0.300 OA
BRANCH  47  49
ATOM     49  C   UNL     1      10.118 -14.994  36.386  1.00  0.00     0.072 C 
ATOM     50  C   UNL     1      10.138 -16.466  35.980  1.00  0.00     0.012 C 
ENDBRANCH  47  49
ENDBRANCH  46  47
ENDBRANCH  45  46
ENDBRANCH  44  45
ENDBRANCH  43  44
ENDBRANCH   1  43
TORSDOF 12
ENDMDL
MODEL 4
REMARK VINA RESULT:    -0.676      3.340      5.486
REMARK INTER + INTRA:          -1.823
REMARK INTER:                  -3.514
REMARK INTRA:                   1.691
REMARK UNBOUND:                -0.396
REMARK SMILES CCC(=O)CCCCC[C@H]1NC(=O)[C@@H]2CCCCN2C(=O)[C@H]([C@@H](C)CC)NC(=O)[C@@H](Cc2cn(OC)c3ccccc23)NC1=O
REMARK SMILES IDX 9 1 10 2 44 3 43 4 45 6 30 7 28 8 27 9 29 11 22 12 23 14
REMARK SMILES IDX 24 15 25 16 26 17 31 18 32 19 33 20 42 21 34 22 37 23 41 24
REMARK SMILES IDX 38 25 40 26 39 27 35 28 36 29 11 30 12 31 13 33 14 34 19 35
REMARK SMILES IDX 15 36 18 37 16 38 17 39 20 40 21 41 8 43 7 44 6 45 5 46 3 47
REMARK SMILES IDX 4 48 2 49 1 50
REMARK H PARENT 43 5 27 10 11 32
REMARK Flexibility Score: 80.00
ROOT
ATOM      1  C   UNL     1      14.899 -16.117  40.078  1.00  0.00     0.035 C 
ENDROOT
BRANCH   1   2
ATOM      2  C   UNL     1      15.011 -17.654  40.049  1.00  0.00     0.171 C 
BRANCH   2   3
ATOM      3  C   UNL     1      15.413 -18.148  38.685  1.00  0.00     0.243 C 
ATOM      4  N   UNL     1      15.131 -17.372  37.509  1.00  0.00    -0.342 N 
ATOM      5  H   UNL     1      14.759 -16.402  37.630  1.00  0.00     0.164 HD
ATOM      6  O   UNL     1      15.967 -19.277  38.579  1.00  0.00    -0.273 OA
BRANCH   4   7
ATOM      7  C   UNL     1      14.973 -17.993  36.194  1.00  0.00     0.175 C 
BRANCH   7   8
ATOM      8  C   UNL     1      13.638 -18.688  36.162  1.00  0.00     0.243 C 
ATOM      9  N   UNL     1      13.398 -19.793  37.045  1.00  0.00    -0.342 N 
ATOM     10  H   UNL     1      14.220 -20.236  37.513  1.00  0.00     0.164 HD
ATOM     11  O   UNL     1      12.702 -18.232  35.449  1.00  0.00    -0.273 OA
BRANCH   9  12
ATOM     12  C   UNL     1      12.050 -20.158  37.496  1.00  0.00     0.174 CG0
ATOM     13  G   UNL     1      11.674 -19.321  38.697  1.00  0.00     0.000 G0
BRANCH  12  14
ATOM     14  C   UNL     1      11.928 -21.689  37.756  1.00  0.00     0.018 C 
ATOM     15  C   UNL     1      10.502 -22.158  37.415  1.00  0.00     0.010 C 
BRANCH  14  16
ATOM     16  C   UNL     1      12.977 -22.529  36.979  1.00  0.00     0.002 C 
ATOM     17  C   UNL     1      14.059 -23.114  37.888  1.00  0.00     0.004 C 
ENDBRANCH  14  16
ENDBRANCH  12  14
ENDBRANCH   9  12
ENDBRANCH   7   8
BRANCH   7  18
ATOM     18  C   UNL     1      15.118 -16.926  35.093  1.00  0.00     0.073 C 
BRANCH  18  19
ATOM     19  C   UNL     1      15.887 -15.729  35.580  1.00  0.00    -0.016 A 
ATOM     20  C   UNL     1      15.719 -15.095  36.809  1.00  0.00     0.134 A 
ATOM     21  C   UNL     1      16.916 -15.054  34.941  1.00  0.00     0.006 A 
ATOM     22  N   UNL     1      16.599 -14.070  36.920  1.00  0.00    -0.191 N 
ATOM     23  C   UNL     1      17.321 -14.051  35.788  1.00  0.00     0.087 A 
ATOM     24  C   UNL     1      17.508 -15.239  33.690  1.00  0.00     0.011 A 
ATOM     25  C   UNL     1      18.346 -13.169  35.447  1.00  0.00     0.030 A 
ATOM     26  C   UNL     1      18.547 -14.365  33.320  1.00  0.00     0.001 A 
ATOM     27  C   UNL     1      18.965 -13.337  34.194  1.00  0.00     0.002 A 
BRANCH  22  28
ATOM     28  O   UNL     1      16.742 -13.190  37.978  1.00  0.00    -0.417 OA
ATOM     29  C   UNL     1      15.649 -12.805  38.801  1.00  0.00     0.313 C 
ENDBRANCH  22  28
ENDBRANCH  18  19
ENDBRANCH   7  18
ENDBRANCH   4   7
ENDBRANCH   2   3
BRANCH   2  30
ATOM     30  N   UNL     1      13.738 -18.276  40.429  1.00  0.00    -0.343 N 
ATOM     31  C   UNL     1      13.633 -19.665  40.778  1.00  0.00     0.243 C 
ATOM     32  H   UNL     1      12.857 -17.728  40.299  1.00  0.00     0.164 HD
ATOM     33  O   UNL     1      14.675 -20.366  40.907  1.00  0.00    -0.273 OA
BRANCH  31  34
ATOM     34  C   UNL     1      12.268 -20.297  40.946  1.00  0.00     0.174 C 
ATOM     35  N   UNL     1      11.275 -19.784  39.982  1.00  0.00    -0.329 N 
ATOM     36  C   UNL     1      12.307 -21.832  40.853  1.00  0.00     0.035 C 
ATOM     37  C   UNL     1       9.902 -20.264  40.172  1.00  0.00     0.120 C 
ATOM     38  C   UNL     1      10.899 -22.413  41.060  1.00  0.00     0.004 C 
ATOM     39  C   UNL     1       9.884 -21.795  40.084  1.00  0.00     0.022 C 
BRANCH  35  40
ATOM     40  C   UNL     1      11.654 -19.266  38.691  1.00  0.00     0.246 CG0
ATOM     41  O   UNL     1      11.623 -18.023  38.483  1.00  0.00    -0.272 OA
ATOM     42  G   UNL     1      12.036 -20.212  37.575  1.00  0.00     0.000 G0
ENDBRANCH  35  40
ENDBRANCH  31  34
ENDBRANCH   2  30
ENDBRANCH   1   2
BRANCH   1  43
ATOM     43  C   UNL     1      13.875 -15.644  41.124  1.00  0.00     0.003 C 
BRANCH  43  44
ATOM     44  C   UNL     1      12.763 -14.777  40.513  1.00  0.00     0.001 C 
BRANCH  44  45
ATOM     45  C   UNL     1      11.567 -15.606  40.018  1.00  0.00     0.008 C 
BRANCH  45  46
ATOM     46  C   UNL     1      10.822 -14.907  38.871  1.00  0.00     0.075 C 
BRANCH  46  47
ATOM     47  C   UNL     1      11.548 -15.034  37.554  1.00  0.00     0.132 C 
ATOM     48  O   UNL     1      12.682 -15.487  37.538  1.00  0.00    -0.300 OA
BRANCH  47  49
ATOM     49  C   UNL     1      10.927 -14.534  36.272  1.00  0.00     0.072 C 
ATOM     50  C   UNL     1       9.922 -15.531  35.703  1.00  0.00     0.012 C 
ENDBRANCH  47  49
ENDBRANCH  46  47
ENDBRANCH  45  46
ENDBRANCH  44  45
ENDBRANCH  43  44
ENDBRANCH   1  43
TORSDOF 12
ENDMDL
