MODEL 1
REMARK VINA RESULT:    -3.274      0.000      0.000
REMARK INTER + INTRA:          -9.409
REMARK INTER:                  -7.101
REMARK INTRA:                  -2.307
REMARK UNBOUND:                -2.307
REMARK SMILES CCCCCCCCCCCCCCCCCCCCCC(=O)[O-]
REMARK SMILES IDX 12 1 11 2 10 3 9 4 8 5 7 6 6 7 5 8 4 9 3 10 2 11 1 12 13 13
REMARK SMILES IDX 14 14 15 15 16 16 17 17 18 18 19 19 20 20 21 21 22 22 23 23
REMARK SMILES IDX 24 24
REMARK H PARENT
REMARK Flexibility Score: inf
ROOT
ATOM      1  C   UNL     1      60.873  24.469  23.802  1.00  0.00     0.000 C 
ENDROOT
BRANCH   1   2
ATOM      2  C   UNL     1      61.583  25.302  22.720  1.00  0.00     0.000 C 
BRANCH   2   3
ATOM      3  C   UNL     1      62.914  25.901  23.224  1.00  0.00     0.000 C 
BRANCH   3   4
ATOM      4  C   UNL     1      64.124  25.551  22.343  1.00  0.00    -0.000 C 
BRANCH   4   5
ATOM      5  C   UNL     1      63.971  24.203  21.621  1.00  0.00    -0.000 C 
BRANCH   5   6
ATOM      6  C   UNL     1      63.638  23.054  22.584  1.00  0.00    -0.000 C 
BRANCH   6   7
ATOM      7  C   UNL     1      63.902  21.670  21.964  1.00  0.00    -0.000 C 
BRANCH   7   8
ATOM      8  C   UNL     1      64.072  21.723  20.434  1.00  0.00    -0.000 C 
BRANCH   8   9
ATOM      9  C   UNL     1      62.881  21.179  19.624  1.00  0.00    -0.000 C 
BRANCH   9  10
ATOM     10  C   UNL     1      61.845  22.261  19.279  1.00  0.00    -0.000 C 
BRANCH  10  11
ATOM     11  C   UNL     1      60.815  22.471  20.400  1.00  0.00    -0.003 C 
ATOM     12  C   UNL     1      60.498  21.185  21.164  1.00  0.00     0.004 C 
ENDBRANCH  10  11
ENDBRANCH   9  10
ENDBRANCH   8   9
ENDBRANCH   7   8
ENDBRANCH   6   7
ENDBRANCH   5   6
ENDBRANCH   4   5
ENDBRANCH   3   4
ENDBRANCH   2   3
ENDBRANCH   1   2
BRANCH   1  13
ATOM     13  C   UNL     1      61.470  24.680  25.202  1.00  0.00     0.000 C 
BRANCH  13  14
ATOM     14  C   UNL     1      62.410  23.557  25.680  1.00  0.00     0.000 C 
BRANCH  14  15
ATOM     15  C   UNL     1      61.667  22.278  26.124  1.00  0.00     0.000 C 
BRANCH  15  16
ATOM     16  C   UNL     1      61.422  21.312  24.950  1.00  0.00     0.000 C 
BRANCH  16  17
ATOM     17  C   UNL     1      59.928  21.060  24.690  1.00  0.00     0.000 C 
BRANCH  17  18
ATOM     18  C   UNL     1      59.022  22.049  25.442  1.00  0.00     0.000 C 
BRANCH  18  19
ATOM     19  C   UNL     1      57.823  22.512  24.597  1.00  0.00     0.000 C 
BRANCH  19  20
ATOM     20  C   UNL     1      57.800  21.878  23.195  1.00  0.00     0.006 C 
BRANCH  20  21
ATOM     21  C   UNL     1      56.424  21.293  22.846  1.00  0.00     0.053 C 
BRANCH  21  22
ATOM     22  C   UNL     1      55.332  22.309  22.995  1.00  0.00     0.041 C 
ATOM     23  O   UNL     1      55.382  23.389  22.352  1.00  0.00    -0.550 OA
ATOM     24  O   UNL     1      54.252  22.055  23.831  1.00  0.00    -0.550 OA
ENDBRANCH  21  22
ENDBRANCH  20  21
ENDBRANCH  19  20
ENDBRANCH  18  19
ENDBRANCH  17  18
ENDBRANCH  16  17
ENDBRANCH  15  16
ENDBRANCH  14  15
ENDBRANCH  13  14
ENDBRANCH   1  13
TORSDOF 20
ENDMDL
MODEL 2
REMARK VINA RESULT:    -2.798      2.769      6.525
REMARK INTER + INTRA:          -8.376
REMARK INTER:                  -6.115
REMARK INTRA:                  -2.261
REMARK UNBOUND:                -2.307
REMARK SMILES CCCCCCCCCCCCCCCCCCCCCC(=O)[O-]
REMARK SMILES IDX 12 1 11 2 10 3 9 4 8 5 7 6 6 7 5 8 4 9 3 10 2 11 1 12 13 13
REMARK SMILES IDX 14 14 15 15 16 16 17 17 18 18 19 19 20 20 21 21 22 22 23 23
REMARK SMILES IDX 24 24
REMARK H PARENT
REMARK Flexibility Score: inf
ROOT
ATOM      1  C   UNL     1      58.716  22.192  22.056  1.00  0.00     0.000 C 
ENDROOT
BRANCH   1   2
ATOM      2  C   UNL     1      57.491  21.313  22.369  1.00  0.00     0.000 C 
BRANCH   2   3
ATOM      3  C   UNL     1      56.728  21.799  23.621  1.00  0.00     0.000 C 
BRANCH   3   4
ATOM      4  C   UNL     1      57.556  22.721  24.531  1.00  0.00    -0.000 C 
BRANCH   4   5
ATOM      5  C   UNL     1      58.873  22.079  24.997  1.00  0.00    -0.000 C 
BRANCH   5   6
ATOM      6  C   UNL     1      59.827  23.096  25.642  1.00  0.00    -0.000 C 
BRANCH   6   7
ATOM      7  C   UNL     1      59.556  24.537  25.176  1.00  0.00    -0.000 C 
BRANCH   7   8
ATOM      8  C   UNL     1      59.910  24.763  23.695  1.00  0.00    -0.000 C 
BRANCH   8   9
ATOM      9  C   UNL     1      61.410  24.662  23.358  1.00  0.00    -0.000 C 
BRANCH   9  10
ATOM     10  C   UNL     1      62.193  25.935  23.718  1.00  0.00    -0.000 C 
BRANCH  10  11
ATOM     11  C   UNL     1      63.698  25.801  23.438  1.00  0.00    -0.003 C 
ATOM     12  C   UNL     1      63.999  24.973  22.189  1.00  0.00     0.004 C 
ENDBRANCH  10  11
ENDBRANCH   9  10
ENDBRANCH   8   9
ENDBRANCH   7   8
ENDBRANCH   6   7
ENDBRANCH   5   6
ENDBRANCH   4   5
ENDBRANCH   3   4
ENDBRANCH   2   3
ENDBRANCH   1   2
BRANCH   1  13
ATOM     13  C   UNL     1      59.944  21.370  21.632  1.00  0.00     0.000 C 
BRANCH  13  14
ATOM     14  C   UNL     1      60.386  21.576  20.171  1.00  0.00     0.000 C 
BRANCH  14  15
ATOM     15  C   UNL     1      61.378  22.746  19.986  1.00  0.00     0.000 C 
BRANCH  15  16
ATOM     16  C   UNL     1      62.435  22.445  18.909  1.00  0.00     0.000 C 
BRANCH  16  17
ATOM     17  C   UNL     1      63.519  21.471  19.396  1.00  0.00     0.000 C 
BRANCH  17  18
ATOM     18  C   UNL     1      64.120  21.883  20.750  1.00  0.00     0.000 C 
BRANCH  18  19
ATOM     19  C   UNL     1      63.804  20.876  21.869  1.00  0.00     0.000 C 
BRANCH  19  20
ATOM     20  C   UNL     1      63.114  21.528  23.081  1.00  0.00     0.006 C 
BRANCH  20  21
ATOM     21  C   UNL     1      64.125  22.087  24.092  1.00  0.00     0.053 C 
BRANCH  21  22
ATOM     22  C   UNL     1      63.496  22.338  25.429  1.00  0.00     0.041 C 
ATOM     23  O   UNL     1      62.851  21.423  26.005  1.00  0.00    -0.550 OA
ATOM     24  O   UNL     1      63.635  23.574  26.046  1.00  0.00    -0.550 OA
ENDBRANCH  21  22
ENDBRANCH  20  21
ENDBRANCH  19  20
ENDBRANCH  18  19
ENDBRANCH  17  18
ENDBRANCH  16  17
ENDBRANCH  15  16
ENDBRANCH  14  15
ENDBRANCH  13  14
ENDBRANCH   1  13
TORSDOF 20
ENDMDL
MODEL 3
REMARK VINA RESULT:    -2.043      2.524      5.240
REMARK INTER + INTRA:          -6.740
REMARK INTER:                  -4.605
REMARK INTRA:                  -2.135
REMARK UNBOUND:                -2.307
REMARK SMILES CCCCCCCCCCCCCCCCCCCCCC(=O)[O-]
REMARK SMILES IDX 12 1 11 2 10 3 9 4 8 5 7 6 6 7 5 8 4 9 3 10 2 11 1 12 13 13
REMARK SMILES IDX 14 14 15 15 16 16 17 17 18 18 19 19 20 20 21 21 22 22 23 23
REMARK SMILES IDX 24 24
REMARK H PARENT
REMARK Flexibility Score: inf
ROOT
ATOM      1  C   UNL     1      60.616  23.939  24.844  1.00  0.00     0.000 C 
ENDROOT
BRANCH   1   2
ATOM      2  C   UNL     1      59.204  24.540  24.972  1.00  0.00     0.000 C 
BRANCH   2   3
ATOM      3  C   UNL     1      58.105  23.455  24.968  1.00  0.00     0.000 C 
BRANCH   3   4
ATOM      4  C   UNL     1      58.649  22.022  25.083  1.00  0.00    -0.000 C 
BRANCH   4   5
ATOM      5  C   UNL     1      58.206  21.116  23.922  1.00  0.00    -0.000 C 
BRANCH   5   6
ATOM      6  C   UNL     1      57.587  21.908  22.761  1.00  0.00    -0.000 C 
BRANCH   6   7
ATOM      7  C   UNL     1      58.311  21.660  21.426  1.00  0.00    -0.000 C 
BRANCH   7   8
ATOM      8  C   UNL     1      59.820  21.407  21.603  1.00  0.00    -0.000 C 
BRANCH   8   9
ATOM      9  C   UNL     1      60.738  22.498  21.022  1.00  0.00    -0.000 C 
BRANCH   9  10
ATOM     10  C   UNL     1      60.879  22.413  19.493  1.00  0.00    -0.000 C 
BRANCH  10  11
ATOM     11  C   UNL     1      62.200  21.761  19.058  1.00  0.00    -0.003 C 
ATOM     12  C   UNL     1      63.015  22.642  18.110  1.00  0.00     0.004 C 
ENDBRANCH  10  11
ENDBRANCH   9  10
ENDBRANCH   8   9
ENDBRANCH   7   8
ENDBRANCH   6   7
ENDBRANCH   5   6
ENDBRANCH   4   5
ENDBRANCH   3   4
ENDBRANCH   2   3
ENDBRANCH   1   2
BRANCH   1  13
ATOM     13  C   UNL     1      61.549  24.368  25.988  1.00  0.00     0.000 C 
BRANCH  13  14
ATOM     14  C   UNL     1      62.973  23.782  25.913  1.00  0.00     0.000 C 
BRANCH  14  15
ATOM     15  C   UNL     1      63.009  22.240  25.987  1.00  0.00     0.000 C 
BRANCH  15  16
ATOM     16  C   UNL     1      64.062  21.639  25.038  1.00  0.00     0.000 C 
BRANCH  16  17
ATOM     17  C   UNL     1      63.435  20.935  23.824  1.00  0.00     0.000 C 
BRANCH  17  18
ATOM     18  C   UNL     1      62.960  21.924  22.747  1.00  0.00     0.000 C 
BRANCH  18  19
ATOM     19  C   UNL     1      64.125  22.530  21.945  1.00  0.00     0.000 C 
BRANCH  19  20
ATOM     20  C   UNL     1      64.120  24.069  21.954  1.00  0.00     0.006 C 
BRANCH  20  21
ATOM     21  C   UNL     1      62.703  24.645  21.820  1.00  0.00     0.053 C 
BRANCH  21  22
ATOM     22  C   UNL     1      62.471  25.779  22.772  1.00  0.00     0.041 C 
ATOM     23  O   UNL     1      63.410  26.199  23.497  1.00  0.00    -0.550 OA
ATOM     24  O   UNL     1      61.223  26.383  22.847  1.00  0.00    -0.550 OA
ENDBRANCH  21  22
ENDBRANCH  20  21
ENDBRANCH  19  20
ENDBRANCH  18  19
ENDBRANCH  17  18
ENDBRANCH  16  17
ENDBRANCH  15  16
ENDBRANCH  14  15
ENDBRANCH  13  14
ENDBRANCH   1  13
TORSDOF 20
ENDMDL
MODEL 4
REMARK VINA RESULT:    -1.807      2.670      6.117
REMARK INTER + INTRA:          -6.227
REMARK INTER:                  -6.551
REMARK INTRA:                   0.324
REMARK UNBOUND:                -2.307
REMARK SMILES CCCCCCCCCCCCCCCCCCCCCC(=O)[O-]
REMARK SMILES IDX 12 1 11 2 10 3 9 4 8 5 7 6 6 7 5 8 4 9 3 10 2 11 1 12 13 13
REMARK SMILES IDX 14 14 15 15 16 16 17 17 18 18 19 19 20 20 21 21 22 22 23 23
REMARK SMILES IDX 24 24
REMARK H PARENT
REMARK Flexibility Score: inf
ROOT
ATOM      1  C   UNL     1      61.613  25.663  23.066  1.00  0.00     0.000 C 
ENDROOT
BRANCH   1   2
ATOM      2  C   UNL     1      61.252  24.225  23.477  1.00  0.00     0.000 C 
BRANCH   2   3
ATOM      3  C   UNL     1      60.320  23.541  22.453  1.00  0.00     0.000 C 
BRANCH   3   4
ATOM      4  C   UNL     1      60.099  22.043  22.722  1.00  0.00    -0.000 C 
BRANCH   4   5
ATOM      5  C   UNL     1      60.272  21.666  24.203  1.00  0.00    -0.000 C 
BRANCH   5   6
ATOM      6  C   UNL     1      58.933  21.582  24.949  1.00  0.00    -0.000 C 
BRANCH   6   7
ATOM      7  C   UNL     1      57.820  22.388  24.257  1.00  0.00    -0.000 C 
BRANCH   7   8
ATOM      8  C   UNL     1      56.972  21.534  23.296  1.00  0.00    -0.000 C 
BRANCH   8   9
ATOM      9  C   UNL     1      55.729  22.236  22.720  1.00  0.00    -0.000 C 
BRANCH   9  10
ATOM     10  C   UNL     1      54.549  22.272  23.704  1.00  0.00    -0.000 C 
BRANCH  10  11
ATOM     11  C   UNL     1      53.780  20.942  23.753  1.00  0.00    -0.003 C 
ATOM     12  C   UNL     1      52.556  20.995  24.667  1.00  0.00     0.004 C 
ENDBRANCH  10  11
ENDBRANCH   9  10
ENDBRANCH   8   9
ENDBRANCH   7   8
ENDBRANCH   6   7
ENDBRANCH   5   6
ENDBRANCH   4   5
ENDBRANCH   3   4
ENDBRANCH   2   3
ENDBRANCH   1   2
BRANCH   1  13
ATOM     13  C   UNL     1      63.045  26.054  23.465  1.00  0.00     0.000 C 
BRANCH  13  14
ATOM     14  C   UNL     1      63.388  25.821  24.949  1.00  0.00     0.000 C 
BRANCH  14  15
ATOM     15  C   UNL     1      62.266  25.109  25.736  1.00  0.00     0.000 C 
BRANCH  15  16
ATOM     16  C   UNL     1      62.632  23.654  26.080  1.00  0.00     0.000 C 
BRANCH  16  17
ATOM     17  C   UNL     1      63.730  23.086  25.167  1.00  0.00     0.000 C 
BRANCH  17  18
ATOM     18  C   UNL     1      63.616  21.563  24.982  1.00  0.00     0.000 C 
BRANCH  18  19
ATOM     19  C   UNL     1      64.125  21.095  23.608  1.00  0.00     0.000 C 
BRANCH  19  20
ATOM     20  C   UNL     1      63.244  21.586  22.446  1.00  0.00     0.006 C 
BRANCH  20  21
ATOM     21  C   UNL     1      63.955  21.472  21.090  1.00  0.00     0.053 C 
BRANCH  21  22
ATOM     22  C   UNL     1      63.021  21.730  19.947  1.00  0.00     0.041 C 
ATOM     23  O   UNL     1      63.422  22.353  18.930  1.00  0.00    -0.550 OA
ATOM     24  O   UNL     1      61.712  21.267  19.997  1.00  0.00    -0.550 OA
ENDBRANCH  21  22
ENDBRANCH  20  21
ENDBRANCH  19  20
ENDBRANCH  18  19
ENDBRANCH  17  18
ENDBRANCH  16  17
ENDBRANCH  15  16
ENDBRANCH  14  15
ENDBRANCH  13  14
ENDBRANCH   1  13
TORSDOF 20
ENDMDL
MODEL 5
REMARK VINA RESULT:    -1.786      2.184      5.865
REMARK INTER + INTRA:          -6.181
REMARK INTER:                  -5.879
REMARK INTRA:                  -0.302
REMARK UNBOUND:                -2.307
REMARK SMILES CCCCCCCCCCCCCCCCCCCCCC(=O)[O-]
REMARK SMILES IDX 12 1 11 2 10 3 9 4 8 5 7 6 6 7 5 8 4 9 3 10 2 11 1 12 13 13
REMARK SMILES IDX 14 14 15 15 16 16 17 17 18 18 19 19 20 20 21 21 22 22 23 23
REMARK SMILES IDX 24 24
REMARK H PARENT
REMARK Flexibility Score: inf
ROOT
ATOM      1  C   UNL     1      61.070  25.908  23.144  1.00  0.00     0.000 C 
ENDROOT
BRANCH   1   2
ATOM      2  C   UNL     1      60.623  24.771  24.080  1.00  0.00     0.000 C 
BRANCH   2   3
ATOM      3  C   UNL     1      60.308  23.470  23.309  1.00  0.00     0.000 C 
BRANCH   3   4
ATOM      4  C   UNL     1      61.081  22.244  23.822  1.00  0.00    -0.000 C 
BRANCH   4   5
ATOM      5  C   UNL     1      60.347  21.500  24.950  1.00  0.00    -0.000 C 
BRANCH   5   6
ATOM      6  C   UNL     1      58.828  21.452  24.732  1.00  0.00    -0.000 C 
BRANCH   6   7
ATOM      7  C   UNL     1      58.449  21.317  23.246  1.00  0.00    -0.000 C 
BRANCH   7   8
ATOM      8  C   UNL     1      56.928  21.230  23.023  1.00  0.00    -0.000 C 
BRANCH   8   9
ATOM      9  C   UNL     1      56.138  22.497  23.401  1.00  0.00    -0.000 C 
BRANCH   9  10
ATOM     10  C   UNL     1      54.619  22.328  23.242  1.00  0.00    -0.000 C 
BRANCH  10  11
ATOM     11  C   UNL     1      54.127  20.948  23.708  1.00  0.00    -0.003 C 
ATOM     12  C   UNL     1      52.877  21.027  24.585  1.00  0.00     0.004 C 
ENDBRANCH  10  11
ENDBRANCH   9  10
ENDBRANCH   8   9
ENDBRANCH   7   8
ENDBRANCH   6   7
ENDBRANCH   5   6
ENDBRANCH   4   5
ENDBRANCH   3   4
ENDBRANCH   2   3
ENDBRANCH   1   2
BRANCH   1  13
ATOM     13  C   UNL     1      62.150  25.465  22.144  1.00  0.00     0.000 C 
BRANCH  13  14
ATOM     14  C   UNL     1      63.598  25.732  22.598  1.00  0.00     0.000 C 
BRANCH  14  15
ATOM     15  C   UNL     1      63.987  24.985  23.892  1.00  0.00     0.000 C 
BRANCH  15  16
ATOM     16  C   UNL     1      64.065  23.462  23.682  1.00  0.00     0.000 C 
BRANCH  16  17
ATOM     17  C   UNL     1      64.118  23.070  22.197  1.00  0.00     0.000 C 
BRANCH  17  18
ATOM     18  C   UNL     1      64.093  21.546  21.987  1.00  0.00     0.000 C 
BRANCH  18  19
ATOM     19  C   UNL     1      63.316  21.137  20.724  1.00  0.00     0.000 C 
BRANCH  19  20
ATOM     20  C   UNL     1      63.057  22.318  19.773  1.00  0.00     0.006 C 
BRANCH  20  21
ATOM     21  C   UNL     1      61.584  22.753  19.777  1.00  0.00     0.053 C 
BRANCH  21  22
ATOM     22  C   UNL     1      60.659  21.587  19.952  1.00  0.00     0.041 C 
ATOM     23  O   UNL     1      60.715  20.887  20.997  1.00  0.00    -0.550 OA
ATOM     24  O   UNL     1      59.726  21.282  18.970  1.00  0.00    -0.550 OA
ENDBRANCH  21  22
ENDBRANCH  20  21
ENDBRANCH  19  20
ENDBRANCH  18  19
ENDBRANCH  17  18
ENDBRANCH  16  17
ENDBRANCH  15  16
ENDBRANCH  14  15
ENDBRANCH  13  14
ENDBRANCH   1  13
TORSDOF 20
ENDMDL
MODEL 6
REMARK VINA RESULT:    -1.706      2.584      4.819
REMARK INTER + INTRA:          -6.007
REMARK INTER:                  -4.516
REMARK INTRA:                  -1.492
REMARK UNBOUND:                -2.307
REMARK SMILES CCCCCCCCCCCCCCCCCCCCCC(=O)[O-]
REMARK SMILES IDX 12 1 11 2 10 3 9 4 8 5 7 6 6 7 5 8 4 9 3 10 2 11 1 12 13 13
REMARK SMILES IDX 14 14 15 15 16 16 17 17 18 18 19 19 20 20 21 21 22 22 23 23
REMARK SMILES IDX 24 24
REMARK H PARENT
REMARK Flexibility Score: inf
ROOT
ATOM      1  C   UNL     1      60.527  21.869  22.992  1.00  0.00     0.000 C 
ENDROOT
BRANCH   1   2
ATOM      2  C   UNL     1      60.038  20.893  24.077  1.00  0.00     0.000 C 
BRANCH   2   3
ATOM      3  C   UNL     1      60.768  21.101  25.422  1.00  0.00     0.000 C 
BRANCH   3   4
ATOM      4  C   UNL     1      61.638  22.368  25.465  1.00  0.00    -0.000 C 
BRANCH   4   5
ATOM      5  C   UNL     1      63.042  22.113  26.040  1.00  0.00    -0.000 C 
BRANCH   5   6
ATOM      6  C   UNL     1      64.099  21.916  24.944  1.00  0.00    -0.000 C 
BRANCH   6   7
ATOM      7  C   UNL     1      63.674  20.875  23.894  1.00  0.00    -0.000 C 
BRANCH   7   8
ATOM      8  C   UNL     1      64.125  21.246  22.469  1.00  0.00    -0.000 C 
BRANCH   8   9
ATOM      9  C   UNL     1      63.688  22.642  21.986  1.00  0.00    -0.000 C 
BRANCH   9  10
ATOM     10  C   UNL     1      63.776  22.806  20.460  1.00  0.00    -0.000 C 
BRANCH  10  11
ATOM     11  C   UNL     1      62.412  23.104  19.819  1.00  0.00    -0.003 C 
ATOM     12  C   UNL     1      62.003  22.059  18.780  1.00  0.00     0.004 C 
ENDBRANCH  10  11
ENDBRANCH   9  10
ENDBRANCH   8   9
ENDBRANCH   7   8
ENDBRANCH   6   7
ENDBRANCH   5   6
ENDBRANCH   4   5
ENDBRANCH   3   4
ENDBRANCH   2   3
ENDBRANCH   1   2
BRANCH   1  13
ATOM     13  C   UNL     1      59.719  21.762  21.688  1.00  0.00     0.000 C 
BRANCH  13  14
ATOM     14  C   UNL     1      58.241  22.178  21.809  1.00  0.00     0.000 C 
BRANCH  14  15
ATOM     15  C   UNL     1      57.456  21.366  22.863  1.00  0.00     0.000 C 
BRANCH  15  16
ATOM     16  C   UNL     1      56.349  22.200  23.532  1.00  0.00     0.000 C 
BRANCH  16  17
ATOM     17  C   UNL     1      56.860  23.548  24.065  1.00  0.00     0.000 C 
BRANCH  17  18
ATOM     18  C   UNL     1      57.967  23.386  25.120  1.00  0.00     0.000 C 
BRANCH  18  19
ATOM     19  C   UNL     1      58.829  24.650  25.272  1.00  0.00     0.000 C 
BRANCH  19  20
ATOM     20  C   UNL     1      59.839  24.826  24.123  1.00  0.00     0.006 C 
BRANCH  20  21
ATOM     21  C   UNL     1      61.273  25.015  24.636  1.00  0.00     0.053 C 
BRANCH  21  22
ATOM     22  C   UNL     1      62.121  25.767  23.655  1.00  0.00     0.041 C 
ATOM     23  O   UNL     1      61.739  25.903  22.463  1.00  0.00    -0.550 OA
ATOM     24  O   UNL     1      63.323  26.332  24.059  1.00  0.00    -0.550 OA
ENDBRANCH  21  22
ENDBRANCH  20  21
ENDBRANCH  19  20
ENDBRANCH  18  19
ENDBRANCH  17  18
ENDBRANCH  16  17
ENDBRANCH  15  16
ENDBRANCH  14  15
ENDBRANCH  13  14
ENDBRANCH   1  13
TORSDOF 20
ENDMDL
MODEL 7
REMARK VINA RESULT:    -1.607      3.078      5.521
REMARK INTER + INTRA:          -5.792
REMARK INTER:                  -4.410
REMARK INTRA:                  -1.382
REMARK UNBOUND:                -2.307
REMARK SMILES CCCCCCCCCCCCCCCCCCCCCC(=O)[O-]
REMARK SMILES IDX 12 1 11 2 10 3 9 4 8 5 7 6 6 7 5 8 4 9 3 10 2 11 1 12 13 13
REMARK SMILES IDX 14 14 15 15 16 16 17 17 18 18 19 19 20 20 21 21 22 22 23 23
REMARK SMILES IDX 24 24
REMARK H PARENT
REMARK Flexibility Score: inf
ROOT
ATOM      1  C   UNL     1      60.058  21.918  21.403  1.00  0.00     0.000 C 
ENDROOT
BRANCH   1   2
ATOM      2  C   UNL     1      60.539  21.346  20.058  1.00  0.00     0.000 C 
BRANCH   2   3
ATOM      3  C   UNL     1      61.485  22.314  19.315  1.00  0.00     0.000 C 
BRANCH   3   4
ATOM      4  C   UNL     1      62.954  21.862  19.309  1.00  0.00    -0.000 C 
BRANCH   4   5
ATOM      5  C   UNL     1      63.300  20.928  20.482  1.00  0.00    -0.000 C 
BRANCH   5   6
ATOM      6  C   UNL     1      63.921  21.680  21.668  1.00  0.00    -0.000 C 
BRANCH   6   7
ATOM      7  C   UNL     1      63.557  21.046  23.023  1.00  0.00    -0.000 C 
BRANCH   7   8
ATOM      8  C   UNL     1      62.161  21.462  23.521  1.00  0.00    -0.000 C 
BRANCH   8   9
ATOM      9  C   UNL     1      61.893  21.194  25.014  1.00  0.00    -0.000 C 
BRANCH   9  10
ATOM     10  C   UNL     1      63.181  21.007  25.832  1.00  0.00    -0.000 C 
BRANCH  10  11
ATOM     11  C   UNL     1      64.114  22.225  25.750  1.00  0.00    -0.003 C 
ATOM     12  C   UNL     1      63.377  23.552  25.937  1.00  0.00     0.004 C 
ENDBRANCH  10  11
ENDBRANCH   9  10
ENDBRANCH   8   9
ENDBRANCH   7   8
ENDBRANCH   6   7
ENDBRANCH   5   6
ENDBRANCH   4   5
ENDBRANCH   3   4
ENDBRANCH   2   3
ENDBRANCH   1   2
BRANCH   1  13
ATOM     13  C   UNL     1      58.826  21.183  21.956  1.00  0.00     0.000 C 
BRANCH  13  14
ATOM     14  C   UNL     1      58.880  20.876  23.464  1.00  0.00     0.000 C 
BRANCH  14  15
ATOM     15  C   UNL     1      57.813  21.633  24.286  1.00  0.00     0.000 C 
BRANCH  15  16
ATOM     16  C   UNL     1      57.683  23.104  23.852  1.00  0.00     0.000 C 
BRANCH  16  17
ATOM     17  C   UNL     1      58.089  24.088  24.961  1.00  0.00     0.000 C 
BRANCH  17  18
ATOM     18  C   UNL     1      59.558  24.530  24.851  1.00  0.00     0.000 C 
BRANCH  18  19
ATOM     19  C   UNL     1      59.795  25.511  23.691  1.00  0.00     0.000 C 
BRANCH  19  20
ATOM     20  C   UNL     1      61.287  25.806  23.454  1.00  0.00     0.006 C 
BRANCH  20  21
ATOM     21  C   UNL     1      61.955  24.743  22.570  1.00  0.00     0.053 C 
BRANCH  21  22
ATOM     22  C   UNL     1      63.424  24.992  22.411  1.00  0.00     0.041 C 
ATOM     23  O   UNL     1      64.033  25.727  23.232  1.00  0.00    -0.550 OA
ATOM     24  O   UNL     1      64.124  24.401  21.368  1.00  0.00    -0.550 OA
ENDBRANCH  21  22
ENDBRANCH  20  21
ENDBRANCH  19  20
ENDBRANCH  18  19
ENDBRANCH  17  18
ENDBRANCH  16  17
ENDBRANCH  15  16
ENDBRANCH  14  15
ENDBRANCH  13  14
ENDBRANCH   1  13
TORSDOF 20
ENDMDL
