MODEL 1
REMARK VINA RESULT:    -2.302      0.000      0.000
REMARK INTER + INTRA:          -2.581
REMARK INTER:                  -2.572
REMARK INTRA:                  -0.009
REMARK UNBOUND:                -0.009
REMARK SMILES CCCC(=O)[O-]
REMARK SMILES IDX 3 1 4 2 5 3 6 4 2 5 1 6
REMARK H PARENT
REMARK Flexibility Score: inf
ROOT
ATOM      1  C   UNL     1    -103.276 -26.244 -16.444  1.00  0.00     0.052 C 
ENDROOT
BRANCH   1   2
ATOM      2  C   UNL     1    -102.348 -27.364 -16.085  1.00  0.00     0.041 C 
ATOM      3  O   UNL     1    -102.281 -28.390 -16.812  1.00  0.00    -0.550 OA
ATOM      4  O   UNL     1    -101.535 -27.260 -14.963  1.00  0.00    -0.550 OA
ENDBRANCH   1   2
BRANCH   1   5
ATOM      5  C   UNL     1    -103.869 -25.577 -15.195  1.00  0.00     0.003 C 
ATOM      6  C   UNL     1    -104.542 -24.241 -15.514  1.00  0.00     0.004 C 
ENDBRANCH   1   5
TORSDOF 2
ENDMDL
MODEL 2
REMARK VINA RESULT:    -2.290      2.621      3.690
REMARK INTER + INTRA:          -2.567
REMARK INTER:                  -2.562
REMARK INTRA:                  -0.005
REMARK UNBOUND:                -0.009
REMARK SMILES CCCC(=O)[O-]
REMARK SMILES IDX 3 1 4 2 5 3 6 4 2 5 1 6
REMARK H PARENT
REMARK Flexibility Score: inf
ROOT
ATOM      1  C   UNL     1    -103.459 -26.032 -16.727  1.00  0.00     0.052 C 
ENDROOT
BRANCH   1   2
ATOM      2  C   UNL     1    -104.529 -25.208 -16.080  1.00  0.00     0.041 C 
ATOM      3  O   UNL     1    -104.223 -24.266 -15.302  1.00  0.00    -0.550 OA
ATOM      4  O   UNL     1    -105.866 -25.461 -16.362  1.00  0.00    -0.550 OA
ENDBRANCH   1   2
BRANCH   1   5
ATOM      5  C   UNL     1    -102.678 -26.858 -15.696  1.00  0.00     0.003 C 
ATOM      6  C   UNL     1    -101.898 -28.004 -16.339  1.00  0.00     0.004 C 
ENDBRANCH   1   5
TORSDOF 2
ENDMDL
MODEL 3
REMARK VINA RESULT:    -2.268      1.296      1.558
REMARK INTER + INTRA:          -2.542
REMARK INTER:                  -2.505
REMARK INTRA:                  -0.037
REMARK UNBOUND:                -0.009
REMARK SMILES CCCC(=O)[O-]
REMARK SMILES IDX 3 1 4 2 5 3 6 4 2 5 1 6
REMARK H PARENT
REMARK Flexibility Score: inf
ROOT
ATOM      1  C   UNL     1    -103.126 -26.504 -15.319  1.00  0.00     0.052 C 
ENDROOT
BRANCH   1   2
ATOM      2  C   UNL     1    -101.972 -27.459 -15.302  1.00  0.00     0.041 C 
ATOM      3  O   UNL     1    -101.629 -28.059 -16.354  1.00  0.00    -0.550 OA
ATOM      4  O   UNL     1    -101.257 -27.663 -14.128  1.00  0.00    -0.550 OA
ENDBRANCH   1   2
BRANCH   1   5
ATOM      5  C   UNL     1    -103.501 -26.094 -16.749  1.00  0.00     0.003 C 
ATOM      6  C   UNL     1    -104.919 -26.523 -17.125  1.00  0.00     0.004 C 
ENDBRANCH   1   5
TORSDOF 2
ENDMDL
MODEL 4
REMARK VINA RESULT:    -2.239      2.007      3.682
REMARK INTER + INTRA:          -2.510
REMARK INTER:                  -2.503
REMARK INTRA:                  -0.007
REMARK UNBOUND:                -0.009
REMARK SMILES CCCC(=O)[O-]
REMARK SMILES IDX 3 1 4 2 5 3 6 4 2 5 1 6
REMARK H PARENT
REMARK Flexibility Score: inf
ROOT
ATOM      1  C   UNL     1    -102.072 -27.302 -15.227  1.00  0.00     0.052 C 
ENDROOT
BRANCH   1   2
ATOM      2  C   UNL     1    -103.158 -26.303 -15.489  1.00  0.00     0.041 C 
ATOM      3  O   UNL     1    -103.840 -25.842 -14.536  1.00  0.00    -0.550 OA
ATOM      4  O   UNL     1    -103.396 -25.859 -16.784  1.00  0.00    -0.550 OA
ENDBRANCH   1   2
BRANCH   1   5
ATOM      5  C   UNL     1    -101.840 -28.217 -16.437  1.00  0.00     0.003 C 
ATOM      6  C   UNL     1    -101.151 -29.526 -16.051  1.00  0.00     0.004 C 
ENDBRANCH   1   5
TORSDOF 2
ENDMDL
MODEL 5
REMARK VINA RESULT:    -2.217      2.294      3.488
REMARK INTER + INTRA:          -2.485
REMARK INTER:                  -2.479
REMARK INTRA:                  -0.006
REMARK UNBOUND:                -0.009
REMARK SMILES CCCC(=O)[O-]
REMARK SMILES IDX 3 1 4 2 5 3 6 4 2 5 1 6
REMARK H PARENT
REMARK Flexibility Score: inf
ROOT
ATOM      1  C   UNL     1    -103.286 -26.508 -14.769  1.00  0.00     0.052 C 
ENDROOT
BRANCH   1   2
ATOM      2  C   UNL     1    -103.877 -25.637 -15.834  1.00  0.00     0.041 C 
ATOM      3  O   UNL     1    -104.206 -24.449 -15.574  1.00  0.00    -0.550 OA
ATOM      4  O   UNL     1    -104.037 -26.129 -17.124  1.00  0.00    -0.550 OA
ENDBRANCH   1   2
BRANCH   1   5
ATOM      5  C   UNL     1    -102.064 -27.282 -15.282  1.00  0.00     0.003 C 
ATOM      6  C   UNL     1    -101.146 -27.737 -14.148  1.00  0.00     0.004 C 
ENDBRANCH   1   5
TORSDOF 2
ENDMDL
MODEL 6
REMARK VINA RESULT:    -2.194      2.542      3.810
REMARK INTER + INTRA:          -2.460
REMARK INTER:                  -2.431
REMARK INTRA:                  -0.029
REMARK UNBOUND:                -0.009
REMARK SMILES CCCC(=O)[O-]
REMARK SMILES IDX 3 1 4 2 5 3 6 4 2 5 1 6
REMARK H PARENT
REMARK Flexibility Score: inf
ROOT
ATOM      1  C   UNL     1    -101.737 -27.933 -13.990  1.00  0.00     0.052 C 
ENDROOT
BRANCH   1   2
ATOM      2  C   UNL     1    -102.047 -27.450 -15.373  1.00  0.00     0.041 C 
ATOM      3  O   UNL     1    -101.561 -28.038 -16.375  1.00  0.00    -0.550 OA
ATOM      4  O   UNL     1    -102.901 -26.369 -15.556  1.00  0.00    -0.550 OA
ENDBRANCH   1   2
BRANCH   1   5
ATOM      5  C   UNL     1    -100.297 -27.594 -13.581  1.00  0.00     0.003 C 
ATOM      6  C   UNL     1     -99.497 -28.836 -13.185  1.00  0.00     0.004 C 
ENDBRANCH   1   5
TORSDOF 2
ENDMDL
MODEL 7
REMARK VINA RESULT:    -2.193     11.602     12.199
REMARK INTER + INTRA:          -2.458
REMARK INTER:                  -2.444
REMARK INTRA:                  -0.015
REMARK UNBOUND:                -0.009
REMARK SMILES CCCC(=O)[O-]
REMARK SMILES IDX 3 1 4 2 5 3 6 4 2 5 1 6
REMARK H PARENT
REMARK Flexibility Score: inf
ROOT
ATOM      1  C   UNL     1     -98.872 -27.001  -4.761  1.00  0.00     0.052 C 
ENDROOT
BRANCH   1   2
ATOM      2  C   UNL     1     -98.684 -28.224  -3.916  1.00  0.00     0.041 C 
ATOM      3  O   UNL     1     -97.567 -28.464  -3.388  1.00  0.00    -0.550 OA
ATOM      4  O   UNL     1     -99.754 -29.081  -3.688  1.00  0.00    -0.550 OA
ENDBRANCH   1   2
BRANCH   1   5
ATOM      5  C   UNL     1    -100.342 -26.804  -5.155  1.00  0.00     0.003 C 
ATOM      6  C   UNL     1    -100.760 -25.334  -5.125  1.00  0.00     0.004 C 
ENDBRANCH   1   5
TORSDOF 2
ENDMDL
MODEL 8
REMARK VINA RESULT:    -2.175      1.868      2.695
REMARK INTER + INTRA:          -2.439
REMARK INTER:                  -2.432
REMARK INTRA:                  -0.007
REMARK UNBOUND:                -0.009
REMARK SMILES CCCC(=O)[O-]
REMARK SMILES IDX 3 1 4 2 5 3 6 4 2 5 1 6
REMARK H PARENT
REMARK Flexibility Score: inf
ROOT
ATOM      1  C   UNL     1    -102.194 -27.149 -14.765  1.00  0.00     0.052 C 
ENDROOT
BRANCH   1   2
ATOM      2  C   UNL     1    -101.083 -28.045 -14.313  1.00  0.00     0.041 C 
ATOM      3  O   UNL     1    -100.248 -27.641 -13.461  1.00  0.00    -0.550 OA
ATOM      4  O   UNL     1    -100.988 -29.339 -14.811  1.00  0.00    -0.550 OA
ENDBRANCH   1   2
BRANCH   1   5
ATOM      5  C   UNL     1    -102.500 -27.333 -16.257  1.00  0.00     0.003 C 
ATOM      6  C   UNL     1    -103.464 -26.272 -16.789  1.00  0.00     0.004 C 
ENDBRANCH   1   5
TORSDOF 2
ENDMDL
MODEL 9
REMARK VINA RESULT:    -2.125     10.011     10.702
REMARK INTER + INTRA:          -2.383
REMARK INTER:                  -2.363
REMARK INTRA:                  -0.020
REMARK UNBOUND:                -0.009
REMARK SMILES CCCC(=O)[O-]
REMARK SMILES IDX 3 1 4 2 5 3 6 4 2 5 1 6
REMARK H PARENT
REMARK Flexibility Score: inf
ROOT
ATOM      1  C   UNL     1    -100.480 -25.445  -5.150  1.00  0.00     0.052 C 
ENDROOT
BRANCH   1   2
ATOM      2  C   UNL     1     -99.751 -26.751  -5.235  1.00  0.00     0.041 C 
ATOM      3  O   UNL     1     -98.611 -26.877  -4.716  1.00  0.00    -0.550 OA
ATOM      4  O   UNL     1    -100.346 -27.839  -5.863  1.00  0.00    -0.550 OA
ENDBRANCH   1   2
BRANCH   1   5
ATOM      5  C   UNL     1    -101.916 -25.562  -5.676  1.00  0.00     0.003 C 
ATOM      6  C   UNL     1    -102.314 -24.372  -6.550  1.00  0.00     0.004 C 
ENDBRANCH   1   5
TORSDOF 2
ENDMDL
