MODEL 1
REMARK VINA RESULT:    -5.287      0.000      0.000
REMARK INTER + INTRA:         -11.991
REMARK INTER:                  -9.614
REMARK INTRA:                  -2.377
REMARK UNBOUND:                -2.377
REMARK SMILES CCCCCCCCCCCCCC[C@@H](C)C(=O)[O-]
REMARK SMILES IDX 9 1 10 2 11 3 12 4 13 5 14 6 15 7 16 8 17 9 18 10 19 11 8 12
REMARK SMILES IDX 7 13 6 14 5 15 4 16 3 17 2 18 1 19
REMARK H PARENT
REMARK Flexibility Score: inf
ROOT
ATOM      1  C   UNL     1     138.151 130.038 129.166  1.00  0.00     0.000 C 
ENDROOT
BRANCH   1   2
ATOM      2  C   UNL     1     138.219 130.901 127.896  1.00  0.00     0.000 C 
BRANCH   2   3
ATOM      3  C   UNL     1     136.813 131.255 127.397  1.00  0.00     0.000 C 
BRANCH   3   4
ATOM      4  C   UNL     1     136.709 132.751 127.062  1.00  0.00     0.000 C 
BRANCH   4   5
ATOM      5  C   UNL     1     136.920 133.651 128.291  1.00  0.00     0.001 C 
BRANCH   5   6
ATOM      6  C   UNL     1     135.712 133.636 129.248  1.00  0.00     0.009 C 
BRANCH   6   7
ATOM      7  C   UNL     1     135.782 132.548 130.344  1.00  0.00     0.032 C 
ATOM      8  C   UNL     1     136.304 133.084 131.685  1.00  0.00     0.014 C 
BRANCH   7   9
ATOM      9  C   UNL     1     134.467 131.829 130.500  1.00  0.00     0.044 C 
ATOM     10  O   UNL     1     133.685 132.108 131.449  1.00  0.00    -0.550 OA
ATOM     11  O   UNL     1     134.084 130.884 129.557  1.00  0.00    -0.550 OA
ENDBRANCH   7   9
ENDBRANCH   6   7
ENDBRANCH   5   6
ENDBRANCH   4   5
ENDBRANCH   3   4
ENDBRANCH   2   3
ENDBRANCH   1   2
BRANCH   1  12
ATOM     12  C   UNL     1     139.013 130.595 130.310  1.00  0.00     0.000 C 
BRANCH  12  13
ATOM     13  C   UNL     1     139.869 131.796 129.873  1.00  0.00    -0.000 C 
BRANCH  13  14
ATOM     14  C   UNL     1     139.709 133.006 130.808  1.00  0.00    -0.000 C 
BRANCH  14  15
ATOM     15  C   UNL     1     139.754 134.346 130.057  1.00  0.00    -0.000 C 
BRANCH  15  16
ATOM     16  C   UNL     1     140.322 135.456 130.950  1.00  0.00    -0.000 C 
BRANCH  16  17
ATOM     17  C   UNL     1     139.405 136.689 130.944  1.00  0.00    -0.000 C 
BRANCH  17  18
ATOM     18  C   UNL     1     137.947 136.339 130.608  1.00  0.00    -0.003 C 
ATOM     19  C   UNL     1     137.033 137.564 130.591  1.00  0.00     0.004 C 
ENDBRANCH  17  18
ENDBRANCH  16  17
ENDBRANCH  15  16
ENDBRANCH  14  15
ENDBRANCH  13  14
ENDBRANCH  12  13
ENDBRANCH   1  12
TORSDOF 14
ENDMDL
MODEL 2
REMARK VINA RESULT:    -5.268      1.019      2.074
REMARK INTER + INTRA:         -11.956
REMARK INTER:                  -9.887
REMARK INTRA:                  -2.068
REMARK UNBOUND:                -2.377
REMARK SMILES CCCCCCCCCCCCCC[C@@H](C)C(=O)[O-]
REMARK SMILES IDX 9 1 10 2 11 3 12 4 13 5 14 6 15 7 16 8 17 9 18 10 19 11 8 12
REMARK SMILES IDX 7 13 6 14 5 15 4 16 3 17 2 18 1 19
REMARK H PARENT
REMARK Flexibility Score: inf
ROOT
ATOM      1  C   UNL     1     139.626 131.646 130.151  1.00  0.00     0.000 C 
ENDROOT
BRANCH   1   2
ATOM      2  C   UNL     1     139.191 130.176 130.253  1.00  0.00     0.000 C 
BRANCH   2   3
ATOM      3  C   UNL     1     138.304 129.782 129.066  1.00  0.00     0.000 C 
BRANCH   3   4
ATOM      4  C   UNL     1     138.244 130.911 128.026  1.00  0.00     0.000 C 
BRANCH   4   5
ATOM      5  C   UNL     1     136.808 131.380 127.740  1.00  0.00     0.001 C 
BRANCH   5   6
ATOM      6  C   UNL     1     135.805 130.894 128.805  1.00  0.00     0.009 C 
BRANCH   6   7
ATOM      7  C   UNL     1     135.339 131.991 129.789  1.00  0.00     0.032 C 
ATOM      8  C   UNL     1     135.172 133.363 129.118  1.00  0.00     0.014 C 
BRANCH   7   9
ATOM      9  C   UNL     1     134.099 131.578 130.538  1.00  0.00     0.044 C 
ATOM     10  O   UNL     1     133.431 130.571 130.180  1.00  0.00    -0.550 OA
ATOM     11  O   UNL     1     133.714 132.284 131.672  1.00  0.00    -0.550 OA
ENDBRANCH   7   9
ENDBRANCH   6   7
ENDBRANCH   5   6
ENDBRANCH   4   5
ENDBRANCH   3   4
ENDBRANCH   2   3
ENDBRANCH   1   2
BRANCH   1  12
ATOM     12  C   UNL     1     139.009 132.526 131.249  1.00  0.00     0.000 C 
BRANCH  12  13
ATOM     13  C   UNL     1     138.344 133.794 130.687  1.00  0.00    -0.000 C 
BRANCH  13  14
ATOM     14  C   UNL     1     139.059 134.331 129.437  1.00  0.00    -0.000 C 
BRANCH  14  15
ATOM     15  C   UNL     1     140.181 135.325 129.774  1.00  0.00    -0.000 C 
BRANCH  15  16
ATOM     16  C   UNL     1     139.761 136.258 130.916  1.00  0.00    -0.000 C 
BRANCH  16  17
ATOM     17  C   UNL     1     139.079 137.522 130.371  1.00  0.00    -0.000 C 
BRANCH  17  18
ATOM     18  C   UNL     1     137.561 137.525 130.612  1.00  0.00    -0.003 C 
ATOM     19  C   UNL     1     136.908 138.859 130.254  1.00  0.00     0.004 C 
ENDBRANCH  17  18
ENDBRANCH  16  17
ENDBRANCH  15  16
ENDBRANCH  14  15
ENDBRANCH  13  14
ENDBRANCH  12  13
ENDBRANCH   1  12
TORSDOF 14
ENDMDL
MODEL 3
REMARK VINA RESULT:    -5.225      2.511      5.113
REMARK INTER + INTRA:         -11.878
REMARK INTER:                  -9.470
REMARK INTRA:                  -2.408
REMARK UNBOUND:                -2.377
REMARK SMILES CCCCCCCCCCCCCC[C@@H](C)C(=O)[O-]
REMARK SMILES IDX 9 1 10 2 11 3 12 4 13 5 14 6 15 7 16 8 17 9 18 10 19 11 8 12
REMARK SMILES IDX 7 13 6 14 5 15 4 16 3 17 2 18 1 19
REMARK H PARENT
REMARK Flexibility Score: inf
ROOT
ATOM      1  C   UNL     1     138.500 130.552 128.533  1.00  0.00     0.000 C 
ENDROOT
BRANCH   1   2
ATOM      2  C   UNL     1     139.129 130.722 129.924  1.00  0.00     0.000 C 
BRANCH   2   3
ATOM      3  C   UNL     1     138.131 131.350 130.904  1.00  0.00     0.000 C 
BRANCH   3   4
ATOM      4  C   UNL     1     138.751 132.557 131.624  1.00  0.00     0.000 C 
BRANCH   4   5
ATOM      5  C   UNL     1     139.922 133.178 130.844  1.00  0.00     0.001 C 
BRANCH   5   6
ATOM      6  C   UNL     1     140.186 134.643 131.242  1.00  0.00     0.009 C 
BRANCH   6   7
ATOM      7  C   UNL     1     139.979 135.661 130.097  1.00  0.00     0.032 C 
ATOM      8  C   UNL     1     139.598 134.994 128.767  1.00  0.00     0.014 C 
BRANCH   7   9
ATOM      9  C   UNL     1     139.003 136.743 130.482  1.00  0.00     0.044 C 
ATOM     10  O   UNL     1     139.268 137.958 130.274  1.00  0.00    -0.550 OA
ATOM     11  O   UNL     1     137.772 136.397 131.025  1.00  0.00    -0.550 OA
ENDBRANCH   7   9
ENDBRANCH   6   7
ENDBRANCH   5   6
ENDBRANCH   4   5
ENDBRANCH   3   4
ENDBRANCH   2   3
ENDBRANCH   1   2
BRANCH   1  12
ATOM     12  C   UNL     1     137.117 131.211 128.422  1.00  0.00     0.000 C 
BRANCH  12  13
ATOM     13  C   UNL     1     136.994 132.123 127.188  1.00  0.00    -0.000 C 
BRANCH  13  14
ATOM     14  C   UNL     1     136.402 133.500 127.528  1.00  0.00    -0.000 C 
BRANCH  14  15
ATOM     15  C   UNL     1     136.296 133.744 129.042  1.00  0.00    -0.000 C 
BRANCH  15  16
ATOM     16  C   UNL     1     135.079 134.616 129.374  1.00  0.00    -0.000 C 
BRANCH  16  17
ATOM     17  C   UNL     1     133.981 133.790 130.060  1.00  0.00    -0.000 C 
BRANCH  17  18
ATOM     18  C   UNL     1     134.537 132.550 130.779  1.00  0.00    -0.003 C 
ATOM     19  C   UNL     1     133.977 131.242 130.221  1.00  0.00     0.004 C 
ENDBRANCH  17  18
ENDBRANCH  16  17
ENDBRANCH  15  16
ENDBRANCH  14  15
ENDBRANCH  13  14
ENDBRANCH  12  13
ENDBRANCH   1  12
TORSDOF 14
ENDMDL
MODEL 4
REMARK VINA RESULT:    -5.134      1.066      1.967
REMARK INTER + INTRA:         -11.712
REMARK INTER:                  -9.613
REMARK INTRA:                  -2.099
REMARK UNBOUND:                -2.377
REMARK SMILES CCCCCCCCCCCCCC[C@@H](C)C(=O)[O-]
REMARK SMILES IDX 9 1 10 2 11 3 12 4 13 5 14 6 15 7 16 8 17 9 18 10 19 11 8 12
REMARK SMILES IDX 7 13 6 14 5 15 4 16 3 17 2 18 1 19
REMARK H PARENT
REMARK Flexibility Score: inf
ROOT
ATOM      1  C   UNL     1     139.028 131.411 130.687  1.00  0.00     0.000 C 
ENDROOT
BRANCH   1   2
ATOM      2  C   UNL     1     139.285 131.249 129.181  1.00  0.00     0.000 C 
BRANCH   2   3
ATOM      3  C   UNL     1     138.143 130.476 128.510  1.00  0.00     0.000 C 
BRANCH   3   4
ATOM      4  C   UNL     1     137.466 131.327 127.425  1.00  0.00     0.000 C 
BRANCH   4   5
ATOM      5  C   UNL     1     136.678 132.513 128.005  1.00  0.00     0.001 C 
BRANCH   5   6
ATOM      6  C   UNL     1     135.659 132.076 129.076  1.00  0.00     0.009 C 
BRANCH   6   7
ATOM      7  C   UNL     1     135.342 133.160 130.132  1.00  0.00     0.032 C 
ATOM      8  C   UNL     1     134.531 134.332 129.559  1.00  0.00     0.014 C 
BRANCH   7   9
ATOM      9  C   UNL     1     134.691 132.572 131.357  1.00  0.00     0.044 C 
ATOM     10  O   UNL     1     133.625 131.905 131.266  1.00  0.00    -0.550 OA
ATOM     11  O   UNL     1     135.300 132.719 132.597  1.00  0.00    -0.550 OA
ENDBRANCH   7   9
ENDBRANCH   6   7
ENDBRANCH   5   6
ENDBRANCH   4   5
ENDBRANCH   3   4
ENDBRANCH   2   3
ENDBRANCH   1   2
BRANCH   1  12
ATOM     12  C   UNL     1     138.776 132.872 131.092  1.00  0.00     0.000 C 
BRANCH  12  13
ATOM     13  C   UNL     1     140.080 133.652 131.334  1.00  0.00    -0.000 C 
BRANCH  13  14
ATOM     14  C   UNL     1     140.368 134.679 130.227  1.00  0.00    -0.000 C 
BRANCH  14  15
ATOM     15  C   UNL     1     139.127 135.005 129.382  1.00  0.00    -0.000 C 
BRANCH  15  16
ATOM     16  C   UNL     1     138.663 136.447 129.622  1.00  0.00    -0.000 C 
BRANCH  16  17
ATOM     17  C   UNL     1     137.684 136.520 130.804  1.00  0.00    -0.000 C 
BRANCH  17  18
ATOM     18  C   UNL     1     136.463 137.405 130.505  1.00  0.00    -0.003 C 
ATOM     19  C   UNL     1     136.835 138.871 130.286  1.00  0.00     0.004 C 
ENDBRANCH  17  18
ENDBRANCH  16  17
ENDBRANCH  15  16
ENDBRANCH  14  15
ENDBRANCH  13  14
ENDBRANCH  12  13
ENDBRANCH   1  12
TORSDOF 14
ENDMDL
MODEL 5
REMARK VINA RESULT:    -5.074      1.146      4.233
REMARK INTER + INTRA:         -11.604
REMARK INTER:                  -9.450
REMARK INTRA:                  -2.154
REMARK UNBOUND:                -2.377
REMARK SMILES CCCCCCCCCCCCCC[C@@H](C)C(=O)[O-]
REMARK SMILES IDX 9 1 10 2 11 3 12 4 13 5 14 6 15 7 16 8 17 9 18 10 19 11 8 12
REMARK SMILES IDX 7 13 6 14 5 15 4 16 3 17 2 18 1 19
REMARK H PARENT
REMARK Flexibility Score: inf
ROOT
ATOM      1  C   UNL     1     138.610 136.533 129.732  1.00  0.00     0.000 C 
ENDROOT
BRANCH   1   2
ATOM      2  C   UNL     1     137.431 136.852 130.665  1.00  0.00     0.000 C 
BRANCH   2   3
ATOM      3  C   UNL     1     136.183 136.057 130.264  1.00  0.00     0.000 C 
BRANCH   3   4
ATOM      4  C   UNL     1     136.555 134.633 129.824  1.00  0.00     0.000 C 
BRANCH   4   5
ATOM      5  C   UNL     1     135.511 134.008 128.885  1.00  0.00     0.001 C 
BRANCH   5   6
ATOM      6  C   UNL     1     134.307 133.421 129.648  1.00  0.00     0.009 C 
BRANCH   6   7
ATOM      7  C   UNL     1     134.647 132.196 130.527  1.00  0.00     0.032 C 
ATOM      8  C   UNL     1     134.303 132.410 132.008  1.00  0.00     0.014 C 
BRANCH   7   9
ATOM      9  C   UNL     1     134.031 130.932 129.985  1.00  0.00     0.044 C 
ATOM     10  O   UNL     1     133.112 130.338 130.612  1.00  0.00    -0.550 OA
ATOM     11  O   UNL     1     134.441 130.442 128.751  1.00  0.00    -0.550 OA
ENDBRANCH   7   9
ENDBRANCH   6   7
ENDBRANCH   5   6
ENDBRANCH   4   5
ENDBRANCH   3   4
ENDBRANCH   2   3
ENDBRANCH   1   2
BRANCH   1  12
ATOM     12  C   UNL     1     139.879 136.123 130.496  1.00  0.00     0.000 C 
BRANCH  12  13
ATOM     13  C   UNL     1     140.388 134.729 130.090  1.00  0.00    -0.000 C 
BRANCH  13  14
ATOM     14  C   UNL     1     139.850 133.615 131.003  1.00  0.00    -0.000 C 
BRANCH  14  15
ATOM     15  C   UNL     1     139.570 132.309 130.243  1.00  0.00    -0.000 C 
BRANCH  15  16
ATOM     16  C   UNL     1     138.352 131.584 130.828  1.00  0.00    -0.000 C 
BRANCH  16  17
ATOM     17  C   UNL     1     137.837 130.506 129.863  1.00  0.00    -0.000 C 
BRANCH  17  18
ATOM     18  C   UNL     1     138.473 130.610 128.468  1.00  0.00    -0.003 C 
ATOM     19  C   UNL     1     137.522 131.197 127.426  1.00  0.00     0.004 C 
ENDBRANCH  17  18
ENDBRANCH  16  17
ENDBRANCH  15  16
ENDBRANCH  14  15
ENDBRANCH  13  14
ENDBRANCH  12  13
ENDBRANCH   1  12
TORSDOF 14
ENDMDL
MODEL 6
REMARK VINA RESULT:    -5.042      2.808      4.633
REMARK INTER + INTRA:         -11.546
REMARK INTER:                  -9.080
REMARK INTRA:                  -2.466
REMARK UNBOUND:                -2.377
REMARK SMILES CCCCCCCCCCCCCC[C@@H](C)C(=O)[O-]
REMARK SMILES IDX 9 1 10 2 11 3 12 4 13 5 14 6 15 7 16 8 17 9 18 10 19 11 8 12
REMARK SMILES IDX 7 13 6 14 5 15 4 16 3 17 2 18 1 19
REMARK H PARENT
REMARK Flexibility Score: inf
ROOT
ATOM      1  C   UNL     1     136.471 131.224 128.109  1.00  0.00     0.000 C 
ENDROOT
BRANCH   1   2
ATOM      2  C   UNL     1     137.981 130.938 128.118  1.00  0.00     0.000 C 
BRANCH   2   3
ATOM      3  C   UNL     1     138.404 130.264 129.428  1.00  0.00     0.000 C 
BRANCH   3   4
ATOM      4  C   UNL     1     139.343 131.172 130.236  1.00  0.00     0.000 C 
BRANCH   4   5
ATOM      5  C   UNL     1     138.608 131.971 131.325  1.00  0.00     0.001 C 
BRANCH   5   6
ATOM      6  C   UNL     1     138.209 133.383 130.853  1.00  0.00     0.009 C 
BRANCH   6   7
ATOM      7  C   UNL     1     139.229 134.046 129.899  1.00  0.00     0.032 C 
ATOM      8  C   UNL     1     138.575 134.623 128.634  1.00  0.00     0.014 C 
BRANCH   7   9
ATOM      9  C   UNL     1     140.073 135.071 130.611  1.00  0.00     0.044 C 
ATOM     10  O   UNL     1     140.860 134.732 131.536  1.00  0.00    -0.550 OA
ATOM     11  O   UNL     1     140.027 136.400 130.208  1.00  0.00    -0.550 OA
ENDBRANCH   7   9
ENDBRANCH   6   7
ENDBRANCH   5   6
ENDBRANCH   4   5
ENDBRANCH   3   4
ENDBRANCH   2   3
ENDBRANCH   1   2
BRANCH   1  12
ATOM     12  C   UNL     1     135.768 130.740 129.387  1.00  0.00     0.000 C 
BRANCH  12  13
ATOM     13  C   UNL     1     134.468 131.511 129.674  1.00  0.00    -0.000 C 
BRANCH  13  14
ATOM     14  C   UNL     1     134.663 132.634 130.706  1.00  0.00    -0.000 C 
BRANCH  14  15
ATOM     15  C   UNL     1     134.028 133.962 130.265  1.00  0.00    -0.000 C 
BRANCH  15  16
ATOM     16  C   UNL     1     135.031 134.817 129.482  1.00  0.00    -0.000 C 
BRANCH  16  17
ATOM     17  C   UNL     1     135.007 136.275 129.965  1.00  0.00    -0.000 C 
BRANCH  17  18
ATOM     18  C   UNL     1     136.387 136.766 130.429  1.00  0.00    -0.003 C 
ATOM     19  C   UNL     1     136.521 138.288 130.381  1.00  0.00     0.004 C 
ENDBRANCH  17  18
ENDBRANCH  16  17
ENDBRANCH  15  16
ENDBRANCH  14  15
ENDBRANCH  13  14
ENDBRANCH  12  13
ENDBRANCH   1  12
TORSDOF 14
ENDMDL
MODEL 7
REMARK VINA RESULT:    -4.997      2.640      4.667
REMARK INTER + INTRA:         -11.463
REMARK INTER:                  -8.686
REMARK INTRA:                  -2.777
REMARK UNBOUND:                -2.377
REMARK SMILES CCCCCCCCCCCCCC[C@@H](C)C(=O)[O-]
REMARK SMILES IDX 9 1 10 2 11 3 12 4 13 5 14 6 15 7 16 8 17 9 18 10 19 11 8 12
REMARK SMILES IDX 7 13 6 14 5 15 4 16 3 17 2 18 1 19
REMARK H PARENT
REMARK Flexibility Score: inf
ROOT
ATOM      1  C   UNL     1     138.152 130.497 128.894  1.00  0.00     0.000 C 
ENDROOT
BRANCH   1   2
ATOM      2  C   UNL     1     137.989 131.387 127.652  1.00  0.00     0.000 C 
BRANCH   2   3
ATOM      3  C   UNL     1     136.561 131.936 127.554  1.00  0.00     0.000 C 
BRANCH   3   4
ATOM      4  C   UNL     1     136.548 133.465 127.698  1.00  0.00     0.000 C 
BRANCH   4   5
ATOM      5  C   UNL     1     137.795 134.006 128.415  1.00  0.00     0.001 C 
BRANCH   5   6
ATOM      6  C   UNL     1     137.445 134.802 129.688  1.00  0.00     0.009 C 
BRANCH   6   7
ATOM      7  C   UNL     1     138.659 135.463 130.380  1.00  0.00     0.032 C 
ATOM      8  C   UNL     1     140.004 134.992 129.805  1.00  0.00     0.014 C 
BRANCH   7   9
ATOM      9  C   UNL     1     138.547 136.965 130.388  1.00  0.00     0.044 C 
ATOM     10  O   UNL     1     139.538 137.690 130.101  1.00  0.00    -0.550 OA
ATOM     11  O   UNL     1     137.323 137.562 130.661  1.00  0.00    -0.550 OA
ENDBRANCH   7   9
ENDBRANCH   6   7
ENDBRANCH   5   6
ENDBRANCH   4   5
ENDBRANCH   3   4
ENDBRANCH   2   3
ENDBRANCH   1   2
BRANCH   1  12
ATOM     12  C   UNL     1     139.326 130.932 129.786  1.00  0.00     0.000 C 
BRANCH  12  13
ATOM     13  C   UNL     1     138.862 131.652 131.064  1.00  0.00    -0.000 C 
BRANCH  13  14
ATOM     14  C   UNL     1     137.349 131.520 131.301  1.00  0.00    -0.000 C 
BRANCH  14  15
ATOM     15  C   UNL     1     136.841 132.437 132.424  1.00  0.00    -0.000 C 
BRANCH  15  16
ATOM     16  C   UNL     1     135.330 132.667 132.304  1.00  0.00    -0.000 C 
BRANCH  16  17
ATOM     17  C   UNL     1     134.875 132.583 130.839  1.00  0.00    -0.000 C 
BRANCH  17  18
ATOM     18  C   UNL     1     133.763 131.544 130.624  1.00  0.00    -0.003 C 
ATOM     19  C   UNL     1     134.247 130.310 129.864  1.00  0.00     0.004 C 
ENDBRANCH  17  18
ENDBRANCH  16  17
ENDBRANCH  15  16
ENDBRANCH  14  15
ENDBRANCH  13  14
ENDBRANCH  12  13
ENDBRANCH   1  12
TORSDOF 14
ENDMDL
MODEL 8
REMARK VINA RESULT:    -4.956      1.367      2.740
REMARK INTER + INTRA:         -11.390
REMARK INTER:                  -9.173
REMARK INTRA:                  -2.216
REMARK UNBOUND:                -2.377
REMARK SMILES CCCCCCCCCCCCCC[C@@H](C)C(=O)[O-]
REMARK SMILES IDX 9 1 10 2 11 3 12 4 13 5 14 6 15 7 16 8 17 9 18 10 19 11 8 12
REMARK SMILES IDX 7 13 6 14 5 15 4 16 3 17 2 18 1 19
REMARK H PARENT
REMARK Flexibility Score: inf
ROOT
ATOM      1  C   UNL     1     139.260 131.859 130.506  1.00  0.00     0.000 C 
ENDROOT
BRANCH   1   2
ATOM      2  C   UNL     1     139.423 130.364 130.189  1.00  0.00     0.000 C 
BRANCH   2   3
ATOM      3  C   UNL     1     138.234 129.844 129.371  1.00  0.00     0.000 C 
BRANCH   3   4
ATOM      4  C   UNL     1     137.866 130.828 128.250  1.00  0.00     0.000 C 
BRANCH   4   5
ATOM      5  C   UNL     1     136.375 131.203 128.254  1.00  0.00     0.001 C 
BRANCH   5   6
ATOM      6  C   UNL     1     135.633 130.660 129.492  1.00  0.00     0.009 C 
BRANCH   6   7
ATOM      7  C   UNL     1     134.161 131.117 129.603  1.00  0.00     0.032 C 
ATOM      8  C   UNL     1     133.279 130.112 130.359  1.00  0.00     0.014 C 
BRANCH   7   9
ATOM      9  C   UNL     1     134.049 132.505 130.177  1.00  0.00     0.044 C 
ATOM     10  O   UNL     1     133.945 132.685 131.421  1.00  0.00    -0.550 OA
ATOM     11  O   UNL     1     134.116 133.606 129.332  1.00  0.00    -0.550 OA
ENDBRANCH   7   9
ENDBRANCH   6   7
ENDBRANCH   5   6
ENDBRANCH   4   5
ENDBRANCH   3   4
ENDBRANCH   2   3
ENDBRANCH   1   2
BRANCH   1  12
ATOM     12  C   UNL     1     138.448 132.109 131.787  1.00  0.00     0.000 C 
BRANCH  12  13
ATOM     13  C   UNL     1     137.272 133.075 131.563  1.00  0.00    -0.000 C 
BRANCH  13  14
ATOM     14  C   UNL     1     137.446 133.935 130.300  1.00  0.00    -0.000 C 
BRANCH  14  15
ATOM     15  C   UNL     1     137.073 135.407 130.528  1.00  0.00    -0.000 C 
BRANCH  15  16
ATOM     16  C   UNL     1     138.318 136.249 130.833  1.00  0.00    -0.000 C 
BRANCH  16  17
ATOM     17  C   UNL     1     139.346 136.141 129.697  1.00  0.00    -0.000 C 
BRANCH  17  18
ATOM     18  C   UNL     1     140.554 135.268 130.075  1.00  0.00    -0.003 C 
ATOM     19  C   UNL     1     140.695 135.074 131.584  1.00  0.00     0.004 C 
ENDBRANCH  17  18
ENDBRANCH  16  17
ENDBRANCH  15  16
ENDBRANCH  14  15
ENDBRANCH  13  14
ENDBRANCH  12  13
ENDBRANCH   1  12
TORSDOF 14
ENDMDL
MODEL 9
REMARK VINA RESULT:    -4.932      2.594      4.237
REMARK INTER + INTRA:         -11.346
REMARK INTER:                  -9.147
REMARK INTRA:                  -2.199
REMARK UNBOUND:                -2.377
REMARK SMILES CCCCCCCCCCCCCC[C@@H](C)C(=O)[O-]
REMARK SMILES IDX 9 1 10 2 11 3 12 4 13 5 14 6 15 7 16 8 17 9 18 10 19 11 8 12
REMARK SMILES IDX 7 13 6 14 5 15 4 16 3 17 2 18 1 19
REMARK H PARENT
REMARK Flexibility Score: inf
ROOT
ATOM      1  C   UNL     1     134.590 131.347 129.867  1.00  0.00     0.000 C 
ENDROOT
BRANCH   1   2
ATOM      2  C   UNL     1     135.923 130.669 129.514  1.00  0.00     0.000 C 
BRANCH   2   3
ATOM      3  C   UNL     1     136.409 131.102 128.126  1.00  0.00     0.000 C 
BRANCH   3   4
ATOM      4  C   UNL     1     137.933 130.952 128.005  1.00  0.00     0.000 C 
BRANCH   4   5
ATOM      5  C   UNL     1     138.582 130.413 129.290  1.00  0.00     0.001 C 
BRANCH   5   6
ATOM      6  C   UNL     1     139.638 131.376 129.866  1.00  0.00     0.009 C 
BRANCH   6   7
ATOM      7  C   UNL     1     139.049 132.589 130.623  1.00  0.00     0.032 C 
ATOM      8  C   UNL     1     138.389 132.199 131.954  1.00  0.00     0.014 C 
BRANCH   7   9
ATOM      9  C   UNL     1     140.068 133.684 130.800  1.00  0.00     0.044 C 
ATOM     10  O   UNL     1     140.318 134.494 129.866  1.00  0.00    -0.550 OA
ATOM     11  O   UNL     1     140.703 133.840 132.026  1.00  0.00    -0.550 OA
ENDBRANCH   7   9
ENDBRANCH   6   7
ENDBRANCH   5   6
ENDBRANCH   4   5
ENDBRANCH   3   4
ENDBRANCH   2   3
ENDBRANCH   1   2
BRANCH   1  12
ATOM     12  C   UNL     1     134.765 132.543 130.815  1.00  0.00     0.000 C 
BRANCH  12  13
ATOM     13  C   UNL     1     134.276 133.864 130.196  1.00  0.00    -0.000 C 
BRANCH  13  14
ATOM     14  C   UNL     1     135.209 134.379 129.088  1.00  0.00    -0.000 C 
BRANCH  14  15
ATOM     15  C   UNL     1     136.630 134.666 129.595  1.00  0.00    -0.000 C 
BRANCH  15  16
ATOM     16  C   UNL     1     136.612 135.711 130.717  1.00  0.00    -0.000 C 
BRANCH  16  17
ATOM     17  C   UNL     1     137.810 136.666 130.600  1.00  0.00    -0.000 C 
BRANCH  17  18
ATOM     18  C   UNL     1     137.382 138.129 130.406  1.00  0.00    -0.003 C 
ATOM     19  C   UNL     1     135.876 138.283 130.202  1.00  0.00     0.004 C 
ENDBRANCH  17  18
ENDBRANCH  16  17
ENDBRANCH  15  16
ENDBRANCH  14  15
ENDBRANCH  13  14
ENDBRANCH  12  13
ENDBRANCH   1  12
TORSDOF 14
ENDMDL
