MODEL 1
REMARK VINA RESULT:    -3.812      0.000      0.000
REMARK INTER + INTRA:          -4.146
REMARK INTER:                  -4.146
REMARK INTRA:                   0.000
REMARK UNBOUND:                 0.000
REMARK SMILES Oc1cccc(O)c1O
REMARK SMILES IDX 4 1 5 2 6 3 8 4 2 5 3 6 7 7 1 9 9 11
REMARK H PARENT 7 8 1 10 9 12
REMARK Flexibility Score: inf
ROOT
ATOM      1  C   UNL     1      14.551   7.677  16.274  1.00  0.00     0.008 A 
ATOM      2  C   UNL     1      13.328   8.335  16.144  1.00  0.00     0.050 A 
ATOM      3  C   UNL     1      12.143   7.599  16.013  1.00  0.00     0.161 A 
ATOM      4  C   UNL     1      12.180   6.195  16.011  1.00  0.00     0.200 A 
ATOM      5  C   UNL     1      13.423   5.529  16.144  1.00  0.00     0.161 A 
ATOM      6  C   UNL     1      14.598   6.283  16.273  1.00  0.00     0.050 A 
ENDROOT
BRANCH   3   7
ATOM      7  O   UNL     1      10.921   8.256  15.885  1.00  0.00    -0.504 OA
ATOM      8  H   UNL     1      10.820   9.081  15.306  1.00  0.00     0.293 HD
ENDBRANCH   3   7
BRANCH   5   9
ATOM      9  O   UNL     1      13.539   4.137  16.151  1.00  0.00    -0.504 OA
ATOM     10  H   UNL     1      12.908   3.516  15.666  1.00  0.00     0.293 HD
ENDBRANCH   5   9
BRANCH   4  11
ATOM     11  O   UNL     1      10.972   5.507  15.879  1.00  0.00    -0.502 OA
ATOM     12  H   UNL     1      10.733   4.677  16.401  1.00  0.00     0.293 HD
ENDBRANCH   4  11
TORSDOF 3
ENDMDL
MODEL 2
REMARK VINA RESULT:    -3.734      2.853      3.647
REMARK INTER + INTRA:          -4.061
REMARK INTER:                  -4.061
REMARK INTRA:                   0.000
REMARK UNBOUND:                 0.000
REMARK SMILES Oc1cccc(O)c1O
REMARK SMILES IDX 4 1 5 2 6 3 8 4 2 5 3 6 7 7 1 9 9 11
REMARK H PARENT 7 8 1 10 9 12
REMARK Flexibility Score: inf
ROOT
ATOM      1  C   UNL     1      11.005   8.413  18.049  1.00  0.00     0.008 A 
ATOM      2  C   UNL     1      11.290   7.853  19.294  1.00  0.00     0.050 A 
ATOM      3  C   UNL     1      11.448   6.467  19.422  1.00  0.00     0.161 A 
ATOM      4  C   UNL     1      11.319   5.634  18.299  1.00  0.00     0.200 A 
ATOM      5  C   UNL     1      11.030   6.206  17.036  1.00  0.00     0.161 A 
ATOM      6  C   UNL     1      10.875   7.594  16.927  1.00  0.00     0.050 A 
ENDROOT
BRANCH   3   7
ATOM      7  O   UNL     1      11.734   5.907  20.666  1.00  0.00    -0.504 OA
ATOM      8  H   UNL     1      11.772   4.904  20.801  1.00  0.00     0.293 HD
ENDBRANCH   3   7
BRANCH   5   9
ATOM      9  O   UNL     1      10.887   5.442  15.875  1.00  0.00    -0.504 OA
ATOM     10  H   UNL     1      11.292   5.688  14.984  1.00  0.00     0.293 HD
ENDBRANCH   5   9
BRANCH   4  11
ATOM     11  O   UNL     1      11.485   4.259  18.479  1.00  0.00    -0.502 OA
ATOM     12  H   UNL     1      11.917   3.648  17.802  1.00  0.00     0.293 HD
ENDBRANCH   4  11
TORSDOF 3
ENDMDL
MODEL 3
REMARK VINA RESULT:    -3.727      2.957      4.833
REMARK INTER + INTRA:          -4.054
REMARK INTER:                  -4.054
REMARK INTRA:                   0.000
REMARK UNBOUND:                 0.000
REMARK SMILES Oc1cccc(O)c1O
REMARK SMILES IDX 4 1 5 2 6 3 8 4 2 5 3 6 7 7 1 9 9 11
REMARK H PARENT 7 8 1 10 9 12
REMARK Flexibility Score: inf
ROOT
ATOM      1  C   UNL     1      13.349   4.072  19.911  1.00  0.00     0.008 A 
ATOM      2  C   UNL     1      14.392   3.215  19.559  1.00  0.00     0.050 A 
ATOM      3  C   UNL     1      14.709   3.010  18.210  1.00  0.00     0.161 A 
ATOM      4  C   UNL     1      13.980   3.666  17.205  1.00  0.00     0.200 A 
ATOM      5  C   UNL     1      12.922   4.537  17.565  1.00  0.00     0.161 A 
ATOM      6  C   UNL     1      12.619   4.729  18.920  1.00  0.00     0.050 A 
ENDROOT
BRANCH   3   7
ATOM      7  O   UNL     1      15.751   2.154  17.858  1.00  0.00    -0.504 OA
ATOM      8  H   UNL     1      16.014   2.007  16.891  1.00  0.00     0.293 HD
ENDBRANCH   3   7
BRANCH   5   9
ATOM      9  O   UNL     1      12.154   5.223  16.623  1.00  0.00    -0.504 OA
ATOM     10  H   UNL     1      11.832   6.172  16.740  1.00  0.00     0.293 HD
ENDBRANCH   5   9
BRANCH   4  11
ATOM     11  O   UNL     1      14.336   3.429  15.875  1.00  0.00    -0.502 OA
ATOM     12  H   UNL     1      13.809   3.760  15.081  1.00  0.00     0.293 HD
ENDBRANCH   4  11
TORSDOF 3
ENDMDL
MODEL 4
REMARK VINA RESULT:    -3.695      2.361      2.720
REMARK INTER + INTRA:          -4.019
REMARK INTER:                  -4.019
REMARK INTRA:                   0.000
REMARK UNBOUND:                 0.000
REMARK SMILES Oc1cccc(O)c1O
REMARK SMILES IDX 4 1 5 2 6 3 8 4 2 5 3 6 7 7 1 9 9 11
REMARK H PARENT 7 8 1 10 9 12
REMARK Flexibility Score: inf
ROOT
ATOM      1  C   UNL     1      11.723   7.600  19.501  1.00  0.00     0.008 A 
ATOM      2  C   UNL     1      11.435   8.324  18.344  1.00  0.00     0.050 A 
ATOM      3  C   UNL     1      11.167   7.654  17.143  1.00  0.00     0.161 A 
ATOM      4  C   UNL     1      11.189   6.251  17.096  1.00  0.00     0.200 A 
ATOM      5  C   UNL     1      11.483   5.518  18.272  1.00  0.00     0.161 A 
ATOM      6  C   UNL     1      11.748   6.205  19.464  1.00  0.00     0.050 A 
ENDROOT
BRANCH   3   7
ATOM      7  O   UNL     1      10.877   8.377  15.987  1.00  0.00    -0.504 OA
ATOM      8  H   UNL     1      11.148   8.044  15.070  1.00  0.00     0.293 HD
ENDBRANCH   3   7
BRANCH   5   9
ATOM      9  O   UNL     1      11.523   4.122  18.303  1.00  0.00    -0.504 OA
ATOM     10  H   UNL     1      11.964   3.586  19.035  1.00  0.00     0.293 HD
ENDBRANCH   5   9
BRANCH   4  11
ATOM     11  O   UNL     1      10.916   5.630  15.875  1.00  0.00    -0.502 OA
ATOM     12  H   UNL     1      11.134   4.667  15.668  1.00  0.00     0.293 HD
ENDBRANCH   4  11
TORSDOF 3
ENDMDL
MODEL 5
REMARK VINA RESULT:    -3.669      2.765      4.091
REMARK INTER + INTRA:          -3.990
REMARK INTER:                  -3.990
REMARK INTRA:                   0.000
REMARK UNBOUND:                 0.000
REMARK SMILES Oc1cccc(O)c1O
REMARK SMILES IDX 4 1 5 2 6 3 8 4 2 5 3 6 7 7 1 9 9 11
REMARK H PARENT 7 8 1 10 9 12
REMARK Flexibility Score: inf
ROOT
ATOM      1  C   UNL     1      10.875   7.353  16.008  1.00  0.00     0.008 A 
ATOM      2  C   UNL     1      11.013   5.990  16.271  1.00  0.00     0.050 A 
ATOM      3  C   UNL     1      11.168   5.540  17.589  1.00  0.00     0.161 A 
ATOM      4  C   UNL     1      11.185   6.457  18.652  1.00  0.00     0.200 A 
ATOM      5  C   UNL     1      11.044   7.841  18.382  1.00  0.00     0.161 A 
ATOM      6  C   UNL     1      10.891   8.272  17.057  1.00  0.00     0.050 A 
ENDROOT
BRANCH   3   7
ATOM      7  O   UNL     1      11.305   4.178  17.852  1.00  0.00    -0.504 OA
ATOM      8  H   UNL     1      11.705   3.842  18.720  1.00  0.00     0.293 HD
ENDBRANCH   3   7
BRANCH   5   9
ATOM      9  O   UNL     1      11.052   8.812  19.385  1.00  0.00    -0.504 OA
ATOM     10  H   UNL     1      10.898   8.614  20.363  1.00  0.00     0.293 HD
ENDBRANCH   5   9
BRANCH   4  11
ATOM     11  O   UNL     1      11.342   5.959  19.947  1.00  0.00    -0.502 OA
ATOM     12  H   UNL     1      11.228   4.988  20.197  1.00  0.00     0.293 HD
ENDBRANCH   4  11
TORSDOF 3
ENDMDL
MODEL 6
REMARK VINA RESULT:    -3.625      2.853      3.640
REMARK INTER + INTRA:          -3.943
REMARK INTER:                  -3.943
REMARK INTRA:                   0.000
REMARK UNBOUND:                 0.000
REMARK SMILES Oc1cccc(O)c1O
REMARK SMILES IDX 4 1 5 2 6 3 8 4 2 5 3 6 7 7 1 9 9 11
REMARK H PARENT 7 8 1 10 9 12
REMARK Flexibility Score: inf
ROOT
ATOM      1  C   UNL     1      14.214   3.373  19.554  1.00  0.00     0.008 A 
ATOM      2  C   UNL     1      13.124   4.189  19.857  1.00  0.00     0.050 A 
ATOM      3  C   UNL     1      12.401   4.808  18.828  1.00  0.00     0.161 A 
ATOM      4  C   UNL     1      12.769   4.611  17.488  1.00  0.00     0.200 A 
ATOM      5  C   UNL     1      13.877   3.781  17.183  1.00  0.00     0.161 A 
ATOM      6  C   UNL     1      14.588   3.172  18.225  1.00  0.00     0.050 A 
ENDROOT
BRANCH   3   7
ATOM      7  O   UNL     1      11.311   5.622  19.131  1.00  0.00    -0.504 OA
ATOM      8  H   UNL     1      10.805   5.529  20.004  1.00  0.00     0.293 HD
ENDBRANCH   3   7
BRANCH   5   9
ATOM      9  O   UNL     1      14.302   3.539  15.875  1.00  0.00    -0.504 OA
ATOM     10  H   UNL     1      15.233   3.736  15.538  1.00  0.00     0.293 HD
ENDBRANCH   5   9
BRANCH   4  11
ATOM     11  O   UNL     1      12.016   5.249  16.500  1.00  0.00    -0.502 OA
ATOM     12  H   UNL     1      11.599   6.161  16.608  1.00  0.00     0.293 HD
ENDBRANCH   4  11
TORSDOF 3
ENDMDL
MODEL 7
REMARK VINA RESULT:    -3.615      2.871      4.284
REMARK INTER + INTRA:          -3.932
REMARK INTER:                  -3.932
REMARK INTRA:                   0.000
REMARK UNBOUND:                 0.000
REMARK SMILES Oc1cccc(O)c1O
REMARK SMILES IDX 4 1 5 2 6 3 8 4 2 5 3 6 7 7 1 9 9 11
REMARK H PARENT 7 8 1 10 9 12
REMARK Flexibility Score: inf
ROOT
ATOM      1  C   UNL     1      14.219   3.370  19.563  1.00  0.00     0.008 A 
ATOM      2  C   UNL     1      14.596   3.181  18.233  1.00  0.00     0.050 A 
ATOM      3  C   UNL     1      13.882   3.809  17.204  1.00  0.00     0.161 A 
ATOM      4  C   UNL     1      12.784   4.631  17.504  1.00  0.00     0.200 A 
ATOM      5  C   UNL     1      12.404   4.821  18.856  1.00  0.00     0.161 A 
ATOM      6  C   UNL     1      13.129   4.185  19.872  1.00  0.00     0.050 A 
ENDROOT
BRANCH   3   7
ATOM      7  O   UNL     1      14.259   3.621  15.875  1.00  0.00    -0.504 OA
ATOM      8  H   UNL     1      13.785   4.097  15.116  1.00  0.00     0.293 HD
ENDBRANCH   3   7
BRANCH   5   9
ATOM      9  O   UNL     1      11.324   5.624  19.232  1.00  0.00    -0.504 OA
ATOM     10  H   UNL     1      10.891   5.597  20.143  1.00  0.00     0.293 HD
ENDBRANCH   5   9
BRANCH   4  11
ATOM     11  O   UNL     1      12.106   5.234  16.443  1.00  0.00    -0.502 OA
ATOM     12  H   UNL     1      12.555   5.777  15.720  1.00  0.00     0.293 HD
ENDBRANCH   4  11
TORSDOF 3
ENDMDL
MODEL 8
REMARK VINA RESULT:    -3.607      2.770      3.211
REMARK INTER + INTRA:          -3.923
REMARK INTER:                  -3.923
REMARK INTRA:                   0.000
REMARK UNBOUND:                 0.000
REMARK SMILES Oc1cccc(O)c1O
REMARK SMILES IDX 4 1 5 2 6 3 8 4 2 5 3 6 7 7 1 9 9 11
REMARK H PARENT 7 8 1 10 9 12
REMARK Flexibility Score: inf
ROOT
ATOM      1  C   UNL     1      10.875   7.358  16.007  1.00  0.00     0.008 A 
ATOM      2  C   UNL     1      10.954   8.254  17.073  1.00  0.00     0.050 A 
ATOM      3  C   UNL     1      11.124   7.779  18.380  1.00  0.00     0.161 A 
ATOM      4  C   UNL     1      11.215   6.400  18.625  1.00  0.00     0.200 A 
ATOM      5  C   UNL     1      11.135   5.492  17.541  1.00  0.00     0.161 A 
ATOM      6  C   UNL     1      10.965   5.985  16.240  1.00  0.00     0.050 A 
ENDROOT
BRANCH   3   7
ATOM      7  O   UNL     1      11.204   8.675  19.446  1.00  0.00    -0.504 OA
ATOM      8  H   UNL     1      10.899   9.637  19.355  1.00  0.00     0.293 HD
ENDBRANCH   3   7
BRANCH   5   9
ATOM      9  O   UNL     1      11.218   4.107  17.706  1.00  0.00    -0.504 OA
ATOM     10  H   UNL     1      12.024   3.631  18.082  1.00  0.00     0.293 HD
ENDBRANCH   5   9
BRANCH   4  11
ATOM     11  O   UNL     1      11.385   5.977  19.945  1.00  0.00    -0.502 OA
ATOM     12  H   UNL     1      11.807   6.540  20.670  1.00  0.00     0.293 HD
ENDBRANCH   4  11
TORSDOF 3
ENDMDL
