MODEL 1
REMARK VINA RESULT:    -3.589      0.000      0.000
REMARK INTER + INTRA:          -7.688
REMARK INTER:                  -6.317
REMARK INTRA:                  -1.372
REMARK UNBOUND:                -1.372
REMARK SMILES CCCCCCCCCCCCCCC(=O)[O-]
REMARK SMILES IDX 9 1 10 2 11 3 12 4 13 5 14 6 15 7 16 8 17 9 8 10 7 11 6 12
REMARK SMILES IDX 5 13 4 14 3 15 2 16 1 17
REMARK H PARENT
REMARK Flexibility Score: inf
ROOT
ATOM      1  C   UNL     1      28.475 -10.859  30.909  1.00  0.00     0.000 C 
ENDROOT
BRANCH   1   2
ATOM      2  C   UNL     1      27.671  -9.733  30.234  1.00  0.00     0.000 C 
BRANCH   2   3
ATOM      3  C   UNL     1      27.682  -9.859  28.699  1.00  0.00     0.000 C 
BRANCH   3   4
ATOM      4  C   UNL     1      26.322 -10.314  28.118  1.00  0.00     0.000 C 
BRANCH   4   5
ATOM      5  C   UNL     1      25.120 -10.031  29.045  1.00  0.00     0.006 C 
BRANCH   5   6
ATOM      6  C   UNL     1      24.401  -8.696  28.749  1.00  0.00     0.053 C 
BRANCH   6   7
ATOM      7  C   UNL     1      24.169  -7.851  29.968  1.00  0.00     0.041 C 
ATOM      8  O   UNL     1      23.970  -6.610  29.832  1.00  0.00    -0.550 OA
ATOM      9  O   UNL     1      24.037  -8.432  31.229  1.00  0.00    -0.550 OA
ENDBRANCH   6   7
ENDBRANCH   5   6
ENDBRANCH   4   5
ENDBRANCH   3   4
ENDBRANCH   2   3
ENDBRANCH   1   2
BRANCH   1  10
ATOM     10  C   UNL     1      29.585 -11.419  30.005  1.00  0.00     0.000 C 
BRANCH  10  11
ATOM     11  C   UNL     1      30.930 -11.561  30.731  1.00  0.00    -0.000 C 
BRANCH  11  12
ATOM     12  C   UNL     1      31.174 -10.369  31.666  1.00  0.00    -0.000 C 
BRANCH  12  13
ATOM     13  C   UNL     1      32.088  -9.325  31.003  1.00  0.00    -0.000 C 
BRANCH  13  14
ATOM     14  C   UNL     1      31.465  -7.920  30.991  1.00  0.00    -0.000 C 
BRANCH  14  15
ATOM     15  C   UNL     1      30.653  -7.619  32.264  1.00  0.00    -0.000 C 
BRANCH  15  16
ATOM     16  C   UNL     1      31.462  -6.827  33.304  1.00  0.00    -0.003 C 
ATOM     17  C   UNL     1      32.142  -7.730  34.334  1.00  0.00     0.004 C 
ENDBRANCH  15  16
ENDBRANCH  14  15
ENDBRANCH  13  14
ENDBRANCH  12  13
ENDBRANCH  11  12
ENDBRANCH  10  11
ENDBRANCH   1  10
TORSDOF 13
ENDMDL
MODEL 2
REMARK VINA RESULT:    -3.545      2.894      6.311
REMARK INTER + INTRA:          -7.610
REMARK INTER:                  -5.843
REMARK INTRA:                  -1.767
REMARK UNBOUND:                -1.372
REMARK SMILES CCCCCCCCCCCCCCC(=O)[O-]
REMARK SMILES IDX 9 1 10 2 11 3 12 4 13 5 14 6 15 7 16 8 17 9 8 10 7 11 6 12
REMARK SMILES IDX 5 13 4 14 3 15 2 16 1 17
REMARK H PARENT
REMARK Flexibility Score: inf
ROOT
ATOM      1  C   UNL     1      28.201  -9.864  30.341  1.00  0.00     0.000 C 
ENDROOT
BRANCH   1   2
ATOM      2  C   UNL     1      28.639 -11.287  30.733  1.00  0.00     0.000 C 
BRANCH   2   3
ATOM      3  C   UNL     1      29.907 -11.278  31.606  1.00  0.00     0.000 C 
BRANCH   3   4
ATOM      4  C   UNL     1      31.183 -10.896  30.817  1.00  0.00     0.000 C 
BRANCH   4   5
ATOM      5  C   UNL     1      32.039  -9.808  31.501  1.00  0.00     0.006 C 
BRANCH   5   6
ATOM      6  C   UNL     1      31.414  -8.397  31.455  1.00  0.00     0.053 C 
BRANCH   6   7
ATOM      7  C   UNL     1      31.009  -7.869  32.801  1.00  0.00     0.041 C 
ATOM      8  O   UNL     1      30.092  -7.003  32.876  1.00  0.00    -0.550 OA
ATOM      9  O   UNL     1      31.534  -8.415  33.972  1.00  0.00    -0.550 OA
ENDBRANCH   6   7
ENDBRANCH   5   6
ENDBRANCH   4   5
ENDBRANCH   3   4
ENDBRANCH   2   3
ENDBRANCH   1   2
BRANCH   1  10
ATOM     10  C   UNL     1      27.708  -9.773  28.887  1.00  0.00     0.000 C 
BRANCH  10  11
ATOM     11  C   UNL     1      26.408 -10.553  28.649  1.00  0.00    -0.000 C 
BRANCH  11  12
ATOM     12  C   UNL     1      25.281  -9.611  28.203  1.00  0.00    -0.000 C 
BRANCH  12  13
ATOM     13  C   UNL     1      24.890  -8.644  29.332  1.00  0.00    -0.000 C 
BRANCH  13  14
ATOM     14  C   UNL     1      24.231  -9.361  30.521  1.00  0.00    -0.000 C 
BRANCH  14  15
ATOM     15  C   UNL     1      24.955  -9.091  31.853  1.00  0.00    -0.000 C 
BRANCH  15  16
ATOM     16  C   UNL     1      25.205 -10.377  32.656  1.00  0.00    -0.003 C 
ATOM     17  C   UNL     1      25.030 -11.642  31.814  1.00  0.00     0.004 C 
ENDBRANCH  15  16
ENDBRANCH  14  15
ENDBRANCH  13  14
ENDBRANCH  12  13
ENDBRANCH  11  12
ENDBRANCH  10  11
ENDBRANCH   1  10
TORSDOF 13
ENDMDL
MODEL 3
REMARK VINA RESULT:    -3.541      1.508      2.449
REMARK INTER + INTRA:          -7.604
REMARK INTER:                  -6.561
REMARK INTRA:                  -1.043
REMARK UNBOUND:                -1.372
REMARK SMILES CCCCCCCCCCCCCCC(=O)[O-]
REMARK SMILES IDX 9 1 10 2 11 3 12 4 13 5 14 6 15 7 16 8 17 9 8 10 7 11 6 12
REMARK SMILES IDX 5 13 4 14 3 15 2 16 1 17
REMARK H PARENT
REMARK Flexibility Score: inf
ROOT
ATOM      1  C   UNL     1      27.109  -9.463  29.787  1.00  0.00     0.000 C 
ENDROOT
BRANCH   1   2
ATOM      2  C   UNL     1      26.306  -9.723  28.500  1.00  0.00     0.000 C 
BRANCH   2   3
ATOM      3  C   UNL     1      24.805  -9.439  28.691  1.00  0.00     0.000 C 
BRANCH   3   4
ATOM      4  C   UNL     1      24.528  -8.076  29.369  1.00  0.00     0.000 C 
BRANCH   4   5
ATOM      5  C   UNL     1      23.773  -8.186  30.712  1.00  0.00     0.006 C 
BRANCH   5   6
ATOM      6  C   UNL     1      23.831  -9.591  31.350  1.00  0.00     0.053 C 
BRANCH   6   7
ATOM      7  C   UNL     1      24.682  -9.661  32.584  1.00  0.00     0.041 C 
ATOM      8  O   UNL     1      25.560 -10.564  32.680  1.00  0.00    -0.550 OA
ATOM      9  O   UNL     1      24.608  -8.670  33.563  1.00  0.00    -0.550 OA
ENDBRANCH   6   7
ENDBRANCH   5   6
ENDBRANCH   4   5
ENDBRANCH   3   4
ENDBRANCH   2   3
ENDBRANCH   1   2
BRANCH   1  10
ATOM     10  C   UNL     1      28.409 -10.280  29.852  1.00  0.00     0.000 C 
BRANCH  10  11
ATOM     11  C   UNL     1      29.137 -10.138  31.196  1.00  0.00    -0.000 C 
BRANCH  11  12
ATOM     12  C   UNL     1      30.651 -10.319  31.019  1.00  0.00    -0.000 C 
BRANCH  12  13
ATOM     13  C   UNL     1      31.403  -9.013  31.323  1.00  0.00    -0.000 C 
BRANCH  13  14
ATOM     14  C   UNL     1      30.469  -7.897  31.818  1.00  0.00    -0.000 C 
BRANCH  14  15
ATOM     15  C   UNL     1      30.986  -7.212  33.096  1.00  0.00    -0.000 C 
BRANCH  15  16
ATOM     16  C   UNL     1      31.887  -8.133  33.932  1.00  0.00    -0.003 C 
ATOM     17  C   UNL     1      32.878  -7.357  34.803  1.00  0.00     0.004 C 
ENDBRANCH  15  16
ENDBRANCH  14  15
ENDBRANCH  13  14
ENDBRANCH  12  13
ENDBRANCH  11  12
ENDBRANCH  10  11
ENDBRANCH   1  10
TORSDOF 13
ENDMDL
MODEL 4
REMARK VINA RESULT:    -3.512      2.258      2.699
REMARK INTER + INTRA:          -7.553
REMARK INTER:                  -6.390
REMARK INTRA:                  -1.163
REMARK UNBOUND:                -1.372
REMARK SMILES CCCCCCCCCCCCCCC(=O)[O-]
REMARK SMILES IDX 9 1 10 2 11 3 12 4 13 5 14 6 15 7 16 8 17 9 8 10 7 11 6 12
REMARK SMILES IDX 5 13 4 14 3 15 2 16 1 17
REMARK H PARENT
REMARK Flexibility Score: inf
ROOT
ATOM      1  C   UNL     1      28.576 -11.247  30.300  1.00  0.00     0.000 C 
ENDROOT
BRANCH   1   2
ATOM      2  C   UNL     1      28.126  -9.788  30.495  1.00  0.00     0.000 C 
BRANCH   2   3
ATOM      3  C   UNL     1      26.604  -9.629  30.323  1.00  0.00     0.000 C 
BRANCH   3   4
ATOM      4  C   UNL     1      25.829 -10.952  30.532  1.00  0.00     0.000 C 
BRANCH   4   5
ATOM      5  C   UNL     1      25.204 -11.096  31.936  1.00  0.00     0.006 C 
BRANCH   5   6
ATOM      6  C   UNL     1      25.135  -9.774  32.731  1.00  0.00     0.053 C 
BRANCH   6   7
ATOM      7  C   UNL     1      24.719  -9.949  34.162  1.00  0.00     0.041 C 
ATOM      8  O   UNL     1      24.186  -8.980  34.775  1.00  0.00    -0.550 OA
ATOM      9  O   UNL     1      24.788 -11.196  34.782  1.00  0.00    -0.550 OA
ENDBRANCH   6   7
ENDBRANCH   5   6
ENDBRANCH   4   5
ENDBRANCH   3   4
ENDBRANCH   2   3
ENDBRANCH   1   2
BRANCH   1  10
ATOM     10  C   UNL     1      30.092 -11.430  30.482  1.00  0.00     0.000 C 
BRANCH  10  11
ATOM     11  C   UNL     1      30.678 -10.508  31.561  1.00  0.00    -0.000 C 
BRANCH  11  12
ATOM     12  C   UNL     1      31.977  -9.853  31.071  1.00  0.00    -0.000 C 
BRANCH  12  13
ATOM     13  C   UNL     1      31.830  -8.325  30.993  1.00  0.00    -0.000 C 
BRANCH  13  14
ATOM     14  C   UNL     1      30.822  -7.777  32.017  1.00  0.00    -0.000 C 
BRANCH  14  15
ATOM     15  C   UNL     1      31.501  -7.022  33.174  1.00  0.00    -0.000 C 
BRANCH  15  16
ATOM     16  C   UNL     1      32.061  -7.969  34.245  1.00  0.00    -0.003 C 
ATOM     17  C   UNL     1      33.186  -7.334  35.065  1.00  0.00     0.004 C 
ENDBRANCH  15  16
ENDBRANCH  14  15
ENDBRANCH  13  14
ENDBRANCH  12  13
ENDBRANCH  11  12
ENDBRANCH  10  11
ENDBRANCH   1  10
TORSDOF 13
ENDMDL
MODEL 5
REMARK VINA RESULT:    -3.460     16.679     18.604
REMARK INTER + INTRA:          -7.462
REMARK INTER:                  -6.420
REMARK INTRA:                  -1.041
REMARK UNBOUND:                -1.372
REMARK SMILES CCCCCCCCCCCCCCC(=O)[O-]
REMARK SMILES IDX 9 1 10 2 11 3 12 4 13 5 14 6 15 7 16 8 17 9 8 10 7 11 6 12
REMARK SMILES IDX 5 13 4 14 3 15 2 16 1 17
REMARK H PARENT
REMARK Flexibility Score: inf
ROOT
ATOM      1  C   UNL     1      22.442   1.292  42.001  1.00  0.00     0.000 C 
ENDROOT
BRANCH   1   2
ATOM      2  C   UNL     1      22.121   0.548  40.692  1.00  0.00     0.000 C 
BRANCH   2   3
ATOM      3  C   UNL     1      22.323  -0.972  40.831  1.00  0.00     0.000 C 
BRANCH   3   4
ATOM      4  C   UNL     1      21.016  -1.729  41.166  1.00  0.00     0.000 C 
BRANCH   4   5
ATOM      5  C   UNL     1      21.030  -2.421  42.547  1.00  0.00     0.006 C 
BRANCH   5   6
ATOM      6  C   UNL     1      20.865  -1.450  43.736  1.00  0.00     0.053 C 
BRANCH   6   7
ATOM      7  C   UNL     1      21.418  -1.976  45.028  1.00  0.00     0.041 C 
ATOM      8  O   UNL     1      20.676  -2.011  46.051  1.00  0.00    -0.550 OA
ATOM      9  O   UNL     1      22.688  -2.548  45.084  1.00  0.00    -0.550 OA
ENDBRANCH   6   7
ENDBRANCH   5   6
ENDBRANCH   4   5
ENDBRANCH   3   4
ENDBRANCH   2   3
ENDBRANCH   1   2
BRANCH   1  10
ATOM     10  C   UNL     1      22.845   2.757  41.768  1.00  0.00     0.000 C 
BRANCH  10  11
ATOM     11  C   UNL     1      22.852   3.586  43.060  1.00  0.00    -0.000 C 
BRANCH  11  12
ATOM     12  C   UNL     1      21.660   4.552  43.095  1.00  0.00    -0.000 C 
BRANCH  12  13
ATOM     13  C   UNL     1      20.422   3.880  43.710  1.00  0.00    -0.000 C 
BRANCH  13  14
ATOM     14  C   UNL     1      20.147   4.354  45.147  1.00  0.00    -0.000 C 
BRANCH  14  15
ATOM     15  C   UNL     1      20.713   3.392  46.208  1.00  0.00    -0.000 C 
BRANCH  15  16
ATOM     16  C   UNL     1      21.472   4.128  47.322  1.00  0.00    -0.003 C 
ATOM     17  C   UNL     1      22.610   5.000  46.786  1.00  0.00     0.004 C 
ENDBRANCH  15  16
ENDBRANCH  14  15
ENDBRANCH  13  14
ENDBRANCH  12  13
ENDBRANCH  11  12
ENDBRANCH  10  11
ENDBRANCH   1  10
TORSDOF 13
ENDMDL
MODEL 6
REMARK VINA RESULT:    -3.406      2.944      3.458
REMARK INTER + INTRA:          -7.366
REMARK INTER:                  -6.173
REMARK INTRA:                  -1.193
REMARK UNBOUND:                -1.372
REMARK SMILES CCCCCCCCCCCCCCC(=O)[O-]
REMARK SMILES IDX 9 1 10 2 11 3 12 4 13 5 14 6 15 7 16 8 17 9 8 10 7 11 6 12
REMARK SMILES IDX 5 13 4 14 3 15 2 16 1 17
REMARK H PARENT
REMARK Flexibility Score: inf
ROOT
ATOM      1  C   UNL     1      27.804  -9.566  30.947  1.00  0.00     0.000 C 
ENDROOT
BRANCH   1   2
ATOM      2  C   UNL     1      26.274  -9.623  30.793  1.00  0.00     0.000 C 
BRANCH   2   3
ATOM      3  C   UNL     1      25.713 -11.014  31.142  1.00  0.00     0.000 C 
BRANCH   3   4
ATOM      4  C   UNL     1      25.686 -11.293  32.664  1.00  0.00     0.000 C 
BRANCH   4   5
ATOM      5  C   UNL     1      24.409 -10.788  33.370  1.00  0.00     0.006 C 
BRANCH   5   6
ATOM      6  C   UNL     1      24.563  -9.400  34.028  1.00  0.00     0.053 C 
BRANCH   6   7
ATOM      7  C   UNL     1      24.247  -9.387  35.496  1.00  0.00     0.041 C 
ATOM      8  O   UNL     1      24.124 -10.483  36.113  1.00  0.00    -0.550 OA
ATOM      9  O   UNL     1      24.218  -8.191  36.212  1.00  0.00    -0.550 OA
ENDBRANCH   6   7
ENDBRANCH   5   6
ENDBRANCH   4   5
ENDBRANCH   3   4
ENDBRANCH   2   3
ENDBRANCH   1   2
BRANCH   1  10
ATOM     10  C   UNL     1      28.539 -10.419  29.900  1.00  0.00     0.000 C 
BRANCH  10  11
ATOM     11  C   UNL     1      29.751 -11.161  30.480  1.00  0.00    -0.000 C 
BRANCH  11  12
ATOM     12  C   UNL     1      30.387 -10.358  31.623  1.00  0.00    -0.000 C 
BRANCH  12  13
ATOM     13  C   UNL     1      31.779  -9.838  31.226  1.00  0.00    -0.000 C 
BRANCH  13  14
ATOM     14  C   UNL     1      31.842  -8.303  31.176  1.00  0.00    -0.000 C 
BRANCH  14  15
ATOM     15  C   UNL     1      30.790  -7.635  32.079  1.00  0.00    -0.000 C 
BRANCH  15  16
ATOM     16  C   UNL     1      31.423  -6.859  33.244  1.00  0.00    -0.003 C 
ATOM     17  C   UNL     1      32.212  -7.762  34.194  1.00  0.00     0.004 C 
ENDBRANCH  15  16
ENDBRANCH  14  15
ENDBRANCH  13  14
ENDBRANCH  12  13
ENDBRANCH  11  12
ENDBRANCH  10  11
ENDBRANCH   1  10
TORSDOF 13
ENDMDL
MODEL 7
REMARK VINA RESULT:    -3.372      3.077      6.591
REMARK INTER + INTRA:          -7.307
REMARK INTER:                  -5.663
REMARK INTRA:                  -1.644
REMARK UNBOUND:                -1.372
REMARK SMILES CCCCCCCCCCCCCCC(=O)[O-]
REMARK SMILES IDX 9 1 10 2 11 3 12 4 13 5 14 6 15 7 16 8 17 9 8 10 7 11 6 12
REMARK SMILES IDX 5 13 4 14 3 15 2 16 1 17
REMARK H PARENT
REMARK Flexibility Score: inf
ROOT
ATOM      1  C   UNL     1      27.824 -10.083  28.856  1.00  0.00     0.000 C 
ENDROOT
BRANCH   1   2
ATOM      2  C   UNL     1      28.076 -11.546  29.265  1.00  0.00     0.000 C 
BRANCH   2   3
ATOM      3  C   UNL     1      29.484 -11.742  29.856  1.00  0.00     0.000 C 
BRANCH   3   4
ATOM      4  C   UNL     1      29.624 -11.183  31.291  1.00  0.00     0.000 C 
BRANCH   4   5
ATOM      5  C   UNL     1      30.721 -10.107  31.440  1.00  0.00     0.006 C 
BRANCH   5   6
ATOM      6  C   UNL     1      30.175  -8.673  31.610  1.00  0.00     0.053 C 
BRANCH   6   7
ATOM      7  C   UNL     1      31.245  -7.629  31.745  1.00  0.00     0.041 C 
ATOM      8  O   UNL     1      32.183  -7.590  30.898  1.00  0.00    -0.550 OA
ATOM      9  O   UNL     1      31.149  -6.624  32.706  1.00  0.00    -0.550 OA
ENDBRANCH   6   7
ENDBRANCH   5   6
ENDBRANCH   4   5
ENDBRANCH   3   4
ENDBRANCH   2   3
ENDBRANCH   1   2
BRANCH   1  10
ATOM     10  C   UNL     1      26.634  -9.455  29.601  1.00  0.00     0.000 C 
BRANCH  10  11
ATOM     11  C   UNL     1      25.989 -10.414  30.610  1.00  0.00    -0.000 C 
BRANCH  11  12
ATOM     12  C   UNL     1      25.945  -9.785  32.009  1.00  0.00    -0.000 C 
BRANCH  12  13
ATOM     13  C   UNL     1      24.695  -8.906  32.180  1.00  0.00    -0.000 C 
BRANCH  13  14
ATOM     14  C   UNL     1      23.412  -9.607  31.706  1.00  0.00    -0.000 C 
BRANCH  14  15
ATOM     15  C   UNL     1      22.599  -8.752  30.716  1.00  0.00    -0.000 C 
BRANCH  15  16
ATOM     16  C   UNL     1      23.415  -7.585  30.140  1.00  0.00    -0.003 C 
ATOM     17  C   UNL     1      23.529  -7.640  28.615  1.00  0.00     0.004 C 
ENDBRANCH  15  16
ENDBRANCH  14  15
ENDBRANCH  13  14
ENDBRANCH  12  13
ENDBRANCH  11  12
ENDBRANCH  10  11
ENDBRANCH   1  10
TORSDOF 13
ENDMDL
MODEL 8
REMARK VINA RESULT:    -3.326      3.239      6.697
REMARK INTER + INTRA:          -7.225
REMARK INTER:                  -5.732
REMARK INTRA:                  -1.493
REMARK UNBOUND:                -1.372
REMARK SMILES CCCCCCCCCCCCCCC(=O)[O-]
REMARK SMILES IDX 9 1 10 2 11 3 12 4 13 5 14 6 15 7 16 8 17 9 8 10 7 11 6 12
REMARK SMILES IDX 5 13 4 14 3 15 2 16 1 17
REMARK H PARENT
REMARK Flexibility Score: inf
ROOT
ATOM      1  C   UNL     1      26.461  -9.476  29.079  1.00  0.00     0.000 C 
ENDROOT
BRANCH   1   2
ATOM      2  C   UNL     1      26.892  -9.489  30.557  1.00  0.00     0.000 C 
BRANCH   2   3
ATOM      3  C   UNL     1      27.845 -10.657  30.868  1.00  0.00     0.000 C 
BRANCH   3   4
ATOM      4  C   UNL     1      29.307 -10.377  30.443  1.00  0.00     0.000 C 
BRANCH   4   5
ATOM      5  C   UNL     1      30.237  -9.995  31.615  1.00  0.00     0.006 C 
BRANCH   5   6
ATOM      6  C   UNL     1      30.870  -8.593  31.482  1.00  0.00     0.053 C 
BRANCH   6   7
ATOM      7  C   UNL     1      30.824  -7.784  32.745  1.00  0.00     0.041 C 
ATOM      8  O   UNL     1      31.532  -8.135  33.732  1.00  0.00    -0.550 OA
ATOM      9  O   UNL     1      30.117  -6.583  32.802  1.00  0.00    -0.550 OA
ENDBRANCH   6   7
ENDBRANCH   5   6
ENDBRANCH   4   5
ENDBRANCH   3   4
ENDBRANCH   2   3
ENDBRANCH   1   2
BRANCH   1  10
ATOM     10  C   UNL     1      24.946  -9.287  28.904  1.00  0.00     0.000 C 
BRANCH  10  11
ATOM     11  C   UNL     1      24.457  -7.913  29.384  1.00  0.00    -0.000 C 
BRANCH  11  12
ATOM     12  C   UNL     1      23.426  -8.065  30.511  1.00  0.00    -0.000 C 
BRANCH  12  13
ATOM     13  C   UNL     1      23.067  -9.543  30.736  1.00  0.00    -0.000 C 
BRANCH  13  14
ATOM     14  C   UNL     1      22.991  -9.910  32.226  1.00  0.00    -0.000 C 
BRANCH  14  15
ATOM     15  C   UNL     1      24.169  -9.342  33.039  1.00  0.00    -0.000 C 
BRANCH  15  16
ATOM     16  C   UNL     1      25.003 -10.441  33.714  1.00  0.00    -0.003 C 
ATOM     17  C   UNL     1      24.904 -11.785  32.989  1.00  0.00     0.004 C 
ENDBRANCH  15  16
ENDBRANCH  14  15
ENDBRANCH  13  14
ENDBRANCH  12  13
ENDBRANCH  11  12
ENDBRANCH  10  11
ENDBRANCH   1  10
TORSDOF 13
ENDMDL
MODEL 9
REMARK VINA RESULT:    -3.270      2.870      6.300
REMARK INTER + INTRA:          -7.127
REMARK INTER:                  -5.777
REMARK INTRA:                  -1.350
REMARK UNBOUND:                -1.372
REMARK SMILES CCCCCCCCCCCCCCC(=O)[O-]
REMARK SMILES IDX 9 1 10 2 11 3 12 4 13 5 14 6 15 7 16 8 17 9 8 10 7 11 6 12
REMARK SMILES IDX 5 13 4 14 3 15 2 16 1 17
REMARK H PARENT
REMARK Flexibility Score: inf
ROOT
ATOM      1  C   UNL     1      29.567 -12.107  29.417  1.00  0.00     0.000 C 
ENDROOT
BRANCH   1   2
ATOM      2  C   UNL     1      30.362 -12.125  30.735  1.00  0.00     0.000 C 
BRANCH   2   3
ATOM      3  C   UNL     1      31.858 -11.837  30.508  1.00  0.00     0.000 C 
BRANCH   3   4
ATOM      4  C   UNL     1      32.214 -10.337  30.645  1.00  0.00     0.000 C 
BRANCH   4   5
ATOM      5  C   UNL     1      31.771  -9.709  31.984  1.00  0.00     0.006 C 
BRANCH   5   6
ATOM      6  C   UNL     1      30.702  -8.604  31.835  1.00  0.00     0.053 C 
BRANCH   6   7
ATOM      7  C   UNL     1      30.827  -7.500  32.844  1.00  0.00     0.041 C 
ATOM      8  O   UNL     1      30.042  -6.511  32.781  1.00  0.00    -0.550 OA
ATOM      9  O   UNL     1      31.702  -7.612  33.925  1.00  0.00    -0.550 OA
ENDBRANCH   6   7
ENDBRANCH   5   6
ENDBRANCH   4   5
ENDBRANCH   3   4
ENDBRANCH   2   3
ENDBRANCH   1   2
BRANCH   1  10
ATOM     10  C   UNL     1      28.508 -10.993  29.377  1.00  0.00     0.000 C 
BRANCH  10  11
ATOM     11  C   UNL     1      27.824 -10.772  30.733  1.00  0.00    -0.000 C 
BRANCH  11  12
ATOM     12  C   UNL     1      27.027  -9.461  30.735  1.00  0.00    -0.000 C 
BRANCH  12  13
ATOM     13  C   UNL     1      26.294  -9.259  29.399  1.00  0.00    -0.000 C 
BRANCH  13  14
ATOM     14  C   UNL     1      24.911  -8.612  29.577  1.00  0.00    -0.000 C 
BRANCH  14  15
ATOM     15  C   UNL     1      24.440  -8.612  31.043  1.00  0.00    -0.000 C 
BRANCH  15  16
ATOM     16  C   UNL     1      23.170  -9.451  31.252  1.00  0.00    -0.003 C 
ATOM     17  C   UNL     1      23.443 -10.757  32.001  1.00  0.00     0.004 C 
ENDBRANCH  15  16
ENDBRANCH  14  15
ENDBRANCH  13  14
ENDBRANCH  12  13
ENDBRANCH  11  12
ENDBRANCH  10  11
ENDBRANCH   1  10
TORSDOF 13
ENDMDL
