MODEL 1
REMARK VINA RESULT:    -3.361      0.000      0.000
REMARK INTER + INTRA:          -4.035
REMARK INTER:                  -3.951
REMARK INTRA:                  -0.085
REMARK UNBOUND:                -0.085
REMARK SMILES CCCCC(=O)[O-]
REMARK SMILES IDX 4 1 5 2 6 3 7 4 3 5 2 6 1 7
REMARK H PARENT
REMARK Flexibility Score: inf
ROOT
ATOM      1  C   UNL     1       8.132   3.795  22.030  1.00  0.00     0.053 C 
ENDROOT
BRANCH   1   2
ATOM      2  C   UNL     1       7.409   4.921  22.697  1.00  0.00     0.041 C 
ATOM      3  O   UNL     1       7.062   4.825  23.903  1.00  0.00    -0.550 OA
ATOM      4  O   UNL     1       7.072   6.057  21.972  1.00  0.00    -0.550 OA
ENDBRANCH   1   2
BRANCH   1   5
ATOM      5  C   UNL     1       8.793   4.276  20.732  1.00  0.00     0.006 C 
BRANCH   5   6
ATOM      6  C   UNL     1       8.346   3.465  19.506  1.00  0.00    -0.003 C 
ATOM      7  C   UNL     1       6.903   2.976  19.615  1.00  0.00     0.004 C 
ENDBRANCH   5   6
ENDBRANCH   1   5
TORSDOF 3
ENDMDL
MODEL 2
REMARK VINA RESULT:    -3.340      2.353      4.057
REMARK INTER + INTRA:          -4.010
REMARK INTER:                  -3.986
REMARK INTRA:                  -0.024
REMARK UNBOUND:                -0.085
REMARK SMILES CCCCC(=O)[O-]
REMARK SMILES IDX 4 1 5 2 6 3 7 4 3 5 2 6 1 7
REMARK H PARENT
REMARK Flexibility Score: inf
ROOT
ATOM      1  C   UNL     1       7.358   4.616  23.444  1.00  0.00     0.053 C 
ENDROOT
BRANCH   1   2
ATOM      2  C   UNL     1       7.926   5.307  22.246  1.00  0.00     0.041 C 
ATOM      3  O   UNL     1       7.234   6.144  21.609  1.00  0.00    -0.550 OA
ATOM      4  O   UNL     1       9.203   4.989  21.800  1.00  0.00    -0.550 OA
ENDBRANCH   1   2
BRANCH   1   5
ATOM      5  C   UNL     1       5.940   5.125  23.736  1.00  0.00     0.006 C 
BRANCH   5   6
ATOM      6  C   UNL     1       5.522   4.901  25.197  1.00  0.00    -0.003 C 
ATOM      7  C   UNL     1       4.838   3.553  25.416  1.00  0.00     0.004 C 
ENDBRANCH   5   6
ENDBRANCH   1   5
TORSDOF 3
ENDMDL
MODEL 3
REMARK VINA RESULT:    -3.324     17.135     17.883
REMARK INTER + INTRA:          -3.992
REMARK INTER:                  -3.975
REMARK INTRA:                  -0.017
REMARK UNBOUND:                -0.085
REMARK SMILES CCCCC(=O)[O-]
REMARK SMILES IDX 4 1 5 2 6 3 7 4 3 5 2 6 1 7
REMARK H PARENT
REMARK Flexibility Score: inf
ROOT
ATOM      1  C   UNL     1      14.865  -3.173   7.831  1.00  0.00     0.053 C 
ENDROOT
BRANCH   1   2
ATOM      2  C   UNL     1      15.982  -4.119   7.527  1.00  0.00     0.041 C 
ATOM      3  O   UNL     1      16.317  -4.341   6.334  1.00  0.00    -0.550 OA
ATOM      4  O   UNL     1      16.621  -4.796   8.558  1.00  0.00    -0.550 OA
ENDBRANCH   1   2
BRANCH   1   5
ATOM      5  C   UNL     1      13.658  -3.458   6.928  1.00  0.00     0.006 C 
BRANCH   5   6
ATOM      6  C   UNL     1      12.394  -2.711   7.378  1.00  0.00    -0.003 C 
ATOM      7  C   UNL     1      11.120  -3.530   7.176  1.00  0.00     0.004 C 
ENDBRANCH   5   6
ENDBRANCH   1   5
TORSDOF 3
ENDMDL
MODEL 4
REMARK VINA RESULT:    -3.316      2.593      2.870
REMARK INTER + INTRA:          -3.983
REMARK INTER:                  -3.967
REMARK INTRA:                  -0.015
REMARK UNBOUND:                -0.085
REMARK SMILES CCCCC(=O)[O-]
REMARK SMILES IDX 4 1 5 2 6 3 7 4 3 5 2 6 1 7
REMARK H PARENT
REMARK Flexibility Score: inf
ROOT
ATOM      1  C   UNL     1       7.869   4.879  20.121  1.00  0.00     0.053 C 
ENDROOT
BRANCH   1   2
ATOM      2  C   UNL     1       8.131   5.224  21.552  1.00  0.00     0.041 C 
ATOM      3  O   UNL     1       9.289   5.105  22.031  1.00  0.00    -0.550 OA
ATOM      4  O   UNL     1       7.085   5.627  22.373  1.00  0.00    -0.550 OA
ENDBRANCH   1   2
BRANCH   1   5
ATOM      5  C   UNL     1       7.252   6.075  19.385  1.00  0.00     0.006 C 
BRANCH   5   6
ATOM      6  C   UNL     1       7.302   5.918  17.858  1.00  0.00    -0.003 C 
ATOM      7  C   UNL     1       7.670   7.217  17.142  1.00  0.00     0.004 C 
ENDBRANCH   5   6
ENDBRANCH   1   5
TORSDOF 3
ENDMDL
MODEL 5
REMARK VINA RESULT:    -3.266     17.314     18.537
REMARK INTER + INTRA:          -3.924
REMARK INTER:                  -3.805
REMARK INTRA:                  -0.119
REMARK UNBOUND:                -0.085
REMARK SMILES CCCCC(=O)[O-]
REMARK SMILES IDX 4 1 5 2 6 3 7 4 3 5 2 6 1 7
REMARK H PARENT
REMARK Flexibility Score: inf
ROOT
ATOM      1  C   UNL     1      16.050  -4.251   6.388  1.00  0.00     0.053 C 
ENDROOT
BRANCH   1   2
ATOM      2  C   UNL     1      17.189  -4.583   7.299  1.00  0.00     0.041 C 
ATOM      3  O   UNL     1      18.375  -4.492   6.889  1.00  0.00    -0.550 OA
ATOM      4  O   UNL     1      16.939  -5.043   8.586  1.00  0.00    -0.550 OA
ENDBRANCH   1   2
BRANCH   1   5
ATOM      5  C   UNL     1      14.825  -3.808   7.200  1.00  0.00     0.006 C 
BRANCH   5   6
ATOM      6  C   UNL     1      14.860  -2.314   7.552  1.00  0.00    -0.003 C 
ATOM      7  C   UNL     1      15.008  -2.064   9.053  1.00  0.00     0.004 C 
ENDBRANCH   5   6
ENDBRANCH   1   5
TORSDOF 3
ENDMDL
MODEL 6
REMARK VINA RESULT:    -3.233      3.641      4.694
REMARK INTER + INTRA:          -3.884
REMARK INTER:                  -3.829
REMARK INTRA:                  -0.055
REMARK UNBOUND:                -0.085
REMARK SMILES CCCCC(=O)[O-]
REMARK SMILES IDX 4 1 5 2 6 3 7 4 3 5 2 6 1 7
REMARK H PARENT
REMARK Flexibility Score: inf
ROOT
ATOM      1  C   UNL     1       6.546   5.941  18.519  1.00  0.00     0.053 C 
ENDROOT
BRANCH   1   2
ATOM      2  C   UNL     1       7.378   6.302  17.330  1.00  0.00     0.041 C 
ATOM      3  O   UNL     1       7.705   7.499  17.125  1.00  0.00    -0.550 OA
ATOM      4  O   UNL     1       7.750   5.321  16.418  1.00  0.00    -0.550 OA
ENDBRANCH   1   2
BRANCH   1   5
ATOM      5  C   UNL     1       7.375   6.044  19.805  1.00  0.00     0.006 C 
BRANCH   5   6
ATOM      6  C   UNL     1       8.109   4.737  20.141  1.00  0.00    -0.003 C 
ATOM      7  C   UNL     1       8.875   4.811  21.461  1.00  0.00     0.004 C 
ENDBRANCH   5   6
ENDBRANCH   1   5
TORSDOF 3
ENDMDL
MODEL 7
REMARK VINA RESULT:    -3.224     12.277     13.100
REMARK INTER + INTRA:          -3.874
REMARK INTER:                  -3.835
REMARK INTRA:                  -0.040
REMARK UNBOUND:                -0.085
REMARK SMILES CCCCC(=O)[O-]
REMARK SMILES IDX 4 1 5 2 6 3 7 4 3 5 2 6 1 7
REMARK H PARENT
REMARK Flexibility Score: inf
ROOT
ATOM      1  C   UNL     1      19.405   8.666  20.905  1.00  0.00     0.053 C 
ENDROOT
BRANCH   1   2
ATOM      2  C   UNL     1      20.682   8.606  20.128  1.00  0.00     0.041 C 
ATOM      3  O   UNL     1      21.635   7.889  20.529  1.00  0.00    -0.550 OA
ATOM      4  O   UNL     1      20.838   9.381  18.985  1.00  0.00    -0.550 OA
ENDBRANCH   1   2
BRANCH   1   5
ATOM      5  C   UNL     1      19.553   7.922  22.237  1.00  0.00     0.006 C 
BRANCH   5   6
ATOM      6  C   UNL     1      18.422   6.910  22.476  1.00  0.00    -0.003 C 
ATOM      7  C   UNL     1      18.001   6.829  23.943  1.00  0.00     0.004 C 
ENDBRANCH   5   6
ENDBRANCH   1   5
TORSDOF 3
ENDMDL
MODEL 8
REMARK VINA RESULT:    -3.218     11.777     12.782
REMARK INTER + INTRA:          -3.867
REMARK INTER:                  -3.845
REMARK INTRA:                  -0.022
REMARK UNBOUND:                -0.085
REMARK SMILES CCCCC(=O)[O-]
REMARK SMILES IDX 4 1 5 2 6 3 7 4 3 5 2 6 1 7
REMARK H PARENT
REMARK Flexibility Score: inf
ROOT
ATOM      1  C   UNL     1      15.937   3.882  12.951  1.00  0.00     0.053 C 
ENDROOT
BRANCH   1   2
ATOM      2  C   UNL     1      17.084   4.327  13.801  1.00  0.00     0.041 C 
ATOM      3  O   UNL     1      18.211   4.544  13.283  1.00  0.00    -0.550 OA
ATOM      4  O   UNL     1      16.924   4.452  15.176  1.00  0.00    -0.550 OA
ENDBRANCH   1   2
BRANCH   1   5
ATOM      5  C   UNL     1      16.377   2.764  11.998  1.00  0.00     0.006 C 
BRANCH   5   6
ATOM      6  C   UNL     1      15.406   2.572  10.823  1.00  0.00    -0.003 C 
ATOM      7  C   UNL     1      15.982   1.689   9.717  1.00  0.00     0.004 C 
ENDBRANCH   5   6
ENDBRANCH   1   5
TORSDOF 3
ENDMDL
MODEL 9
REMARK VINA RESULT:    -3.209     12.644     13.367
REMARK INTER + INTRA:          -3.856
REMARK INTER:                  -3.835
REMARK INTRA:                  -0.022
REMARK UNBOUND:                -0.085
REMARK SMILES CCCCC(=O)[O-]
REMARK SMILES IDX 4 1 5 2 6 3 7 4 3 5 2 6 1 7
REMARK H PARENT
REMARK Flexibility Score: inf
ROOT
ATOM      1  C   UNL     1      19.484   8.823  20.826  1.00  0.00     0.053 C 
ENDROOT
BRANCH   1   2
ATOM      2  C   UNL     1      19.578   7.908  22.005  1.00  0.00     0.041 C 
ATOM      3  O   UNL     1      20.620   7.887  22.709  1.00  0.00    -0.550 OA
ATOM      4  O   UNL     1      18.533   7.039  22.296  1.00  0.00    -0.550 OA
ENDBRANCH   1   2
BRANCH   1   5
ATOM      5  C   UNL     1      20.709   8.656  19.918  1.00  0.00     0.006 C 
BRANCH   5   6
ATOM      6  C   UNL     1      20.892   9.836  18.951  1.00  0.00    -0.003 C 
ATOM      7  C   UNL     1      21.224   9.388  17.529  1.00  0.00     0.004 C 
ENDBRANCH   5   6
ENDBRANCH   1   5
TORSDOF 3
ENDMDL
