MODEL 1
REMARK VINA RESULT:    -7.475      0.000      0.000
REMARK INTER + INTRA:          -9.581
REMARK INTER:                  -9.223
REMARK INTRA:                  -0.358
REMARK UNBOUND:                -0.358
REMARK SMILES Oc1cc(O)c2cc(O)c(-c3cc(O)c(O)c(O)c3)[o+]c2c1
REMARK SMILES IDX 10 1 20 2 21 3 22 4 2 5 3 6 4 7 6 8 7 9 8 10 11 11 12 12
REMARK SMILES IDX 13 13 19 14 15 15 17 16 14 17 16 19 18 21 9 23 1 25 5 27
REMARK H PARENT 14 18 16 20 18 22 9 24 1 26 5 28
REMARK Flexibility Score: inf
ROOT
ATOM      1  C   UNL     1     -24.829 -20.002 -13.667  1.00  0.00     0.402 A 
ATOM      2  O   UNL     1     -24.953 -20.909 -14.632  1.00  0.00    -0.202 OA
ATOM      3  C   UNL     1     -24.962 -22.219 -14.407  1.00  0.00     0.368 A 
ATOM      4  C   UNL     1     -25.095 -23.094 -15.488  1.00  0.00     0.162 A 
ATOM      5  C   UNL     1     -25.105 -24.476 -15.279  1.00  0.00     0.128 A 
ATOM      6  C   UNL     1     -24.980 -24.985 -13.984  1.00  0.00     0.093 A 
ATOM      7  C   UNL     1     -24.845 -24.129 -12.884  1.00  0.00     0.136 A 
ATOM      8  C   UNL     1     -24.838 -22.725 -13.091  1.00  0.00     0.125 A 
ATOM      9  C   UNL     1     -24.720 -21.792 -12.048  1.00  0.00     0.078 A 
ATOM     10  C   UNL     1     -24.726 -20.422 -12.328  1.00  0.00     0.223 A 
ENDROOT
BRANCH   1  11
ATOM     11  C   UNL     1     -24.823 -18.572 -14.047  1.00  0.00     0.091 A 
ATOM     12  C   UNL     1     -26.026 -17.948 -14.405  1.00  0.00     0.068 A 
ATOM     13  C   UNL     1     -26.044 -16.600 -14.786  1.00  0.00     0.162 A 
ATOM     14  C   UNL     1     -23.628 -17.837 -14.113  1.00  0.00     0.068 A 
ATOM     15  C   UNL     1     -24.853 -15.861 -14.830  1.00  0.00     0.200 A 
ATOM     16  C   UNL     1     -23.630 -16.490 -14.496  1.00  0.00     0.162 A 
BRANCH  13  17
ATOM     17  O   UNL     1     -27.247 -15.984 -15.125  1.00  0.00    -0.504 OA
ATOM     18  H   UNL     1     -27.651 -16.080 -16.051  1.00  0.00     0.293 HD
ENDBRANCH  13  17
BRANCH  15  19
ATOM     19  O   UNL     1     -24.928 -14.519 -15.209  1.00  0.00    -0.502 OA
ATOM     20  H   UNL     1     -24.433 -14.125 -15.996  1.00  0.00     0.293 HD
ENDBRANCH  15  19
BRANCH  16  21
ATOM     21  O   UNL     1     -22.403 -15.824 -14.537  1.00  0.00    -0.504 OA
ATOM     22  H   UNL     1     -22.269 -14.869 -14.240  1.00  0.00     0.293 HD
ENDBRANCH  16  21
ENDBRANCH   1  11
BRANCH  10  23
ATOM     23  O   UNL     1     -24.659 -19.495 -11.289  1.00  0.00    -0.500 OA
ATOM     24  H   UNL     1     -24.045 -19.629 -10.494  1.00  0.00     0.294 HD
ENDBRANCH  10  23
BRANCH   5  25
ATOM     25  O   UNL     1     -25.238 -25.356 -16.351  1.00  0.00    -0.507 OA
ATOM     26  H   UNL     1     -25.897 -26.125 -16.326  1.00  0.00     0.293 HD
ENDBRANCH   5  25
BRANCH   7  27
ATOM     27  O   UNL     1     -24.721 -24.718 -11.622  1.00  0.00    -0.507 OA
ATOM     28  H   UNL     1     -24.250 -24.290 -10.838  1.00  0.00     0.293 HD
ENDBRANCH   7  27
TORSDOF 7
ENDMDL
MODEL 2
REMARK VINA RESULT:    -7.400      4.159      7.126
REMARK INTER + INTRA:          -9.489
REMARK INTER:                  -9.155
REMARK INTRA:                  -0.333
REMARK UNBOUND:                -0.358
REMARK SMILES Oc1cc(O)c2cc(O)c(-c3cc(O)c(O)c(O)c3)[o+]c2c1
REMARK SMILES IDX 10 1 20 2 21 3 22 4 2 5 3 6 4 7 6 8 7 9 8 10 11 11 12 12
REMARK SMILES IDX 13 13 19 14 15 15 17 16 14 17 16 19 18 21 9 23 1 25 5 27
REMARK H PARENT 14 18 16 20 18 22 9 24 1 26 5 28
REMARK Flexibility Score: inf
ROOT
ATOM      1  C   UNL     1     -26.756 -22.163 -10.796  1.00  0.00     0.402 A 
ATOM      2  O   UNL     1     -27.254 -20.930 -10.742  1.00  0.00    -0.202 OA
ATOM      3  C   UNL     1     -27.850 -20.429  -9.665  1.00  0.00     0.368 A 
ATOM      4  C   UNL     1     -28.344 -19.123  -9.707  1.00  0.00     0.162 A 
ATOM      5  C   UNL     1     -28.977 -18.572  -8.589  1.00  0.00     0.128 A 
ATOM      6  C   UNL     1     -29.117 -19.332  -7.424  1.00  0.00     0.093 A 
ATOM      7  C   UNL     1     -28.631 -20.643  -7.357  1.00  0.00     0.136 A 
ATOM      8  C   UNL     1     -27.984 -21.206  -8.489  1.00  0.00     0.125 A 
ATOM      9  C   UNL     1     -27.455 -22.506  -8.509  1.00  0.00     0.078 A 
ATOM     10  C   UNL     1     -26.827 -22.990  -9.660  1.00  0.00     0.223 A 
ENDROOT
BRANCH   1  11
ATOM     11  C   UNL     1     -26.125 -22.609 -12.058  1.00  0.00     0.091 A 
ATOM     12  C   UNL     1     -26.815 -23.492 -12.901  1.00  0.00     0.068 A 
ATOM     13  C   UNL     1     -26.232 -23.943 -14.091  1.00  0.00     0.162 A 
ATOM     14  C   UNL     1     -24.824 -22.212 -12.406  1.00  0.00     0.068 A 
ATOM     15  C   UNL     1     -24.941 -23.528 -14.448  1.00  0.00     0.200 A 
ATOM     16  C   UNL     1     -24.227 -22.658 -13.591  1.00  0.00     0.162 A 
BRANCH  13  17
ATOM     17  O   UNL     1     -26.932 -24.808 -14.930  1.00  0.00    -0.504 OA
ATOM     18  H   UNL     1     -27.556 -24.461 -15.650  1.00  0.00     0.293 HD
ENDBRANCH  13  17
BRANCH  15  19
ATOM     19  O   UNL     1     -24.409 -24.001 -15.650  1.00  0.00    -0.502 OA
ATOM     20  H   UNL     1     -24.325 -24.979 -15.886  1.00  0.00     0.293 HD
ENDBRANCH  15  19
BRANCH  16  21
ATOM     21  O   UNL     1     -22.930 -22.219 -13.871  1.00  0.00    -0.504 OA
ATOM     22  H   UNL     1     -22.094 -22.695 -13.565  1.00  0.00     0.293 HD
ENDBRANCH  16  21
ENDBRANCH   1  11
BRANCH  10  23
ATOM     23  O   UNL     1     -26.257 -24.263  -9.663  1.00  0.00    -0.500 OA
ATOM     24  H   UNL     1     -25.524 -24.517 -10.315  1.00  0.00     0.294 HD
ENDBRANCH  10  23
BRANCH   5  25
ATOM     25  O   UNL     1     -29.472 -17.271  -8.622  1.00  0.00    -0.507 OA
ATOM     26  H   UNL     1     -29.889 -16.885  -9.461  1.00  0.00     0.293 HD
ENDBRANCH   5  25
BRANCH   7  27
ATOM     27  O   UNL     1     -28.814 -21.337  -6.158  1.00  0.00    -0.507 OA
ATOM     28  H   UNL     1     -28.754 -22.341  -6.065  1.00  0.00     0.293 HD
ENDBRANCH   7  27
TORSDOF 7
ENDMDL
MODEL 3
REMARK VINA RESULT:    -7.398      4.026      5.583
REMARK INTER + INTRA:          -9.487
REMARK INTER:                  -9.159
REMARK INTRA:                  -0.327
REMARK UNBOUND:                -0.358
REMARK SMILES Oc1cc(O)c2cc(O)c(-c3cc(O)c(O)c(O)c3)[o+]c2c1
REMARK SMILES IDX 10 1 20 2 21 3 22 4 2 5 3 6 4 7 6 8 7 9 8 10 11 11 12 12
REMARK SMILES IDX 13 13 19 14 15 15 17 16 14 17 16 19 18 21 9 23 1 25 5 27
REMARK H PARENT 14 18 16 20 18 22 9 24 1 26 5 28
REMARK Flexibility Score: inf
ROOT
ATOM      1  C   UNL     1     -26.227 -21.650 -11.124  1.00  0.00     0.402 A 
ATOM      2  O   UNL     1     -26.677 -22.498 -12.044  1.00  0.00    -0.202 OA
ATOM      3  C   UNL     1     -25.911 -23.014 -13.000  1.00  0.00     0.368 A 
ATOM      4  C   UNL     1     -26.477 -23.896 -13.924  1.00  0.00     0.162 A 
ATOM      5  C   UNL     1     -25.694 -24.450 -14.941  1.00  0.00     0.128 A 
ATOM      6  C   UNL     1     -24.340 -24.120 -15.034  1.00  0.00     0.093 A 
ATOM      7  C   UNL     1     -23.749 -23.238 -14.121  1.00  0.00     0.136 A 
ATOM      8  C   UNL     1     -24.539 -22.675 -13.085  1.00  0.00     0.125 A 
ATOM      9  C   UNL     1     -24.030 -21.793 -12.118  1.00  0.00     0.078 A 
ATOM     10  C   UNL     1     -24.868 -21.283 -11.123  1.00  0.00     0.223 A 
ENDROOT
BRANCH   1  11
ATOM     11  C   UNL     1     -27.182 -21.137 -10.117  1.00  0.00     0.091 A 
ATOM     12  C   UNL     1     -27.681 -22.004  -9.134  1.00  0.00     0.068 A 
ATOM     13  C   UNL     1     -28.600 -21.548  -8.182  1.00  0.00     0.162 A 
ATOM     14  C   UNL     1     -27.647 -19.812 -10.156  1.00  0.00     0.068 A 
ATOM     15  C   UNL     1     -29.046 -20.218  -8.208  1.00  0.00     0.200 A 
ATOM     16  C   UNL     1     -28.568 -19.343  -9.213  1.00  0.00     0.162 A 
BRANCH  13  17
ATOM     17  O   UNL     1     -29.079 -22.413  -7.199  1.00  0.00    -0.504 OA
ATOM     18  H   UNL     1     -28.467 -23.069  -6.726  1.00  0.00     0.293 HD
ENDBRANCH  13  17
BRANCH  15  19
ATOM     19  O   UNL     1     -29.957 -19.813  -7.230  1.00  0.00    -0.502 OA
ATOM     20  H   UNL     1     -30.931 -20.077  -7.219  1.00  0.00     0.293 HD
ENDBRANCH  15  19
BRANCH  16  21
ATOM     21  O   UNL     1     -28.984 -18.013  -9.314  1.00  0.00    -0.504 OA
ATOM     22  H   UNL     1     -29.696 -17.598  -8.732  1.00  0.00     0.293 HD
ENDBRANCH  16  21
ENDBRANCH   1  11
BRANCH  10  23
ATOM     23  O   UNL     1     -24.352 -20.446 -10.134  1.00  0.00    -0.500 OA
ATOM     24  H   UNL     1     -24.232 -19.452 -10.286  1.00  0.00     0.294 HD
ENDBRANCH  10  23
BRANCH   5  25
ATOM     25  O   UNL     1     -26.251 -25.330 -15.866  1.00  0.00    -0.507 OA
ATOM     26  H   UNL     1     -27.023 -25.939 -15.618  1.00  0.00     0.293 HD
ENDBRANCH   5  25
BRANCH   7  27
ATOM     27  O   UNL     1     -22.390 -22.957 -14.286  1.00  0.00    -0.507 OA
ATOM     28  H   UNL     1     -21.773 -23.464 -14.905  1.00  0.00     0.293 HD
ENDBRANCH   7  27
TORSDOF 7
ENDMDL
MODEL 4
REMARK VINA RESULT:    -7.389      4.140      7.291
REMARK INTER + INTRA:          -9.476
REMARK INTER:                  -9.117
REMARK INTRA:                  -0.358
REMARK UNBOUND:                -0.358
REMARK SMILES Oc1cc(O)c2cc(O)c(-c3cc(O)c(O)c(O)c3)[o+]c2c1
REMARK SMILES IDX 10 1 20 2 21 3 22 4 2 5 3 6 4 7 6 8 7 9 8 10 11 11 12 12
REMARK SMILES IDX 13 13 19 14 15 15 17 16 14 17 16 19 18 21 9 23 1 25 5 27
REMARK H PARENT 14 18 16 20 18 22 9 24 1 26 5 28
REMARK Flexibility Score: inf
ROOT
ATOM      1  C   UNL     1     -26.772 -22.181 -10.758  1.00  0.00     0.402 A 
ATOM      2  O   UNL     1     -27.279 -20.952 -10.714  1.00  0.00    -0.202 OA
ATOM      3  C   UNL     1     -27.895 -20.454  -9.647  1.00  0.00     0.368 A 
ATOM      4  C   UNL     1     -28.398 -19.151  -9.698  1.00  0.00     0.162 A 
ATOM      5  C   UNL     1     -29.053 -18.605  -8.591  1.00  0.00     0.128 A 
ATOM      6  C   UNL     1     -29.207 -19.364  -7.428  1.00  0.00     0.093 A 
ATOM      7  C   UNL     1     -28.713 -20.672  -7.352  1.00  0.00     0.136 A 
ATOM      8  C   UNL     1     -28.044 -21.231  -8.472  1.00  0.00     0.125 A 
ATOM      9  C   UNL     1     -27.505 -22.527  -8.482  1.00  0.00     0.078 A 
ATOM     10  C   UNL     1     -26.855 -23.008  -9.622  1.00  0.00     0.223 A 
ENDROOT
BRANCH   1  11
ATOM     11  C   UNL     1     -26.117 -22.624 -12.009  1.00  0.00     0.091 A 
ATOM     12  C   UNL     1     -24.837 -22.147 -12.325  1.00  0.00     0.068 A 
ATOM     13  C   UNL     1     -24.204 -22.535 -13.512  1.00  0.00     0.162 A 
ATOM     14  C   UNL     1     -26.772 -23.470 -12.919  1.00  0.00     0.068 A 
ATOM     15  C   UNL     1     -24.851 -23.398 -14.409  1.00  0.00     0.200 A 
ATOM     16  C   UNL     1     -26.153 -23.864 -14.111  1.00  0.00     0.162 A 
BRANCH  13  17
ATOM     17  O   UNL     1     -22.925 -22.068 -13.809  1.00  0.00    -0.504 OA
ATOM     18  H   UNL     1     -22.468 -22.294 -14.686  1.00  0.00     0.293 HD
ENDBRANCH  13  17
BRANCH  15  19
ATOM     19  O   UNL     1     -24.171 -23.761 -15.574  1.00  0.00    -0.502 OA
ATOM     20  H   UNL     1     -23.935 -24.712 -15.818  1.00  0.00     0.293 HD
ENDBRANCH  15  19
BRANCH  16  21
ATOM     21  O   UNL     1     -26.866 -24.708 -14.966  1.00  0.00    -0.504 OA
ATOM     22  H   UNL     1     -27.823 -24.551 -15.246  1.00  0.00     0.293 HD
ENDBRANCH  16  21
ENDBRANCH   1  11
BRANCH  10  23
ATOM     23  O   UNL     1     -26.276 -24.277  -9.615  1.00  0.00    -0.500 OA
ATOM     24  H   UNL     1     -25.288 -24.413  -9.794  1.00  0.00     0.294 HD
ENDBRANCH  10  23
BRANCH   5  25
ATOM     25  O   UNL     1     -29.557 -17.307  -8.634  1.00  0.00    -0.507 OA
ATOM     26  H   UNL     1     -29.858 -16.884  -9.505  1.00  0.00     0.293 HD
ENDBRANCH   5  25
BRANCH   7  27
ATOM     27  O   UNL     1     -28.910 -21.366  -6.155  1.00  0.00    -0.507 OA
ATOM     28  H   UNL     1     -29.777 -21.372  -5.636  1.00  0.00     0.293 HD
ENDBRANCH   7  27
TORSDOF 7
ENDMDL
MODEL 5
REMARK VINA RESULT:    -7.333      4.065      5.628
REMARK INTER + INTRA:          -9.406
REMARK INTER:                  -9.132
REMARK INTRA:                  -0.274
REMARK UNBOUND:                -0.358
REMARK SMILES Oc1cc(O)c2cc(O)c(-c3cc(O)c(O)c(O)c3)[o+]c2c1
REMARK SMILES IDX 10 1 20 2 21 3 22 4 2 5 3 6 4 7 6 8 7 9 8 10 11 11 12 12
REMARK SMILES IDX 13 13 19 14 15 15 17 16 14 17 16 19 18 21 9 23 1 25 5 27
REMARK H PARENT 14 18 16 20 18 22 9 24 1 26 5 28
REMARK Flexibility Score: inf
ROOT
ATOM      1  C   UNL     1     -26.294 -21.723 -11.111  1.00  0.00     0.402 A 
ATOM      2  O   UNL     1     -26.701 -22.571 -12.052  1.00  0.00    -0.202 OA
ATOM      3  C   UNL     1     -25.899 -23.057 -12.994  1.00  0.00     0.368 A 
ATOM      4  C   UNL     1     -26.421 -23.942 -13.941  1.00  0.00     0.162 A 
ATOM      5  C   UNL     1     -25.600 -24.465 -14.944  1.00  0.00     0.128 A 
ATOM      6  C   UNL     1     -24.253 -24.101 -15.001  1.00  0.00     0.093 A 
ATOM      7  C   UNL     1     -23.705 -23.216 -14.063  1.00  0.00     0.136 A 
ATOM      8  C   UNL     1     -24.535 -22.684 -13.041  1.00  0.00     0.125 A 
ATOM      9  C   UNL     1     -24.071 -21.802 -12.052  1.00  0.00     0.078 A 
ATOM     10  C   UNL     1     -24.946 -21.323 -11.073  1.00  0.00     0.223 A 
ENDROOT
BRANCH   1  11
ATOM     11  C   UNL     1     -27.287 -21.245 -10.122  1.00  0.00     0.091 A 
ATOM     12  C   UNL     1     -27.676 -19.898 -10.130  1.00  0.00     0.068 A 
ATOM     13  C   UNL     1     -28.599 -19.418  -9.193  1.00  0.00     0.162 A 
ATOM     14  C   UNL     1     -27.808 -22.100  -9.137  1.00  0.00     0.068 A 
ATOM     15  C   UNL     1     -29.135 -20.277  -8.223  1.00  0.00     0.200 A 
ATOM     16  C   UNL     1     -28.729 -21.633  -8.192  1.00  0.00     0.162 A 
BRANCH  13  17
ATOM     17  O   UNL     1     -28.991 -18.081  -9.218  1.00  0.00    -0.504 OA
ATOM     18  H   UNL     1     -28.648 -17.440  -9.925  1.00  0.00     0.293 HD
ENDBRANCH  13  17
BRANCH  15  19
ATOM     19  O   UNL     1     -30.058 -19.749  -7.318  1.00  0.00    -0.502 OA
ATOM     20  H   UNL     1     -29.970 -18.842  -6.885  1.00  0.00     0.293 HD
ENDBRANCH  15  19
BRANCH  16  21
ATOM     21  O   UNL     1     -29.204 -22.541  -7.243  1.00  0.00    -0.504 OA
ATOM     22  H   UNL     1     -29.904 -23.242  -7.434  1.00  0.00     0.293 HD
ENDBRANCH  16  21
ENDBRANCH   1  11
BRANCH  10  23
ATOM     23  O   UNL     1     -24.475 -20.486 -10.062  1.00  0.00    -0.500 OA
ATOM     24  H   UNL     1     -23.873 -20.830  -9.323  1.00  0.00     0.294 HD
ENDBRANCH  10  23
BRANCH   5  25
ATOM     25  O   UNL     1     -26.112 -25.348 -15.892  1.00  0.00    -0.507 OA
ATOM     26  H   UNL     1     -26.427 -26.277 -15.635  1.00  0.00     0.293 HD
ENDBRANCH   5  25
BRANCH   7  27
ATOM     27  O   UNL     1     -22.350 -22.900 -14.191  1.00  0.00    -0.507 OA
ATOM     28  H   UNL     1     -21.781 -23.142 -14.990  1.00  0.00     0.293 HD
ENDBRANCH   7  27
TORSDOF 7
ENDMDL
MODEL 6
REMARK VINA RESULT:    -7.041      2.128      7.493
REMARK INTER + INTRA:          -9.046
REMARK INTER:                  -8.812
REMARK INTRA:                  -0.234
REMARK UNBOUND:                -0.358
REMARK SMILES Oc1cc(O)c2cc(O)c(-c3cc(O)c(O)c(O)c3)[o+]c2c1
REMARK SMILES IDX 10 1 20 2 21 3 22 4 2 5 3 6 4 7 6 8 7 9 8 10 11 11 12 12
REMARK SMILES IDX 13 13 19 14 15 15 17 16 14 17 16 19 18 21 9 23 1 25 5 27
REMARK H PARENT 14 18 16 20 18 22 9 24 1 26 5 28
REMARK Flexibility Score: inf
ROOT
ATOM      1  C   UNL     1     -24.738 -18.218 -13.677  1.00  0.00     0.402 A 
ATOM      2  O   UNL     1     -23.585 -17.554 -13.685  1.00  0.00    -0.202 OA
ATOM      3  C   UNL     1     -23.417 -16.390 -14.304  1.00  0.00     0.368 A 
ATOM      4  C   UNL     1     -22.165 -15.770 -14.258  1.00  0.00     0.162 A 
ATOM      5  C   UNL     1     -21.960 -14.547 -14.902  1.00  0.00     0.128 A 
ATOM      6  C   UNL     1     -23.011 -13.942 -15.596  1.00  0.00     0.093 A 
ATOM      7  C   UNL     1     -24.274 -14.543 -15.658  1.00  0.00     0.136 A 
ATOM      8  C   UNL     1     -24.488 -15.784 -15.002  1.00  0.00     0.125 A 
ATOM      9  C   UNL     1     -25.723 -16.452 -14.999  1.00  0.00     0.078 A 
ATOM     10  C   UNL     1     -25.860 -17.670 -14.327  1.00  0.00     0.223 A 
ENDROOT
BRANCH   1  11
ATOM     11  C   UNL     1     -24.797 -19.512 -12.960  1.00  0.00     0.091 A 
ATOM     12  C   UNL     1     -24.092 -20.613 -13.464  1.00  0.00     0.068 A 
ATOM     13  C   UNL     1     -24.146 -21.852 -12.814  1.00  0.00     0.162 A 
ATOM     14  C   UNL     1     -25.590 -19.677 -11.812  1.00  0.00     0.068 A 
ATOM     15  C   UNL     1     -24.921 -22.011 -11.656  1.00  0.00     0.200 A 
ATOM     16  C   UNL     1     -25.657 -20.911 -11.155  1.00  0.00     0.162 A 
BRANCH  13  17
ATOM     17  O   UNL     1     -23.429 -22.937 -13.314  1.00  0.00    -0.504 OA
ATOM     18  H   UNL     1     -22.975 -23.603 -12.698  1.00  0.00     0.293 HD
ENDBRANCH  13  17
BRANCH  15  19
ATOM     19  O   UNL     1     -24.933 -23.265 -11.042  1.00  0.00    -0.502 OA
ATOM     20  H   UNL     1     -25.584 -24.001 -11.273  1.00  0.00     0.293 HD
ENDBRANCH  15  19
BRANCH  16  21
ATOM     21  O   UNL     1     -26.466 -21.000 -10.019  1.00  0.00    -0.504 OA
ATOM     22  H   UNL     1     -27.311 -20.465  -9.884  1.00  0.00     0.293 HD
ENDBRANCH  16  21
ENDBRANCH   1  11
BRANCH  10  23
ATOM     23  O   UNL     1     -27.098 -18.309 -14.281  1.00  0.00    -0.500 OA
ATOM     24  H   UNL     1     -27.512 -18.608 -13.406  1.00  0.00     0.294 HD
ENDBRANCH  10  23
BRANCH   5  25
ATOM     25  O   UNL     1     -20.716 -13.923 -14.861  1.00  0.00    -0.507 OA
ATOM     26  H   UNL     1     -20.520 -13.177 -14.202  1.00  0.00     0.293 HD
ENDBRANCH   5  25
BRANCH   7  27
ATOM     27  O   UNL     1     -25.270 -13.875 -16.376  1.00  0.00    -0.507 OA
ATOM     28  H   UNL     1     -25.590 -14.146 -17.294  1.00  0.00     0.293 HD
ENDBRANCH   7  27
TORSDOF 7
ENDMDL
MODEL 7
REMARK VINA RESULT:    -7.027      4.054      6.017
REMARK INTER + INTRA:          -9.029
REMARK INTER:                  -8.755
REMARK INTRA:                  -0.274
REMARK UNBOUND:                -0.358
REMARK SMILES Oc1cc(O)c2cc(O)c(-c3cc(O)c(O)c(O)c3)[o+]c2c1
REMARK SMILES IDX 10 1 20 2 21 3 22 4 2 5 3 6 4 7 6 8 7 9 8 10 11 11 12 12
REMARK SMILES IDX 13 13 19 14 15 15 17 16 14 17 16 19 18 21 9 23 1 25 5 27
REMARK H PARENT 14 18 16 20 18 22 9 24 1 26 5 28
REMARK Flexibility Score: inf
ROOT
ATOM      1  C   UNL     1     -27.115 -21.682 -10.683  1.00  0.00     0.402 A 
ATOM      2  O   UNL     1     -25.940 -21.321 -11.193  1.00  0.00    -0.202 OA
ATOM      3  C   UNL     1     -25.296 -22.028 -12.116  1.00  0.00     0.368 A 
ATOM      4  C   UNL     1     -24.064 -21.567 -12.589  1.00  0.00     0.162 A 
ATOM      5  C   UNL     1     -23.365 -22.293 -13.557  1.00  0.00     0.128 A 
ATOM      6  C   UNL     1     -23.899 -23.484 -14.055  1.00  0.00     0.093 A 
ATOM      7  C   UNL     1     -25.132 -23.967 -13.598  1.00  0.00     0.136 A 
ATOM      8  C   UNL     1     -25.847 -23.232 -12.616  1.00  0.00     0.125 A 
ATOM      9  C   UNL     1     -27.094 -23.633 -12.109  1.00  0.00     0.078 A 
ATOM     10  C   UNL     1     -27.742 -22.854 -11.146  1.00  0.00     0.223 A 
ENDROOT
BRANCH   1  11
ATOM     11  C   UNL     1     -27.727 -20.815  -9.652  1.00  0.00     0.091 A 
ATOM     12  C   UNL     1     -27.842 -21.282  -8.336  1.00  0.00     0.068 A 
ATOM     13  C   UNL     1     -28.434 -20.488  -7.346  1.00  0.00     0.162 A 
ATOM     14  C   UNL     1     -28.249 -19.551  -9.974  1.00  0.00     0.068 A 
ATOM     15  C   UNL     1     -28.935 -19.217  -7.665  1.00  0.00     0.200 A 
ATOM     16  C   UNL     1     -28.847 -18.748  -8.997  1.00  0.00     0.162 A 
BRANCH  13  17
ATOM     17  O   UNL     1     -28.530 -20.956  -6.037  1.00  0.00    -0.504 OA
ATOM     18  H   UNL     1     -27.720 -21.308  -5.538  1.00  0.00     0.293 HD
ENDBRANCH  13  17
BRANCH  15  19
ATOM     19  O   UNL     1     -29.508 -18.463  -6.639  1.00  0.00    -0.502 OA
ATOM     20  H   UNL     1     -29.223 -17.524  -6.399  1.00  0.00     0.293 HD
ENDBRANCH  15  19
BRANCH  16  21
ATOM     21  O   UNL     1     -29.342 -17.502  -9.391  1.00  0.00    -0.504 OA
ATOM     22  H   UNL     1     -28.925 -16.931 -10.111  1.00  0.00     0.293 HD
ENDBRANCH  16  21
ENDBRANCH   1  11
BRANCH  10  23
ATOM     23  O   UNL     1     -29.003 -23.225 -10.679  1.00  0.00    -0.500 OA
ATOM     24  H   UNL     1     -29.782 -22.576 -10.675  1.00  0.00     0.294 HD
ENDBRANCH  10  23
BRANCH   5  25
ATOM     25  O   UNL     1     -22.137 -21.840 -14.034  1.00  0.00    -0.507 OA
ATOM     26  H   UNL     1     -21.842 -20.879 -13.907  1.00  0.00     0.293 HD
ENDBRANCH   5  25
BRANCH   7  27
ATOM     27  O   UNL     1     -25.594 -25.168 -14.143  1.00  0.00    -0.507 OA
ATOM     28  H   UNL     1     -26.274 -25.770 -13.700  1.00  0.00     0.293 HD
ENDBRANCH   7  27
TORSDOF 7
ENDMDL
MODEL 8
REMARK VINA RESULT:    -7.014      5.148      8.666
REMARK INTER + INTRA:          -9.013
REMARK INTER:                  -8.819
REMARK INTRA:                  -0.194
REMARK UNBOUND:                -0.358
REMARK SMILES Oc1cc(O)c2cc(O)c(-c3cc(O)c(O)c(O)c3)[o+]c2c1
REMARK SMILES IDX 10 1 20 2 21 3 22 4 2 5 3 6 4 7 6 8 7 9 8 10 11 11 12 12
REMARK SMILES IDX 13 13 19 14 15 15 17 16 14 17 16 19 18 21 9 23 1 25 5 27
REMARK H PARENT 14 18 16 20 18 22 9 24 1 26 5 28
REMARK Flexibility Score: inf
ROOT
ATOM      1  C   UNL     1     -27.463 -21.064  -9.500  1.00  0.00     0.402 A 
ATOM      2  O   UNL     1     -27.928 -21.364  -8.291  1.00  0.00    -0.202 OA
ATOM      3  C   UNL     1     -28.543 -20.484  -7.506  1.00  0.00     0.368 A 
ATOM      4  C   UNL     1     -28.994 -20.893  -6.248  1.00  0.00     0.162 A 
ATOM      5  C   UNL     1     -29.641 -19.987  -5.403  1.00  0.00     0.128 A 
ATOM      6  C   UNL     1     -29.837 -18.667  -5.816  1.00  0.00     0.093 A 
ATOM      7  C   UNL     1     -29.393 -18.232  -7.072  1.00  0.00     0.136 A 
ATOM      8  C   UNL     1     -28.739 -19.149  -7.935  1.00  0.00     0.125 A 
ATOM      9  C   UNL     1     -28.272 -18.806  -9.215  1.00  0.00     0.078 A 
ATOM     10  C   UNL     1     -27.641 -19.765 -10.011  1.00  0.00     0.223 A 
ENDROOT
BRANCH   1  11
ATOM     11  C   UNL     1     -26.788 -22.130 -10.274  1.00  0.00     0.091 A 
ATOM     12  C   UNL     1     -25.581 -22.666  -9.803  1.00  0.00     0.068 A 
ATOM     13  C   UNL     1     -24.913 -23.661 -10.526  1.00  0.00     0.162 A 
ATOM     14  C   UNL     1     -27.300 -22.581 -11.502  1.00  0.00     0.068 A 
ATOM     15  C   UNL     1     -25.437 -24.126 -11.741  1.00  0.00     0.200 A 
ATOM     16  C   UNL     1     -26.641 -23.573 -12.237  1.00  0.00     0.162 A 
BRANCH  13  17
ATOM     17  O   UNL     1     -23.721 -24.198 -10.042  1.00  0.00    -0.504 OA
ATOM     18  H   UNL     1     -23.134 -24.792 -10.618  1.00  0.00     0.293 HD
ENDBRANCH  13  17
BRANCH  15  19
ATOM     19  O   UNL     1     -24.735 -25.126 -12.418  1.00  0.00    -0.502 OA
ATOM     20  H   UNL     1     -24.502 -26.023 -12.018  1.00  0.00     0.293 HD
ENDBRANCH  15  19
BRANCH  16  21
ATOM     21  O   UNL     1     -27.211 -23.971 -13.449  1.00  0.00    -0.504 OA
ATOM     22  H   UNL     1     -27.150 -24.906 -13.822  1.00  0.00     0.293 HD
ENDBRANCH  16  21
ENDBRANCH   1  11
BRANCH  10  23
ATOM     23  O   UNL     1     -27.222 -19.439 -11.301  1.00  0.00    -0.500 OA
ATOM     24  H   UNL     1     -27.324 -18.501 -11.672  1.00  0.00     0.294 HD
ENDBRANCH  10  23
BRANCH   5  25
ATOM     25  O   UNL     1     -30.095 -20.387  -4.148  1.00  0.00    -0.507 OA
ATOM     26  H   UNL     1     -31.033 -20.747  -4.014  1.00  0.00     0.293 HD
ENDBRANCH   5  25
BRANCH   7  27
ATOM     27  O   UNL     1     -29.624 -16.896  -7.408  1.00  0.00    -0.507 OA
ATOM     28  H   UNL     1     -30.522 -16.524  -7.682  1.00  0.00     0.293 HD
ENDBRANCH   7  27
TORSDOF 7
ENDMDL
MODEL 9
REMARK VINA RESULT:    -6.943      4.443      6.391
REMARK INTER + INTRA:          -8.924
REMARK INTER:                  -8.919
REMARK INTRA:                  -0.006
REMARK UNBOUND:                -0.358
REMARK SMILES Oc1cc(O)c2cc(O)c(-c3cc(O)c(O)c(O)c3)[o+]c2c1
REMARK SMILES IDX 10 1 20 2 21 3 22 4 2 5 3 6 4 7 6 8 7 9 8 10 11 11 12 12
REMARK SMILES IDX 13 13 19 14 15 15 17 16 14 17 16 19 18 21 9 23 1 25 5 27
REMARK H PARENT 14 18 16 20 18 22 9 24 1 26 5 28
REMARK Flexibility Score: inf
ROOT
ATOM      1  C   UNL     1     -27.200 -21.580  -9.814  1.00  0.00     0.402 A 
ATOM      2  O   UNL     1     -26.369 -20.981 -10.662  1.00  0.00    -0.202 OA
ATOM      3  C   UNL     1     -25.624 -21.641 -11.543  1.00  0.00     0.368 A 
ATOM      4  C   UNL     1     -24.777 -20.922 -12.392  1.00  0.00     0.162 A 
ATOM      5  C   UNL     1     -23.981 -21.591 -13.326  1.00  0.00     0.128 A 
ATOM      6  C   UNL     1     -24.031 -22.985 -13.411  1.00  0.00     0.093 A 
ATOM      7  C   UNL     1     -24.871 -23.728 -12.572  1.00  0.00     0.136 A 
ATOM      8  C   UNL     1     -25.683 -23.053 -11.624  1.00  0.00     0.125 A 
ATOM      9  C   UNL     1     -26.564 -23.714 -10.752  1.00  0.00     0.078 A 
ATOM     10  C   UNL     1     -27.337 -22.980  -9.848  1.00  0.00     0.223 A 
ENDROOT
BRANCH   1  11
ATOM     11  C   UNL     1     -27.969 -20.735  -8.873  1.00  0.00     0.091 A 
ATOM     12  C   UNL     1     -28.504 -19.519  -9.317  1.00  0.00     0.068 A 
ATOM     13  C   UNL     1     -29.219 -18.692  -8.441  1.00  0.00     0.162 A 
ATOM     14  C   UNL     1     -28.128 -21.099  -7.525  1.00  0.00     0.068 A 
ATOM     15  C   UNL     1     -29.396 -19.067  -7.101  1.00  0.00     0.200 A 
ATOM     16  C   UNL     1     -28.837 -20.281  -6.637  1.00  0.00     0.162 A 
BRANCH  13  17
ATOM     17  O   UNL     1     -29.761 -17.492  -8.896  1.00  0.00    -0.504 OA
ATOM     18  H   UNL     1     -29.783 -16.664  -8.310  1.00  0.00     0.293 HD
ENDBRANCH  13  17
BRANCH  15  19
ATOM     19  O   UNL     1     -30.125 -18.211  -6.272  1.00  0.00    -0.502 OA
ATOM     20  H   UNL     1     -29.859 -17.258  -6.069  1.00  0.00     0.293 HD
ENDBRANCH  15  19
BRANCH  16  21
ATOM     21  O   UNL     1     -28.954 -20.708  -5.313  1.00  0.00    -0.504 OA
ATOM     22  H   UNL     1     -29.213 -20.106  -4.546  1.00  0.00     0.293 HD
ENDBRANCH  16  21
ENDBRANCH   1  11
BRANCH  10  23
ATOM     23  O   UNL     1     -28.248 -23.632  -9.016  1.00  0.00    -0.500 OA
ATOM     24  H   UNL     1     -27.942 -24.234  -8.260  1.00  0.00     0.294 HD
ENDBRANCH  10  23
BRANCH   5  25
ATOM     25  O   UNL     1     -23.135 -20.882 -14.175  1.00  0.00    -0.507 OA
ATOM     26  H   UNL     1     -23.279 -19.896 -14.363  1.00  0.00     0.293 HD
ENDBRANCH   5  25
BRANCH   7  27
ATOM     27  O   UNL     1     -24.859 -25.118 -12.718  1.00  0.00    -0.507 OA
ATOM     28  H   UNL     1     -25.595 -25.731 -12.396  1.00  0.00     0.293 HD
ENDBRANCH   7  27
TORSDOF 7
ENDMDL
