MODEL 1
REMARK VINA RESULT:    -2.541      0.000      0.000
REMARK INTER + INTRA:          -2.541
REMARK INTER:                  -2.541
REMARK INTRA:                   0.000
REMARK UNBOUND:                 0.000
REMARK SMILES CC1=CC[C@H]2[C@H](C1)C2(C)C
REMARK SMILES IDX 1 1 2 2 3 3 4 4 5 5 6 6 7 7 8 8 9 9 10 10
REMARK H PARENT
REMARK Flexibility Score: inf
ROOT
ATOM      1  C   UNL     1     111.674  87.220  58.972  1.00  0.00     0.039 C 
ATOM      2  C   UNL     1     110.349  87.122  58.271  1.00  0.00    -0.077 C 
ATOM      3  C   UNL     1     109.291  86.543  58.911  1.00  0.00    -0.028 C 
ATOM      4  C   UNL     1     107.913  86.438  58.262  1.00  0.00     0.031 C 
ATOM      5  C   UNL     1     107.815  87.523  57.185  1.00  0.00     0.003 C 
ATOM      6  C   UNL     1     108.970  87.085  56.207  1.00  0.00     0.003 C 
ATOM      7  C   UNL     1     110.189  87.733  56.874  1.00  0.00     0.034 C 
ATOM      8  C   UNL     1     107.631  87.559  55.685  1.00  0.00    -0.029 C 
ATOM      9  C   UNL     1     106.696  86.493  55.107  1.00  0.00     0.012 C 
ATOM     10  C   UNL     1     107.632  88.937  55.017  1.00  0.00     0.012 C 
ENDROOT
TORSDOF 0
ENDMDL
MODEL 2
REMARK VINA RESULT:    -2.515     11.358     13.897
REMARK INTER + INTRA:          -2.515
REMARK INTER:                  -2.515
REMARK INTRA:                   0.000
REMARK UNBOUND:                 0.000
REMARK SMILES CC1=CC[C@H]2[C@H](C1)C2(C)C
REMARK SMILES IDX 1 1 2 2 3 3 4 4 5 5 6 6 7 7 8 8 9 9 10 10
REMARK H PARENT
REMARK Flexibility Score: inf
ROOT
ATOM      1  C   UNL     1     119.856  88.008  58.396  1.00  0.00     0.039 C 
ATOM      2  C   UNL     1     120.991  87.416  57.608  1.00  0.00    -0.077 C 
ATOM      3  C   UNL     1     121.549  86.238  58.016  1.00  0.00    -0.028 C 
ATOM      4  C   UNL     1     122.686  85.573  57.243  1.00  0.00     0.031 C 
ATOM      5  C   UNL     1     122.634  86.081  55.798  1.00  0.00     0.003 C 
ATOM      6  C   UNL     1     122.878  87.623  56.009  1.00  0.00     0.003 C 
ATOM      7  C   UNL     1     121.459  88.110  56.324  1.00  0.00     0.034 C 
ATOM      8  C   UNL     1     123.547  86.865  54.883  1.00  0.00    -0.029 C 
ATOM      9  C   UNL     1     125.043  86.576  55.034  1.00  0.00     0.012 C 
ATOM     10  C   UNL     1     123.024  87.173  53.476  1.00  0.00     0.012 C 
ENDROOT
TORSDOF 0
ENDMDL
MODEL 3
REMARK VINA RESULT:    -2.500     11.827     14.369
REMARK INTER + INTRA:          -2.500
REMARK INTER:                  -2.500
REMARK INTRA:                   0.000
REMARK UNBOUND:                 0.000
REMARK SMILES CC1=CC[C@H]2[C@H](C1)C2(C)C
REMARK SMILES IDX 1 1 2 2 3 3 4 4 5 5 6 6 7 7 8 8 9 9 10 10
REMARK H PARENT
REMARK Flexibility Score: inf
ROOT
ATOM      1  C   UNL     1     120.357  88.295  57.986  1.00  0.00     0.039 C 
ATOM      2  C   UNL     1     121.327  87.760  56.971  1.00  0.00    -0.077 C 
ATOM      3  C   UNL     1     121.558  88.466  55.825  1.00  0.00    -0.028 C 
ATOM      4  C   UNL     1     122.552  87.988  54.768  1.00  0.00     0.031 C 
ATOM      5  C   UNL     1     123.552  87.050  55.452  1.00  0.00     0.003 C 
ATOM      6  C   UNL     1     122.599  85.894  55.940  1.00  0.00     0.003 C 
ATOM      7  C   UNL     1     122.092  86.465  57.269  1.00  0.00     0.034 C 
ATOM      8  C   UNL     1     123.948  85.596  55.324  1.00  0.00    -0.029 C 
ATOM      9  C   UNL     1     123.951  85.034  53.900  1.00  0.00     0.012 C 
ATOM     10  C   UNL     1     125.017  85.079  56.291  1.00  0.00     0.012 C 
ENDROOT
TORSDOF 0
ENDMDL
MODEL 4
REMARK VINA RESULT:    -2.329     11.108     13.704
REMARK INTER + INTRA:          -2.329
REMARK INTER:                  -2.329
REMARK INTRA:                   0.000
REMARK UNBOUND:                 0.000
REMARK SMILES CC1=CC[C@H]2[C@H](C1)C2(C)C
REMARK SMILES IDX 1 1 2 2 3 3 4 4 5 5 6 6 7 7 8 8 9 9 10 10
REMARK H PARENT
REMARK Flexibility Score: inf
ROOT
ATOM      1  C   UNL     1     125.081  84.763  55.965  1.00  0.00     0.039 C 
ATOM      2  C   UNL     1     123.877  85.636  56.181  1.00  0.00    -0.077 C 
ATOM      3  C   UNL     1     123.670  86.710  55.364  1.00  0.00    -0.028 C 
ATOM      4  C   UNL     1     122.452  87.618  55.517  1.00  0.00     0.031 C 
ATOM      5  C   UNL     1     121.357  86.822  56.235  1.00  0.00     0.003 C 
ATOM      6  C   UNL     1     122.056  86.524  57.615  1.00  0.00     0.003 C 
ATOM      7  C   UNL     1     122.867  85.268  57.275  1.00  0.00     0.034 C 
ATOM      8  C   UNL     1     120.602  86.937  57.541  1.00  0.00    -0.029 C 
ATOM      9  C   UNL     1     120.263  88.362  57.985  1.00  0.00     0.012 C 
ATOM     10  C   UNL     1     119.584  85.837  57.854  1.00  0.00     0.012 C 
ENDROOT
TORSDOF 0
ENDMDL
MODEL 5
REMARK VINA RESULT:    -2.315      1.274      4.399
REMARK INTER + INTRA:          -2.315
REMARK INTER:                  -2.315
REMARK INTRA:                   0.000
REMARK UNBOUND:                 0.000
REMARK SMILES CC1=CC[C@H]2[C@H](C1)C2(C)C
REMARK SMILES IDX 1 1 2 2 3 3 4 4 5 5 6 6 7 7 8 8 9 9 10 10
REMARK H PARENT
REMARK Flexibility Score: inf
ROOT
ATOM      1  C   UNL     1     106.294  88.735  52.547  1.00  0.00     0.039 C 
ATOM      2  C   UNL     1     106.797  88.009  53.762  1.00  0.00    -0.077 C 
ATOM      3  C   UNL     1     106.774  86.644  53.787  1.00  0.00    -0.028 C 
ATOM      4  C   UNL     1     107.296  85.848  54.981  1.00  0.00     0.031 C 
ATOM      5  C   UNL     1     108.289  86.735  55.740  1.00  0.00     0.003 C 
ATOM      6  C   UNL     1     107.357  87.927  56.179  1.00  0.00     0.003 C 
ATOM      7  C   UNL     1     107.391  88.810  54.927  1.00  0.00     0.034 C 
ATOM      8  C   UNL     1     108.378  87.335  57.125  1.00  0.00    -0.029 C 
ATOM      9  C   UNL     1     107.845  86.459  58.262  1.00  0.00     0.012 C 
ATOM     10  C   UNL     1     109.594  88.219  57.423  1.00  0.00     0.012 C 
ENDROOT
TORSDOF 0
ENDMDL
MODEL 6
REMARK VINA RESULT:    -2.275     11.167     13.752
REMARK INTER + INTRA:          -2.275
REMARK INTER:                  -2.275
REMARK INTRA:                   0.000
REMARK UNBOUND:                 0.000
REMARK SMILES CC1=CC[C@H]2[C@H](C1)C2(C)C
REMARK SMILES IDX 1 1 2 2 3 3 4 4 5 5 6 6 7 7 8 8 9 9 10 10
REMARK H PARENT
REMARK Flexibility Score: inf
ROOT
ATOM      1  C   UNL     1     125.084  86.786  54.413  1.00  0.00     0.039 C 
ATOM      2  C   UNL     1     123.941  86.523  55.353  1.00  0.00    -0.077 C 
ATOM      3  C   UNL     1     123.976  85.425  56.164  1.00  0.00    -0.028 C 
ATOM      4  C   UNL     1     122.858  85.119  57.158  1.00  0.00     0.031 C 
ATOM      5  C   UNL     1     122.132  86.431  57.470  1.00  0.00     0.003 C 
ATOM      6  C   UNL     1     121.575  86.815  56.047  1.00  0.00     0.003 C 
ATOM      7  C   UNL     1     122.786  87.529  55.434  1.00  0.00     0.034 C 
ATOM      8  C   UNL     1     120.731  86.972  57.292  1.00  0.00    -0.029 C 
ATOM      9  C   UNL     1     119.600  85.960  57.496  1.00  0.00     0.012 C 
ATOM     10  C   UNL     1     120.480  88.414  57.744  1.00  0.00     0.012 C 
ENDROOT
TORSDOF 0
ENDMDL
MODEL 7
REMARK VINA RESULT:    -2.266      1.143      4.536
REMARK INTER + INTRA:          -2.266
REMARK INTER:                  -2.266
REMARK INTRA:                   0.000
REMARK UNBOUND:                 0.000
REMARK SMILES CC1=CC[C@H]2[C@H](C1)C2(C)C
REMARK SMILES IDX 1 1 2 2 3 3 4 4 5 5 6 6 7 7 8 8 9 9 10 10
REMARK H PARENT
REMARK Flexibility Score: inf
ROOT
ATOM      1  C   UNL     1     105.273  85.284  53.823  1.00  0.00     0.039 C 
ATOM      2  C   UNL     1     106.225  86.090  54.661  1.00  0.00    -0.077 C 
ATOM      3  C   UNL     1     106.407  87.415  54.385  1.00  0.00    -0.028 C 
ATOM      4  C   UNL     1     107.340  88.292  55.217  1.00  0.00     0.031 C 
ATOM      5  C   UNL     1     107.495  87.641  56.595  1.00  0.00     0.003 C 
ATOM      6  C   UNL     1     108.158  86.265  56.208  1.00  0.00     0.003 C 
ATOM      7  C   UNL     1     106.925  85.427  55.854  1.00  0.00     0.034 C 
ATOM      8  C   UNL     1     108.631  87.059  57.406  1.00  0.00    -0.029 C 
ATOM      9  C   UNL     1     109.975  87.780  57.274  1.00  0.00     0.012 C 
ATOM     10  C   UNL     1     108.278  86.466  58.773  1.00  0.00     0.012 C 
ENDROOT
TORSDOF 0
ENDMDL
MODEL 8
REMARK VINA RESULT:    -2.226      8.460     11.548
REMARK INTER + INTRA:          -2.226
REMARK INTER:                  -2.226
REMARK INTRA:                   0.000
REMARK UNBOUND:                 0.000
REMARK SMILES CC1=CC[C@H]2[C@H](C1)C2(C)C
REMARK SMILES IDX 1 1 2 2 3 3 4 4 5 5 6 6 7 7 8 8 9 9 10 10
REMARK H PARENT
REMARK Flexibility Score: inf
ROOT
ATOM      1  C   UNL     1     116.252  86.861  56.899  1.00  0.00     0.039 C 
ATOM      2  C   UNL     1     117.690  87.292  56.971  1.00  0.00    -0.077 C 
ATOM      3  C   UNL     1     117.994  88.623  56.955  1.00  0.00    -0.028 C 
ATOM      4  C   UNL     1     119.433  89.125  57.052  1.00  0.00     0.031 C 
ATOM      5  C   UNL     1     120.269  88.030  57.722  1.00  0.00     0.003 C 
ATOM      6  C   UNL     1     120.116  86.854  56.684  1.00  0.00     0.003 C 
ATOM      7  C   UNL     1     118.787  86.233  57.129  1.00  0.00     0.034 C 
ATOM      8  C   UNL     1     121.447  87.164  57.333  1.00  0.00    -0.029 C 
ATOM      9  C   UNL     1     122.505  87.841  56.457  1.00  0.00     0.012 C 
ATOM     10  C   UNL     1     121.932  86.145  58.368  1.00  0.00     0.012 C 
ENDROOT
TORSDOF 0
ENDMDL
