MODEL 1
REMARK VINA RESULT:    -2.442      0.000      0.000
REMARK INTER + INTRA:          -2.442
REMARK INTER:                  -2.442
REMARK INTRA:                   0.000
REMARK UNBOUND:                 0.000
REMARK SMILES CC(=O)[O-]
REMARK SMILES IDX 1 1 2 2 3 3 4 4
REMARK H PARENT
REMARK Flexibility Score: inf
ROOT
ATOM      1  C   UNL     1       9.877  17.749  30.317  1.00  0.00     0.063 C 
ATOM      2  C   UNL     1       8.954  18.673  31.037  1.00  0.00     0.038 C 
ATOM      3  O   UNL     1       8.562  19.733  30.483  1.00  0.00    -0.550 OA
ATOM      4  O   UNL     1       8.481  18.338  32.300  1.00  0.00    -0.550 OA
ENDROOT
TORSDOF 0
ENDMDL
MODEL 2
REMARK VINA RESULT:    -2.427      0.142      1.621
REMARK INTER + INTRA:          -2.427
REMARK INTER:                  -2.427
REMARK INTRA:                   0.000
REMARK UNBOUND:                 0.000
REMARK SMILES CC(=O)[O-]
REMARK SMILES IDX 1 1 2 2 3 3 4 4
REMARK H PARENT
REMARK Flexibility Score: inf
ROOT
ATOM      1  C   UNL     1       9.783  17.810  30.259  1.00  0.00     0.063 C 
ATOM      2  C   UNL     1       8.877  18.694  31.048  1.00  0.00     0.038 C 
ATOM      3  O   UNL     1       8.495  18.344  32.195  1.00  0.00    -0.550 OA
ATOM      4  O   UNL     1       8.497  19.930  30.541  1.00  0.00    -0.550 OA
ENDROOT
TORSDOF 0
ENDMDL
MODEL 3
REMARK VINA RESULT:    -2.386      1.240      1.603
REMARK INTER + INTRA:          -2.386
REMARK INTER:                  -2.386
REMARK INTRA:                   0.000
REMARK UNBOUND:                 0.000
REMARK SMILES CC(=O)[O-]
REMARK SMILES IDX 1 1 2 2 3 3 4 4
REMARK H PARENT
REMARK Flexibility Score: inf
ROOT
ATOM      1  C   UNL     1       9.776  17.748  30.426  1.00  0.00     0.063 C 
ATOM      2  C   UNL     1       9.447  17.880  31.874  1.00  0.00     0.038 C 
ATOM      3  O   UNL     1       8.538  18.668  32.246  1.00  0.00    -0.550 OA
ATOM      4  O   UNL     1      10.105  17.094  32.811  1.00  0.00    -0.550 OA
ENDROOT
TORSDOF 0
ENDMDL
MODEL 4
REMARK VINA RESULT:    -2.260      9.138      9.640
REMARK INTER + INTRA:          -2.260
REMARK INTER:                  -2.260
REMARK INTRA:                   0.000
REMARK UNBOUND:                 0.000
REMARK SMILES CC(=O)[O-]
REMARK SMILES IDX 1 1 2 2 3 3 4 4
REMARK H PARENT
REMARK Flexibility Score: inf
ROOT
ATOM      1  C   UNL     1      14.659  13.594  38.308  1.00  0.00     0.063 C 
ATOM      2  C   UNL     1      14.671  14.937  37.660  1.00  0.00     0.038 C 
ATOM      3  O   UNL     1      15.470  15.824  38.059  1.00  0.00    -0.550 OA
ATOM      4  O   UNL     1      13.838  15.195  36.579  1.00  0.00    -0.550 OA
ENDROOT
TORSDOF 0
ENDMDL
MODEL 5
REMARK VINA RESULT:    -2.238      1.455      1.790
REMARK INTER + INTRA:          -2.238
REMARK INTER:                  -2.238
REMARK INTRA:                   0.000
REMARK UNBOUND:                 0.000
REMARK SMILES CC(=O)[O-]
REMARK SMILES IDX 1 1 2 2 3 3 4 4
REMARK H PARENT
REMARK Flexibility Score: inf
ROOT
ATOM      1  C   UNL     1       8.723  18.417  32.256  1.00  0.00     0.063 C 
ATOM      2  C   UNL     1       9.104  18.528  30.819  1.00  0.00     0.038 C 
ATOM      3  O   UNL     1       8.632  19.455  30.110  1.00  0.00    -0.550 OA
ATOM      4  O   UNL     1      10.023  17.642  30.273  1.00  0.00    -0.550 OA
ENDROOT
TORSDOF 0
ENDMDL
MODEL 6
REMARK VINA RESULT:    -2.223      8.645      9.229
REMARK INTER + INTRA:          -2.223
REMARK INTER:                  -2.223
REMARK INTRA:                   0.000
REMARK UNBOUND:                 0.000
REMARK SMILES CC(=O)[O-]
REMARK SMILES IDX 1 1 2 2 3 3 4 4
REMARK H PARENT
REMARK Flexibility Score: inf
ROOT
ATOM      1  C   UNL     1      16.014  16.208  36.639  1.00  0.00     0.063 C 
ATOM      2  C   UNL     1      14.876  15.353  37.087  1.00  0.00     0.038 C 
ATOM      3  O   UNL     1      15.013  14.588  38.077  1.00  0.00    -0.550 OA
ATOM      4  O   UNL     1      13.647  15.439  36.446  1.00  0.00    -0.550 OA
ENDROOT
TORSDOF 0
ENDMDL
MODEL 7
REMARK VINA RESULT:    -2.221      1.478      2.152
REMARK INTER + INTRA:          -2.221
REMARK INTER:                  -2.221
REMARK INTRA:                   0.000
REMARK UNBOUND:                 0.000
REMARK SMILES CC(=O)[O-]
REMARK SMILES IDX 1 1 2 2 3 3 4 4
REMARK H PARENT
REMARK Flexibility Score: inf
ROOT
ATOM      1  C   UNL     1       8.541  19.752  30.179  1.00  0.00     0.063 C 
ATOM      2  C   UNL     1       9.151  18.528  30.774  1.00  0.00     0.038 C 
ATOM      3  O   UNL     1       8.756  18.105  31.891  1.00  0.00    -0.550 OA
ATOM      4  O   UNL     1      10.118  17.822  30.071  1.00  0.00    -0.550 OA
ENDROOT
TORSDOF 0
ENDMDL
MODEL 8
REMARK VINA RESULT:    -2.171      9.436      9.612
REMARK INTER + INTRA:          -2.171
REMARK INTER:                  -2.171
REMARK INTRA:                   0.000
REMARK UNBOUND:                 0.000
REMARK SMILES CC(=O)[O-]
REMARK SMILES IDX 1 1 2 2 3 3 4 4
REMARK H PARENT
REMARK Flexibility Score: inf
ROOT
ATOM      1  C   UNL     1      14.932  16.976  38.194  1.00  0.00     0.063 C 
ATOM      2  C   UNL     1      15.392  15.908  37.260  1.00  0.00     0.038 C 
ATOM      3  O   UNL     1      14.815  14.790  37.246  1.00  0.00    -0.550 OA
ATOM      4  O   UNL     1      16.423  16.164  36.366  1.00  0.00    -0.550 OA
ENDROOT
TORSDOF 0
ENDMDL
MODEL 9
REMARK VINA RESULT:    -2.055     10.455     10.884
REMARK INTER + INTRA:          -2.055
REMARK INTER:                  -2.055
REMARK INTRA:                   0.000
REMARK UNBOUND:                 0.000
REMARK SMILES CC(=O)[O-]
REMARK SMILES IDX 1 1 2 2 3 3 4 4
REMARK H PARENT
REMARK Flexibility Score: inf
ROOT
ATOM      1  C   UNL     1       9.313  24.859  39.200  1.00  0.00     0.063 C 
ATOM      2  C   UNL     1      10.111  24.075  40.185  1.00  0.00     0.038 C 
ATOM      3  O   UNL     1       9.743  22.920  40.520  1.00  0.00    -0.550 OA
ATOM      4  O   UNL     1      11.293  24.598  40.695  1.00  0.00    -0.550 OA
ENDROOT
TORSDOF 0
ENDMDL
