MODEL 1
REMARK VINA RESULT:    -3.425      0.000      0.000
REMARK INTER + INTRA:          -4.076
REMARK INTER:                  -4.026
REMARK INTRA:                  -0.050
REMARK UNBOUND:                -0.050
REMARK SMILES O=C([O-])CCC(=O)[O-]
REMARK SMILES IDX 4 1 2 2 1 3 3 4 5 5 6 6 7 7 8 8
REMARK H PARENT
REMARK Flexibility Score: inf
ROOT
ATOM      1  C   UNL     1     -37.810  15.332  -3.437  1.00  0.00     0.059 C 
ENDROOT
BRANCH   1   2
ATOM      2  C   UNL     1     -37.451  15.646  -4.855  1.00  0.00     0.042 C 
ATOM      3  O   UNL     1     -37.590  16.815  -5.299  1.00  0.00    -0.550 OA
ATOM      4  O   UNL     1     -36.916  14.658  -5.672  1.00  0.00    -0.550 OA
ENDBRANCH   1   2
BRANCH   1   5
ATOM      5  C   UNL     1     -37.772  16.599  -2.582  1.00  0.00     0.059 C 
BRANCH   5   6
ATOM      6  C   UNL     1     -37.315  16.281  -1.193  1.00  0.00     0.042 C 
ATOM      7  O   UNL     1     -36.356  15.485  -1.009  1.00  0.00    -0.550 OA
ATOM      8  O   UNL     1     -37.980  16.823  -0.101  1.00  0.00    -0.550 OA
ENDBRANCH   5   6
ENDBRANCH   1   5
TORSDOF 3
ENDMDL
MODEL 2
REMARK VINA RESULT:    -3.400      0.212      4.070
REMARK INTER + INTRA:          -4.046
REMARK INTER:                  -4.009
REMARK INTRA:                  -0.037
REMARK UNBOUND:                -0.050
REMARK SMILES O=C([O-])CCC(=O)[O-]
REMARK SMILES IDX 4 1 2 2 1 3 3 4 5 5 6 6 7 7 8 8
REMARK H PARENT
REMARK Flexibility Score: inf
ROOT
ATOM      1  C   UNL     1     -37.664  16.554  -2.509  1.00  0.00     0.059 C 
ENDROOT
BRANCH   1   2
ATOM      2  C   UNL     1     -37.335  16.141  -1.108  1.00  0.00     0.042 C 
ATOM      3  O   UNL     1     -38.125  16.411  -0.167  1.00  0.00    -0.550 OA
ATOM      4  O   UNL     1     -36.179  15.415  -0.851  1.00  0.00    -0.550 OA
ENDBRANCH   1   2
BRANCH   1   5
ATOM      5  C   UNL     1     -37.858  15.325  -3.397  1.00  0.00     0.059 C 
BRANCH   5   6
ATOM      6  C   UNL     1     -37.480  15.636  -4.812  1.00  0.00     0.042 C 
ATOM      7  O   UNL     1     -37.049  14.725  -5.567  1.00  0.00    -0.550 OA
ATOM      8  O   UNL     1     -37.557  16.941  -5.281  1.00  0.00    -0.550 OA
ENDBRANCH   5   6
ENDBRANCH   1   5
TORSDOF 3
ENDMDL
MODEL 3
REMARK VINA RESULT:    -3.306     10.336     11.017
REMARK INTER + INTRA:          -3.936
REMARK INTER:                  -3.931
REMARK INTRA:                  -0.005
REMARK UNBOUND:                -0.050
REMARK SMILES O=C([O-])CCC(=O)[O-]
REMARK SMILES IDX 4 1 2 2 1 3 3 4 5 5 6 6 7 7 8 8
REMARK H PARENT
REMARK Flexibility Score: inf
ROOT
ATOM      1  C   UNL     1     -26.862  16.562  -1.900  1.00  0.00     0.059 C 
ENDROOT
BRANCH   1   2
ATOM      2  C   UNL     1     -27.313  17.962  -2.175  1.00  0.00     0.042 C 
ATOM      3  O   UNL     1     -26.468  18.890  -2.284  1.00  0.00    -0.550 OA
ATOM      4  O   UNL     1     -28.662  18.235  -2.362  1.00  0.00    -0.550 OA
ENDBRANCH   1   2
BRANCH   1   5
ATOM      5  C   UNL     1     -25.840  16.543  -0.762  1.00  0.00     0.059 C 
BRANCH   5   6
ATOM      6  C   UNL     1     -26.415  17.171   0.469  1.00  0.00     0.042 C 
ATOM      7  O   UNL     1     -27.343  16.597   1.098  1.00  0.00    -0.550 OA
ATOM      8  O   UNL     1     -25.961  18.412   0.894  1.00  0.00    -0.550 OA
ENDBRANCH   5   6
ENDBRANCH   1   5
TORSDOF 3
ENDMDL
MODEL 4
REMARK VINA RESULT:    -3.290     10.349     11.492
REMARK INTER + INTRA:          -3.918
REMARK INTER:                  -3.908
REMARK INTRA:                  -0.010
REMARK UNBOUND:                -0.050
REMARK SMILES O=C([O-])CCC(=O)[O-]
REMARK SMILES IDX 4 1 2 2 1 3 3 4 5 5 6 6 7 7 8 8
REMARK H PARENT
REMARK Flexibility Score: inf
ROOT
ATOM      1  C   UNL     1     -25.831  16.518  -0.799  1.00  0.00     0.059 C 
ENDROOT
BRANCH   1   2
ATOM      2  C   UNL     1     -26.390  17.209   0.405  1.00  0.00     0.042 C 
ATOM      3  O   UNL     1     -27.281  16.652   1.098  1.00  0.00    -0.550 OA
ATOM      4  O   UNL     1     -25.891  18.446   0.791  1.00  0.00    -0.550 OA
ENDBRANCH   1   2
BRANCH   1   5
ATOM      5  C   UNL     1     -26.856  16.506  -1.933  1.00  0.00     0.059 C 
BRANCH   5   6
ATOM      6  C   UNL     1     -27.316  17.897  -2.238  1.00  0.00     0.042 C 
ATOM      7  O   UNL     1     -26.475  18.821  -2.399  1.00  0.00    -0.550 OA
ATOM      8  O   UNL     1     -28.674  18.184  -2.296  1.00  0.00    -0.550 OA
ENDBRANCH   5   6
ENDBRANCH   1   5
TORSDOF 3
ENDMDL
MODEL 5
REMARK VINA RESULT:    -3.234      1.090      4.133
REMARK INTER + INTRA:          -3.851
REMARK INTER:                  -3.805
REMARK INTRA:                  -0.047
REMARK UNBOUND:                -0.050
REMARK SMILES O=C([O-])CCC(=O)[O-]
REMARK SMILES IDX 4 1 2 2 1 3 3 4 5 5 6 6 7 7 8 8
REMARK H PARENT
REMARK Flexibility Score: inf
ROOT
ATOM      1  C   UNL     1     -37.781  15.291  -3.217  1.00  0.00     0.059 C 
ENDROOT
BRANCH   1   2
ATOM      2  C   UNL     1     -37.393  16.137  -2.045  1.00  0.00     0.042 C 
ATOM      3  O   UNL     1     -37.668  17.365  -2.032  1.00  0.00    -0.550 OA
ATOM      4  O   UNL     1     -36.773  15.559  -0.945  1.00  0.00    -0.550 OA
ENDBRANCH   1   2
BRANCH   1   5
ATOM      5  C   UNL     1     -37.799  16.127  -4.498  1.00  0.00     0.059 C 
BRANCH   5   6
ATOM      6  C   UNL     1     -37.075  15.416  -5.597  1.00  0.00     0.042 C 
ATOM      7  O   UNL     1     -36.703  16.047  -6.622  1.00  0.00    -0.550 OA
ATOM      8  O   UNL     1     -36.855  14.047  -5.514  1.00  0.00    -0.550 OA
ENDBRANCH   5   6
ENDBRANCH   1   5
TORSDOF 3
ENDMDL
MODEL 6
REMARK VINA RESULT:    -3.115     18.583     19.107
REMARK INTER + INTRA:          -3.712
REMARK INTER:                  -3.601
REMARK INTRA:                  -0.111
REMARK UNBOUND:                -0.050
REMARK SMILES O=C([O-])CCC(=O)[O-]
REMARK SMILES IDX 4 1 2 2 1 3 3 4 5 5 6 6 7 7 8 8
REMARK H PARENT
REMARK Flexibility Score: inf
ROOT
ATOM      1  C   UNL     1     -22.120  25.350  -2.661  1.00  0.00     0.059 C 
ENDROOT
BRANCH   1   2
ATOM      2  C   UNL     1     -22.018  23.896  -2.321  1.00  0.00     0.042 C 
ATOM      3  O   UNL     1     -22.769  23.060  -2.887  1.00  0.00    -0.550 OA
ATOM      4  O   UNL     1     -21.060  23.459  -1.416  1.00  0.00    -0.550 OA
ENDBRANCH   1   2
BRANCH   1   5
ATOM      5  C   UNL     1     -20.965  26.129  -2.030  1.00  0.00     0.059 C 
BRANCH   5   6
ATOM      6  C   UNL     1     -20.011  26.595  -3.085  1.00  0.00     0.042 C 
ATOM      7  O   UNL     1     -19.341  25.758  -3.746  1.00  0.00    -0.550 OA
ATOM      8  O   UNL     1     -19.824  27.953  -3.302  1.00  0.00    -0.550 OA
ENDBRANCH   5   6
ENDBRANCH   1   5
TORSDOF 3
ENDMDL
MODEL 7
REMARK VINA RESULT:    -3.101     18.606     19.100
REMARK INTER + INTRA:          -3.695
REMARK INTER:                  -3.591
REMARK INTRA:                  -0.104
REMARK UNBOUND:                -0.050
REMARK SMILES O=C([O-])CCC(=O)[O-]
REMARK SMILES IDX 4 1 2 2 1 3 3 4 5 5 6 6 7 7 8 8
REMARK H PARENT
REMARK Flexibility Score: inf
ROOT
ATOM      1  C   UNL     1     -20.897  26.093  -2.018  1.00  0.00     0.059 C 
ENDROOT
BRANCH   1   2
ATOM      2  C   UNL     1     -19.958  26.570  -3.081  1.00  0.00     0.042 C 
ATOM      3  O   UNL     1     -19.347  25.740  -3.804  1.00  0.00    -0.550 OA
ATOM      4  O   UNL     1     -19.795  27.931  -3.306  1.00  0.00    -0.550 OA
ENDBRANCH   1   2
BRANCH   1   5
ATOM      5  C   UNL     1     -22.057  25.314  -2.639  1.00  0.00     0.059 C 
BRANCH   5   6
ATOM      6  C   UNL     1     -21.949  23.859  -2.305  1.00  0.00     0.042 C 
ATOM      7  O   UNL     1     -22.727  23.027  -2.843  1.00  0.00    -0.550 OA
ATOM      8  O   UNL     1     -21.025  23.429  -1.362  1.00  0.00    -0.550 OA
ENDBRANCH   5   6
ENDBRANCH   1   5
TORSDOF 3
ENDMDL
MODEL 8
REMARK VINA RESULT:    -2.886     18.056     18.818
REMARK INTER + INTRA:          -3.443
REMARK INTER:                  -3.361
REMARK INTRA:                  -0.081
REMARK UNBOUND:                -0.050
REMARK SMILES O=C([O-])CCC(=O)[O-]
REMARK SMILES IDX 4 1 2 2 1 3 3 4 5 5 6 6 7 7 8 8
REMARK H PARENT
REMARK Flexibility Score: inf
ROOT
ATOM      1  C   UNL     1     -20.010  24.578  -0.746  1.00  0.00     0.059 C 
ENDROOT
BRANCH   1   2
ATOM      2  C   UNL     1     -19.603  23.172  -0.438  1.00  0.00     0.042 C 
ATOM      3  O   UNL     1     -20.477  22.293  -0.222  1.00  0.00    -0.550 OA
ATOM      4  O   UNL     1     -18.259  22.820  -0.440  1.00  0.00    -0.550 OA
ENDBRANCH   1   2
BRANCH   1   5
ATOM      5  C   UNL     1     -20.541  24.681  -2.176  1.00  0.00     0.059 C 
BRANCH   5   6
ATOM      6  C   UNL     1     -22.035  24.584  -2.188  1.00  0.00     0.042 C 
ATOM      7  O   UNL     1     -22.722  25.294  -1.407  1.00  0.00    -0.550 OA
ATOM      8  O   UNL     1     -22.665  23.673  -3.026  1.00  0.00    -0.550 OA
ENDBRANCH   5   6
ENDBRANCH   1   5
TORSDOF 3
ENDMDL
MODEL 9
REMARK VINA RESULT:    -2.855     18.108     18.722
REMARK INTER + INTRA:          -3.405
REMARK INTER:                  -3.322
REMARK INTRA:                  -0.084
REMARK UNBOUND:                -0.050
REMARK SMILES O=C([O-])CCC(=O)[O-]
REMARK SMILES IDX 4 1 2 2 1 3 3 4 5 5 6 6 7 7 8 8
REMARK H PARENT
REMARK Flexibility Score: inf
ROOT
ATOM      1  C   UNL     1     -20.529  24.630  -2.247  1.00  0.00     0.059 C 
ENDROOT
BRANCH   1   2
ATOM      2  C   UNL     1     -22.023  24.665  -2.175  1.00  0.00     0.042 C 
ATOM      3  O   UNL     1     -22.712  24.029  -3.015  1.00  0.00    -0.550 OA
ATOM      4  O   UNL     1     -22.654  25.359  -1.151  1.00  0.00    -0.550 OA
ENDBRANCH   1   2
BRANCH   1   5
ATOM      5  C   UNL     1     -19.926  24.591  -0.843  1.00  0.00     0.059 C 
BRANCH   5   6
ATOM      6  C   UNL     1     -19.572  23.188  -0.463  1.00  0.00     0.042 C 
ATOM      7  O   UNL     1     -20.478  22.361  -0.177  1.00  0.00    -0.550 OA
ATOM      8  O   UNL     1     -18.239  22.806  -0.377  1.00  0.00    -0.550 OA
ENDBRANCH   5   6
ENDBRANCH   1   5
TORSDOF 3
ENDMDL
