MODEL 1
REMARK VINA RESULT:    -3.409      0.000      0.000
REMARK INTER + INTRA:          -3.726
REMARK INTER:                  -3.708
REMARK INTRA:                  -0.018
REMARK UNBOUND:                -0.018
REMARK SMILES OCc1ccco1
REMARK SMILES IDX 2 1 3 2 5 3 6 4 4 5 7 6 1 7
REMARK H PARENT 1 8
REMARK Flexibility Score: inf
ROOT
ATOM      1  C   UNL     1      30.209  11.610  32.655  1.00  0.00     0.231 C 
ENDROOT
BRANCH   1   2
ATOM      2  C   UNL     1      30.102  11.603  31.164  1.00  0.00     0.129 A 
ATOM      3  C   UNL     1      30.333  11.075  29.044  1.00  0.00     0.042 A 
ATOM      4  C   UNL     1      29.457  12.131  29.202  1.00  0.00     0.195 A 
ATOM      5  C   UNL     1      30.748  10.730  30.312  1.00  0.00     0.048 A 
ATOM      6  O   UNL     1      29.339  12.421  30.477  1.00  0.00    -0.467 OA
ENDBRANCH   1   2
BRANCH   1   7
ATOM      7  O   UNL     1      30.333  12.924  33.123  1.00  0.00    -0.388 OA
ATOM      8  H   UNL     1      29.843  12.966  33.985  1.00  0.00     0.211 HD
ENDBRANCH   1   7
TORSDOF 2
ENDMDL
MODEL 2
REMARK VINA RESULT:    -3.133      1.833      2.440
REMARK INTER + INTRA:          -3.426
REMARK INTER:                  -3.404
REMARK INTRA:                  -0.022
REMARK UNBOUND:                -0.018
REMARK SMILES OCc1ccco1
REMARK SMILES IDX 2 1 3 2 5 3 6 4 4 5 7 6 1 7
REMARK H PARENT 1 8
REMARK Flexibility Score: inf
ROOT
ATOM      1  C   UNL     1      30.423  11.414  30.587  1.00  0.00     0.231 C 
ENDROOT
BRANCH   1   2
ATOM      2  C   UNL     1      30.220  10.762  29.256  1.00  0.00     0.129 A 
ATOM      3  C   UNL     1      29.651   9.346  27.676  1.00  0.00     0.042 A 
ATOM      4  C   UNL     1      30.196  10.497  27.141  1.00  0.00     0.195 A 
ATOM      5  C   UNL     1      29.663   9.517  29.044  1.00  0.00     0.048 A 
ATOM      6  O   UNL     1      30.523  11.323  28.108  1.00  0.00    -0.467 OA
ENDBRANCH   1   2
BRANCH   1   7
ATOM      7  O   UNL     1      30.888  12.724  30.415  1.00  0.00    -0.388 OA
ATOM      8  H   UNL     1      30.707  13.203  31.265  1.00  0.00     0.211 HD
ENDBRANCH   1   7
TORSDOF 2
ENDMDL
MODEL 3
REMARK VINA RESULT:    -3.052     18.243     18.930
REMARK INTER + INTRA:          -3.338
REMARK INTER:                  -3.325
REMARK INTRA:                  -0.013
REMARK UNBOUND:                -0.018
REMARK SMILES OCc1ccco1
REMARK SMILES IDX 2 1 3 2 5 3 6 4 4 5 7 6 1 7
REMARK H PARENT 1 8
REMARK Flexibility Score: inf
ROOT
ATOM      1  C   UNL     1      17.677  16.993  18.521  1.00  0.00     0.231 C 
ENDROOT
BRANCH   1   2
ATOM      2  C   UNL     1      17.789  16.089  17.335  1.00  0.00     0.129 A 
ATOM      3  C   UNL     1      17.424  15.095  15.411  1.00  0.00     0.042 A 
ATOM      4  C   UNL     1      18.582  14.628  16.001  1.00  0.00     0.195 A 
ATOM      5  C   UNL     1      16.912  16.042  16.270  1.00  0.00     0.048 A 
ATOM      6  O   UNL     1      18.773  15.242  17.146  1.00  0.00    -0.467 OA
ENDBRANCH   1   2
BRANCH   1   7
ATOM      7  O   UNL     1      16.890  16.391  19.511  1.00  0.00    -0.388 OA
ATOM      8  H   UNL     1      17.501  15.830  20.057  1.00  0.00     0.211 HD
ENDBRANCH   1   7
TORSDOF 2
ENDMDL
MODEL 4
REMARK VINA RESULT:    -2.994     18.290     19.012
REMARK INTER + INTRA:          -3.275
REMARK INTER:                  -3.261
REMARK INTRA:                  -0.014
REMARK UNBOUND:                -0.018
REMARK SMILES OCc1ccco1
REMARK SMILES IDX 2 1 3 2 5 3 6 4 4 5 7 6 1 7
REMARK H PARENT 1 8
REMARK Flexibility Score: inf
ROOT
ATOM      1  C   UNL     1      19.529  13.399  15.899  1.00  0.00     0.231 C 
ENDROOT
BRANCH   1   2
ATOM      2  C   UNL     1      18.627  14.541  16.243  1.00  0.00     0.129 A 
ATOM      3  C   UNL     1      16.987  16.002  16.221  1.00  0.00     0.042 A 
ATOM      4  C   UNL     1      17.798  16.181  17.324  1.00  0.00     0.195 A 
ATOM      5  C   UNL     1      17.520  14.940  15.522  1.00  0.00     0.048 A 
ATOM      6  O   UNL     1      18.766  15.293  17.309  1.00  0.00    -0.467 OA
ENDBRANCH   1   2
BRANCH   1   7
ATOM      7  O   UNL     1      19.060  12.220  16.493  1.00  0.00    -0.388 OA
ATOM      8  H   UNL     1      18.409  11.822  15.858  1.00  0.00     0.211 HD
ENDBRANCH   1   7
TORSDOF 2
ENDMDL
MODEL 5
REMARK VINA RESULT:    -2.972      1.961      2.890
REMARK INTER + INTRA:          -3.251
REMARK INTER:                  -3.237
REMARK INTRA:                  -0.014
REMARK UNBOUND:                -0.018
REMARK SMILES OCc1ccco1
REMARK SMILES IDX 2 1 3 2 5 3 6 4 4 5 7 6 1 7
REMARK H PARENT 1 8
REMARK Flexibility Score: inf
ROOT
ATOM      1  C   UNL     1      30.630  11.700  30.078  1.00  0.00     0.231 C 
ENDROOT
BRANCH   1   2
ATOM      2  C   UNL     1      30.153  10.697  29.077  1.00  0.00     0.129 A 
ATOM      3  C   UNL     1      29.579   9.714  27.198  1.00  0.00     0.042 A 
ATOM      4  C   UNL     1      29.484   8.842  28.266  1.00  0.00     0.195 A 
ATOM      5  C   UNL     1      30.014  10.913  27.721  1.00  0.00     0.048 A 
ATOM      6  O   UNL     1      29.835   9.458  29.372  1.00  0.00    -0.467 OA
ENDBRANCH   1   2
BRANCH   1   7
ATOM      7  O   UNL     1      30.144  12.973  29.753  1.00  0.00    -0.388 OA
ATOM      8  H   UNL     1      29.236  13.040  30.149  1.00  0.00     0.211 HD
ENDBRANCH   1   7
TORSDOF 2
ENDMDL
MODEL 6
REMARK VINA RESULT:    -2.959      1.354      1.696
REMARK INTER + INTRA:          -3.237
REMARK INTER:                  -3.216
REMARK INTRA:                  -0.021
REMARK UNBOUND:                -0.018
REMARK SMILES OCc1ccco1
REMARK SMILES IDX 2 1 3 2 5 3 6 4 4 5 7 6 1 7
REMARK H PARENT 1 8
REMARK Flexibility Score: inf
ROOT
ATOM      1  C   UNL     1      30.891  10.723  30.852  1.00  0.00     0.231 C 
ENDROOT
BRANCH   1   2
ATOM      2  C   UNL     1      29.953  11.368  29.882  1.00  0.00     0.129 A 
ATOM      3  C   UNL     1      28.732  11.790  28.105  1.00  0.00     0.042 A 
ATOM      4  C   UNL     1      28.522  12.735  29.090  1.00  0.00     0.195 A 
ATOM      5  C   UNL     1      29.655  10.903  28.617  1.00  0.00     0.048 A 
ATOM      6  O   UNL     1      29.263  12.455  30.137  1.00  0.00    -0.467 OA
ENDBRANCH   1   2
BRANCH   1   7
ATOM      7  O   UNL     1      30.523  11.047  32.164  1.00  0.00    -0.388 OA
ATOM      8  H   UNL     1      30.089  11.939  32.125  1.00  0.00     0.211 HD
ENDBRANCH   1   7
TORSDOF 2
ENDMDL
MODEL 7
REMARK VINA RESULT:    -2.918      1.443      2.862
REMARK INTER + INTRA:          -3.192
REMARK INTER:                  -3.174
REMARK INTRA:                  -0.018
REMARK UNBOUND:                -0.018
REMARK SMILES OCc1ccco1
REMARK SMILES IDX 2 1 3 2 5 3 6 4 4 5 7 6 1 7
REMARK H PARENT 1 8
REMARK Flexibility Score: inf
ROOT
ATOM      1  C   UNL     1      27.995  13.349  29.040  1.00  0.00     0.231 C 
ENDROOT
BRANCH   1   2
ATOM      2  C   UNL     1      28.965  12.284  29.441  1.00  0.00     0.129 A 
ATOM      3  C   UNL     1      30.169  10.446  29.482  1.00  0.00     0.042 A 
ATOM      4  C   UNL     1      30.505  11.286  30.526  1.00  0.00     0.195 A 
ATOM      5  C   UNL     1      29.175  11.092  28.777  1.00  0.00     0.048 A 
ATOM      6  O   UNL     1      29.772  12.374  30.472  1.00  0.00    -0.467 OA
ENDBRANCH   1   2
BRANCH   1   7
ATOM      7  O   UNL     1      28.623  14.601  29.052  1.00  0.00    -0.388 OA
ATOM      8  H   UNL     1      29.233  14.605  29.836  1.00  0.00     0.211 HD
ENDBRANCH   1   7
TORSDOF 2
ENDMDL
MODEL 8
REMARK VINA RESULT:    -2.914     19.241     19.882
REMARK INTER + INTRA:          -3.188
REMARK INTER:                  -3.168
REMARK INTRA:                  -0.019
REMARK UNBOUND:                -0.018
REMARK SMILES OCc1ccco1
REMARK SMILES IDX 2 1 3 2 5 3 6 4 4 5 7 6 1 7
REMARK H PARENT 1 8
REMARK Flexibility Score: inf
ROOT
ATOM      1  C   UNL     1      17.674  17.790  17.784  1.00  0.00     0.231 C 
ENDROOT
BRANCH   1   2
ATOM      2  C   UNL     1      17.717  16.926  16.564  1.00  0.00     0.129 A 
ATOM      3  C   UNL     1      17.301  15.351  15.091  1.00  0.00     0.042 A 
ATOM      4  C   UNL     1      18.255  16.232  14.622  1.00  0.00     0.195 A 
ATOM      5  C   UNL     1      16.949  15.800  16.346  1.00  0.00     0.048 A 
ATOM      6  O   UNL     1      18.479  17.162  15.522  1.00  0.00    -0.467 OA
ENDBRANCH   1   2
BRANCH   1   7
ATOM      7  O   UNL     1      17.772  19.139  17.422  1.00  0.00    -0.388 OA
ATOM      8  H   UNL     1      18.741  19.339  17.335  1.00  0.00     0.211 HD
ENDBRANCH   1   7
TORSDOF 2
ENDMDL
MODEL 9
REMARK VINA RESULT:    -2.892     17.190     18.724
REMARK INTER + INTRA:          -3.164
REMARK INTER:                  -3.150
REMARK INTRA:                  -0.013
REMARK UNBOUND:                -0.018
REMARK SMILES OCc1ccco1
REMARK SMILES IDX 2 1 3 2 5 3 6 4 4 5 7 6 1 7
REMARK H PARENT 1 8
REMARK Flexibility Score: inf
ROOT
ATOM      1  C   UNL     1      17.527  16.351  16.444  1.00  0.00     0.231 C 
ENDROOT
BRANCH   1   2
ATOM      2  C   UNL     1      18.435  15.177  16.629  1.00  0.00     0.129 A 
ATOM      3  C   UNL     1      19.418  13.226  16.402  1.00  0.00     0.042 A 
ATOM      4  C   UNL     1      20.039  13.986  17.373  1.00  0.00     0.195 A 
ATOM      5  C   UNL     1      18.383  13.996  15.917  1.00  0.00     0.048 A 
ATOM      6  O   UNL     1      19.431  15.145  17.484  1.00  0.00    -0.467 OA
ENDBRANCH   1   2
BRANCH   1   7
ATOM      7  O   UNL     1      16.191  15.931  16.453  1.00  0.00    -0.388 OA
ATOM      8  H   UNL     1      15.858  16.024  15.522  1.00  0.00     0.211 HD
ENDBRANCH   1   7
TORSDOF 2
ENDMDL
