MODEL 1
REMARK VINA RESULT:    -3.491      0.000      0.000
REMARK INTER + INTRA:          -5.395
REMARK INTER:                  -5.124
REMARK INTRA:                  -0.271
REMARK UNBOUND:                -0.271
REMARK SMILES O=C([O-])CCCCCCCC(=O)[O-]
REMARK SMILES IDX 7 1 6 2 5 3 4 4 2 5 1 6 3 7 8 8 9 9 10 10 11 11 12 12 13 13
REMARK H PARENT
REMARK Flexibility Score: inf
ROOT
ATOM      1  C   UNL     1      43.049  21.135  79.596  1.00  0.00     0.000 C 
ENDROOT
BRANCH   1   2
ATOM      2  C   UNL     1      42.081  20.012  79.205  1.00  0.00     0.000 C 
BRANCH   2   3
ATOM      3  C   UNL     1      40.885  19.957  80.164  1.00  0.00     0.006 C 
BRANCH   3   4
ATOM      4  C   UNL     1      39.564  19.888  79.392  1.00  0.00     0.053 C 
BRANCH   4   5
ATOM      5  C   UNL     1      38.512  19.213  80.214  1.00  0.00     0.041 C 
ATOM      6  O   UNL     1      38.125  18.052  79.918  1.00  0.00    -0.550 OA
ATOM      7  O   UNL     1      37.924  19.885  81.278  1.00  0.00    -0.550 OA
ENDBRANCH   4   5
ENDBRANCH   3   4
ENDBRANCH   2   3
ENDBRANCH   1   2
BRANCH   1   8
ATOM      8  C   UNL     1      44.422  20.930  78.937  1.00  0.00     0.000 C 
BRANCH   8   9
ATOM      9  C   UNL     1      44.367  19.977  77.728  1.00  0.00     0.006 C 
BRANCH   9  10
ATOM     10  C   UNL     1      45.372  18.816  77.792  1.00  0.00     0.053 C 
BRANCH  10  11
ATOM     11  C   UNL     1      45.758  18.331  76.427  1.00  0.00     0.041 C 
ATOM     12  O   UNL     1      45.624  17.116  76.127  1.00  0.00    -0.550 OA
ATOM     13  O   UNL     1      46.233  19.228  75.479  1.00  0.00    -0.550 OA
ENDBRANCH  10  11
ENDBRANCH   9  10
ENDBRANCH   8   9
ENDBRANCH   1   8
TORSDOF 8
ENDMDL
MODEL 2
REMARK VINA RESULT:    -3.428      3.801      4.372
REMARK INTER + INTRA:          -5.302
REMARK INTER:                  -4.943
REMARK INTRA:                  -0.360
REMARK UNBOUND:                -0.271
REMARK SMILES O=C([O-])CCCCCCCC(=O)[O-]
REMARK SMILES IDX 7 1 6 2 5 3 4 4 2 5 1 6 3 7 8 8 9 9 10 10 11 11 12 12 13 13
REMARK H PARENT
REMARK Flexibility Score: inf
ROOT
ATOM      1  C   UNL     1      39.783  22.018  78.716  1.00  0.00     0.000 C 
ENDROOT
BRANCH   1   2
ATOM      2  C   UNL     1      40.445  20.638  78.635  1.00  0.00     0.000 C 
BRANCH   2   3
ATOM      3  C   UNL     1      39.712  19.622  79.520  1.00  0.00     0.006 C 
BRANCH   3   4
ATOM      4  C   UNL     1      38.622  20.303  80.351  1.00  0.00     0.053 C 
BRANCH   4   5
ATOM      5  C   UNL     1      37.625  19.297  80.832  1.00  0.00     0.041 C 
ATOM      6  O   UNL     1      37.079  19.434  81.958  1.00  0.00    -0.550 OA
ATOM      7  O   UNL     1      37.335  18.181  80.058  1.00  0.00    -0.550 OA
ENDBRANCH   4   5
ENDBRANCH   3   4
ENDBRANCH   2   3
ENDBRANCH   1   2
BRANCH   1   8
ATOM      8  C   UNL     1      40.098  22.854  77.466  1.00  0.00     0.000 C 
BRANCH   8   9
ATOM      9  C   UNL     1      40.794  22.035  76.362  1.00  0.00     0.006 C 
BRANCH   9  10
ATOM     10  C   UNL     1      40.245  22.286  74.948  1.00  0.00     0.053 C 
BRANCH  10  11
ATOM     11  C   UNL     1      40.601  21.179  74.003  1.00  0.00     0.041 C 
ATOM     12  O   UNL     1      41.619  21.277  73.269  1.00  0.00    -0.550 OA
ATOM     13  O   UNL     1      39.828  20.026  73.958  1.00  0.00    -0.550 OA
ENDBRANCH  10  11
ENDBRANCH   9  10
ENDBRANCH   8   9
ENDBRANCH   1   8
TORSDOF 8
ENDMDL
MODEL 3
REMARK VINA RESULT:    -3.411      1.130      6.851
REMARK INTER + INTRA:          -5.277
REMARK INTER:                  -4.907
REMARK INTRA:                  -0.369
REMARK UNBOUND:                -0.271
REMARK SMILES O=C([O-])CCCCCCCC(=O)[O-]
REMARK SMILES IDX 7 1 6 2 5 3 4 4 2 5 1 6 3 7 8 8 9 9 10 10 11 11 12 12 13 13
REMARK H PARENT
REMARK Flexibility Score: inf
ROOT
ATOM      1  C   UNL     1      41.995  21.351  78.154  1.00  0.00     0.000 C 
ENDROOT
BRANCH   1   2
ATOM      2  C   UNL     1      42.834  20.319  78.915  1.00  0.00     0.000 C 
BRANCH   2   3
ATOM      3  C   UNL     1      44.326  20.478  78.597  1.00  0.00     0.006 C 
BRANCH   3   4
ATOM      4  C   UNL     1      44.894  19.201  77.972  1.00  0.00     0.053 C 
BRANCH   4   5
ATOM      5  C   UNL     1      45.263  19.438  76.541  1.00  0.00     0.041 C 
ATOM      6  O   UNL     1      46.051  18.653  75.952  1.00  0.00    -0.550 OA
ATOM      7  O   UNL     1      44.775  20.554  75.873  1.00  0.00    -0.550 OA
ENDBRANCH   4   5
ENDBRANCH   3   4
ENDBRANCH   2   3
ENDBRANCH   1   2
BRANCH   1   8
ATOM      8  C   UNL     1      40.527  20.907  78.066  1.00  0.00     0.000 C 
BRANCH   8   9
ATOM      9  C   UNL     1      40.157  19.854  79.128  1.00  0.00     0.006 C 
BRANCH   9  10
ATOM     10  C   UNL     1      39.077  20.309  80.123  1.00  0.00     0.053 C 
BRANCH  10  11
ATOM     11  C   UNL     1      38.096  19.218  80.425  1.00  0.00     0.041 C 
ATOM     12  O   UNL     1      37.195  19.398  81.285  1.00  0.00    -0.550 OA
ATOM     13  O   UNL     1      38.158  18.015  79.734  1.00  0.00    -0.550 OA
ENDBRANCH  10  11
ENDBRANCH   9  10
ENDBRANCH   8   9
ENDBRANCH   1   8
TORSDOF 8
ENDMDL
MODEL 4
REMARK VINA RESULT:    -3.408      0.855      6.946
REMARK INTER + INTRA:          -5.273
REMARK INTER:                  -4.988
REMARK INTRA:                  -0.285
REMARK UNBOUND:                -0.271
REMARK SMILES O=C([O-])CCCCCCCC(=O)[O-]
REMARK SMILES IDX 7 1 6 2 5 3 4 4 2 5 1 6 3 7 8 8 9 9 10 10 11 11 12 12 13 13
REMARK H PARENT
REMARK Flexibility Score: inf
ROOT
ATOM      1  C   UNL     1      42.097  21.343  78.900  1.00  0.00     0.000 C 
ENDROOT
BRANCH   1   2
ATOM      2  C   UNL     1      43.261  21.006  77.961  1.00  0.00     0.000 C 
BRANCH   2   3
ATOM      3  C   UNL     1      43.956  19.708  78.387  1.00  0.00     0.006 C 
BRANCH   3   4
ATOM      4  C   UNL     1      45.408  19.677  77.902  1.00  0.00     0.053 C 
BRANCH   4   5
ATOM      5  C   UNL     1      45.557  18.723  76.759  1.00  0.00     0.041 C 
ATOM      6  O   UNL     1      45.375  17.490  76.935  1.00  0.00    -0.550 OA
ATOM      7  O   UNL     1      45.945  19.190  75.509  1.00  0.00    -0.550 OA
ENDBRANCH   4   5
ENDBRANCH   3   4
ENDBRANCH   2   3
ENDBRANCH   1   2
BRANCH   1   8
ATOM      8  C   UNL     1      41.532  20.072  79.551  1.00  0.00     0.000 C 
BRANCH   8   9
ATOM      9  C   UNL     1      40.062  19.810  79.172  1.00  0.00     0.006 C 
BRANCH   9  10
ATOM     10  C   UNL     1      39.039  20.373  80.172  1.00  0.00     0.053 C 
BRANCH  10  11
ATOM     11  C   UNL     1      38.042  19.340  80.599  1.00  0.00     0.041 C 
ATOM     12  O   UNL     1      37.888  18.292  79.919  1.00  0.00    -0.550 OA
ATOM     13  O   UNL     1      37.308  19.520  81.764  1.00  0.00    -0.550 OA
ENDBRANCH  10  11
ENDBRANCH   9  10
ENDBRANCH   8   9
ENDBRANCH   1   8
TORSDOF 8
ENDMDL
MODEL 5
REMARK VINA RESULT:    -3.342     17.178     17.954
REMARK INTER + INTRA:          -5.175
REMARK INTER:                  -4.809
REMARK INTRA:                  -0.367
REMARK UNBOUND:                -0.271
REMARK SMILES O=C([O-])CCCCCCCC(=O)[O-]
REMARK SMILES IDX 7 1 6 2 5 3 4 4 2 5 1 6 3 7 8 8 9 9 10 10 11 11 12 12 13 13
REMARK H PARENT
REMARK Flexibility Score: inf
ROOT
ATOM      1  C   UNL     1      48.366  31.548  89.098  1.00  0.00     0.000 C 
ENDROOT
BRANCH   1   2
ATOM      2  C   UNL     1      47.640  31.204  90.404  1.00  0.00     0.000 C 
BRANCH   2   3
ATOM      3  C   UNL     1      46.151  31.561  90.317  1.00  0.00     0.006 C 
BRANCH   3   4
ATOM      4  C   UNL     1      45.284  30.455  90.926  1.00  0.00     0.053 C 
BRANCH   4   5
ATOM      5  C   UNL     1      44.270  31.038  91.858  1.00  0.00     0.041 C 
ATOM      6  O   UNL     1      43.204  30.416  92.103  1.00  0.00    -0.550 OA
ATOM      7  O   UNL     1      44.480  32.291  92.419  1.00  0.00    -0.550 OA
ENDBRANCH   4   5
ENDBRANCH   3   4
ENDBRANCH   2   3
ENDBRANCH   1   2
BRANCH   1   8
ATOM      8  C   UNL     1      47.440  32.309  88.138  1.00  0.00     0.000 C 
BRANCH   8   9
ATOM      9  C   UNL     1      48.130  33.517  87.476  1.00  0.00     0.006 C 
BRANCH   9  10
ATOM     10  C   UNL     1      49.647  33.588  87.712  1.00  0.00     0.053 C 
BRANCH  10  11
ATOM     11  C   UNL     1      50.198  34.951  87.426  1.00  0.00     0.041 C 
ATOM     12  O   UNL     1      51.361  35.079  86.961  1.00  0.00    -0.550 OA
ATOM     13  O   UNL     1      49.414  36.078  87.641  1.00  0.00    -0.550 OA
ENDBRANCH  10  11
ENDBRANCH   9  10
ENDBRANCH   8   9
ENDBRANCH   1   8
TORSDOF 8
ENDMDL
MODEL 6
REMARK VINA RESULT:    -3.310     17.189     19.305
REMARK INTER + INTRA:          -5.129
REMARK INTER:                  -4.776
REMARK INTRA:                  -0.352
REMARK UNBOUND:                -0.271
REMARK SMILES O=C([O-])CCCCCCCC(=O)[O-]
REMARK SMILES IDX 7 1 6 2 5 3 4 4 2 5 1 6 3 7 8 8 9 9 10 10 11 11 12 12 13 13
REMARK H PARENT
REMARK Flexibility Score: inf
ROOT
ATOM      1  C   UNL     1      47.508  29.659  90.516  1.00  0.00     0.000 C 
ENDROOT
BRANCH   1   2
ATOM      2  C   UNL     1      49.011  29.364  90.582  1.00  0.00     0.000 C 
BRANCH   2   3
ATOM      3  C   UNL     1      49.832  30.655  90.479  1.00  0.00     0.006 C 
BRANCH   3   4
ATOM      4  C   UNL     1      51.060  30.600  91.392  1.00  0.00     0.053 C 
BRANCH   4   5
ATOM      5  C   UNL     1      51.384  31.963  91.916  1.00  0.00     0.041 C 
ATOM      6  O   UNL     1      52.308  32.639  91.394  1.00  0.00    -0.550 OA
ATOM      7  O   UNL     1      50.697  32.468  93.013  1.00  0.00    -0.550 OA
ENDBRANCH   4   5
ENDBRANCH   3   4
ENDBRANCH   2   3
ENDBRANCH   1   2
BRANCH   1   8
ATOM      8  C   UNL     1      47.245  31.172  90.529  1.00  0.00     0.000 C 
BRANCH   8   9
ATOM      9  C   UNL     1      45.749  31.516  90.660  1.00  0.00     0.006 C 
BRANCH   9  10
ATOM     10  C   UNL     1      44.902  30.416  91.322  1.00  0.00     0.053 C 
BRANCH  10  11
ATOM     11  C   UNL     1      43.862  30.984  92.239  1.00  0.00     0.041 C 
ATOM     12  O   UNL     1      42.792  30.354  92.448  1.00  0.00    -0.550 OA
ATOM     13  O   UNL     1      44.090  32.191  92.888  1.00  0.00    -0.550 OA
ENDBRANCH  10  11
ENDBRANCH   9  10
ENDBRANCH   8   9
ENDBRANCH   1   8
TORSDOF 8
ENDMDL
MODEL 7
REMARK VINA RESULT:    -3.282      1.934      6.896
REMARK INTER + INTRA:          -5.087
REMARK INTER:                  -4.724
REMARK INTRA:                  -0.363
REMARK UNBOUND:                -0.271
REMARK SMILES O=C([O-])CCCCCCCC(=O)[O-]
REMARK SMILES IDX 7 1 6 2 5 3 4 4 2 5 1 6 3 7 8 8 9 9 10 10 11 11 12 12 13 13
REMARK H PARENT
REMARK Flexibility Score: inf
ROOT
ATOM      1  C   UNL     1      44.218  19.615  78.207  1.00  0.00     0.000 C 
ENDROOT
BRANCH   1   2
ATOM      2  C   UNL     1      45.689  19.236  77.997  1.00  0.00     0.000 C 
BRANCH   2   3
ATOM      3  C   UNL     1      45.914  18.656  76.595  1.00  0.00     0.006 C 
BRANCH   3   4
ATOM      4  C   UNL     1      45.451  19.637  75.514  1.00  0.00     0.053 C 
BRANCH   4   5
ATOM      5  C   UNL     1      46.399  19.627  74.357  1.00  0.00     0.041 C 
ATOM      6  O   UNL     1      46.156  18.918  73.345  1.00  0.00    -0.550 OA
ATOM      7  O   UNL     1      47.577  20.361  74.416  1.00  0.00    -0.550 OA
ENDBRANCH   4   5
ENDBRANCH   3   4
ENDBRANCH   2   3
ENDBRANCH   1   2
BRANCH   1   8
ATOM      8  C   UNL     1      44.097  20.943  78.968  1.00  0.00     0.000 C 
BRANCH   8   9
ATOM      9  C   UNL     1      42.754  21.085  79.709  1.00  0.00     0.006 C 
BRANCH   9  10
ATOM     10  C   UNL     1      41.728  19.989  79.377  1.00  0.00     0.053 C 
BRANCH  10  11
ATOM     11  C   UNL     1      40.510  20.545  78.705  1.00  0.00     0.041 C 
ATOM     12  O   UNL     1      39.421  20.622  79.332  1.00  0.00    -0.550 OA
ATOM     13  O   UNL     1      40.587  21.008  77.397  1.00  0.00    -0.550 OA
ENDBRANCH  10  11
ENDBRANCH   9  10
ENDBRANCH   8   9
ENDBRANCH   1   8
TORSDOF 8
ENDMDL
MODEL 8
REMARK VINA RESULT:    -3.279     16.864     18.924
REMARK INTER + INTRA:          -5.082
REMARK INTER:                  -4.858
REMARK INTRA:                  -0.224
REMARK UNBOUND:                -0.271
REMARK SMILES O=C([O-])CCCCCCCC(=O)[O-]
REMARK SMILES IDX 7 1 6 2 5 3 4 4 2 5 1 6 3 7 8 8 9 9 10 10 11 11 12 12 13 13
REMARK H PARENT
REMARK Flexibility Score: inf
ROOT
ATOM      1  C   UNL     1      47.608  31.171  88.698  1.00  0.00     0.000 C 
ENDROOT
BRANCH   1   2
ATOM      2  C   UNL     1      47.473  32.576  88.099  1.00  0.00     0.000 C 
BRANCH   2   3
ATOM      3  C   UNL     1      48.845  33.150  87.725  1.00  0.00     0.006 C 
BRANCH   3   4
ATOM      4  C   UNL     1      48.699  34.476  86.973  1.00  0.00     0.053 C 
BRANCH   4   5
ATOM      5  C   UNL     1      50.044  35.065  86.685  1.00  0.00     0.041 C 
ATOM      6  O   UNL     1      50.623  34.819  85.596  1.00  0.00    -0.550 OA
ATOM      7  O   UNL     1      50.679  35.848  87.641  1.00  0.00    -0.550 OA
ENDBRANCH   4   5
ENDBRANCH   3   4
ENDBRANCH   2   3
ENDBRANCH   1   2
BRANCH   1   8
ATOM      8  C   UNL     1      47.445  31.207  90.225  1.00  0.00     0.000 C 
BRANCH   8   9
ATOM      9  C   UNL     1      46.044  31.674  90.664  1.00  0.00     0.006 C 
BRANCH   9  10
ATOM     10  C   UNL     1      45.127  30.544  91.161  1.00  0.00     0.053 C 
BRANCH  10  11
ATOM     11  C   UNL     1      44.004  31.063  92.005  1.00  0.00     0.041 C 
ATOM     12  O   UNL     1      42.949  30.389  92.138  1.00  0.00    -0.550 OA
ATOM     13  O   UNL     1      44.136  32.275  92.672  1.00  0.00    -0.550 OA
ENDBRANCH  10  11
ENDBRANCH   9  10
ENDBRANCH   8   9
ENDBRANCH   1   8
TORSDOF 8
ENDMDL
MODEL 9
REMARK VINA RESULT:    -3.195     17.259     18.380
REMARK INTER + INTRA:          -4.960
REMARK INTER:                  -4.739
REMARK INTRA:                  -0.222
REMARK UNBOUND:                -0.271
REMARK SMILES O=C([O-])CCCCCCCC(=O)[O-]
REMARK SMILES IDX 7 1 6 2 5 3 4 4 2 5 1 6 3 7 8 8 9 9 10 10 11 11 12 12 13 13
REMARK H PARENT
REMARK Flexibility Score: inf
ROOT
ATOM      1  C   UNL     1      47.849  30.476  90.551  1.00  0.00     0.000 C 
ENDROOT
BRANCH   1   2
ATOM      2  C   UNL     1      46.741  31.259  89.837  1.00  0.00     0.000 C 
BRANCH   2   3
ATOM      3  C   UNL     1      45.632  31.663  90.817  1.00  0.00     0.006 C 
BRANCH   3   4
ATOM      4  C   UNL     1      44.941  30.429  91.403  1.00  0.00     0.053 C 
BRANCH   4   5
ATOM      5  C   UNL     1      43.752  30.832  92.218  1.00  0.00     0.041 C 
ATOM      6  O   UNL     1      43.837  31.789  93.031  1.00  0.00    -0.550 OA
ATOM      7  O   UNL     1      42.564  30.120  92.115  1.00  0.00    -0.550 OA
ENDBRANCH   4   5
ENDBRANCH   3   4
ENDBRANCH   2   3
ENDBRANCH   1   2
BRANCH   1   8
ATOM      8  C   UNL     1      49.203  31.186  90.406  1.00  0.00     0.000 C 
BRANCH   8   9
ATOM      9  C   UNL     1      50.198  30.806  91.520  1.00  0.00     0.006 C 
BRANCH   9  10
ATOM     10  C   UNL     1      51.121  31.952  91.963  1.00  0.00     0.053 C 
BRANCH  10  11
ATOM     11  C   UNL     1      52.477  31.858  91.334  1.00  0.00     0.041 C 
ATOM     12  O   UNL     1      53.025  30.736  91.178  1.00  0.00    -0.550 OA
ATOM     13  O   UNL     1      53.119  33.007  90.889  1.00  0.00    -0.550 OA
ENDBRANCH  10  11
ENDBRANCH   9  10
ENDBRANCH   8   9
ENDBRANCH   1   8
TORSDOF 8
ENDMDL
