MODEL 1
REMARK VINA RESULT:    -4.140      0.000      0.000
REMARK INTER + INTRA:          -5.123
REMARK INTER:                  -4.866
REMARK INTRA:                  -0.257
REMARK UNBOUND:                -0.257
REMARK SMILES [NH3+][C@H](CO)C(=O)[O-]
REMARK SMILES IDX 3 1 2 2 1 3 5 7 6 8 7 9 4 10
REMARK H PARENT 1 4 1 5 1 6 4 11
REMARK Flexibility Score: inf
ROOT
ATOM      1  C   UNL     1      38.983  35.580  47.230  1.00  0.00     0.227 C 
ENDROOT
BRANCH   1   2
ATOM      2  C   UNL     1      38.834  35.159  48.703  1.00  0.00     0.253 C 
BRANCH   2   3
ATOM      3  N   UNL     1      38.324  36.267  49.521  1.00  0.00    -0.348 N 
ATOM      4  H   UNL     1      37.511  35.944  50.092  1.00  0.00     0.345 HD
ATOM      5  H   UNL     1      37.997  37.044  48.901  1.00  0.00     0.345 HD
ATOM      6  H   UNL     1      39.069  36.630  50.160  1.00  0.00     0.345 HD
ENDBRANCH   2   3
BRANCH   2   7
ATOM      7  C   UNL     1      37.924  33.965  48.810  1.00  0.00     0.102 C 
ATOM      8  O   UNL     1      36.676  34.117  48.887  1.00  0.00    -0.544 OA
ATOM      9  O   UNL     1      38.458  32.683  48.807  1.00  0.00    -0.544 OA
ENDBRANCH   2   7
ENDBRANCH   1   2
BRANCH   1  10
ATOM     10  O   UNL     1      37.838  35.240  46.496  1.00  0.00    -0.390 OA
ATOM     11  H   UNL     1      37.287  36.064  46.433  1.00  0.00     0.210 HD
ENDBRANCH   1  10
TORSDOF 4
ENDMDL
MODEL 2
REMARK VINA RESULT:    -3.955      1.968      2.464
REMARK INTER + INTRA:          -4.905
REMARK INTER:                  -4.688
REMARK INTRA:                  -0.217
REMARK UNBOUND:                -0.257
REMARK SMILES [NH3+][C@H](CO)C(=O)[O-]
REMARK SMILES IDX 3 1 2 2 1 3 5 7 6 8 7 9 4 10
REMARK H PARENT 1 4 1 5 1 6 4 11
REMARK Flexibility Score: inf
ROOT
ATOM      1  C   UNL     1      37.318  35.429  50.082  1.00  0.00     0.227 C 
ENDROOT
BRANCH   1   2
ATOM      2  C   UNL     1      37.020  34.313  49.064  1.00  0.00     0.253 C 
BRANCH   2   3
ATOM      3  N   UNL     1      36.127  34.793  48.000  1.00  0.00    -0.348 N 
ATOM      4  H   UNL     1      35.522  34.010  47.664  1.00  0.00     0.345 HD
ATOM      5  H   UNL     1      36.694  35.136  47.190  1.00  0.00     0.345 HD
ATOM      6  H   UNL     1      35.520  35.570  48.348  1.00  0.00     0.345 HD
ENDBRANCH   2   3
BRANCH   2   7
ATOM      7  C   UNL     1      38.304  33.792  48.477  1.00  0.00     0.102 C 
ATOM      8  O   UNL     1      38.945  34.472  47.633  1.00  0.00    -0.544 OA
ATOM      9  O   UNL     1      38.799  32.557  48.879  1.00  0.00    -0.544 OA
ENDBRANCH   2   7
ENDBRANCH   1   2
BRANCH   1  10
ATOM     10  O   UNL     1      38.275  36.320  49.577  1.00  0.00    -0.390 OA
ATOM     11  H   UNL     1      39.165  35.927  49.780  1.00  0.00     0.210 HD
ENDBRANCH   1  10
TORSDOF 4
ENDMDL
MODEL 3
REMARK VINA RESULT:    -3.703      1.959      2.198
REMARK INTER + INTRA:          -4.609
REMARK INTER:                  -4.586
REMARK INTRA:                  -0.023
REMARK UNBOUND:                -0.257
REMARK SMILES [NH3+][C@H](CO)C(=O)[O-]
REMARK SMILES IDX 3 1 2 2 1 3 5 7 6 8 7 9 4 10
REMARK H PARENT 1 4 1 5 1 6 4 11
REMARK Flexibility Score: inf
ROOT
ATOM      1  C   UNL     1      38.876  35.111  47.535  1.00  0.00     0.227 C 
ENDROOT
BRANCH   1   2
ATOM      2  C   UNL     1      37.916  34.291  48.416  1.00  0.00     0.253 C 
BRANCH   2   3
ATOM      3  N   UNL     1      38.524  33.017  48.819  1.00  0.00    -0.348 N 
ATOM      4  H   UNL     1      38.015  32.623  49.642  1.00  0.00     0.345 HD
ATOM      5  H   UNL     1      39.521  33.173  49.098  1.00  0.00     0.345 HD
ATOM      6  H   UNL     1      38.493  32.326  48.034  1.00  0.00     0.345 HD
ENDBRANCH   2   3
BRANCH   2   7
ATOM      7  C   UNL     1      37.517  35.089  49.628  1.00  0.00     0.102 C 
ATOM      8  O   UNL     1      38.200  36.083  49.993  1.00  0.00    -0.544 OA
ATOM      9  O   UNL     1      36.379  34.742  50.344  1.00  0.00    -0.544 OA
ENDBRANCH   2   7
ENDBRANCH   1   2
BRANCH   1  10
ATOM     10  O   UNL     1      38.309  35.357  46.276  1.00  0.00    -0.390 OA
ATOM     11  H   UNL     1      37.754  36.176  46.370  1.00  0.00     0.210 HD
ENDBRANCH   1  10
TORSDOF 4
ENDMDL
MODEL 4
REMARK VINA RESULT:    -3.539      1.962      2.756
REMARK INTER + INTRA:          -4.417
REMARK INTER:                  -4.194
REMARK INTRA:                  -0.223
REMARK UNBOUND:                -0.257
REMARK SMILES [NH3+][C@H](CO)C(=O)[O-]
REMARK SMILES IDX 3 1 2 2 1 3 5 7 6 8 7 9 4 10
REMARK H PARENT 1 4 1 5 1 6 4 11
REMARK Flexibility Score: inf
ROOT
ATOM      1  C   UNL     1      36.633  34.299  48.930  1.00  0.00     0.227 C 
ENDROOT
BRANCH   1   2
ATOM      2  C   UNL     1      38.169  34.185  48.915  1.00  0.00     0.253 C 
BRANCH   2   3
ATOM      3  N   UNL     1      38.595  32.800  48.678  1.00  0.00    -0.348 N 
ATOM      4  H   UNL     1      39.634  32.727  48.765  1.00  0.00     0.345 HD
ATOM      5  H   UNL     1      38.329  32.508  47.709  1.00  0.00     0.345 HD
ATOM      6  H   UNL     1      38.147  32.151  49.366  1.00  0.00     0.345 HD
ENDBRANCH   2   3
BRANCH   2   7
ATOM      7  C   UNL     1      38.744  35.099  47.867  1.00  0.00     0.102 C 
ATOM      8  O   UNL     1      39.376  36.137  48.199  1.00  0.00    -0.544 OA
ATOM      9  O   UNL     1      38.596  34.791  46.520  1.00  0.00    -0.544 OA
ENDBRANCH   2   7
ENDBRANCH   1   2
BRANCH   1  10
ATOM     10  O   UNL     1      36.165  34.871  47.739  1.00  0.00    -0.390 OA
ATOM     11  H   UNL     1      36.700  34.471  47.003  1.00  0.00     0.210 HD
ENDBRANCH   1  10
TORSDOF 4
ENDMDL
MODEL 5
REMARK VINA RESULT:    -3.040      1.596      2.304
REMARK INTER + INTRA:          -3.830
REMARK INTER:                  -3.668
REMARK INTRA:                  -0.162
REMARK UNBOUND:                -0.257
REMARK SMILES [NH3+][C@H](CO)C(=O)[O-]
REMARK SMILES IDX 3 1 2 2 1 3 5 7 6 8 7 9 4 10
REMARK H PARENT 1 4 1 5 1 6 4 11
REMARK Flexibility Score: inf
ROOT
ATOM      1  C   UNL     1      38.648  33.601  48.129  1.00  0.00     0.227 C 
ENDROOT
BRANCH   1   2
ATOM      2  C   UNL     1      38.519  34.858  49.010  1.00  0.00     0.253 C 
BRANCH   2   3
ATOM      3  N   UNL     1      38.883  36.068  48.262  1.00  0.00    -0.348 N 
ATOM      4  H   UNL     1      39.867  35.991  47.918  1.00  0.00     0.345 HD
ATOM      5  H   UNL     1      38.824  36.903  48.890  1.00  0.00     0.345 HD
ATOM      6  H   UNL     1      38.244  36.207  47.446  1.00  0.00     0.345 HD
ENDBRANCH   2   3
BRANCH   2   7
ATOM      7  C   UNL     1      37.116  34.972  49.544  1.00  0.00     0.102 C 
ATOM      8  O   UNL     1      36.863  35.729  50.519  1.00  0.00    -0.544 OA
ATOM      9  O   UNL     1      36.086  34.253  48.951  1.00  0.00    -0.544 OA
ENDBRANCH   2   7
ENDBRANCH   1   2
BRANCH   1  10
ATOM     10  O   UNL     1      38.749  32.448  48.919  1.00  0.00    -0.390 OA
ATOM     11  H   UNL     1      38.413  31.694  48.366  1.00  0.00     0.210 HD
ENDBRANCH   1  10
TORSDOF 4
ENDMDL
MODEL 6
REMARK VINA RESULT:    -2.870      1.133      2.752
REMARK INTER + INTRA:          -3.630
REMARK INTER:                  -3.374
REMARK INTRA:                  -0.256
REMARK UNBOUND:                -0.257
REMARK SMILES [NH3+][C@H](CO)C(=O)[O-]
REMARK SMILES IDX 3 1 2 2 1 3 5 7 6 8 7 9 4 10
REMARK H PARENT 1 4 1 5 1 6 4 11
REMARK Flexibility Score: inf
ROOT
ATOM      1  C   UNL     1      37.498  33.728  48.934  1.00  0.00     0.227 C 
ENDROOT
BRANCH   1   2
ATOM      2  C   UNL     1      37.718  35.204  48.556  1.00  0.00     0.253 C 
BRANCH   2   3
ATOM      3  N   UNL     1      38.076  36.004  49.735  1.00  0.00    -0.348 N 
ATOM      4  H   UNL     1      37.519  36.888  49.748  1.00  0.00     0.345 HD
ATOM      5  H   UNL     1      39.090  36.259  49.695  1.00  0.00     0.345 HD
ATOM      6  H   UNL     1      37.891  35.470  50.616  1.00  0.00     0.345 HD
ENDBRANCH   2   3
BRANCH   2   7
ATOM      7  C   UNL     1      38.787  35.314  47.502  1.00  0.00     0.102 C 
ATOM      8  O   UNL     1      40.002  35.377  47.827  1.00  0.00    -0.544 OA
ATOM      9  O   UNL     1      38.437  35.331  46.158  1.00  0.00    -0.544 OA
ENDBRANCH   2   7
ENDBRANCH   1   2
BRANCH   1  10
ATOM     10  O   UNL     1      38.679  32.990  48.767  1.00  0.00    -0.390 OA
ATOM     11  H   UNL     1      39.270  33.530  48.179  1.00  0.00     0.210 HD
ENDBRANCH   1  10
TORSDOF 4
ENDMDL
MODEL 7
REMARK VINA RESULT:    -2.146     16.153     16.921
REMARK INTER + INTRA:          -2.779
REMARK INTER:                  -2.527
REMARK INTRA:                  -0.252
REMARK UNBOUND:                -0.257
REMARK SMILES [NH3+][C@H](CO)C(=O)[O-]
REMARK SMILES IDX 3 1 2 2 1 3 5 7 6 8 7 9 4 10
REMARK H PARENT 1 4 1 5 1 6 4 11
REMARK Flexibility Score: inf
ROOT
ATOM      1  C   UNL     1      41.049  36.378  30.884  1.00  0.00     0.227 C 
ENDROOT
BRANCH   1   2
ATOM      2  C   UNL     1      41.217  34.854  31.022  1.00  0.00     0.253 C 
BRANCH   2   3
ATOM      3  N   UNL     1      42.624  34.461  30.876  1.00  0.00    -0.348 N 
ATOM      4  H   UNL     1      43.225  35.050  31.496  1.00  0.00     0.345 HD
ATOM      5  H   UNL     1      42.933  34.612  29.887  1.00  0.00     0.345 HD
ATOM      6  H   UNL     1      42.756  33.454  31.127  1.00  0.00     0.345 HD
ENDBRANCH   2   3
BRANCH   2   7
ATOM      7  C   UNL     1      40.678  34.393  32.349  1.00  0.00     0.102 C 
ATOM      8  O   UNL     1      39.997  33.336  32.431  1.00  0.00    -0.544 OA
ATOM      9  O   UNL     1      40.944  35.125  33.499  1.00  0.00    -0.544 OA
ENDBRANCH   2   7
ENDBRANCH   1   2
BRANCH   1  10
ATOM     10  O   UNL     1      39.776  36.780  31.313  1.00  0.00    -0.390 OA
ATOM     11  H   UNL     1      39.556  37.609  30.812  1.00  0.00     0.210 HD
ENDBRANCH   1  10
TORSDOF 4
ENDMDL
MODEL 8
REMARK VINA RESULT:    -1.805     16.155     16.990
REMARK INTER + INTRA:          -2.378
REMARK INTER:                  -2.371
REMARK INTRA:                  -0.007
REMARK UNBOUND:                -0.257
REMARK SMILES [NH3+][C@H](CO)C(=O)[O-]
REMARK SMILES IDX 3 1 2 2 1 3 5 7 6 8 7 9 4 10
REMARK H PARENT 1 4 1 5 1 6 4 11
REMARK Flexibility Score: inf
ROOT
ATOM      1  C   UNL     1      40.952  37.675  31.030  1.00  0.00     0.227 C 
ENDROOT
BRANCH   1   2
ATOM      2  C   UNL     1      40.007  36.687  31.738  1.00  0.00     0.253 C 
BRANCH   2   3
ATOM      3  N   UNL     1      38.875  36.327  30.875  1.00  0.00    -0.348 N 
ATOM      4  H   UNL     1      38.697  37.090  30.184  1.00  0.00     0.345 HD
ATOM      5  H   UNL     1      38.012  36.207  31.456  1.00  0.00     0.345 HD
ATOM      6  H   UNL     1      39.069  35.436  30.361  1.00  0.00     0.345 HD
ENDBRANCH   2   3
BRANCH   2   7
ATOM      7  C   UNL     1      40.765  35.455  32.154  1.00  0.00     0.102 C 
ATOM      8  O   UNL     1      41.188  34.642  31.290  1.00  0.00    -0.544 OA
ATOM      9  O   UNL     1      41.015  35.215  33.499  1.00  0.00    -0.544 OA
ENDBRANCH   2   7
ENDBRANCH   1   2
BRANCH   1  10
ATOM     10  O   UNL     1      40.839  38.957  31.584  1.00  0.00    -0.390 OA
ATOM     11  H   UNL     1      41.233  39.588  30.925  1.00  0.00     0.210 HD
ENDBRANCH   1  10
TORSDOF 4
ENDMDL
