MODEL 1
REMARK VINA RESULT:    -4.462      0.000      0.000
REMARK INTER + INTRA:          -6.366
REMARK INTER:                  -6.028
REMARK INTRA:                  -0.338
REMARK UNBOUND:                -0.338
REMARK SMILES CCCCCCCC(=O)[O-]
REMARK SMILES IDX 5 1 6 2 7 3 8 4 9 5 10 6 4 7 3 8 2 9 1 10
REMARK H PARENT
REMARK Flexibility Score: inf
ROOT
ATOM      1  C   UNL     1       1.801  22.327 -19.251  1.00  0.00     0.000 C 
ENDROOT
BRANCH   1   2
ATOM      2  C   UNL     1       1.779  22.909 -17.828  1.00  0.00     0.006 C 
BRANCH   2   3
ATOM      3  C   UNL     1       1.916  21.829 -16.747  1.00  0.00     0.053 C 
BRANCH   3   4
ATOM      4  C   UNL     1       3.121  22.090 -15.899  1.00  0.00     0.041 C 
ATOM      5  O   UNL     1       4.266  22.133 -16.421  1.00  0.00    -0.550 OA
ATOM      6  O   UNL     1       2.986  22.235 -14.524  1.00  0.00    -0.550 OA
ENDBRANCH   3   4
ENDBRANCH   2   3
ENDBRANCH   1   2
BRANCH   1   7
ATOM      7  C   UNL     1       0.996  21.025 -19.370  1.00  0.00     0.000 C 
BRANCH   7   8
ATOM      8  C   UNL     1       1.835  19.919 -20.022  1.00  0.00    -0.000 C 
BRANCH   8   9
ATOM      9  C   UNL     1       3.035  20.508 -20.773  1.00  0.00    -0.003 C 
ATOM     10  C   UNL     1       4.016  19.415 -21.189  1.00  0.00     0.004 C 
ENDBRANCH   8   9
ENDBRANCH   7   8
ENDBRANCH   1   7
TORSDOF 6
ENDMDL
MODEL 2
REMARK VINA RESULT:    -4.268      2.823      4.573
REMARK INTER + INTRA:          -6.103
REMARK INTER:                  -5.731
REMARK INTRA:                  -0.372
REMARK UNBOUND:                -0.338
REMARK SMILES CCCCCCCC(=O)[O-]
REMARK SMILES IDX 5 1 6 2 7 3 8 4 9 5 10 6 4 7 3 8 2 9 1 10
REMARK H PARENT
REMARK Flexibility Score: inf
ROOT
ATOM      1  C   UNL     1       0.821  21.139 -19.490  1.00  0.00     0.000 C 
ENDROOT
BRANCH   1   2
ATOM      2  C   UNL     1       1.761  19.936 -19.302  1.00  0.00     0.006 C 
BRANCH   2   3
ATOM      3  C   UNL     1       2.251  19.357 -20.635  1.00  0.00     0.053 C 
BRANCH   3   4
ATOM      4  C   UNL     1       3.560  19.971 -21.021  1.00  0.00     0.041 C 
ATOM      5  O   UNL     1       3.611  21.173 -21.392  1.00  0.00    -0.550 OA
ATOM      6  O   UNL     1       4.717  19.202 -21.019  1.00  0.00    -0.550 OA
ENDBRANCH   3   4
ENDBRANCH   2   3
ENDBRANCH   1   2
BRANCH   1   7
ATOM      7  C   UNL     1       0.899  22.137 -18.324  1.00  0.00     0.000 C 
BRANCH   7   8
ATOM      8  C   UNL     1       2.020  23.158 -18.551  1.00  0.00    -0.000 C 
BRANCH   8   9
ATOM      9  C   UNL     1       3.207  22.891 -17.616  1.00  0.00    -0.003 C 
ATOM     10  C   UNL     1       2.762  22.145 -16.361  1.00  0.00     0.004 C 
ENDBRANCH   8   9
ENDBRANCH   7   8
ENDBRANCH   1   7
TORSDOF 6
ENDMDL
MODEL 3
REMARK VINA RESULT:    -4.188     12.919     14.567
REMARK INTER + INTRA:          -5.995
REMARK INTER:                  -5.447
REMARK INTRA:                  -0.548
REMARK UNBOUND:                -0.338
REMARK SMILES CCCCCCCC(=O)[O-]
REMARK SMILES IDX 5 1 6 2 7 3 8 4 9 5 10 6 4 7 3 8 2 9 1 10
REMARK H PARENT
REMARK Flexibility Score: inf
ROOT
ATOM      1  C   UNL     1      -4.767  31.744 -16.944  1.00  0.00     0.000 C 
ENDROOT
BRANCH   1   2
ATOM      2  C   UNL     1      -4.392  31.468 -18.409  1.00  0.00     0.006 C 
BRANCH   2   3
ATOM      3  C   UNL     1      -4.486  32.720 -19.288  1.00  0.00     0.053 C 
BRANCH   3   4
ATOM      4  C   UNL     1      -3.800  33.874 -18.628  1.00  0.00     0.041 C 
ATOM      5  O   UNL     1      -4.471  34.855 -18.210  1.00  0.00    -0.550 OA
ATOM      6  O   UNL     1      -2.415  33.891 -18.518  1.00  0.00    -0.550 OA
ENDBRANCH   3   4
ENDBRANCH   2   3
ENDBRANCH   1   2
BRANCH   1   7
ATOM      7  C   UNL     1      -6.281  31.665 -16.696  1.00  0.00     0.000 C 
BRANCH   7   8
ATOM      8  C   UNL     1      -6.800  32.957 -16.054  1.00  0.00    -0.000 C 
BRANCH   8   9
ATOM      9  C   UNL     1      -8.108  33.414 -16.713  1.00  0.00    -0.003 C 
ATOM     10  C   UNL     1      -7.972  33.460 -18.232  1.00  0.00     0.004 C 
ENDBRANCH   8   9
ENDBRANCH   7   8
ENDBRANCH   1   7
TORSDOF 6
ENDMDL
MODEL 4
REMARK VINA RESULT:    -4.109      9.170     10.182
REMARK INTER + INTRA:          -5.889
REMARK INTER:                  -5.518
REMARK INTRA:                  -0.371
REMARK UNBOUND:                -0.338
REMARK SMILES CCCCCCCC(=O)[O-]
REMARK SMILES IDX 5 1 6 2 7 3 8 4 9 5 10 6 4 7 3 8 2 9 1 10
REMARK H PARENT
REMARK Flexibility Score: inf
ROOT
ATOM      1  C   UNL     1       8.026  25.412 -12.931  1.00  0.00     0.000 C 
ENDROOT
BRANCH   1   2
ATOM      2  C   UNL     1       7.025  26.579 -12.916  1.00  0.00     0.006 C 
BRANCH   2   3
ATOM      3  C   UNL     1       7.712  27.943 -12.773  1.00  0.00     0.053 C 
BRANCH   3   4
ATOM      4  C   UNL     1       7.812  28.620 -14.103  1.00  0.00     0.041 C 
ATOM      5  O   UNL     1       8.899  28.611 -14.738  1.00  0.00    -0.550 OA
ATOM      6  O   UNL     1       6.719  29.304 -14.621  1.00  0.00    -0.550 OA
ENDBRANCH   3   4
ENDBRANCH   2   3
ENDBRANCH   1   2
BRANCH   1   7
ATOM      7  C   UNL     1       9.253  25.675 -12.045  1.00  0.00     0.000 C 
BRANCH   7   8
ATOM      8  C   UNL     1       9.274  24.725 -10.841  1.00  0.00    -0.000 C 
BRANCH   8   9
ATOM      9  C   UNL     1       8.248  23.597 -11.011  1.00  0.00    -0.003 C 
ATOM     10  C   UNL     1       7.774  23.075  -9.659  1.00  0.00     0.004 C 
ENDBRANCH   8   9
ENDBRANCH   7   8
ENDBRANCH   1   7
TORSDOF 6
ENDMDL
MODEL 5
REMARK VINA RESULT:    -4.070      9.277     10.280
REMARK INTER + INTRA:          -5.836
REMARK INTER:                  -5.495
REMARK INTRA:                  -0.341
REMARK UNBOUND:                -0.338
REMARK SMILES CCCCCCCC(=O)[O-]
REMARK SMILES IDX 5 1 6 2 7 3 8 4 9 5 10 6 4 7 3 8 2 9 1 10
REMARK H PARENT
REMARK Flexibility Score: inf
ROOT
ATOM      1  C   UNL     1       9.102  25.350 -13.303  1.00  0.00     0.000 C 
ENDROOT
BRANCH   1   2
ATOM      2  C   UNL     1       9.106  24.076 -12.443  1.00  0.00     0.006 C 
BRANCH   2   3
ATOM      3  C   UNL     1       8.971  24.375 -10.944  1.00  0.00     0.053 C 
BRANCH   3   4
ATOM      4  C   UNL     1       7.727  23.750 -10.398  1.00  0.00     0.041 C 
ATOM      5  O   UNL     1       6.610  23.996 -10.926  1.00  0.00    -0.550 OA
ATOM      6  O   UNL     1       7.792  22.936  -9.274  1.00  0.00    -0.550 OA
ENDBRANCH   3   4
ENDBRANCH   2   3
ENDBRANCH   1   2
BRANCH   1   7
ATOM      7  C   UNL     1       8.943  26.629 -12.465  1.00  0.00     0.000 C 
BRANCH   7   8
ATOM      8  C   UNL     1       7.653  27.370 -12.836  1.00  0.00    -0.000 C 
BRANCH   8   9
ATOM      9  C   UNL     1       7.827  28.887 -12.685  1.00  0.00    -0.003 C 
ATOM     10  C   UNL     1       9.303  29.268 -12.614  1.00  0.00     0.004 C 
ENDBRANCH   8   9
ENDBRANCH   7   8
ENDBRANCH   1   7
TORSDOF 6
ENDMDL
MODEL 6
REMARK VINA RESULT:    -4.042      2.658      4.990
REMARK INTER + INTRA:          -5.798
REMARK INTER:                  -5.553
REMARK INTRA:                  -0.245
REMARK UNBOUND:                -0.338
REMARK SMILES CCCCCCCC(=O)[O-]
REMARK SMILES IDX 5 1 6 2 7 3 8 4 9 5 10 6 4 7 3 8 2 9 1 10
REMARK H PARENT
REMARK Flexibility Score: inf
ROOT
ATOM      1  C   UNL     1       2.456  23.201 -17.969  1.00  0.00     0.000 C 
ENDROOT
BRANCH   1   2
ATOM      2  C   UNL     1       1.700  22.702 -19.211  1.00  0.00     0.006 C 
BRANCH   2   3
ATOM      3  C   UNL     1       1.500  21.181 -19.208  1.00  0.00     0.053 C 
BRANCH   3   4
ATOM      4  C   UNL     1       2.383  20.537 -20.229  1.00  0.00     0.041 C 
ATOM      5  O   UNL     1       3.226  21.225 -20.862  1.00  0.00    -0.550 OA
ATOM      6  O   UNL     1       2.242  19.185 -20.518  1.00  0.00    -0.550 OA
ENDBRANCH   3   4
ENDBRANCH   2   3
ENDBRANCH   1   2
BRANCH   1   7
ATOM      7  C   UNL     1       2.043  22.461 -16.688  1.00  0.00     0.000 C 
BRANCH   7   8
ATOM      8  C   UNL     1       3.269  22.112 -15.836  1.00  0.00    -0.000 C 
BRANCH   8   9
ATOM      9  C   UNL     1       2.851  21.595 -14.454  1.00  0.00    -0.003 C 
ATOM     10  C   UNL     1       2.784  22.730 -13.437  1.00  0.00     0.004 C 
ENDBRANCH   8   9
ENDBRANCH   7   8
ENDBRANCH   1   7
TORSDOF 6
ENDMDL
MODEL 7
REMARK VINA RESULT:    -4.026      1.490      2.213
REMARK INTER + INTRA:          -5.777
REMARK INTER:                  -5.388
REMARK INTRA:                  -0.389
REMARK UNBOUND:                -0.338
REMARK SMILES CCCCCCCC(=O)[O-]
REMARK SMILES IDX 5 1 6 2 7 3 8 4 9 5 10 6 4 7 3 8 2 9 1 10
REMARK H PARENT
REMARK Flexibility Score: inf
ROOT
ATOM      1  C   UNL     1       2.851  22.848 -17.542  1.00  0.00     0.000 C 
ENDROOT
BRANCH   1   2
ATOM      2  C   UNL     1       3.527  22.180 -16.334  1.00  0.00     0.006 C 
BRANCH   2   3
ATOM      3  C   UNL     1       2.550  21.345 -15.497  1.00  0.00     0.053 C 
BRANCH   3   4
ATOM      4  C   UNL     1       2.672  21.696 -14.048  1.00  0.00     0.041 C 
ATOM      5  O   UNL     1       2.962  22.872 -13.703  1.00  0.00    -0.550 OA
ATOM      6  O   UNL     1       2.516  20.713 -13.078  1.00  0.00    -0.550 OA
ENDBRANCH   3   4
ENDBRANCH   2   3
ENDBRANCH   1   2
BRANCH   1   7
ATOM      7  C   UNL     1       1.354  22.516 -17.639  1.00  0.00     0.000 C 
BRANCH   7   8
ATOM      8  C   UNL     1       1.027  21.843 -18.978  1.00  0.00    -0.000 C 
BRANCH   8   9
ATOM      9  C   UNL     1       2.280  21.210 -19.596  1.00  0.00    -0.003 C 
ATOM     10  C   UNL     1       1.983  19.816 -20.140  1.00  0.00     0.004 C 
ENDBRANCH   8   9
ENDBRANCH   7   8
ENDBRANCH   1   7
TORSDOF 6
ENDMDL
MODEL 8
REMARK VINA RESULT:    -3.936      9.153     10.590
REMARK INTER + INTRA:          -5.655
REMARK INTER:                  -5.396
REMARK INTRA:                  -0.259
REMARK UNBOUND:                -0.338
REMARK SMILES CCCCCCCC(=O)[O-]
REMARK SMILES IDX 5 1 6 2 7 3 8 4 9 5 10 6 4 7 3 8 2 9 1 10
REMARK H PARENT
REMARK Flexibility Score: inf
ROOT
ATOM      1  C   UNL     1       7.275  26.507 -12.751  1.00  0.00     0.000 C 
ENDROOT
BRANCH   1   2
ATOM      2  C   UNL     1       8.602  25.791 -12.454  1.00  0.00     0.006 C 
BRANCH   2   3
ATOM      3  C   UNL     1       8.430  24.277 -12.280  1.00  0.00     0.053 C 
BRANCH   3   4
ATOM      4  C   UNL     1       8.551  23.900 -10.838  1.00  0.00     0.041 C 
ATOM      5  O   UNL     1       9.226  24.615 -10.051  1.00  0.00    -0.550 OA
ATOM      6  O   UNL     1       7.961  22.732 -10.371  1.00  0.00    -0.550 OA
ENDBRANCH   3   4
ENDBRANCH   2   3
ENDBRANCH   1   2
BRANCH   1   7
ATOM      7  C   UNL     1       7.471  27.985 -13.121  1.00  0.00     0.000 C 
BRANCH   7   8
ATOM      8  C   UNL     1       8.838  28.493 -12.647  1.00  0.00    -0.000 C 
BRANCH   8   9
ATOM      9  C   UNL     1       8.924  30.021 -12.750  1.00  0.00    -0.003 C 
ATOM     10  C   UNL     1       7.542  30.659 -12.646  1.00  0.00     0.004 C 
ENDBRANCH   8   9
ENDBRANCH   7   8
ENDBRANCH   1   7
TORSDOF 6
ENDMDL
MODEL 9
REMARK VINA RESULT:    -3.859     10.266     11.964
REMARK INTER + INTRA:          -5.551
REMARK INTER:                  -4.954
REMARK INTRA:                  -0.597
REMARK UNBOUND:                -0.338
REMARK SMILES CCCCCCCC(=O)[O-]
REMARK SMILES IDX 5 1 6 2 7 3 8 4 9 5 10 6 4 7 3 8 2 9 1 10
REMARK H PARENT
REMARK Flexibility Score: inf
ROOT
ATOM      1  C   UNL     1       0.617  21.079  -6.972  1.00  0.00     0.000 C 
ENDROOT
BRANCH   1   2
ATOM      2  C   UNL     1       1.800  21.684  -7.746  1.00  0.00     0.006 C 
BRANCH   2   3
ATOM      3  C   UNL     1       3.072  20.835  -7.636  1.00  0.00     0.053 C 
BRANCH   3   4
ATOM      4  C   UNL     1       2.876  19.512  -8.306  1.00  0.00     0.041 C 
ATOM      5  O   UNL     1       3.191  18.448  -7.710  1.00  0.00    -0.550 OA
ATOM      6  O   UNL     1       2.394  19.455  -9.608  1.00  0.00    -0.550 OA
ENDBRANCH   3   4
ENDBRANCH   2   3
ENDBRANCH   1   2
BRANCH   1   7
ATOM      7  C   UNL     1       0.881  20.994  -5.461  1.00  0.00     0.000 C 
BRANCH   7   8
ATOM      8  C   UNL     1       0.619  19.576  -4.938  1.00  0.00    -0.000 C 
BRANCH   8   9
ATOM      9  C   UNL     1      -0.091  18.721  -5.995  1.00  0.00    -0.003 C 
ATOM     10  C   UNL     1       0.445  17.293  -6.000  1.00  0.00     0.004 C 
ENDBRANCH   8   9
ENDBRANCH   7   8
ENDBRANCH   1   7
TORSDOF 6
ENDMDL
