MODEL 1
REMARK VINA RESULT:    -6.622      0.000      0.000
REMARK INTER + INTRA:          -8.489
REMARK INTER:                  -8.170
REMARK INTRA:                  -0.318
REMARK UNBOUND:                -0.318
REMARK SMILES Oc1cc(O)c2cc(O)c(-c3cc(O)c(O)c(O)c3)[o+]c2c1
REMARK SMILES IDX 10 1 20 2 21 3 22 4 2 5 3 6 4 7 6 8 7 9 8 10 11 11 12 12
REMARK SMILES IDX 13 13 19 14 15 15 17 16 14 17 16 19 18 21 9 23 1 25 5 27
REMARK H PARENT 14 18 16 20 18 22 9 24 1 26 5 28
REMARK Flexibility Score: inf
ROOT
ATOM      1  C   UNL     1      -0.964  53.264  17.237  1.00  0.00     0.402 A 
ATOM      2  O   UNL     1      -1.237  52.877  18.480  1.00  0.00    -0.202 OA
ATOM      3  C   UNL     1      -0.353  52.268  19.266  1.00  0.00     0.368 A 
ATOM      4  C   UNL     1      -0.733  51.903  20.559  1.00  0.00     0.162 A 
ATOM      5  C   UNL     1       0.177  51.264  21.407  1.00  0.00     0.128 A 
ATOM      6  C   UNL     1       1.471  50.991  20.959  1.00  0.00     0.093 A 
ATOM      7  C   UNL     1       1.876  51.348  19.667  1.00  0.00     0.136 A 
ATOM      8  C   UNL     1       0.956  51.994  18.801  1.00  0.00     0.125 A 
ATOM      9  C   UNL     1       1.269  52.376  17.486  1.00  0.00     0.078 A 
ATOM     10  C   UNL     1       0.307  53.005  16.690  1.00  0.00     0.223 A 
ENDROOT
BRANCH   1  11
ATOM     11  C   UNL     1      -2.030  53.942  16.465  1.00  0.00     0.091 A 
ATOM     12  C   UNL     1      -3.157  53.214  16.058  1.00  0.00     0.068 A 
ATOM     13  C   UNL     1      -4.194  53.827  15.344  1.00  0.00     0.162 A 
ATOM     14  C   UNL     1      -1.965  55.315  16.179  1.00  0.00     0.068 A 
ATOM     15  C   UNL     1      -4.110  55.207  15.040  1.00  0.00     0.200 A 
ATOM     16  C   UNL     1      -2.996  55.942  15.467  1.00  0.00     0.162 A 
BRANCH  13  17
ATOM     17  O   UNL     1      -5.278  53.035  14.962  1.00  0.00    -0.504 OA
ATOM     18  H   UNL     1      -5.604  52.942  14.011  1.00  0.00     0.293 HD
ENDBRANCH  13  17
BRANCH  15  19
ATOM     19  O   UNL     1      -5.105  55.880  14.327  1.00  0.00    -0.502 OA
ATOM     20  H   UNL     1      -5.762  55.427  13.707  1.00  0.00     0.293 HD
ENDBRANCH  15  19
BRANCH  16  21
ATOM     21  O   UNL     1      -2.920  57.304  15.181  1.00  0.00    -0.504 OA
ATOM     22  H   UNL     1      -2.763  57.643  14.239  1.00  0.00     0.293 HD
ENDBRANCH  16  21
ENDBRANCH   1  11
BRANCH  10  23
ATOM     23  O   UNL     1       0.601  53.338  15.369  1.00  0.00    -0.500 OA
ATOM     24  H   UNL     1       1.279  52.816  14.826  1.00  0.00     0.294 HD
ENDBRANCH  10  23
BRANCH   5  25
ATOM     25  O   UNL     1      -0.194  50.895  22.698  1.00  0.00    -0.507 OA
ATOM     26  H   UNL     1       0.269  51.280  23.513  1.00  0.00     0.293 HD
ENDBRANCH   5  25
BRANCH   7  27
ATOM     27  O   UNL     1       3.189  51.042  19.296  1.00  0.00    -0.507 OA
ATOM     28  H   UNL     1       3.522  50.111  19.095  1.00  0.00     0.293 HD
ENDBRANCH   7  27
TORSDOF 7
ENDMDL
MODEL 2
REMARK VINA RESULT:    -6.592      3.315      7.087
REMARK INTER + INTRA:          -8.452
REMARK INTER:                  -8.087
REMARK INTRA:                  -0.364
REMARK UNBOUND:                -0.318
REMARK SMILES Oc1cc(O)c2cc(O)c(-c3cc(O)c(O)c(O)c3)[o+]c2c1
REMARK SMILES IDX 10 1 20 2 21 3 22 4 2 5 3 6 4 7 6 8 7 9 8 10 11 11 12 12
REMARK SMILES IDX 13 13 19 14 15 15 17 16 14 17 16 19 18 21 9 23 1 25 5 27
REMARK H PARENT 14 18 16 20 18 22 9 24 1 26 5 28
REMARK Flexibility Score: inf
ROOT
ATOM      1  C   UNL     1       0.867  55.039  17.261  1.00  0.00     0.402 A 
ATOM      2  O   UNL     1       1.056  56.216  17.851  1.00  0.00    -0.202 OA
ATOM      3  C   UNL     1       1.069  57.370  17.192  1.00  0.00     0.368 A 
ATOM      4  C   UNL     1       1.271  58.556  17.901  1.00  0.00     0.162 A 
ATOM      5  C   UNL     1       1.287  59.783  17.232  1.00  0.00     0.128 A 
ATOM      6  C   UNL     1       1.099  59.824  15.849  1.00  0.00     0.093 A 
ATOM      7  C   UNL     1       0.894  58.649  15.115  1.00  0.00     0.136 A 
ATOM      8  C   UNL     1       0.880  57.400  15.788  1.00  0.00     0.125 A 
ATOM      9  C   UNL     1       0.695  56.171  15.134  1.00  0.00     0.078 A 
ATOM     10  C   UNL     1       0.698  54.979  15.865  1.00  0.00     0.223 A 
ENDROOT
BRANCH   1  11
ATOM     11  C   UNL     1       0.863  53.824  18.108  1.00  0.00     0.091 A 
ATOM     12  C   UNL     1      -0.326  53.419  18.729  1.00  0.00     0.068 A 
ATOM     13  C   UNL     1      -0.372  52.265  19.519  1.00  0.00     0.162 A 
ATOM     14  C   UNL     1       2.014  53.033  18.257  1.00  0.00     0.068 A 
ATOM     15  C   UNL     1       0.799  51.485  19.683  1.00  0.00     0.200 A 
ATOM     16  C   UNL     1       1.983  51.875  19.044  1.00  0.00     0.162 A 
BRANCH  13  17
ATOM     17  O   UNL     1      -1.589  51.932  20.116  1.00  0.00    -0.504 OA
ATOM     18  H   UNL     1      -2.489  52.051  19.673  1.00  0.00     0.293 HD
ENDBRANCH  13  17
BRANCH  15  19
ATOM     19  O   UNL     1       0.825  50.326  20.463  1.00  0.00    -0.502 OA
ATOM     20  H   UNL     1       0.641  49.399  20.106  1.00  0.00     0.293 HD
ENDBRANCH  15  19
BRANCH  16  21
ATOM     21  O   UNL     1       3.132  51.100  19.192  1.00  0.00    -0.504 OA
ATOM     22  H   UNL     1       3.149  50.119  18.937  1.00  0.00     0.293 HD
ENDBRANCH  16  21
ENDBRANCH   1  11
BRANCH  10  23
ATOM     23  O   UNL     1       0.564  53.756  15.210  1.00  0.00    -0.500 OA
ATOM     24  H   UNL     1      -0.069  53.039  15.543  1.00  0.00     0.294 HD
ENDBRANCH  10  23
BRANCH   5  25
ATOM     25  O   UNL     1       1.489  60.971  17.933  1.00  0.00    -0.507 OA
ATOM     26  H   UNL     1       2.370  61.470  17.886  1.00  0.00     0.293 HD
ENDBRANCH   5  25
BRANCH   7  27
ATOM     27  O   UNL     1       0.712  58.776  13.735  1.00  0.00    -0.507 OA
ATOM     28  H   UNL     1      -0.134  58.524  13.246  1.00  0.00     0.293 HD
ENDBRANCH   7  27
TORSDOF 7
ENDMDL
MODEL 3
REMARK VINA RESULT:    -6.558      3.046      6.778
REMARK INTER + INTRA:          -8.409
REMARK INTER:                  -8.045
REMARK INTRA:                  -0.364
REMARK UNBOUND:                -0.318
REMARK SMILES Oc1cc(O)c2cc(O)c(-c3cc(O)c(O)c(O)c3)[o+]c2c1
REMARK SMILES IDX 10 1 20 2 21 3 22 4 2 5 3 6 4 7 6 8 7 9 8 10 11 11 12 12
REMARK SMILES IDX 13 13 19 14 15 15 17 16 14 17 16 19 18 21 9 23 1 25 5 27
REMARK H PARENT 14 18 16 20 18 22 9 24 1 26 5 28
REMARK Flexibility Score: inf
ROOT
ATOM      1  C   UNL     1       0.708  53.889  18.799  1.00  0.00     0.402 A 
ATOM      2  O   UNL     1      -0.593  54.142  18.686  1.00  0.00    -0.202 OA
ATOM      3  C   UNL     1      -1.325  53.757  17.645  1.00  0.00     0.368 A 
ATOM      4  C   UNL     1      -2.686  54.068  17.619  1.00  0.00     0.162 A 
ATOM      5  C   UNL     1      -3.479  53.673  16.538  1.00  0.00     0.128 A 
ATOM      6  C   UNL     1      -2.908  52.964  15.479  1.00  0.00     0.093 A 
ATOM      7  C   UNL     1      -1.545  52.640  15.482  1.00  0.00     0.136 A 
ATOM      8  C   UNL     1      -0.735  53.041  16.575  1.00  0.00     0.125 A 
ATOM      9  C   UNL     1       0.641  52.772  16.658  1.00  0.00     0.078 A 
ATOM     10  C   UNL     1       1.375  53.204  17.767  1.00  0.00     0.223 A 
ENDROOT
BRANCH   1  11
ATOM     11  C   UNL     1       1.411  54.362  20.014  1.00  0.00     0.091 A 
ATOM     12  C   UNL     1       1.415  53.561  21.164  1.00  0.00     0.068 A 
ATOM     13  C   UNL     1       2.087  53.967  22.324  1.00  0.00     0.162 A 
ATOM     14  C   UNL     1       2.123  55.572  20.021  1.00  0.00     0.068 A 
ATOM     15  C   UNL     1       2.784  55.199  22.331  1.00  0.00     0.200 A 
ATOM     16  C   UNL     1       2.800  55.990  21.174  1.00  0.00     0.162 A 
BRANCH  13  17
ATOM     17  O   UNL     1       2.036  53.123  23.435  1.00  0.00    -0.504 OA
ATOM     18  H   UNL     1       1.181  52.775  23.843  1.00  0.00     0.293 HD
ENDBRANCH  13  17
BRANCH  15  19
ATOM     19  O   UNL     1       3.469  55.667  23.455  1.00  0.00    -0.502 OA
ATOM     20  H   UNL     1       4.429  55.438  23.669  1.00  0.00     0.293 HD
ENDBRANCH  15  19
BRANCH  16  21
ATOM     21  O   UNL     1       3.499  57.196  21.175  1.00  0.00    -0.504 OA
ATOM     22  H   UNL     1       3.032  58.082  21.024  1.00  0.00     0.293 HD
ENDBRANCH  16  21
ENDBRANCH   1  11
BRANCH  10  23
ATOM     23  O   UNL     1       2.750  52.981  17.825  1.00  0.00    -0.500 OA
ATOM     24  H   UNL     1       3.303  52.841  16.987  1.00  0.00     0.294 HD
ENDBRANCH  10  23
BRANCH   5  25
ATOM     25  O   UNL     1      -4.838  53.980  16.504  1.00  0.00    -0.507 OA
ATOM     26  H   UNL     1      -5.494  53.421  15.971  1.00  0.00     0.293 HD
ENDBRANCH   5  25
BRANCH   7  27
ATOM     27  O   UNL     1      -1.051  51.926  14.386  1.00  0.00    -0.507 OA
ATOM     28  H   UNL     1      -0.693  52.351  13.544  1.00  0.00     0.293 HD
ENDBRANCH   7  27
TORSDOF 7
ENDMDL
MODEL 4
REMARK VINA RESULT:    -6.518      1.689      6.848
REMARK INTER + INTRA:          -8.361
REMARK INTER:                  -8.127
REMARK INTRA:                  -0.234
REMARK UNBOUND:                -0.318
REMARK SMILES Oc1cc(O)c2cc(O)c(-c3cc(O)c(O)c(O)c3)[o+]c2c1
REMARK SMILES IDX 10 1 20 2 21 3 22 4 2 5 3 6 4 7 6 8 7 9 8 10 11 11 12 12
REMARK SMILES IDX 13 13 19 14 15 15 17 16 14 17 16 19 18 21 9 23 1 25 5 27
REMARK H PARENT 14 18 16 20 18 22 9 24 1 26 5 28
REMARK Flexibility Score: inf
ROOT
ATOM      1  C   UNL     1      -0.290  52.687  18.411  1.00  0.00     0.402 A 
ATOM      2  O   UNL     1      -1.554  53.085  18.291  1.00  0.00    -0.202 OA
ATOM      3  C   UNL     1      -2.125  53.360  17.122  1.00  0.00     0.368 A 
ATOM      4  C   UNL     1      -3.461  53.768  17.098  1.00  0.00     0.162 A 
ATOM      5  C   UNL     1      -4.086  54.062  15.883  1.00  0.00     0.128 A 
ATOM      6  C   UNL     1      -3.373  53.946  14.688  1.00  0.00     0.093 A 
ATOM      7  C   UNL     1      -2.032  53.539  14.686  1.00  0.00     0.136 A 
ATOM      8  C   UNL     1      -1.392  53.243  15.916  1.00  0.00     0.125 A 
ATOM      9  C   UNL     1      -0.049  52.841  16.012  1.00  0.00     0.078 A 
ATOM     10  C   UNL     1       0.515  52.570  17.263  1.00  0.00     0.223 A 
ENDROOT
BRANCH   1  11
ATOM     11  C   UNL     1       0.227  52.400  19.769  1.00  0.00     0.091 A 
ATOM     12  C   UNL     1      -0.251  51.283  20.468  1.00  0.00     0.068 A 
ATOM     13  C   UNL     1       0.231  50.970  21.744  1.00  0.00     0.162 A 
ATOM     14  C   UNL     1       1.231  53.192  20.350  1.00  0.00     0.068 A 
ATOM     15  C   UNL     1       1.226  51.786  22.334  1.00  0.00     0.200 A 
ATOM     16  C   UNL     1       1.723  52.890  21.627  1.00  0.00     0.162 A 
BRANCH  13  17
ATOM     17  O   UNL     1      -0.301  49.849  22.384  1.00  0.00    -0.504 OA
ATOM     18  H   UNL     1       0.124  49.395  23.179  1.00  0.00     0.293 HD
ENDBRANCH  13  17
BRANCH  15  19
ATOM     19  O   UNL     1       1.746  51.535  23.606  1.00  0.00    -0.502 OA
ATOM     20  H   UNL     1       1.683  50.644  24.078  1.00  0.00     0.293 HD
ENDBRANCH  15  19
BRANCH  16  21
ATOM     21  O   UNL     1       2.714  53.685  22.200  1.00  0.00    -0.504 OA
ATOM     22  H   UNL     1       3.658  53.343  22.336  1.00  0.00     0.293 HD
ENDBRANCH  16  21
ENDBRANCH   1  11
BRANCH  10  23
ATOM     23  O   UNL     1       1.861  52.220  17.362  1.00  0.00    -0.500 OA
ATOM     24  H   UNL     1       2.600  52.886  17.168  1.00  0.00     0.294 HD
ENDBRANCH  10  23
BRANCH   5  25
ATOM     25  O   UNL     1      -5.418  54.470  15.850  1.00  0.00    -0.507 OA
ATOM     26  H   UNL     1      -5.909  54.604  14.974  1.00  0.00     0.293 HD
ENDBRANCH   5  25
BRANCH   7  27
ATOM     27  O   UNL     1      -1.390  53.447  13.447  1.00  0.00    -0.507 OA
ATOM     28  H   UNL     1      -1.144  54.239  12.873  1.00  0.00     0.293 HD
ENDBRANCH   7  27
TORSDOF 7
ENDMDL
MODEL 5
REMARK VINA RESULT:    -6.472     10.268     12.738
REMARK INTER + INTRA:          -8.303
REMARK INTER:                  -7.921
REMARK INTRA:                  -0.382
REMARK UNBOUND:                -0.318
REMARK SMILES Oc1cc(O)c2cc(O)c(-c3cc(O)c(O)c(O)c3)[o+]c2c1
REMARK SMILES IDX 10 1 20 2 21 3 22 4 2 5 3 6 4 7 6 8 7 9 8 10 11 11 12 12
REMARK SMILES IDX 13 13 19 14 15 15 17 16 14 17 16 19 18 21 9 23 1 25 5 27
REMARK H PARENT 14 18 16 20 18 22 9 24 1 26 5 28
REMARK Flexibility Score: inf
ROOT
ATOM      1  C   UNL     1       2.500  56.037  27.944  1.00  0.00     0.402 A 
ATOM      2  O   UNL     1       1.854  56.765  27.038  1.00  0.00    -0.202 OA
ATOM      3  C   UNL     1       1.633  58.069  27.171  1.00  0.00     0.368 A 
ATOM      4  C   UNL     1       0.947  58.749  26.162  1.00  0.00     0.162 A 
ATOM      5  C   UNL     1       0.704  60.121  26.276  1.00  0.00     0.128 A 
ATOM      6  C   UNL     1       1.150  60.815  27.403  1.00  0.00     0.093 A 
ATOM      7  C   UNL     1       1.841  60.156  28.428  1.00  0.00     0.136 A 
ATOM      8  C   UNL     1       2.087  58.764  28.319  1.00  0.00     0.125 A 
ATOM      9  C   UNL     1       2.759  58.018  29.302  1.00  0.00     0.078 A 
ATOM     10  C   UNL     1       2.962  56.646  29.126  1.00  0.00     0.223 A 
ENDROOT
BRANCH   1  11
ATOM     11  C   UNL     1       2.692  54.593  27.675  1.00  0.00     0.091 A 
ATOM     12  C   UNL     1       1.712  53.679  28.086  1.00  0.00     0.068 A 
ATOM     13  C   UNL     1       1.850  52.309  27.831  1.00  0.00     0.162 A 
ATOM     14  C   UNL     1       3.810  54.124  26.967  1.00  0.00     0.068 A 
ATOM     15  C   UNL     1       2.991  51.841  27.136  1.00  0.00     0.200 A 
ATOM     16  C   UNL     1       3.961  52.756  26.703  1.00  0.00     0.162 A 
BRANCH  13  17
ATOM     17  O   UNL     1       0.839  51.458  28.280  1.00  0.00    -0.504 OA
ATOM     18  H   UNL     1      -0.121  51.740  28.415  1.00  0.00     0.293 HD
ENDBRANCH  13  17
BRANCH  15  19
ATOM     19  O   UNL     1       3.195  50.488  26.854  1.00  0.00    -0.502 OA
ATOM     20  H   UNL     1       4.103  50.070  26.706  1.00  0.00     0.293 HD
ENDBRANCH  15  19
BRANCH  16  21
ATOM     21  O   UNL     1       5.077  52.298  26.006  1.00  0.00    -0.504 OA
ATOM     22  H   UNL     1       5.903  52.872  25.887  1.00  0.00     0.293 HD
ENDBRANCH  16  21
ENDBRANCH   1  11
BRANCH  10  23
ATOM     23  O   UNL     1       3.583  55.897  30.124  1.00  0.00    -0.500 OA
ATOM     24  H   UNL     1       4.412  56.230  30.602  1.00  0.00     0.294 HD
ENDBRANCH  10  23
BRANCH   5  25
ATOM     25  O   UNL     1       0.020  60.806  25.274  1.00  0.00    -0.507 OA
ATOM     26  H   UNL     1      -0.883  61.232  25.446  1.00  0.00     0.293 HD
ENDBRANCH   5  25
BRANCH   7  27
ATOM     27  O   UNL     1       2.255  60.923  29.521  1.00  0.00    -0.507 OA
ATOM     28  H   UNL     1       2.888  60.599  30.237  1.00  0.00     0.293 HD
ENDBRANCH   7  27
TORSDOF 7
ENDMDL
MODEL 6
REMARK VINA RESULT:    -6.433      2.368      3.155
REMARK INTER + INTRA:          -8.256
REMARK INTER:                  -7.992
REMARK INTRA:                  -0.263
REMARK UNBOUND:                -0.318
REMARK SMILES Oc1cc(O)c2cc(O)c(-c3cc(O)c(O)c(O)c3)[o+]c2c1
REMARK SMILES IDX 10 1 20 2 21 3 22 4 2 5 3 6 4 7 6 8 7 9 8 10 11 11 12 12
REMARK SMILES IDX 13 13 19 14 15 15 17 16 14 17 16 19 18 21 9 23 1 25 5 27
REMARK H PARENT 14 18 16 20 18 22 9 24 1 26 5 28
REMARK Flexibility Score: inf
ROOT
ATOM      1  C   UNL     1       0.180  53.736  16.291  1.00  0.00     0.402 A 
ATOM      2  O   UNL     1       0.600  54.517  17.283  1.00  0.00    -0.202 OA
ATOM      3  C   UNL     1       1.384  54.090  18.267  1.00  0.00     0.368 A 
ATOM      4  C   UNL     1       1.775  54.988  19.263  1.00  0.00     0.162 A 
ATOM      5  C   UNL     1       2.601  54.565  20.308  1.00  0.00     0.128 A 
ATOM      6  C   UNL     1       3.039  53.240  20.357  1.00  0.00     0.093 A 
ATOM      7  C   UNL     1       2.661  52.320  19.370  1.00  0.00     0.136 A 
ATOM      8  C   UNL     1       1.820  52.743  18.309  1.00  0.00     0.125 A 
ATOM      9  C   UNL     1       1.380  51.889  17.284  1.00  0.00     0.078 A 
ATOM     10  C   UNL     1       0.547  52.378  16.272  1.00  0.00     0.223 A 
ENDROOT
BRANCH   1  11
ATOM     11  C   UNL     1      -0.682  54.334  15.246  1.00  0.00     0.091 A 
ATOM     12  C   UNL     1      -0.127  55.228  14.321  1.00  0.00     0.068 A 
ATOM     13  C   UNL     1      -0.908  55.796  13.307  1.00  0.00     0.162 A 
ATOM     14  C   UNL     1      -2.036  53.980  15.126  1.00  0.00     0.068 A 
ATOM     15  C   UNL     1      -2.278  55.452  13.206  1.00  0.00     0.200 A 
ATOM     16  C   UNL     1      -2.829  54.539  14.116  1.00  0.00     0.162 A 
BRANCH  13  17
ATOM     17  O   UNL     1      -0.288  56.688  12.430  1.00  0.00    -0.504 OA
ATOM     18  H   UNL     1       0.457  56.435  11.798  1.00  0.00     0.293 HD
ENDBRANCH  13  17
BRANCH  15  19
ATOM     19  O   UNL     1      -3.115  55.986  12.224  1.00  0.00    -0.502 OA
ATOM     20  H   UNL     1      -3.184  55.627  11.282  1.00  0.00     0.293 HD
ENDBRANCH  15  19
BRANCH  16  21
ATOM     21  O   UNL     1      -4.174  54.188  14.008  1.00  0.00    -0.504 OA
ATOM     22  H   UNL     1      -4.843  54.782  13.531  1.00  0.00     0.293 HD
ENDBRANCH  16  21
ENDBRANCH   1  11
BRANCH  10  23
ATOM     23  O   UNL     1       0.070  51.518  15.284  1.00  0.00    -0.500 OA
ATOM     24  H   UNL     1       0.690  50.912  14.760  1.00  0.00     0.294 HD
ENDBRANCH  10  23
BRANCH   5  25
ATOM     25  O   UNL     1       2.995  55.455  21.306  1.00  0.00    -0.507 OA
ATOM     26  H   UNL     1       2.923  55.215  22.288  1.00  0.00     0.293 HD
ENDBRANCH   5  25
BRANCH   7  27
ATOM     27  O   UNL     1       3.142  51.013  19.490  1.00  0.00    -0.507 OA
ATOM     28  H   UNL     1       2.568  50.211  19.703  1.00  0.00     0.293 HD
ENDBRANCH   7  27
TORSDOF 7
ENDMDL
MODEL 7
REMARK VINA RESULT:    -6.429      2.915      3.206
REMARK INTER + INTRA:          -8.251
REMARK INTER:                  -8.128
REMARK INTRA:                  -0.123
REMARK UNBOUND:                -0.318
REMARK SMILES Oc1cc(O)c2cc(O)c(-c3cc(O)c(O)c(O)c3)[o+]c2c1
REMARK SMILES IDX 10 1 20 2 21 3 22 4 2 5 3 6 4 7 6 8 7 9 8 10 11 11 12 12
REMARK SMILES IDX 13 13 19 14 15 15 17 16 14 17 16 19 18 21 9 23 1 25 5 27
REMARK H PARENT 14 18 16 20 18 22 9 24 1 26 5 28
REMARK Flexibility Score: inf
ROOT
ATOM      1  C   UNL     1       0.401  53.875  16.360  1.00  0.00     0.402 A 
ATOM      2  O   UNL     1       0.624  54.898  17.181  1.00  0.00    -0.202 OA
ATOM      3  C   UNL     1       1.347  54.799  18.292  1.00  0.00     0.368 A 
ATOM      4  C   UNL     1       1.527  55.932  19.089  1.00  0.00     0.162 A 
ATOM      5  C   UNL     1       2.286  55.855  20.261  1.00  0.00     0.128 A 
ATOM      6  C   UNL     1       2.866  54.642  20.636  1.00  0.00     0.093 A 
ATOM      7  C   UNL     1       2.700  53.492  19.854  1.00  0.00     0.136 A 
ATOM      8  C   UNL     1       1.929  53.563  18.665  1.00  0.00     0.125 A 
ATOM      9  C   UNL     1       1.698  52.460  17.827  1.00  0.00     0.078 A 
ATOM     10  C   UNL     1       0.923  52.606  16.672  1.00  0.00     0.223 A 
ENDROOT
BRANCH   1  11
ATOM     11  C   UNL     1      -0.413  54.115  15.147  1.00  0.00     0.091 A 
ATOM     12  C   UNL     1      -1.595  53.385  14.953  1.00  0.00     0.068 A 
ATOM     13  C   UNL     1      -2.400  53.601  13.829  1.00  0.00     0.162 A 
ATOM     14  C   UNL     1      -0.058  55.100  14.211  1.00  0.00     0.068 A 
ATOM     15  C   UNL     1      -2.023  54.579  12.878  1.00  0.00     0.200 A 
ATOM     16  C   UNL     1      -0.855  55.327  13.082  1.00  0.00     0.162 A 
BRANCH  13  17
ATOM     17  O   UNL     1      -3.555  52.827  13.698  1.00  0.00    -0.504 OA
ATOM     18  H   UNL     1      -3.818  52.341  12.853  1.00  0.00     0.293 HD
ENDBRANCH  13  17
BRANCH  15  19
ATOM     19  O   UNL     1      -2.777  54.840  11.731  1.00  0.00    -0.502 OA
ATOM     20  H   UNL     1      -3.786  54.896  11.716  1.00  0.00     0.293 HD
ENDBRANCH  15  19
BRANCH  16  21
ATOM     21  O   UNL     1      -0.492  56.301  12.154  1.00  0.00    -0.504 OA
ATOM     22  H   UNL     1      -1.058  56.495  11.336  1.00  0.00     0.293 HD
ENDBRANCH  16  21
ENDBRANCH   1  11
BRANCH  10  23
ATOM     23  O   UNL     1       0.652  51.500  15.867  1.00  0.00    -0.500 OA
ATOM     24  H   UNL     1       1.198  51.298  15.038  1.00  0.00     0.294 HD
ENDBRANCH  10  23
BRANCH   5  25
ATOM     25  O   UNL     1       2.470  56.981  21.062  1.00  0.00    -0.507 OA
ATOM     26  H   UNL     1       2.182  57.903  20.754  1.00  0.00     0.293 HD
ENDBRANCH   5  25
BRANCH   7  27
ATOM     27  O   UNL     1       3.315  52.318  20.298  1.00  0.00    -0.507 OA
ATOM     28  H   UNL     1       4.133  51.906  19.872  1.00  0.00     0.293 HD
ENDBRANCH   7  27
TORSDOF 7
ENDMDL
MODEL 8
REMARK VINA RESULT:    -6.373      2.094      6.890
REMARK INTER + INTRA:          -8.181
REMARK INTER:                  -7.810
REMARK INTRA:                  -0.371
REMARK UNBOUND:                -0.318
REMARK SMILES Oc1cc(O)c2cc(O)c(-c3cc(O)c(O)c(O)c3)[o+]c2c1
REMARK SMILES IDX 10 1 20 2 21 3 22 4 2 5 3 6 4 7 6 8 7 9 8 10 11 11 12 12
REMARK SMILES IDX 13 13 19 14 15 15 17 16 14 17 16 19 18 21 9 23 1 25 5 27
REMARK H PARENT 14 18 16 20 18 22 9 24 1 26 5 28
REMARK Flexibility Score: inf
ROOT
ATOM      1  C   UNL     1      -0.358  53.370  17.504  1.00  0.00     0.402 A 
ATOM      2  O   UNL     1      -1.513  53.930  17.852  1.00  0.00    -0.202 OA
ATOM      3  C   UNL     1      -2.592  53.923  17.076  1.00  0.00     0.368 A 
ATOM      4  C   UNL     1      -3.761  54.536  17.532  1.00  0.00     0.162 A 
ATOM      5  C   UNL     1      -4.911  54.540  16.736  1.00  0.00     0.128 A 
ATOM      6  C   UNL     1      -4.891  53.929  15.481  1.00  0.00     0.093 A 
ATOM      7  C   UNL     1      -3.731  53.308  15.001  1.00  0.00     0.136 A 
ATOM      8  C   UNL     1      -2.561  53.303  15.803  1.00  0.00     0.125 A 
ATOM      9  C   UNL     1      -1.349  52.716  15.400  1.00  0.00     0.078 A 
ATOM     10  C   UNL     1      -0.235  52.755  16.244  1.00  0.00     0.223 A 
ENDROOT
BRANCH   1  11
ATOM     11  C   UNL     1       0.769  53.436  18.461  1.00  0.00     0.091 A 
ATOM     12  C   UNL     1       1.691  54.488  18.371  1.00  0.00     0.068 A 
ATOM     13  C   UNL     1       2.758  54.593  19.272  1.00  0.00     0.162 A 
ATOM     14  C   UNL     1       0.905  52.497  19.496  1.00  0.00     0.068 A 
ATOM     15  C   UNL     1       2.901  53.629  20.299  1.00  0.00     0.200 A 
ATOM     16  C   UNL     1       1.966  52.590  20.406  1.00  0.00     0.162 A 
BRANCH  13  17
ATOM     17  O   UNL     1       3.643  55.661  19.111  1.00  0.00    -0.504 OA
ATOM     18  H   UNL     1       4.368  55.695  18.409  1.00  0.00     0.293 HD
ENDBRANCH  13  17
BRANCH  15  19
ATOM     19  O   UNL     1       3.944  53.671  21.227  1.00  0.00    -0.502 OA
ATOM     20  H   UNL     1       4.723  54.312  21.175  1.00  0.00     0.293 HD
ENDBRANCH  15  19
BRANCH  16  21
ATOM     21  O   UNL     1       2.097  51.650  21.426  1.00  0.00    -0.504 OA
ATOM     22  H   UNL     1       2.896  51.649  22.050  1.00  0.00     0.293 HD
ENDBRANCH  16  21
ENDBRANCH   1  11
BRANCH  10  23
ATOM     23  O   UNL     1       0.980  52.218  15.822  1.00  0.00    -0.500 OA
ATOM     24  H   UNL     1       1.023  51.413  15.208  1.00  0.00     0.294 HD
ENDBRANCH  10  23
BRANCH   5  25
ATOM     25  O   UNL     1      -6.082  55.150  17.184  1.00  0.00    -0.507 OA
ATOM     26  H   UNL     1      -6.961  55.031  16.695  1.00  0.00     0.293 HD
ENDBRANCH   5  25
BRANCH   7  27
ATOM     27  O   UNL     1      -3.794  52.717  13.736  1.00  0.00    -0.507 OA
ATOM     28  H   UNL     1      -4.306  51.873  13.526  1.00  0.00     0.293 HD
ENDBRANCH   7  27
TORSDOF 7
ENDMDL
MODEL 9
REMARK VINA RESULT:    -6.252      2.952      7.817
REMARK INTER + INTRA:          -8.033
REMARK INTER:                  -7.653
REMARK INTRA:                  -0.380
REMARK UNBOUND:                -0.318
REMARK SMILES Oc1cc(O)c2cc(O)c(-c3cc(O)c(O)c(O)c3)[o+]c2c1
REMARK SMILES IDX 10 1 20 2 21 3 22 4 2 5 3 6 4 7 6 8 7 9 8 10 11 11 12 12
REMARK SMILES IDX 13 13 19 14 15 15 17 16 14 17 16 19 18 21 9 23 1 25 5 27
REMARK H PARENT 14 18 16 20 18 22 9 24 1 26 5 28
REMARK Flexibility Score: inf
ROOT
ATOM      1  C   UNL     1      -1.358  54.688  14.526  1.00  0.00     0.402 A 
ATOM      2  O   UNL     1      -1.359  56.012  14.393  1.00  0.00    -0.202 OA
ATOM      3  C   UNL     1      -1.773  56.635  13.295  1.00  0.00     0.368 A 
ATOM      4  C   UNL     1      -1.739  58.031  13.252  1.00  0.00     0.162 A 
ATOM      5  C   UNL     1      -2.171  58.712  12.110  1.00  0.00     0.128 A 
ATOM      6  C   UNL     1      -2.639  57.994  11.007  1.00  0.00     0.093 A 
ATOM      7  C   UNL     1      -2.683  56.594  11.026  1.00  0.00     0.136 A 
ATOM      8  C   UNL     1      -2.243  55.898  12.181  1.00  0.00     0.125 A 
ATOM      9  C   UNL     1      -2.238  54.497  12.285  1.00  0.00     0.078 A 
ATOM     10  C   UNL     1      -1.785  53.881  13.455  1.00  0.00     0.223 A 
ENDROOT
BRANCH   1  11
ATOM     11  C   UNL     1      -0.881  54.113  15.805  1.00  0.00     0.091 A 
ATOM     12  C   UNL     1      -1.801  53.858  16.832  1.00  0.00     0.068 A 
ATOM     13  C   UNL     1      -1.390  53.296  18.046  1.00  0.00     0.162 A 
ATOM     14  C   UNL     1       0.466  53.764  15.993  1.00  0.00     0.068 A 
ATOM     15  C   UNL     1      -0.026  52.967  18.236  1.00  0.00     0.200 A 
ATOM     16  C   UNL     1       0.891  53.200  17.202  1.00  0.00     0.162 A 
BRANCH  13  17
ATOM     17  O   UNL     1      -2.361  53.082  19.027  1.00  0.00    -0.504 OA
ATOM     18  H   UNL     1      -2.849  53.821  19.511  1.00  0.00     0.293 HD
ENDBRANCH  13  17
BRANCH  15  19
ATOM     19  O   UNL     1       0.453  52.410  19.425  1.00  0.00    -0.502 OA
ATOM     20  H   UNL     1       0.088  52.630  20.341  1.00  0.00     0.293 HD
ENDBRANCH  15  19
BRANCH  16  21
ATOM     21  O   UNL     1       2.231  52.862  17.383  1.00  0.00    -0.504 OA
ATOM     22  H   UNL     1       2.587  52.558  18.282  1.00  0.00     0.293 HD
ENDBRANCH  16  21
ENDBRANCH   1  11
BRANCH  10  23
ATOM     23  O   UNL     1      -1.733  52.491  13.539  1.00  0.00    -0.500 OA
ATOM     24  H   UNL     1      -2.563  51.919  13.437  1.00  0.00     0.294 HD
ENDBRANCH  10  23
BRANCH   5  25
ATOM     25  O   UNL     1      -2.140  60.104  12.059  1.00  0.00    -0.507 OA
ATOM     26  H   UNL     1      -1.637  60.596  11.329  1.00  0.00     0.293 HD
ENDBRANCH   5  25
BRANCH   7  27
ATOM     27  O   UNL     1      -3.166  55.950   9.883  1.00  0.00    -0.507 OA
ATOM     28  H   UNL     1      -2.898  56.187   8.939  1.00  0.00     0.293 HD
ENDBRANCH   7  27
TORSDOF 7
ENDMDL
