MODEL 1
REMARK VINA RESULT:    -4.327      0.000      0.000
REMARK INTER + INTRA:          -4.751
REMARK INTER:                  -4.706
REMARK INTRA:                  -0.045
REMARK UNBOUND:                -0.045
REMARK SMILES COc1cc2ccc(=O)oc2cc1O
REMARK SMILES IDX 3 1 13 2 12 3 11 4 5 5 4 6 6 7 7 8 8 9 9 10 10 11 2 12 1 13
REMARK SMILES IDX 14 14
REMARK H PARENT 14 15
REMARK Flexibility Score: inf
ROOT
ATOM      1  C   UNL     1      -3.580   1.242  18.689  1.00  0.00     0.161 A 
ATOM      2  C   UNL     1      -3.897   2.580  18.998  1.00  0.00     0.161 A 
ATOM      3  C   UNL     1      -4.594   3.369  18.076  1.00  0.00     0.098 A 
ATOM      4  C   UNL     1      -4.984   2.841  16.843  1.00  0.00     0.142 A 
ATOM      5  C   UNL     1      -4.672   1.503  16.525  1.00  0.00     0.022 A 
ATOM      6  C   UNL     1      -3.973   0.708  17.445  1.00  0.00     0.062 A 
ATOM      7  C   UNL     1      -5.075   1.001  15.283  1.00  0.00     0.019 A 
ATOM      8  C   UNL     1      -5.768   1.831  14.402  1.00  0.00     0.094 A 
ATOM      9  C   UNL     1      -6.042   3.148  14.786  1.00  0.00     0.336 A 
ATOM     10  O   UNL     1      -6.667   3.913  14.005  1.00  0.00    -0.246 OA
ATOM     11  O   UNL     1      -5.647   3.599  15.974  1.00  0.00    -0.423 OA
ENDROOT
BRANCH   1  12
ATOM     12  O   UNL     1      -2.879   0.478  19.636  1.00  0.00    -0.493 OA
ATOM     13  C   UNL     1      -2.912  -0.943  19.712  1.00  0.00     0.278 C 
ENDBRANCH   1  12
BRANCH   2  14
ATOM     14  O   UNL     1      -3.525   3.144  20.217  1.00  0.00    -0.504 OA
ATOM     15  H   UNL     1      -2.847   2.708  20.830  1.00  0.00     0.293 HD
ENDBRANCH   2  14
TORSDOF 2
ENDMDL
MODEL 2
REMARK VINA RESULT:    -3.375      1.448      5.378
REMARK INTER + INTRA:          -3.716
REMARK INTER:                  -3.933
REMARK INTRA:                   0.217
REMARK UNBOUND:                -0.045
REMARK SMILES COc1cc2ccc(=O)oc2cc1O
REMARK SMILES IDX 3 1 13 2 12 3 11 4 5 5 4 6 6 7 7 8 8 9 9 10 10 11 2 12 1 13
REMARK SMILES IDX 14 14
REMARK H PARENT 14 15
REMARK Flexibility Score: inf
ROOT
ATOM      1  C   UNL     1      -5.049   3.028  15.522  1.00  0.00     0.161 A 
ATOM      2  C   UNL     1      -5.136   1.679  15.124  1.00  0.00     0.161 A 
ATOM      3  C   UNL     1      -4.697   0.662  15.980  1.00  0.00     0.098 A 
ATOM      4  C   UNL     1      -4.172   0.971  17.236  1.00  0.00     0.142 A 
ATOM      5  C   UNL     1      -4.082   2.318  17.644  1.00  0.00     0.022 A 
ATOM      6  C   UNL     1      -4.519   3.340  16.791  1.00  0.00     0.062 A 
ATOM      7  C   UNL     1      -3.551   2.597  18.908  1.00  0.00     0.019 A 
ATOM      8  C   UNL     1      -3.130   1.546  19.721  1.00  0.00     0.094 A 
ATOM      9  C   UNL     1      -3.250   0.234  19.249  1.00  0.00     0.336 A 
ATOM     10  O   UNL     1      -2.875  -0.729  19.968  1.00  0.00    -0.246 OA
ATOM     11  O   UNL     1      -3.758  -0.002  18.043  1.00  0.00    -0.423 OA
ENDROOT
BRANCH   1  12
ATOM     12  O   UNL     1      -5.497   4.023  14.639  1.00  0.00    -0.493 OA
ATOM     13  C   UNL     1      -6.829   4.124  14.144  1.00  0.00     0.278 C 
ENDBRANCH   1  12
BRANCH   2  14
ATOM     14  O   UNL     1      -5.653   1.329  13.877  1.00  0.00    -0.504 OA
ATOM     15  H   UNL     1      -5.114   0.814  13.192  1.00  0.00     0.293 HD
ENDBRANCH   2  14
TORSDOF 2
ENDMDL
MODEL 3
REMARK VINA RESULT:    -3.065      2.697      3.938
REMARK INTER + INTRA:          -3.378
REMARK INTER:                  -3.335
REMARK INTRA:                  -0.043
REMARK UNBOUND:                -0.045
REMARK SMILES COc1cc2ccc(=O)oc2cc1O
REMARK SMILES IDX 3 1 13 2 12 3 11 4 5 5 4 6 6 7 7 8 8 9 9 10 10 11 2 12 1 13
REMARK SMILES IDX 14 14
REMARK H PARENT 14 15
REMARK Flexibility Score: inf
ROOT
ATOM      1  C   UNL     1      -2.879   0.453  21.135  1.00  0.00     0.161 A 
ATOM      2  C   UNL     1      -2.884  -0.486  20.084  1.00  0.00     0.161 A 
ATOM      3  C   UNL     1      -2.888  -0.052  18.753  1.00  0.00     0.098 A 
ATOM      4  C   UNL     1      -2.885   1.311  18.452  1.00  0.00     0.142 A 
ATOM      5  C   UNL     1      -2.879   2.258  19.497  1.00  0.00     0.022 A 
ATOM      6  C   UNL     1      -2.876   1.830  20.831  1.00  0.00     0.062 A 
ATOM      7  C   UNL     1      -2.876   3.617  19.164  1.00  0.00     0.019 A 
ATOM      8  C   UNL     1      -2.879   3.993  17.822  1.00  0.00     0.094 A 
ATOM      9  C   UNL     1      -2.886   2.997  16.839  1.00  0.00     0.336 A 
ATOM     10  O   UNL     1      -2.888   3.317  15.621  1.00  0.00    -0.246 OA
ATOM     11  O   UNL     1      -2.888   1.712  17.184  1.00  0.00    -0.423 OA
ENDROOT
BRANCH   1  12
ATOM     12  O   UNL     1      -2.876  -0.015  22.459  1.00  0.00    -0.493 OA
ATOM     13  C   UNL     1      -2.898   0.821  23.611  1.00  0.00     0.278 C 
ENDBRANCH   1  12
BRANCH   2  14
ATOM     14  O   UNL     1      -2.888  -1.855  20.344  1.00  0.00    -0.504 OA
ATOM     15  H   UNL     1      -3.031  -2.544  19.614  1.00  0.00     0.293 HD
ENDBRANCH   2  14
TORSDOF 2
ENDMDL
MODEL 4
REMARK VINA RESULT:    -2.898      2.432      3.103
REMARK INTER + INTRA:          -3.197
REMARK INTER:                  -3.142
REMARK INTRA:                  -0.056
REMARK UNBOUND:                -0.045
REMARK SMILES COc1cc2ccc(=O)oc2cc1O
REMARK SMILES IDX 3 1 13 2 12 3 11 4 5 5 4 6 6 7 7 8 8 9 9 10 10 11 2 12 1 13
REMARK SMILES IDX 14 14
REMARK H PARENT 14 15
REMARK Flexibility Score: inf
ROOT
ATOM      1  C   UNL     1      -3.021  -0.398  20.533  1.00  0.00     0.161 A 
ATOM      2  C   UNL     1      -2.929   0.872  21.137  1.00  0.00     0.161 A 
ATOM      3  C   UNL     1      -2.888   2.026  20.347  1.00  0.00     0.098 A 
ATOM      4  C   UNL     1      -2.938   1.934  18.955  1.00  0.00     0.142 A 
ATOM      5  C   UNL     1      -3.030   0.668  18.341  1.00  0.00     0.022 A 
ATOM      6  C   UNL     1      -3.071  -0.492  19.127  1.00  0.00     0.062 A 
ATOM      7  C   UNL     1      -3.078   0.607  16.944  1.00  0.00     0.019 A 
ATOM      8  C   UNL     1      -3.034   1.789  16.205  1.00  0.00     0.094 A 
ATOM      9  C   UNL     1      -2.942   3.009  16.884  1.00  0.00     0.336 A 
ATOM     10  O   UNL     1      -2.902   4.087  16.235  1.00  0.00    -0.246 OA
ATOM     11  O   UNL     1      -2.898   3.037  18.213  1.00  0.00    -0.423 OA
ENDROOT
BRANCH   1  12
ATOM     12  O   UNL     1      -3.059  -1.536  21.355  1.00  0.00    -0.493 OA
ATOM     13  C   UNL     1      -4.253  -2.141  21.841  1.00  0.00     0.278 C 
ENDBRANCH   1  12
BRANCH   2  14
ATOM     14  O   UNL     1      -2.876   1.006  22.524  1.00  0.00    -0.504 OA
ATOM     15  H   UNL     1      -2.320   0.391  23.106  1.00  0.00     0.293 HD
ENDBRANCH   2  14
TORSDOF 2
ENDMDL
MODEL 5
REMARK VINA RESULT:    -2.798      1.582      2.732
REMARK INTER + INTRA:          -3.088
REMARK INTER:                  -3.044
REMARK INTRA:                  -0.044
REMARK UNBOUND:                -0.045
REMARK SMILES COc1cc2ccc(=O)oc2cc1O
REMARK SMILES IDX 3 1 13 2 12 3 11 4 5 5 4 6 6 7 7 8 8 9 9 10 10 11 2 12 1 13
REMARK SMILES IDX 14 14
REMARK H PARENT 14 15
REMARK Flexibility Score: inf
ROOT
ATOM      1  C   UNL     1      -3.691   0.315  17.571  1.00  0.00     0.161 A 
ATOM      2  C   UNL     1      -3.917  -0.189  16.275  1.00  0.00     0.161 A 
ATOM      3  C   UNL     1      -4.726   0.516  15.376  1.00  0.00     0.098 A 
ATOM      4  C   UNL     1      -5.316   1.724  15.752  1.00  0.00     0.142 A 
ATOM      5  C   UNL     1      -5.095   2.237  17.047  1.00  0.00     0.022 A 
ATOM      6  C   UNL     1      -4.286   1.535  17.951  1.00  0.00     0.062 A 
ATOM      7  C   UNL     1      -5.699   3.451  17.395  1.00  0.00     0.019 A 
ATOM      8  C   UNL     1      -6.494   4.112  16.461  1.00  0.00     0.094 A 
ATOM      9  C   UNL     1      -6.669   3.542  15.195  1.00  0.00     0.336 A 
ATOM     10  O   UNL     1      -7.384   4.124  14.337  1.00  0.00    -0.246 OA
ATOM     11  O   UNL     1      -6.083   2.387  14.891  1.00  0.00    -0.423 OA
ENDROOT
BRANCH   1  12
ATOM     12  O   UNL     1      -2.875  -0.418  18.448  1.00  0.00    -0.493 OA
ATOM     13  C   UNL     1      -2.898  -0.294  19.866  1.00  0.00     0.278 C 
ENDBRANCH   1  12
BRANCH   2  14
ATOM     14  O   UNL     1      -3.347  -1.393  15.862  1.00  0.00    -0.504 OA
ATOM     15  H   UNL     1      -2.473  -1.430  15.352  1.00  0.00     0.293 HD
ENDBRANCH   2  14
TORSDOF 2
ENDMDL
MODEL 6
REMARK VINA RESULT:    -2.795      2.299      5.748
REMARK INTER + INTRA:          -3.085
REMARK INTER:                  -3.045
REMARK INTRA:                  -0.040
REMARK UNBOUND:                -0.045
REMARK SMILES COc1cc2ccc(=O)oc2cc1O
REMARK SMILES IDX 3 1 13 2 12 3 11 4 5 5 4 6 6 7 7 8 8 9 9 10 10 11 2 12 1 13
REMARK SMILES IDX 14 14
REMARK H PARENT 14 15
REMARK Flexibility Score: inf
ROOT
ATOM      1  C   UNL     1      -3.031   1.273  17.872  1.00  0.00     0.161 A 
ATOM      2  C   UNL     1      -3.050   2.503  18.560  1.00  0.00     0.161 A 
ATOM      3  C   UNL     1      -3.021   2.528  19.959  1.00  0.00     0.098 A 
ATOM      4  C   UNL     1      -2.973   1.338  20.688  1.00  0.00     0.142 A 
ATOM      5  C   UNL     1      -2.953   0.102  20.008  1.00  0.00     0.022 A 
ATOM      6  C   UNL     1      -2.982   0.071  18.607  1.00  0.00     0.062 A 
ATOM      7  C   UNL     1      -2.905  -1.074  20.765  1.00  0.00     0.019 A 
ATOM      8  C   UNL     1      -2.877  -0.991  22.157  1.00  0.00     0.094 A 
ATOM      9  C   UNL     1      -2.899   0.271  22.761  1.00  0.00     0.336 A 
ATOM     10  O   UNL     1      -2.875   0.366  24.017  1.00  0.00    -0.246 OA
ATOM     11  O   UNL     1      -2.945   1.372  22.017  1.00  0.00    -0.423 OA
ENDROOT
BRANCH   1  12
ATOM     12  O   UNL     1      -3.062   1.284  16.468  1.00  0.00    -0.493 OA
ATOM     13  C   UNL     1      -4.251   1.315  15.686  1.00  0.00     0.278 C 
ENDBRANCH   1  12
BRANCH   2  14
ATOM     14  O   UNL     1      -3.099   3.713  17.868  1.00  0.00    -0.504 OA
ATOM     15  H   UNL     1      -2.262   4.213  17.594  1.00  0.00     0.293 HD
ENDBRANCH   2  14
TORSDOF 2
ENDMDL
