MODEL 1
REMARK VINA RESULT:    -3.077      0.000      0.000
REMARK INTER + INTRA:          -7.608
REMARK INTER:                  -5.415
REMARK INTRA:                  -2.193
REMARK UNBOUND:                -2.193
REMARK SMILES CCCCCCCCCCCCCCC(=O)[O-]
REMARK SMILES IDX 9 1 10 2 11 3 12 4 13 5 14 6 15 7 16 8 17 9 8 10 7 11 6 12
REMARK SMILES IDX 5 13 4 14 3 15 2 16 1 17
REMARK H PARENT
REMARK Flexibility Score: inf
ROOT
ATOM      1  C   UNL     1      35.554   6.745 -31.120  1.00  0.00     0.000 C 
ENDROOT
BRANCH   1   2
ATOM      2  C   UNL     1      35.749   5.633 -32.157  1.00  0.00     0.000 C 
BRANCH   2   3
ATOM      3  C   UNL     1      34.540   5.541 -33.099  1.00  0.00     0.000 C 
BRANCH   3   4
ATOM      4  C   UNL     1      33.832   4.176 -33.036  1.00  0.00     0.000 C 
BRANCH   4   5
ATOM      5  C   UNL     1      32.291   4.237 -33.065  1.00  0.00     0.006 C 
BRANCH   5   6
ATOM      6  C   UNL     1      31.597   2.870 -32.964  1.00  0.00     0.053 C 
BRANCH   6   7
ATOM      7  C   UNL     1      31.300   2.292 -34.314  1.00  0.00     0.041 C 
ATOM      8  O   UNL     1      30.352   2.750 -35.006  1.00  0.00    -0.550 OA
ATOM      9  O   UNL     1      32.092   1.269 -34.822  1.00  0.00    -0.550 OA
ENDBRANCH   6   7
ENDBRANCH   5   6
ENDBRANCH   4   5
ENDBRANCH   3   4
ENDBRANCH   2   3
ENDBRANCH   1   2
BRANCH   1  10
ATOM     10  C   UNL     1      34.222   7.473 -31.336  1.00  0.00     0.000 C 
BRANCH  10  11
ATOM     11  C   UNL     1      33.369   7.454 -30.062  1.00  0.00    -0.000 C 
BRANCH  11  12
ATOM     12  C   UNL     1      32.444   6.230 -30.036  1.00  0.00    -0.000 C 
BRANCH  12  13
ATOM     13  C   UNL     1      32.823   5.280 -28.890  1.00  0.00    -0.000 C 
BRANCH  13  14
ATOM     14  C   UNL     1      33.553   4.018 -29.381  1.00  0.00    -0.000 C 
BRANCH  14  15
ATOM     15  C   UNL     1      34.995   3.928 -28.854  1.00  0.00    -0.000 C 
BRANCH  15  16
ATOM     16  C   UNL     1      35.326   5.045 -27.852  1.00  0.00    -0.003 C 
ATOM     17  C   UNL     1      35.558   4.523 -26.435  1.00  0.00     0.004 C 
ENDBRANCH  15  16
ENDBRANCH  14  15
ENDBRANCH  13  14
ENDBRANCH  12  13
ENDBRANCH  11  12
ENDBRANCH  10  11
ENDBRANCH   1  10
TORSDOF 13
ENDMDL
MODEL 2
REMARK VINA RESULT:    -3.040      4.089      8.680
REMARK INTER + INTRA:          -7.544
REMARK INTER:                  -6.033
REMARK INTRA:                  -1.511
REMARK UNBOUND:                -2.193
REMARK SMILES CCCCCCCCCCCCCCC(=O)[O-]
REMARK SMILES IDX 9 1 10 2 11 3 12 4 13 5 14 6 15 7 16 8 17 9 8 10 7 11 6 12
REMARK SMILES IDX 5 13 4 14 3 15 2 16 1 17
REMARK H PARENT
REMARK Flexibility Score: inf
ROOT
ATOM      1  C   UNL     1      32.519  -1.106 -34.884  1.00  0.00     0.000 C 
ENDROOT
BRANCH   1   2
ATOM      2  C   UNL     1      32.212   0.020 -33.889  1.00  0.00     0.000 C 
BRANCH   2   3
ATOM      3  C   UNL     1      33.093   1.249 -34.161  1.00  0.00     0.000 C 
BRANCH   3   4
ATOM      4  C   UNL     1      33.277   2.141 -32.921  1.00  0.00     0.000 C 
BRANCH   4   5
ATOM      5  C   UNL     1      33.460   3.643 -33.218  1.00  0.00     0.006 C 
BRANCH   5   6
ATOM      6  C   UNL     1      33.929   4.479 -32.018  1.00  0.00     0.053 C 
BRANCH   6   7
ATOM      7  C   UNL     1      35.038   5.416 -32.387  1.00  0.00     0.041 C 
ATOM      8  O   UNL     1      35.696   6.005 -31.489  1.00  0.00    -0.550 OA
ATOM      9  O   UNL     1      35.366   5.613 -33.723  1.00  0.00    -0.550 OA
ENDBRANCH   6   7
ENDBRANCH   5   6
ENDBRANCH   4   5
ENDBRANCH   3   4
ENDBRANCH   2   3
ENDBRANCH   1   2
BRANCH   1  10
ATOM     10  C   UNL     1      33.465  -0.622 -35.990  1.00  0.00     0.000 C 
BRANCH  10  11
ATOM     11  C   UNL     1      33.452  -1.582 -37.185  1.00  0.00    -0.000 C 
BRANCH  11  12
ATOM     12  C   UNL     1      32.895  -0.895 -38.438  1.00  0.00    -0.000 C 
BRANCH  12  13
ATOM     13  C   UNL     1      31.582  -1.554 -38.889  1.00  0.00    -0.000 C 
BRANCH  13  14
ATOM     14  C   UNL     1      30.357  -0.651 -38.666  1.00  0.00    -0.000 C 
BRANCH  14  15
ATOM     15  C   UNL     1      30.746   0.805 -38.356  1.00  0.00    -0.000 C 
BRANCH  15  16
ATOM     16  C   UNL     1      30.353   1.227 -36.931  1.00  0.00    -0.003 C 
ATOM     17  C   UNL     1      29.303   0.307 -36.308  1.00  0.00     0.004 C 
ENDBRANCH  15  16
ENDBRANCH  14  15
ENDBRANCH  13  14
ENDBRANCH  12  13
ENDBRANCH  11  12
ENDBRANCH  10  11
ENDBRANCH   1  10
TORSDOF 13
ENDMDL
MODEL 3
REMARK VINA RESULT:    -2.982     11.383     13.501
REMARK INTER + INTRA:          -7.441
REMARK INTER:                  -5.234
REMARK INTRA:                  -2.207
REMARK UNBOUND:                -2.193
REMARK SMILES CCCCCCCCCCCCCCC(=O)[O-]
REMARK SMILES IDX 9 1 10 2 11 3 12 4 13 5 14 6 15 7 16 8 17 9 8 10 7 11 6 12
REMARK SMILES IDX 5 13 4 14 3 15 2 16 1 17
REMARK H PARENT
REMARK Flexibility Score: inf
ROOT
ATOM      1  C   UNL     1      24.919  -4.726 -26.196  1.00  0.00     0.000 C 
ENDROOT
BRANCH   1   2
ATOM      2  C   UNL     1      25.765  -3.814 -27.093  1.00  0.00     0.000 C 
BRANCH   2   3
ATOM      3  C   UNL     1      25.189  -3.755 -28.515  1.00  0.00     0.000 C 
BRANCH   3   4
ATOM      4  C   UNL     1      26.268  -3.886 -29.605  1.00  0.00     0.000 C 
BRANCH   4   5
ATOM      5  C   UNL     1      25.925  -4.859 -30.750  1.00  0.00     0.006 C 
BRANCH   5   6
ATOM      6  C   UNL     1      24.462  -4.805 -31.218  1.00  0.00     0.053 C 
BRANCH   6   7
ATOM      7  C   UNL     1      24.353  -4.796 -32.712  1.00  0.00     0.041 C 
ATOM      8  O   UNL     1      23.313  -4.356 -33.269  1.00  0.00    -0.550 OA
ATOM      9  O   UNL     1      25.413  -5.245 -33.489  1.00  0.00    -0.550 OA
ENDBRANCH   6   7
ENDBRANCH   5   6
ENDBRANCH   4   5
ENDBRANCH   3   4
ENDBRANCH   2   3
ENDBRANCH   1   2
BRANCH   1  10
ATOM     10  C   UNL     1      24.071  -5.690 -27.034  1.00  0.00     0.000 C 
BRANCH  10  11
ATOM     11  C   UNL     1      24.433  -7.149 -26.731  1.00  0.00    -0.000 C 
BRANCH  11  12
ATOM     12  C   UNL     1      24.507  -7.978 -28.020  1.00  0.00    -0.000 C 
BRANCH  12  13
ATOM     13  C   UNL     1      25.865  -7.794 -28.714  1.00  0.00    -0.000 C 
BRANCH  13  14
ATOM     14  C   UNL     1      27.052  -7.989 -27.757  1.00  0.00    -0.000 C 
BRANCH  14  15
ATOM     15  C   UNL     1      27.901  -6.716 -27.600  1.00  0.00    -0.000 C 
BRANCH  15  16
ATOM     16  C   UNL     1      28.864  -6.503 -28.779  1.00  0.00    -0.003 C 
ATOM     17  C   UNL     1      29.593  -5.161 -28.715  1.00  0.00     0.004 C 
ENDBRANCH  15  16
ENDBRANCH  14  15
ENDBRANCH  13  14
ENDBRANCH  12  13
ENDBRANCH  11  12
ENDBRANCH  10  11
ENDBRANCH   1  10
TORSDOF 13
ENDMDL
MODEL 4
REMARK VINA RESULT:    -2.980     12.022     13.360
REMARK INTER + INTRA:          -7.437
REMARK INTER:                  -5.512
REMARK INTRA:                  -1.925
REMARK UNBOUND:                -2.193
REMARK SMILES CCCCCCCCCCCCCCC(=O)[O-]
REMARK SMILES IDX 9 1 10 2 11 3 12 4 13 5 14 6 15 7 16 8 17 9 8 10 7 11 6 12
REMARK SMILES IDX 5 13 4 14 3 15 2 16 1 17
REMARK H PARENT
REMARK Flexibility Score: inf
ROOT
ATOM      1  C   UNL     1      25.676  -3.992 -29.181  1.00  0.00     0.000 C 
ENDROOT
BRANCH   1   2
ATOM      2  C   UNL     1      25.851  -4.944 -30.370  1.00  0.00     0.000 C 
BRANCH   2   3
ATOM      3  C   UNL     1      24.512  -5.581 -30.767  1.00  0.00     0.000 C 
BRANCH   3   4
ATOM      4  C   UNL     1      24.083  -5.232 -32.203  1.00  0.00     0.000 C 
BRANCH   4   5
ATOM      5  C   UNL     1      24.705  -3.942 -32.775  1.00  0.00     0.006 C 
BRANCH   5   6
ATOM      6  C   UNL     1      24.968  -3.975 -34.288  1.00  0.00     0.053 C 
BRANCH   6   7
ATOM      7  C   UNL     1      26.267  -4.647 -34.615  1.00  0.00     0.041 C 
ATOM      8  O   UNL     1      27.171  -4.738 -33.744  1.00  0.00    -0.550 OA
ATOM      9  O   UNL     1      26.465  -5.200 -35.875  1.00  0.00    -0.550 OA
ENDBRANCH   6   7
ENDBRANCH   5   6
ENDBRANCH   4   5
ENDBRANCH   3   4
ENDBRANCH   2   3
ENDBRANCH   1   2
BRANCH   1  10
ATOM     10  C   UNL     1      24.216  -3.960 -28.712  1.00  0.00     0.000 C 
BRANCH  10  11
ATOM     11  C   UNL     1      24.119  -4.162 -27.195  1.00  0.00    -0.000 C 
BRANCH  11  12
ATOM     12  C   UNL     1      24.915  -5.396 -26.752  1.00  0.00    -0.000 C 
BRANCH  12  13
ATOM     13  C   UNL     1      24.046  -6.662 -26.815  1.00  0.00    -0.000 C 
BRANCH  13  14
ATOM     14  C   UNL     1      24.664  -7.762 -27.694  1.00  0.00    -0.000 C 
BRANCH  14  15
ATOM     15  C   UNL     1      26.118  -8.081 -27.305  1.00  0.00    -0.000 C 
BRANCH  15  16
ATOM     16  C   UNL     1      27.105  -7.808 -28.451  1.00  0.00    -0.003 C 
ATOM     17  C   UNL     1      28.202  -6.816 -28.065  1.00  0.00     0.004 C 
ENDBRANCH  15  16
ENDBRANCH  14  15
ENDBRANCH  13  14
ENDBRANCH  12  13
ENDBRANCH  11  12
ENDBRANCH  10  11
ENDBRANCH   1  10
TORSDOF 13
ENDMDL
MODEL 5
REMARK VINA RESULT:    -2.978      3.647      8.062
REMARK INTER + INTRA:          -7.434
REMARK INTER:                  -5.690
REMARK INTRA:                  -1.744
REMARK UNBOUND:                -2.193
REMARK SMILES CCCCCCCCCCCCCCC(=O)[O-]
REMARK SMILES IDX 9 1 10 2 11 3 12 4 13 5 14 6 15 7 16 8 17 9 8 10 7 11 6 12
REMARK SMILES IDX 5 13 4 14 3 15 2 16 1 17
REMARK H PARENT
REMARK Flexibility Score: inf
ROOT
ATOM      1  C   UNL     1      29.722   1.681 -35.354  1.00  0.00     0.000 C 
ENDROOT
BRANCH   1   2
ATOM      2  C   UNL     1      31.132   1.960 -34.818  1.00  0.00     0.000 C 
BRANCH   2   3
ATOM      3  C   UNL     1      31.323   1.341 -33.426  1.00  0.00     0.000 C 
BRANCH   3   4
ATOM      4  C   UNL     1      32.411   2.048 -32.599  1.00  0.00     0.000 C 
BRANCH   4   5
ATOM      5  C   UNL     1      33.335   2.986 -33.403  1.00  0.00     0.006 C 
BRANCH   5   6
ATOM      6  C   UNL     1      33.289   4.458 -32.964  1.00  0.00     0.053 C 
BRANCH   6   7
ATOM      7  C   UNL     1      34.645   4.974 -32.592  1.00  0.00     0.041 C 
ATOM      8  O   UNL     1      35.413   5.435 -33.477  1.00  0.00    -0.550 OA
ATOM      9  O   UNL     1      35.048   4.974 -31.262  1.00  0.00    -0.550 OA
ENDBRANCH   6   7
ENDBRANCH   5   6
ENDBRANCH   4   5
ENDBRANCH   3   4
ENDBRANCH   2   3
ENDBRANCH   1   2
BRANCH   1  10
ATOM     10  C   UNL     1      29.749   1.421 -36.865  1.00  0.00     0.000 C 
BRANCH  10  11
ATOM     11  C   UNL     1      29.649  -0.078 -37.169  1.00  0.00    -0.000 C 
BRANCH  11  12
ATOM     12  C   UNL     1      30.614  -0.480 -38.291  1.00  0.00    -0.000 C 
BRANCH  12  13
ATOM     13  C   UNL     1      31.829   0.460 -38.334  1.00  0.00    -0.000 C 
BRANCH  13  14
ATOM     14  C   UNL     1      33.141  -0.249 -37.963  1.00  0.00    -0.000 C 
BRANCH  14  15
ATOM     15  C   UNL     1      33.358  -0.333 -36.443  1.00  0.00    -0.000 C 
BRANCH  15  16
ATOM     16  C   UNL     1      33.233  -1.769 -35.910  1.00  0.00    -0.003 C 
ATOM     17  C   UNL     1      32.065  -1.943 -34.939  1.00  0.00     0.004 C 
ENDBRANCH  15  16
ENDBRANCH  14  15
ENDBRANCH  13  14
ENDBRANCH  12  13
ENDBRANCH  11  12
ENDBRANCH  10  11
ENDBRANCH   1  10
TORSDOF 13
ENDMDL
MODEL 6
REMARK VINA RESULT:    -2.941      5.231      7.539
REMARK INTER + INTRA:          -7.369
REMARK INTER:                  -5.910
REMARK INTRA:                  -1.460
REMARK UNBOUND:                -2.193
REMARK SMILES CCCCCCCCCCCCCCC(=O)[O-]
REMARK SMILES IDX 9 1 10 2 11 3 12 4 13 5 14 6 15 7 16 8 17 9 8 10 7 11 6 12
REMARK SMILES IDX 5 13 4 14 3 15 2 16 1 17
REMARK H PARENT
REMARK Flexibility Score: inf
ROOT
ATOM      1  C   UNL     1      33.286   7.322 -30.073  1.00  0.00     0.000 C 
ENDROOT
BRANCH   1   2
ATOM      2  C   UNL     1      31.885   7.896 -30.316  1.00  0.00     0.000 C 
BRANCH   2   3
ATOM      3  C   UNL     1      31.749   9.296 -29.700  1.00  0.00     0.000 C 
BRANCH   3   4
ATOM      4  C   UNL     1      32.593   9.474 -28.425  1.00  0.00     0.000 C 
BRANCH   4   5
ATOM      5  C   UNL     1      31.786   9.555 -27.113  1.00  0.00     0.006 C 
BRANCH   5   6
ATOM      6  C   UNL     1      32.638   9.518 -25.836  1.00  0.00     0.053 C 
BRANCH   6   7
ATOM      7  C   UNL     1      32.876  10.890 -25.282  1.00  0.00     0.041 C 
ATOM      8  O   UNL     1      32.354  11.232 -24.189  1.00  0.00    -0.550 OA
ATOM      9  O   UNL     1      33.703  11.778 -25.958  1.00  0.00    -0.550 OA
ENDBRANCH   6   7
ENDBRANCH   5   6
ENDBRANCH   4   5
ENDBRANCH   3   4
ENDBRANCH   2   3
ENDBRANCH   1   2
BRANCH   1  10
ATOM     10  C   UNL     1      34.250   7.728 -31.195  1.00  0.00     0.000 C 
BRANCH  10  11
ATOM     11  C   UNL     1      35.538   6.898 -31.142  1.00  0.00    -0.000 C 
BRANCH  11  12
ATOM     12  C   UNL     1      35.249   5.415 -31.410  1.00  0.00    -0.000 C 
BRANCH  12  13
ATOM     13  C   UNL     1      34.987   5.167 -32.903  1.00  0.00    -0.000 C 
BRANCH  13  14
ATOM     14  C   UNL     1      33.688   4.384 -33.156  1.00  0.00    -0.000 C 
BRANCH  14  15
ATOM     15  C   UNL     1      33.151   3.706 -31.884  1.00  0.00    -0.000 C 
BRANCH  15  16
ATOM     16  C   UNL     1      31.756   4.218 -31.490  1.00  0.00    -0.003 C 
ATOM     17  C   UNL     1      31.089   5.034 -32.597  1.00  0.00     0.004 C 
ENDBRANCH  15  16
ENDBRANCH  14  15
ENDBRANCH  13  14
ENDBRANCH  12  13
ENDBRANCH  11  12
ENDBRANCH  10  11
ENDBRANCH   1  10
TORSDOF 13
ENDMDL
MODEL 7
REMARK VINA RESULT:    -2.930      8.525     10.617
REMARK INTER + INTRA:          -7.350
REMARK INTER:                  -5.194
REMARK INTRA:                  -2.156
REMARK UNBOUND:                -2.193
REMARK SMILES CCCCCCCCCCCCCCC(=O)[O-]
REMARK SMILES IDX 9 1 10 2 11 3 12 4 13 5 14 6 15 7 16 8 17 9 8 10 7 11 6 12
REMARK SMILES IDX 5 13 4 14 3 15 2 16 1 17
REMARK H PARENT
REMARK Flexibility Score: inf
ROOT
ATOM      1  C   UNL     1      29.733   0.696 -38.951  1.00  0.00     0.000 C 
ENDROOT
BRANCH   1   2
ATOM      2  C   UNL     1      28.949  -0.498 -39.508  1.00  0.00     0.000 C 
BRANCH   2   3
ATOM      3  C   UNL     1      28.780  -1.591 -38.442  1.00  0.00     0.000 C 
BRANCH   3   4
ATOM      4  C   UNL     1      28.903  -3.013 -39.017  1.00  0.00     0.000 C 
BRANCH   4   5
ATOM      5  C   UNL     1      28.535  -4.147 -38.039  1.00  0.00     0.006 C 
BRANCH   5   6
ATOM      6  C   UNL     1      27.860  -3.677 -36.741  1.00  0.00     0.053 C 
BRANCH   6   7
ATOM      7  C   UNL     1      26.558  -4.379 -36.502  1.00  0.00     0.041 C 
ATOM      8  O   UNL     1      25.470  -3.756 -36.619  1.00  0.00    -0.550 OA
ATOM      9  O   UNL     1      26.546  -5.731 -36.181  1.00  0.00    -0.550 OA
ENDBRANCH   6   7
ENDBRANCH   5   6
ENDBRANCH   4   5
ENDBRANCH   3   4
ENDBRANCH   2   3
ENDBRANCH   1   2
BRANCH   1  10
ATOM     10  C   UNL     1      29.843   0.619 -37.423  1.00  0.00     0.000 C 
BRANCH  10  11
ATOM     11  C   UNL     1      31.309   0.566 -36.977  1.00  0.00    -0.000 C 
BRANCH  11  12
ATOM     12  C   UNL     1      32.253   0.540 -38.187  1.00  0.00    -0.000 C 
BRANCH  12  13
ATOM     13  C   UNL     1      33.108  -0.736 -38.188  1.00  0.00    -0.000 C 
BRANCH  13  14
ATOM     14  C   UNL     1      32.482  -1.870 -39.016  1.00  0.00    -0.000 C 
BRANCH  14  15
ATOM     15  C   UNL     1      32.592  -3.238 -38.320  1.00  0.00    -0.000 C 
BRANCH  15  16
ATOM     16  C   UNL     1      32.766  -3.111 -36.799  1.00  0.00    -0.003 C 
ATOM     17  C   UNL     1      31.433  -3.066 -36.050  1.00  0.00     0.004 C 
ENDBRANCH  15  16
ENDBRANCH  14  15
ENDBRANCH  13  14
ENDBRANCH  12  13
ENDBRANCH  11  12
ENDBRANCH  10  11
ENDBRANCH   1  10
TORSDOF 13
ENDMDL
MODEL 8
REMARK VINA RESULT:    -2.912      6.056      9.806
REMARK INTER + INTRA:          -7.317
REMARK INTER:                  -5.422
REMARK INTRA:                  -1.895
REMARK UNBOUND:                -2.193
REMARK SMILES CCCCCCCCCCCCCCC(=O)[O-]
REMARK SMILES IDX 9 1 10 2 11 3 12 4 13 5 14 6 15 7 16 8 17 9 8 10 7 11 6 12
REMARK SMILES IDX 5 13 4 14 3 15 2 16 1 17
REMARK H PARENT
REMARK Flexibility Score: inf
ROOT
ATOM      1  C   UNL     1      28.986  -0.703 -36.830  1.00  0.00     0.000 C 
ENDROOT
BRANCH   1   2
ATOM      2  C   UNL     1      29.773  -1.864 -36.212  1.00  0.00     0.000 C 
BRANCH   2   3
ATOM      3  C   UNL     1      29.940  -3.013 -37.217  1.00  0.00     0.000 C 
BRANCH   3   4
ATOM      4  C   UNL     1      28.624  -3.388 -37.922  1.00  0.00     0.000 C 
BRANCH   4   5
ATOM      5  C   UNL     1      27.871  -4.584 -37.304  1.00  0.00     0.006 C 
BRANCH   5   6
ATOM      6  C   UNL     1      26.587  -4.209 -36.549  1.00  0.00     0.053 C 
BRANCH   6   7
ATOM      7  C   UNL     1      26.733  -4.399 -35.069  1.00  0.00     0.041 C 
ATOM      8  O   UNL     1      27.267  -3.502 -34.364  1.00  0.00    -0.550 OA
ATOM      9  O   UNL     1      26.249  -5.553 -34.466  1.00  0.00    -0.550 OA
ENDBRANCH   6   7
ENDBRANCH   5   6
ENDBRANCH   4   5
ENDBRANCH   3   4
ENDBRANCH   2   3
ENDBRANCH   1   2
BRANCH   1  10
ATOM     10  C   UNL     1      29.895   0.506 -37.085  1.00  0.00     0.000 C 
BRANCH  10  11
ATOM     11  C   UNL     1      30.566   0.410 -38.460  1.00  0.00    -0.000 C 
BRANCH  11  12
ATOM     12  C   UNL     1      32.090   0.530 -38.340  1.00  0.00    -0.000 C 
BRANCH  12  13
ATOM     13  C   UNL     1      32.759  -0.850 -38.432  1.00  0.00    -0.000 C 
BRANCH  13  14
ATOM     14  C   UNL     1      33.315  -1.332 -37.082  1.00  0.00    -0.000 C 
BRANCH  14  15
ATOM     15  C   UNL     1      33.729  -0.168 -36.165  1.00  0.00    -0.000 C 
BRANCH  15  16
ATOM     16  C   UNL     1      32.962  -0.170 -34.832  1.00  0.00    -0.003 C 
ATOM     17  C   UNL     1      33.051   1.166 -34.095  1.00  0.00     0.004 C 
ENDBRANCH  15  16
ENDBRANCH  14  15
ENDBRANCH  13  14
ENDBRANCH  12  13
ENDBRANCH  11  12
ENDBRANCH  10  11
ENDBRANCH   1  10
TORSDOF 13
ENDMDL
MODEL 9
REMARK VINA RESULT:    -1.935      3.732      6.163
REMARK INTER + INTRA:          -5.599
REMARK INTER:                  -3.515
REMARK INTRA:                  -2.084
REMARK UNBOUND:                -2.193
REMARK SMILES CCCCCCCCCCCCCCC(=O)[O-]
REMARK SMILES IDX 9 1 10 2 11 3 12 4 13 5 14 6 15 7 16 8 17 9 8 10 7 11 6 12
REMARK SMILES IDX 5 13 4 14 3 15 2 16 1 17
REMARK H PARENT
REMARK Flexibility Score: inf
ROOT
ATOM      1  C   UNL     1      31.926   3.569 -31.525  1.00  0.00     0.000 C 
ENDROOT
BRANCH   1   2
ATOM      2  C   UNL     1      33.109   2.926 -30.791  1.00  0.00     0.000 C 
BRANCH   2   3
ATOM      3  C   UNL     1      33.335   3.591 -29.425  1.00  0.00     0.000 C 
BRANCH   3   4
ATOM      4  C   UNL     1      34.811   3.941 -29.166  1.00  0.00     0.000 C 
BRANCH   4   5
ATOM      5  C   UNL     1      35.054   4.933 -28.009  1.00  0.00     0.006 C 
BRANCH   5   6
ATOM      6  C   UNL     1      36.125   4.489 -27.002  1.00  0.00     0.053 C 
BRANCH   6   7
ATOM      7  C   UNL     1      35.519   3.938 -25.747  1.00  0.00     0.041 C 
ATOM      8  O   UNL     1      34.940   4.705 -24.933  1.00  0.00    -0.550 OA
ATOM      9  O   UNL     1      35.567   2.573 -25.494  1.00  0.00    -0.550 OA
ENDBRANCH   6   7
ENDBRANCH   5   6
ENDBRANCH   4   5
ENDBRANCH   3   4
ENDBRANCH   2   3
ENDBRANCH   1   2
BRANCH   1  10
ATOM     10  C   UNL     1      32.412   4.514 -32.631  1.00  0.00     0.000 C 
BRANCH  10  11
ATOM     11  C   UNL     1      33.876   4.235 -32.990  1.00  0.00    -0.000 C 
BRANCH  11  12
ATOM     12  C   UNL     1      34.659   5.542 -33.169  1.00  0.00    -0.000 C 
BRANCH  12  13
ATOM     13  C   UNL     1      35.759   5.673 -32.104  1.00  0.00    -0.000 C 
BRANCH  13  14
ATOM     14  C   UNL     1      35.535   6.867 -31.162  1.00  0.00    -0.000 C 
BRANCH  14  15
ATOM     15  C   UNL     1      34.159   7.526 -31.361  1.00  0.00    -0.000 C 
BRANCH  15  16
ATOM     16  C   UNL     1      33.198   7.242 -30.195  1.00  0.00    -0.003 C 
ATOM     17  C   UNL     1      31.825   7.884 -30.388  1.00  0.00     0.004 C 
ENDBRANCH  15  16
ENDBRANCH  14  15
ENDBRANCH  13  14
ENDBRANCH  12  13
ENDBRANCH  11  12
ENDBRANCH  10  11
ENDBRANCH   1  10
TORSDOF 13
ENDMDL
