MODEL 1
REMARK VINA RESULT:    -4.175      0.000      0.000
REMARK INTER + INTRA:          -4.175
REMARK INTER:                  -4.175
REMARK INTRA:                   0.000
REMARK UNBOUND:                 0.000
REMARK SMILES CC1=CC[C@H]2[C@@H](C1)C2(C)C
REMARK SMILES IDX 1 1 2 2 3 3 4 4 5 5 6 6 7 7 8 8 9 9 10 10
REMARK H PARENT
REMARK Flexibility Score: inf
ROOT
ATOM      1  C   UNL     1     137.702 132.022 136.379  1.00  0.00     0.039 C 
ATOM      2  C   UNL     1     136.389 132.567 135.886  1.00  0.00    -0.077 C 
ATOM      3  C   UNL     1     135.842 132.062 134.768  1.00  0.00    -0.028 C 
ATOM      4  C   UNL     1     134.535 132.574 134.229  1.00  0.00     0.031 C 
ATOM      5  C   UNL     1     133.540 132.913 135.359  1.00  0.00     0.003 C 
ATOM      6  C   UNL     1     134.160 133.500 136.648  1.00  0.00     0.003 C 
ATOM      7  C   UNL     1     135.695 133.676 136.642  1.00  0.00     0.034 C 
ATOM      8  C   UNL     1     133.271 134.376 135.750  1.00  0.00    -0.029 C 
ATOM      9  C   UNL     1     133.887 135.525 134.929  1.00  0.00     0.012 C 
ATOM     10  C   UNL     1     131.867 134.639 136.304  1.00  0.00     0.012 C 
ENDROOT
TORSDOF 0
ENDMDL
MODEL 2
REMARK VINA RESULT:    -4.167      5.800      7.773
REMARK INTER + INTRA:          -4.167
REMARK INTER:                  -4.167
REMARK INTRA:                   0.000
REMARK UNBOUND:                 0.000
REMARK SMILES CC1=CC[C@H]2[C@@H](C1)C2(C)C
REMARK SMILES IDX 1 1 2 2 3 3 4 4 5 5 6 6 7 7 8 8 9 9 10 10
REMARK H PARENT
REMARK Flexibility Score: inf
ROOT
ATOM      1  C   UNL     1     134.929 140.715 136.303  1.00  0.00     0.039 C 
ATOM      2  C   UNL     1     136.236 140.125 135.847  1.00  0.00    -0.077 C 
ATOM      3  C   UNL     1     136.826 140.607 134.739  1.00  0.00    -0.028 C 
ATOM      4  C   UNL     1     138.129 140.051 134.236  1.00  0.00     0.031 C 
ATOM      5  C   UNL     1     139.085 139.689 135.393  1.00  0.00     0.003 C 
ATOM      6  C   UNL     1     138.415 139.129 136.669  1.00  0.00     0.003 C 
ATOM      7  C   UNL     1     136.876 139.001 136.626  1.00  0.00     0.034 C 
ATOM      8  C   UNL     1     139.298 138.220 135.798  1.00  0.00    -0.029 C 
ATOM      9  C   UNL     1     138.667 137.086 134.968  1.00  0.00     0.012 C 
ATOM     10  C   UNL     1     140.679 137.917 136.389  1.00  0.00     0.012 C 
ENDROOT
TORSDOF 0
ENDMDL
MODEL 3
REMARK VINA RESULT:    -4.160      3.713      5.472
REMARK INTER + INTRA:          -4.160
REMARK INTER:                  -4.160
REMARK INTRA:                   0.000
REMARK UNBOUND:                 0.000
REMARK SMILES CC1=CC[C@H]2[C@@H](C1)C2(C)C
REMARK SMILES IDX 1 1 2 2 3 3 4 4 5 5 6 6 7 7 8 8 9 9 10 10
REMARK H PARENT
REMARK Flexibility Score: inf
ROOT
ATOM      1  C   UNL     1     140.542 137.689 136.370  1.00  0.00     0.039 C 
ATOM      2  C   UNL     1     140.011 136.363 135.895  1.00  0.00    -0.077 C 
ATOM      3  C   UNL     1     140.520 135.808 134.783  1.00  0.00    -0.028 C 
ATOM      4  C   UNL     1     140.022 134.488 134.263  1.00  0.00     0.031 C 
ATOM      5  C   UNL     1     139.698 133.504 135.407  1.00  0.00     0.003 C 
ATOM      6  C   UNL     1     139.107 134.134 136.689  1.00  0.00     0.003 C 
ATOM      7  C   UNL     1     138.913 135.666 136.663  1.00  0.00     0.034 C 
ATOM      8  C   UNL     1     138.239 133.223 135.804  1.00  0.00    -0.029 C 
ATOM      9  C   UNL     1     137.081 133.814 134.978  1.00  0.00     0.012 C 
ATOM     10  C   UNL     1     137.994 131.823 136.378  1.00  0.00     0.012 C 
ENDROOT
TORSDOF 0
ENDMDL
MODEL 4
REMARK VINA RESULT:    -4.149      3.793      5.503
REMARK INTER + INTRA:          -4.149
REMARK INTER:                  -4.149
REMARK INTRA:                   0.000
REMARK UNBOUND:                 0.000
REMARK SMILES CC1=CC[C@H]2[C@@H](C1)C2(C)C
REMARK SMILES IDX 1 1 2 2 3 3 4 4 5 5 6 6 7 7 8 8 9 9 10 10
REMARK H PARENT
REMARK Flexibility Score: inf
ROOT
ATOM      1  C   UNL     1     131.912 134.930 136.270  1.00  0.00     0.039 C 
ATOM      2  C   UNL     1     132.501 136.236 135.811  1.00  0.00    -0.077 C 
ATOM      3  C   UNL     1     132.033 136.815 134.693  1.00  0.00    -0.028 C 
ATOM      4  C   UNL     1     132.590 138.117 134.187  1.00  0.00     0.031 C 
ATOM      5  C   UNL     1     132.932 139.083 135.341  1.00  0.00     0.003 C 
ATOM      6  C   UNL     1     133.477 138.425 136.630  1.00  0.00     0.003 C 
ATOM      7  C   UNL     1     133.613 136.887 136.600  1.00  0.00     0.034 C 
ATOM      8  C   UNL     1     134.394 139.306 135.764  1.00  0.00    -0.029 C 
ATOM      9  C   UNL     1     135.542 138.674 134.955  1.00  0.00     0.012 C 
ATOM     10  C   UNL     1     134.682 140.693 136.349  1.00  0.00     0.012 C 
ENDROOT
TORSDOF 0
ENDMDL
MODEL 5
REMARK VINA RESULT:    -4.036      1.341      4.339
REMARK INTER + INTRA:          -4.036
REMARK INTER:                  -4.036
REMARK INTRA:                   0.000
REMARK UNBOUND:                 0.000
REMARK SMILES CC1=CC[C@H]2[C@@H](C1)C2(C)C
REMARK SMILES IDX 1 1 2 2 3 3 4 4 5 5 6 6 7 7 8 8 9 9 10 10
REMARK H PARENT
REMARK Flexibility Score: inf
ROOT
ATOM      1  C   UNL     1     131.645 137.168 134.378  1.00  0.00     0.039 C 
ATOM      2  C   UNL     1     132.357 135.925 134.840  1.00  0.00    -0.077 C 
ATOM      3  C   UNL     1     131.895 135.258 135.911  1.00  0.00    -0.028 C 
ATOM      4  C   UNL     1     132.571 134.015 136.418  1.00  0.00     0.031 C 
ATOM      5  C   UNL     1     133.094 133.134 135.263  1.00  0.00     0.003 C 
ATOM      6  C   UNL     1     133.634 133.893 134.029  1.00  0.00     0.003 C 
ATOM      7  C   UNL     1     133.584 135.435 134.106  1.00  0.00     0.034 C 
ATOM      8  C   UNL     1     134.595 133.098 134.928  1.00  0.00    -0.029 C 
ATOM      9  C   UNL     1     135.610 133.833 135.824  1.00  0.00     0.012 C 
ATOM     10  C   UNL     1     135.082 131.774 134.328  1.00  0.00     0.012 C 
ENDROOT
TORSDOF 0
ENDMDL
MODEL 6
REMARK VINA RESULT:    -4.031      2.785      5.081
REMARK INTER + INTRA:          -4.031
REMARK INTER:                  -4.031
REMARK INTRA:                   0.000
REMARK UNBOUND:                 0.000
REMARK SMILES CC1=CC[C@H]2[C@@H](C1)C2(C)C
REMARK SMILES IDX 1 1 2 2 3 3 4 4 5 5 6 6 7 7 8 8 9 9 10 10
REMARK H PARENT
REMARK Flexibility Score: inf
ROOT
ATOM      1  C   UNL     1     135.452 131.789 134.376  1.00  0.00     0.039 C 
ATOM      2  C   UNL     1     136.708 132.480 134.836  1.00  0.00    -0.077 C 
ATOM      3  C   UNL     1     137.395 131.975 135.875  1.00  0.00    -0.028 C 
ATOM      4  C   UNL     1     138.652 132.628 136.379  1.00  0.00     0.031 C 
ATOM      5  C   UNL     1     139.510 133.191 135.226  1.00  0.00     0.003 C 
ATOM      6  C   UNL     1     138.727 133.779 134.029  1.00  0.00     0.003 C 
ATOM      7  C   UNL     1     137.187 133.731 134.138  1.00  0.00     0.034 C 
ATOM      8  C   UNL     1     139.545 134.704 134.946  1.00  0.00    -0.029 C 
ATOM      9  C   UNL     1     138.834 135.686 135.895  1.00  0.00     0.012 C 
ATOM     10  C   UNL     1     140.858 135.207 134.336  1.00  0.00     0.012 C 
ENDROOT
TORSDOF 0
ENDMDL
MODEL 7
REMARK VINA RESULT:    -4.015      4.315      6.494
REMARK INTER + INTRA:          -4.015
REMARK INTER:                  -4.015
REMARK INTRA:                   0.000
REMARK UNBOUND:                 0.000
REMARK SMILES CC1=CC[C@H]2[C@@H](C1)C2(C)C
REMARK SMILES IDX 1 1 2 2 3 3 4 4 5 5 6 6 7 7 8 8 9 9 10 10
REMARK H PARENT
REMARK Flexibility Score: inf
ROOT
ATOM      1  C   UNL     1     137.331 140.831 134.390  1.00  0.00     0.039 C 
ATOM      2  C   UNL     1     136.056 140.176 134.851  1.00  0.00    -0.077 C 
ATOM      3  C   UNL     1     135.375 140.709 135.880  1.00  0.00    -0.028 C 
ATOM      4  C   UNL     1     134.100 140.093 136.384  1.00  0.00     0.031 C 
ATOM      5  C   UNL     1     133.236 139.537 135.232  1.00  0.00     0.003 C 
ATOM      6  C   UNL     1     134.011 138.917 134.047  1.00  0.00     0.003 C 
ATOM      7  C   UNL     1     135.551 138.929 134.165  1.00  0.00     0.034 C 
ATOM      8  C   UNL     1     133.165 138.023 134.969  1.00  0.00    -0.029 C 
ATOM      9  C   UNL     1     133.847 137.035 135.934  1.00  0.00     0.012 C 
ATOM     10  C   UNL     1     131.845 137.544 134.357  1.00  0.00     0.012 C 
ENDROOT
TORSDOF 0
ENDMDL
MODEL 8
REMARK VINA RESULT:    -4.009      5.394      7.252
REMARK INTER + INTRA:          -4.009
REMARK INTER:                  -4.009
REMARK INTRA:                   0.000
REMARK UNBOUND:                 0.000
REMARK SMILES CC1=CC[C@H]2[C@@H](C1)C2(C)C
REMARK SMILES IDX 1 1 2 2 3 3 4 4 5 5 6 6 7 7 8 8 9 9 10 10
REMARK H PARENT
REMARK Flexibility Score: inf
ROOT
ATOM      1  C   UNL     1     138.128 140.113 134.709  1.00  0.00     0.039 C 
ATOM      2  C   UNL     1     138.933 138.878 135.009  1.00  0.00    -0.077 C 
ATOM      3  C   UNL     1     139.966 138.955 135.866  1.00  0.00    -0.028 C 
ATOM      4  C   UNL     1     140.806 137.753 136.196  1.00  0.00     0.031 C 
ATOM      5  C   UNL     1     139.958 136.467 136.293  1.00  0.00     0.003 C 
ATOM      6  C   UNL     1     138.771 136.368 135.307  1.00  0.00     0.003 C 
ATOM      7  C   UNL     1     138.585 137.564 134.349  1.00  0.00     0.034 C 
ATOM      8  C   UNL     1     139.981 135.430 135.158  1.00  0.00    -0.029 C 
ATOM      9  C   UNL     1     140.952 135.595 133.973  1.00  0.00     0.012 C 
ATOM     10  C   UNL     1     139.728 133.987 135.609  1.00  0.00     0.012 C 
ENDROOT
TORSDOF 0
ENDMDL
MODEL 9
REMARK VINA RESULT:    -3.996      1.830      3.296
REMARK INTER + INTRA:          -3.996
REMARK INTER:                  -3.996
REMARK INTRA:                   0.000
REMARK UNBOUND:                 0.000
REMARK SMILES CC1=CC[C@H]2[C@@H](C1)C2(C)C
REMARK SMILES IDX 1 1 2 2 3 3 4 4 5 5 6 6 7 7 8 8 9 9 10 10
REMARK H PARENT
REMARK Flexibility Score: inf
ROOT
ATOM      1  C   UNL     1     140.096 134.488 134.607  1.00  0.00     0.039 C 
ATOM      2  C   UNL     1     138.867 133.693 134.957  1.00  0.00    -0.077 C 
ATOM      3  C   UNL     1     138.967 132.672 135.825  1.00  0.00    -0.028 C 
ATOM      4  C   UNL     1     137.772 131.842 136.205  1.00  0.00     0.031 C 
ATOM      5  C   UNL     1     136.495 132.698 136.332  1.00  0.00     0.003 C 
ATOM      6  C   UNL     1     136.369 133.872 135.334  1.00  0.00     0.003 C 
ATOM      7  C   UNL     1     137.535 134.040 134.335  1.00  0.00     0.034 C 
ATOM      8  C   UNL     1     135.421 132.665 135.231  1.00  0.00    -0.029 C 
ATOM      9  C   UNL     1     135.544 131.677 134.055  1.00  0.00     0.012 C 
ATOM     10  C   UNL     1     133.994 132.931 135.725  1.00  0.00     0.012 C 
ENDROOT
TORSDOF 0
ENDMDL
