MODEL 1
REMARK VINA RESULT:    22.227      0.000      0.000
REMARK INTER + INTRA:          22.877
REMARK INTER:                  22.877
REMARK INTRA:                   0.000
REMARK UNBOUND:                 0.000
REMARK SMILES C=C1[C@H]2C[C@]3(C[C@@H]1O)[C@H](C)CC[C@@H]3C2(C)C
REMARK SMILES IDX 10 1 9 2 11 3 12 4 13 5 5 6 4 7 3 8 14 9 15 10 16 11 2 12
REMARK SMILES IDX 1 13 7 14 6 15 8 16
REMARK H PARENT 8 17
REMARK Flexibility Score: inf
ROOT
ATOM      1  C   UNL     1     -37.355  30.093 -11.338  1.00  0.00     0.008 C 
ATOM      2  C   UNL     1     -36.903  31.412 -11.988  1.00  0.00    -0.008 C 
ATOM      3  C   UNL     1     -35.376  31.466 -12.123  1.00  0.00     0.004 C 
ATOM      4  C   UNL     1     -34.893  32.343 -10.983  1.00  0.00     0.005 C 
ATOM      5  C   UNL     1     -35.983  33.411 -10.827  1.00  0.00     0.002 C 
ATOM      6  C   UNL     1     -37.305  32.715 -11.223  1.00  0.00    -0.020 C 
ATOM      7  C   UNL     1     -38.047  32.547  -9.890  1.00  0.00     0.016 C 
ATOM      8  C   UNL     1     -37.747  33.871  -9.203  1.00  0.00     0.023 C 
ATOM      9  C   UNL     1     -36.212  34.041  -9.409  1.00  0.00    -0.025 C 
ATOM     10  C   UNL     1     -35.463  33.321  -8.255  1.00  0.00     0.012 C 
ATOM     11  C   UNL     1     -35.752  35.521  -9.375  1.00  0.00     0.012 C 
ATOM     12  C   UNL     1     -38.557  34.948  -9.920  1.00  0.00    -0.045 C 
ATOM     13  C   UNL     1     -39.124  35.939  -9.214  1.00  0.00     0.011 C 
ATOM     14  C   UNL     1     -38.673  34.949 -11.443  1.00  0.00     0.140 C 
ATOM     15  C   UNL     1     -38.180  33.636 -12.125  1.00  0.00     0.044 C 
ENDROOT
BRANCH  14  16
ATOM     16  O   UNL     1     -37.967  36.050 -11.956  1.00  0.00    -0.389 OA
ATOM     17  H   UNL     1     -38.198  36.119 -12.919  1.00  0.00     0.211 HD
ENDBRANCH  14  16
TORSDOF 1
ENDMDL
