MODEL 1
REMARK VINA RESULT:    -3.116      0.000      0.000
REMARK INTER + INTRA:          -4.570
REMARK INTER:                  -4.209
REMARK INTRA:                  -0.362
REMARK UNBOUND:                -0.362
REMARK SMILES CCCCCCCC(=O)[O-]
REMARK SMILES IDX 5 1 6 2 7 3 8 4 9 5 10 6 4 7 3 8 2 9 1 10
REMARK H PARENT
REMARK Flexibility Score: inf
ROOT
ATOM      1  C   UNL     1      62.465  33.387  58.754  1.00  0.00     0.000 C 
ENDROOT
BRANCH   1   2
ATOM      2  C   UNL     1      63.115  31.992  58.820  1.00  0.00     0.006 C 
BRANCH   2   3
ATOM      3  C   UNL     1      64.123  31.857  59.968  1.00  0.00     0.053 C 
BRANCH   3   4
ATOM      4  C   UNL     1      64.285  30.420  60.352  1.00  0.00     0.041 C 
ATOM      5  O   UNL     1      63.429  29.860  61.086  1.00  0.00    -0.550 OA
ATOM      6  O   UNL     1      65.357  29.685  59.861  1.00  0.00    -0.550 OA
ENDBRANCH   3   4
ENDBRANCH   2   3
ENDBRANCH   1   2
BRANCH   1   7
ATOM      7  C   UNL     1      63.284  34.514  59.408  1.00  0.00     0.000 C 
BRANCH   7   8
ATOM      8  C   UNL     1      62.420  35.481  60.235  1.00  0.00    -0.000 C 
BRANCH   8   9
ATOM      9  C   UNL     1      63.035  35.796  61.606  1.00  0.00    -0.003 C 
ATOM     10  C   UNL     1      64.375  35.092  61.826  1.00  0.00     0.004 C 
ENDBRANCH   8   9
ENDBRANCH   7   8
ENDBRANCH   1   7
TORSDOF 6
ENDMDL
MODEL 2
REMARK VINA RESULT:    -3.010     11.886     13.055
REMARK INTER + INTRA:          -4.428
REMARK INTER:                  -4.072
REMARK INTRA:                  -0.356
REMARK UNBOUND:                -0.362
REMARK SMILES CCCCCCCC(=O)[O-]
REMARK SMILES IDX 5 1 6 2 7 3 8 4 9 5 10 6 4 7 3 8 2 9 1 10
REMARK H PARENT
REMARK Flexibility Score: inf
ROOT
ATOM      1  C   UNL     1      56.676  27.824  49.754  1.00  0.00     0.000 C 
ENDROOT
BRANCH   1   2
ATOM      2  C   UNL     1      58.071  28.468  49.858  1.00  0.00     0.006 C 
BRANCH   2   3
ATOM      3  C   UNL     1      58.886  28.342  48.564  1.00  0.00     0.053 C 
BRANCH   3   4
ATOM      4  C   UNL     1      59.888  27.237  48.685  1.00  0.00     0.041 C 
ATOM      5  O   UNL     1      61.119  27.501  48.714  1.00  0.00    -0.550 OA
ATOM      6  O   UNL     1      59.462  25.922  48.815  1.00  0.00    -0.550 OA
ENDBRANCH   3   4
ENDBRANCH   2   3
ENDBRANCH   1   2
BRANCH   1   7
ATOM      7  C   UNL     1      55.591  28.485  50.621  1.00  0.00     0.000 C 
BRANCH   7   8
ATOM      8  C   UNL     1      54.849  29.618  49.892  1.00  0.00    -0.000 C 
BRANCH   8   9
ATOM      9  C   UNL     1      55.211  31.007  50.438  1.00  0.00    -0.003 C 
ATOM     10  C   UNL     1      55.833  30.947  51.834  1.00  0.00     0.004 C 
ENDBRANCH   8   9
ENDBRANCH   7   8
ENDBRANCH   1   7
TORSDOF 6
ENDMDL
MODEL 3
REMARK VINA RESULT:    -2.995      1.534      2.025
REMARK INTER + INTRA:          -4.407
REMARK INTER:                  -4.193
REMARK INTRA:                  -0.214
REMARK UNBOUND:                -0.362
REMARK SMILES CCCCCCCC(=O)[O-]
REMARK SMILES IDX 5 1 6 2 7 3 8 4 9 5 10 6 4 7 3 8 2 9 1 10
REMARK H PARENT
REMARK Flexibility Score: inf
ROOT
ATOM      1  C   UNL     1      63.916  32.348  59.558  1.00  0.00     0.000 C 
ENDROOT
BRANCH   1   2
ATOM      2  C   UNL     1      64.264  31.074  60.349  1.00  0.00     0.006 C 
BRANCH   2   3
ATOM      3  C   UNL     1      63.725  29.797  59.691  1.00  0.00     0.053 C 
BRANCH   3   4
ATOM      4  C   UNL     1      62.330  29.520  60.158  1.00  0.00     0.041 C 
ATOM      5  O   UNL     1      62.130  29.048  61.308  1.00  0.00    -0.550 OA
ATOM      6  O   UNL     1      61.249  29.827  59.341  1.00  0.00    -0.550 OA
ENDBRANCH   3   4
ENDBRANCH   2   3
ENDBRANCH   1   2
BRANCH   1   7
ATOM      7  C   UNL     1      64.194  33.668  60.300  1.00  0.00     0.000 C 
BRANCH   7   8
ATOM      8  C   UNL     1      63.078  34.709  60.109  1.00  0.00    -0.000 C 
BRANCH   8   9
ATOM      9  C   UNL     1      63.003  35.712  61.270  1.00  0.00    -0.003 C 
ATOM     10  C   UNL     1      64.088  35.479  62.321  1.00  0.00     0.004 C 
ENDBRANCH   8   9
ENDBRANCH   7   8
ENDBRANCH   1   7
TORSDOF 6
ENDMDL
MODEL 4
REMARK VINA RESULT:    -2.992      7.921      9.586
REMARK INTER + INTRA:          -4.404
REMARK INTER:                  -3.961
REMARK INTRA:                  -0.443
REMARK UNBOUND:                -0.362
REMARK SMILES CCCCCCCC(=O)[O-]
REMARK SMILES IDX 5 1 6 2 7 3 8 4 9 5 10 6 4 7 3 8 2 9 1 10
REMARK H PARENT
REMARK Flexibility Score: inf
ROOT
ATOM      1  C   UNL     1      72.242  29.431  58.664  1.00  0.00     0.000 C 
ENDROOT
BRANCH   1   2
ATOM      2  C   UNL     1      71.663  30.840  58.435  1.00  0.00     0.006 C 
BRANCH   2   3
ATOM      3  C   UNL     1      71.583  31.669  59.724  1.00  0.00     0.053 C 
BRANCH   3   4
ATOM      4  C   UNL     1      71.006  33.020  59.439  1.00  0.00     0.041 C 
ATOM      5  O   UNL     1      70.761  33.815  60.384  1.00  0.00    -0.550 OA
ATOM      6  O   UNL     1      70.784  33.420  58.127  1.00  0.00    -0.550 OA
ENDBRANCH   3   4
ENDBRANCH   2   3
ENDBRANCH   1   2
BRANCH   1   7
ATOM      7  C   UNL     1      71.251  28.412  59.254  1.00  0.00     0.000 C 
BRANCH   7   8
ATOM      8  C   UNL     1      71.599  28.004  60.696  1.00  0.00    -0.000 C 
BRANCH   8   9
ATOM      9  C   UNL     1      73.040  28.371  61.081  1.00  0.00    -0.003 C 
ATOM     10  C   UNL     1      73.115  29.180  62.376  1.00  0.00     0.004 C 
ENDBRANCH   8   9
ENDBRANCH   7   8
ENDBRANCH   1   7
TORSDOF 6
ENDMDL
MODEL 5
REMARK VINA RESULT:    -2.944     12.660     13.783
REMARK INTER + INTRA:          -4.338
REMARK INTER:                  -3.884
REMARK INTRA:                  -0.453
REMARK UNBOUND:                -0.362
REMARK SMILES CCCCCCCC(=O)[O-]
REMARK SMILES IDX 5 1 6 2 7 3 8 4 9 5 10 6 4 7 3 8 2 9 1 10
REMARK H PARENT
REMARK Flexibility Score: inf
ROOT
ATOM      1  C   UNL     1      58.832  28.279  48.552  1.00  0.00     0.000 C 
ENDROOT
BRANCH   1   2
ATOM      2  C   UNL     1      58.109  28.599  49.873  1.00  0.00     0.006 C 
BRANCH   2   3
ATOM      3  C   UNL     1      56.601  28.320  49.811  1.00  0.00     0.053 C 
BRANCH   3   4
ATOM      4  C   UNL     1      55.828  29.548  50.176  1.00  0.00     0.041 C 
ATOM      5  O   UNL     1      54.705  29.768  49.651  1.00  0.00    -0.550 OA
ATOM      6  O   UNL     1      56.325  30.425  51.132  1.00  0.00    -0.550 OA
ENDBRANCH   3   4
ENDBRANCH   2   3
ENDBRANCH   1   2
BRANCH   1   7
ATOM      7  C   UNL     1      60.169  27.533  48.710  1.00  0.00     0.000 C 
BRANCH   7   8
ATOM      8  C   UNL     1      60.123  26.445  49.796  1.00  0.00    -0.000 C 
BRANCH   8   9
ATOM      9  C   UNL     1      59.417  25.167  49.320  1.00  0.00    -0.003 C 
ATOM     10  C   UNL     1      58.138  24.873  50.105  1.00  0.00     0.004 C 
ENDBRANCH   8   9
ENDBRANCH   7   8
ENDBRANCH   1   7
TORSDOF 6
ENDMDL
MODEL 6
REMARK VINA RESULT:    -2.931     18.279     19.088
REMARK INTER + INTRA:          -4.320
REMARK INTER:                  -3.882
REMARK INTRA:                  -0.438
REMARK UNBOUND:                -0.362
REMARK SMILES CCCCCCCC(=O)[O-]
REMARK SMILES IDX 5 1 6 2 7 3 8 4 9 5 10 6 4 7 3 8 2 9 1 10
REMARK H PARENT
REMARK Flexibility Score: inf
ROOT
ATOM      1  C   UNL     1      57.398  17.180  49.670  1.00  0.00     0.000 C 
ENDROOT
BRANCH   1   2
ATOM      2  C   UNL     1      56.279  18.137  50.121  1.00  0.00     0.006 C 
BRANCH   2   3
ATOM      3  C   UNL     1      56.483  18.665  51.547  1.00  0.00     0.053 C 
BRANCH   3   4
ATOM      4  C   UNL     1      55.165  18.819  52.240  1.00  0.00     0.041 C 
ATOM      5  O   UNL     1      54.923  18.169  53.291  1.00  0.00    -0.550 OA
ATOM      6  O   UNL     1      54.224  19.715  51.752  1.00  0.00    -0.550 OA
ENDBRANCH   3   4
ENDBRANCH   2   3
ENDBRANCH   1   2
BRANCH   1   7
ATOM      7  C   UNL     1      58.791  17.823  49.553  1.00  0.00     0.000 C 
BRANCH   7   8
ATOM      8  C   UNL     1      59.832  17.172  50.480  1.00  0.00    -0.000 C 
BRANCH   8   9
ATOM      9  C   UNL     1      59.263  15.973  51.254  1.00  0.00    -0.003 C 
ATOM     10  C   UNL     1      59.210  16.218  52.762  1.00  0.00     0.004 C 
ENDBRANCH   8   9
ENDBRANCH   7   8
ENDBRANCH   1   7
TORSDOF 6
ENDMDL
MODEL 7
REMARK VINA RESULT:    -2.918      7.685      9.351
REMARK INTER + INTRA:          -4.303
REMARK INTER:                  -3.956
REMARK INTRA:                  -0.347
REMARK UNBOUND:                -0.362
REMARK SMILES CCCCCCCC(=O)[O-]
REMARK SMILES IDX 5 1 6 2 7 3 8 4 9 5 10 6 4 7 3 8 2 9 1 10
REMARK H PARENT
REMARK Flexibility Score: inf
ROOT
ATOM      1  C   UNL     1      72.400  30.509  59.703  1.00  0.00     0.000 C 
ENDROOT
BRANCH   1   2
ATOM      2  C   UNL     1      71.580  31.812  59.660  1.00  0.00     0.006 C 
BRANCH   2   3
ATOM      3  C   UNL     1      70.683  31.912  58.420  1.00  0.00     0.053 C 
BRANCH   3   4
ATOM      4  C   UNL     1      70.659  33.318  57.907  1.00  0.00     0.041 C 
ATOM      5  O   UNL     1      71.181  33.595  56.795  1.00  0.00    -0.550 OA
ATOM      6  O   UNL     1      70.018  34.313  58.634  1.00  0.00    -0.550 OA
ENDBRANCH   3   4
ENDBRANCH   2   3
ENDBRANCH   1   2
BRANCH   1   7
ATOM      7  C   UNL     1      72.789  30.034  61.114  1.00  0.00     0.000 C 
BRANCH   7   8
ATOM      8  C   UNL     1      72.300  28.608  61.421  1.00  0.00    -0.000 C 
BRANCH   8   9
ATOM      9  C   UNL     1      71.099  28.198  60.557  1.00  0.00    -0.003 C 
ATOM     10  C   UNL     1      69.759  28.477  61.240  1.00  0.00     0.004 C 
ENDBRANCH   8   9
ENDBRANCH   7   8
ENDBRANCH   1   7
TORSDOF 6
ENDMDL
MODEL 8
REMARK VINA RESULT:    -2.884      7.755      9.231
REMARK INTER + INTRA:          -4.257
REMARK INTER:                  -3.756
REMARK INTRA:                  -0.501
REMARK UNBOUND:                -0.362
REMARK SMILES CCCCCCCC(=O)[O-]
REMARK SMILES IDX 5 1 6 2 7 3 8 4 9 5 10 6 4 7 3 8 2 9 1 10
REMARK H PARENT
REMARK Flexibility Score: inf
ROOT
ATOM      1  C   UNL     1      72.775  30.538  60.039  1.00  0.00     0.000 C 
ENDROOT
BRANCH   1   2
ATOM      2  C   UNL     1      72.870  29.881  61.429  1.00  0.00     0.006 C 
BRANCH   2   3
ATOM      3  C   UNL     1      72.760  28.352  61.374  1.00  0.00     0.053 C 
BRANCH   3   4
ATOM      4  C   UNL     1      71.523  27.945  60.637  1.00  0.00     0.041 C 
ATOM      5  O   UNL     1      71.609  27.228  59.605  1.00  0.00    -0.550 OA
ATOM      6  O   UNL     1      70.273  28.316  61.115  1.00  0.00    -0.550 OA
ENDBRANCH   3   4
ENDBRANCH   2   3
ENDBRANCH   1   2
BRANCH   1   7
ATOM      7  C   UNL     1      71.643  31.569  59.886  1.00  0.00     0.000 C 
BRANCH   7   8
ATOM      8  C   UNL     1      70.674  31.229  58.740  1.00  0.00    -0.000 C 
BRANCH   8   9
ATOM      9  C   UNL     1      71.343  30.409  57.627  1.00  0.00    -0.003 C 
ATOM     10  C   UNL     1      71.662  31.247  56.389  1.00  0.00     0.004 C 
ENDBRANCH   8   9
ENDBRANCH   7   8
ENDBRANCH   1   7
TORSDOF 6
ENDMDL
MODEL 9
REMARK VINA RESULT:    -2.837      7.693      9.021
REMARK INTER + INTRA:          -4.193
REMARK INTER:                  -3.652
REMARK INTRA:                  -0.541
REMARK UNBOUND:                -0.362
REMARK SMILES CCCCCCCC(=O)[O-]
REMARK SMILES IDX 5 1 6 2 7 3 8 4 9 5 10 6 4 7 3 8 2 9 1 10
REMARK H PARENT
REMARK Flexibility Score: inf
ROOT
ATOM      1  C   UNL     1      71.749  28.805  58.255  1.00  0.00     0.000 C 
ENDROOT
BRANCH   1   2
ATOM      2  C   UNL     1      73.033  29.145  59.036  1.00  0.00     0.006 C 
BRANCH   2   3
ATOM      3  C   UNL     1      73.055  28.533  60.442  1.00  0.00     0.053 C 
BRANCH   3   4
ATOM      4  C   UNL     1      72.380  29.445  61.419  1.00  0.00     0.041 C 
ATOM      5  O   UNL     1      71.143  29.342  61.629  1.00  0.00    -0.550 OA
ATOM      6  O   UNL     1      73.125  30.375  62.132  1.00  0.00    -0.550 OA
ENDBRANCH   3   4
ENDBRANCH   2   3
ENDBRANCH   1   2
BRANCH   1   7
ATOM      7  C   UNL     1      71.136  29.980  57.473  1.00  0.00     0.000 C 
BRANCH   7   8
ATOM      8  C   UNL     1      70.354  30.953  58.371  1.00  0.00    -0.000 C 
BRANCH   8   9
ATOM      9  C   UNL     1      71.048  32.316  58.508  1.00  0.00    -0.003 C 
ATOM     10  C   UNL     1      71.258  32.727  59.966  1.00  0.00     0.004 C 
ENDBRANCH   8   9
ENDBRANCH   7   8
ENDBRANCH   1   7
TORSDOF 6
ENDMDL
