MODEL 1
REMARK VINA RESULT:    -3.178      0.000      0.000
REMARK INTER + INTRA:          -7.140
REMARK INTER:                  -5.593
REMARK INTRA:                  -1.547
REMARK UNBOUND:                -1.547
REMARK SMILES CCCCCCCCCCCCCCC(=O)[O-]
REMARK SMILES IDX 9 1 10 2 11 3 12 4 13 5 14 6 15 7 16 8 17 9 8 10 7 11 6 12
REMARK SMILES IDX 5 13 4 14 3 15 2 16 1 17
REMARK H PARENT
REMARK Flexibility Score: inf
ROOT
ATOM      1  C   UNL     1       0.009  12.479  10.071  1.00  0.00     0.000 C 
ENDROOT
BRANCH   1   2
ATOM      2  C   UNL     1      -0.425  13.254  11.324  1.00  0.00     0.000 C 
BRANCH   2   3
ATOM      3  C   UNL     1      -1.531  14.280  11.031  1.00  0.00     0.000 C 
BRANCH   3   4
ATOM      4  C   UNL     1      -0.935  15.673  10.781  1.00  0.00     0.000 C 
BRANCH   4   5
ATOM      5  C   UNL     1      -0.566  16.407  12.084  1.00  0.00     0.006 C 
BRANCH   5   6
ATOM      6  C   UNL     1      -1.215  17.793  12.234  1.00  0.00     0.053 C 
BRANCH   6   7
ATOM      7  C   UNL     1      -2.423  17.753  13.119  1.00  0.00     0.041 C 
ATOM      8  O   UNL     1      -3.296  18.656  13.041  1.00  0.00    -0.550 OA
ATOM      9  O   UNL     1      -2.566  16.735  14.054  1.00  0.00    -0.550 OA
ENDBRANCH   6   7
ENDBRANCH   5   6
ENDBRANCH   4   5
ENDBRANCH   3   4
ENDBRANCH   2   3
ENDBRANCH   1   2
BRANCH   1  10
ATOM     10  C   UNL     1      -1.157  12.234   9.095  1.00  0.00     0.000 C 
BRANCH  10  11
ATOM     11  C   UNL     1      -0.781  11.277   7.952  1.00  0.00    -0.000 C 
BRANCH  11  12
ATOM     12  C   UNL     1      -0.274   9.918   8.465  1.00  0.00    -0.000 C 
BRANCH  12  13
ATOM     13  C   UNL     1      -1.399   9.053   9.055  1.00  0.00    -0.000 C 
BRANCH  13  14
ATOM     14  C   UNL     1      -1.325   8.944  10.589  1.00  0.00    -0.000 C 
BRANCH  14  15
ATOM     15  C   UNL     1      -2.702   9.153  11.255  1.00  0.00    -0.000 C 
BRANCH  15  16
ATOM     16  C   UNL     1      -2.820  10.482  12.021  1.00  0.00    -0.003 C 
ATOM     17  C   UNL     1      -3.942  11.375  11.499  1.00  0.00     0.004 C 
ENDBRANCH  15  16
ENDBRANCH  14  15
ENDBRANCH  13  14
ENDBRANCH  12  13
ENDBRANCH  11  12
ENDBRANCH  10  11
ENDBRANCH   1  10
TORSDOF 13
ENDMDL
MODEL 2
REMARK VINA RESULT:    -3.105     12.510     14.574
REMARK INTER + INTRA:          -7.012
REMARK INTER:                  -6.055
REMARK INTRA:                  -0.957
REMARK UNBOUND:                -1.547
REMARK SMILES CCCCCCCCCCCCCCC(=O)[O-]
REMARK SMILES IDX 9 1 10 2 11 3 12 4 13 5 14 6 15 7 16 8 17 9 8 10 7 11 6 12
REMARK SMILES IDX 5 13 4 14 3 15 2 16 1 17
REMARK H PARENT
REMARK Flexibility Score: inf
ROOT
ATOM      1  C   UNL     1     -15.691   9.067   7.465  1.00  0.00     0.000 C 
ENDROOT
BRANCH   1   2
ATOM      2  C   UNL     1     -15.396  10.450   6.863  1.00  0.00     0.000 C 
BRANCH   2   3
ATOM      3  C   UNL     1     -16.030  10.639   5.476  1.00  0.00     0.000 C 
BRANCH   3   4
ATOM      4  C   UNL     1     -14.970  11.037   4.439  1.00  0.00     0.000 C 
BRANCH   4   5
ATOM      5  C   UNL     1     -14.067   9.859   4.026  1.00  0.00     0.006 C 
BRANCH   5   6
ATOM      6  C   UNL     1     -12.574  10.213   3.924  1.00  0.00     0.053 C 
BRANCH   6   7
ATOM      7  C   UNL     1     -11.977  10.519   5.263  1.00  0.00     0.041 C 
ATOM      8  O   UNL     1     -11.524  11.668   5.508  1.00  0.00    -0.550 OA
ATOM      9  O   UNL     1     -11.889   9.524   6.228  1.00  0.00    -0.550 OA
ENDBRANCH   6   7
ENDBRANCH   5   6
ENDBRANCH   4   5
ENDBRANCH   3   4
ENDBRANCH   2   3
ENDBRANCH   1   2
BRANCH   1  10
ATOM     10  C   UNL     1     -15.279   8.968   8.946  1.00  0.00     0.000 C 
BRANCH  10  11
ATOM     11  C   UNL     1     -13.775   9.208   9.160  1.00  0.00    -0.000 C 
BRANCH  11  12
ATOM     12  C   UNL     1     -13.410   9.366  10.646  1.00  0.00    -0.000 C 
BRANCH  12  13
ATOM     13  C   UNL     1     -14.578   9.905  11.487  1.00  0.00    -0.000 C 
BRANCH  13  14
ATOM     14  C   UNL     1     -14.115  10.816  12.637  1.00  0.00    -0.000 C 
BRANCH  14  15
ATOM     15  C   UNL     1     -15.289  11.585  13.280  1.00  0.00    -0.000 C 
BRANCH  15  16
ATOM     16  C   UNL     1     -16.508  11.735  12.353  1.00  0.00    -0.003 C 
ATOM     17  C   UNL     1     -17.402  12.914  12.726  1.00  0.00     0.004 C 
ENDBRANCH  15  16
ENDBRANCH  14  15
ENDBRANCH  13  14
ENDBRANCH  12  13
ENDBRANCH  11  12
ENDBRANCH  10  11
ENDBRANCH   1  10
TORSDOF 13
ENDMDL
MODEL 3
REMARK VINA RESULT:    -2.899     15.333     17.356
REMARK INTER + INTRA:          -6.650
REMARK INTER:                  -5.184
REMARK INTRA:                  -1.466
REMARK UNBOUND:                -1.547
REMARK SMILES CCCCCCCCCCCCCCC(=O)[O-]
REMARK SMILES IDX 9 1 10 2 11 3 12 4 13 5 14 6 15 7 16 8 17 9 8 10 7 11 6 12
REMARK SMILES IDX 5 13 4 14 3 15 2 16 1 17
REMARK H PARENT
REMARK Flexibility Score: inf
ROOT
ATOM      1  C   UNL     1     -16.301  10.275   4.250  1.00  0.00     0.000 C 
ENDROOT
BRANCH   1   2
ATOM      2  C   UNL     1     -16.472   9.986   2.751  1.00  0.00     0.000 C 
BRANCH   2   3
ATOM      3  C   UNL     1     -17.943  10.019   2.306  1.00  0.00     0.000 C 
BRANCH   3   4
ATOM      4  C   UNL     1     -18.267  11.335   1.584  1.00  0.00     0.000 C 
BRANCH   4   5
ATOM      5  C   UNL     1     -18.552  11.138   0.083  1.00  0.00     0.006 C 
BRANCH   5   6
ATOM      6  C   UNL     1     -17.690  12.010  -0.844  1.00  0.00     0.053 C 
BRANCH   6   7
ATOM      7  C   UNL     1     -16.503  11.264  -1.372  1.00  0.00     0.041 C 
ATOM      8  O   UNL     1     -16.293  10.075  -1.017  1.00  0.00    -0.550 OA
ATOM      9  O   UNL     1     -15.610  11.895  -2.229  1.00  0.00    -0.550 OA
ENDBRANCH   6   7
ENDBRANCH   5   6
ENDBRANCH   4   5
ENDBRANCH   3   4
ENDBRANCH   2   3
ENDBRANCH   1   2
BRANCH   1  10
ATOM     10  C   UNL     1     -15.384  11.483   4.518  1.00  0.00     0.000 C 
BRANCH  10  11
ATOM     11  C   UNL     1     -14.944  11.578   5.989  1.00  0.00    -0.000 C 
BRANCH  11  12
ATOM     12  C   UNL     1     -15.338  10.333   6.802  1.00  0.00    -0.000 C 
BRANCH  12  13
ATOM     13  C   UNL     1     -14.141   9.413   7.090  1.00  0.00    -0.000 C 
BRANCH  13  14
ATOM     14  C   UNL     1     -12.790  10.068   6.752  1.00  0.00    -0.000 C 
BRANCH  14  15
ATOM     15  C   UNL     1     -11.998   9.260   5.702  1.00  0.00    -0.000 C 
BRANCH  15  16
ATOM     16  C   UNL     1     -12.052   9.867   4.290  1.00  0.00    -0.003 C 
ATOM     17  C   UNL     1     -12.850   9.018   3.303  1.00  0.00     0.004 C 
ENDBRANCH  15  16
ENDBRANCH  14  15
ENDBRANCH  13  14
ENDBRANCH  12  13
ENDBRANCH  11  12
ENDBRANCH  10  11
ENDBRANCH   1  10
TORSDOF 13
ENDMDL
MODEL 4
REMARK VINA RESULT:    -2.897      3.184      6.862
REMARK INTER + INTRA:          -6.645
REMARK INTER:                  -5.173
REMARK INTRA:                  -1.472
REMARK UNBOUND:                -1.547
REMARK SMILES CCCCCCCCCCCCCCC(=O)[O-]
REMARK SMILES IDX 9 1 10 2 11 3 12 4 13 5 14 6 15 7 16 8 17 9 8 10 7 11 6 12
REMARK SMILES IDX 5 13 4 14 3 15 2 16 1 17
REMARK H PARENT
REMARK Flexibility Score: inf
ROOT
ATOM      1  C   UNL     1      -2.626  12.916  10.566  1.00  0.00     0.000 C 
ENDROOT
BRANCH   1   2
ATOM      2  C   UNL     1      -2.278  11.980  11.733  1.00  0.00     0.000 C 
BRANCH   2   3
ATOM      3  C   UNL     1      -2.228  10.502  11.313  1.00  0.00     0.000 C 
BRANCH   3   4
ATOM      4  C   UNL     1      -0.826   9.917  11.536  1.00  0.00     0.000 C 
BRANCH   4   5
ATOM      5  C   UNL     1      -0.025   9.770  10.230  1.00  0.00     0.006 C 
BRANCH   5   6
ATOM      6  C   UNL     1      -0.838  10.045   8.955  1.00  0.00     0.053 C 
BRANCH   6   7
ATOM      7  C   UNL     1      -0.241  11.148   8.135  1.00  0.00     0.041 C 
ATOM      8  O   UNL     1       0.996  11.375   8.184  1.00  0.00    -0.550 OA
ATOM      9  O   UNL     1      -1.058  11.947   7.344  1.00  0.00    -0.550 OA
ENDBRANCH   6   7
ENDBRANCH   5   6
ENDBRANCH   4   5
ENDBRANCH   3   4
ENDBRANCH   2   3
ENDBRANCH   1   2
BRANCH   1  10
ATOM     10  C   UNL     1      -1.576  14.023  10.363  1.00  0.00     0.000 C 
BRANCH  10  11
ATOM     11  C   UNL     1      -0.189  13.629  10.898  1.00  0.00    -0.000 C 
BRANCH  11  12
ATOM     12  C   UNL     1       0.416  14.707  11.814  1.00  0.00    -0.000 C 
BRANCH  12  13
ATOM     13  C   UNL     1      -0.578  15.834  12.136  1.00  0.00    -0.000 C 
BRANCH  13  14
ATOM     14  C   UNL     1       0.119  17.156  12.504  1.00  0.00    -0.000 C 
BRANCH  14  15
ATOM     15  C   UNL     1      -0.866  18.189  13.094  1.00  0.00    -0.000 C 
BRANCH  15  16
ATOM     16  C   UNL     1      -2.289  17.639  13.291  1.00  0.00    -0.003 C 
ATOM     17  C   UNL     1      -3.363  18.720  13.213  1.00  0.00     0.004 C 
ENDBRANCH  15  16
ENDBRANCH  14  15
ENDBRANCH  13  14
ENDBRANCH  12  13
ENDBRANCH  11  12
ENDBRANCH  10  11
ENDBRANCH   1  10
TORSDOF 13
ENDMDL
MODEL 5
REMARK VINA RESULT:    -2.850     15.824     17.673
REMARK INTER + INTRA:          -6.562
REMARK INTER:                  -5.516
REMARK INTRA:                  -1.046
REMARK UNBOUND:                -1.547
REMARK SMILES CCCCCCCCCCCCCCC(=O)[O-]
REMARK SMILES IDX 9 1 10 2 11 3 12 4 13 5 14 6 15 7 16 8 17 9 8 10 7 11 6 12
REMARK SMILES IDX 5 13 4 14 3 15 2 16 1 17
REMARK H PARENT
REMARK Flexibility Score: inf
ROOT
ATOM      1  C   UNL     1     -15.865   9.139   2.054  1.00  0.00     0.000 C 
ENDROOT
BRANCH   1   2
ATOM      2  C   UNL     1     -16.244   9.255   0.569  1.00  0.00     0.000 C 
BRANCH   2   3
ATOM      3  C   UNL     1     -17.617   9.914   0.359  1.00  0.00     0.000 C 
BRANCH   3   4
ATOM      4  C   UNL     1     -17.481  11.218  -0.440  1.00  0.00     0.000 C 
BRANCH   4   5
ATOM      5  C   UNL     1     -18.401  12.337   0.082  1.00  0.00     0.006 C 
BRANCH   5   6
ATOM      6  C   UNL     1     -18.406  13.607  -0.785  1.00  0.00     0.053 C 
BRANCH   6   7
ATOM      7  C   UNL     1     -18.504  14.851   0.044  1.00  0.00     0.041 C 
ATOM      8  O   UNL     1     -18.688  14.772   1.287  1.00  0.00    -0.550 OA
ATOM      9  O   UNL     1     -18.427  16.099  -0.562  1.00  0.00    -0.550 OA
ENDBRANCH   6   7
ENDBRANCH   5   6
ENDBRANCH   4   5
ENDBRANCH   3   4
ENDBRANCH   2   3
ENDBRANCH   1   2
BRANCH   1  10
ATOM     10  C   UNL     1     -16.771   9.990   2.963  1.00  0.00     0.000 C 
BRANCH  10  11
ATOM     11  C   UNL     1     -15.976  10.792   4.007  1.00  0.00    -0.000 C 
BRANCH  11  12
ATOM     12  C   UNL     1     -15.639   9.961   5.256  1.00  0.00    -0.000 C 
BRANCH  12  13
ATOM     13  C   UNL     1     -14.798  10.744   6.277  1.00  0.00    -0.000 C 
BRANCH  13  14
ATOM     14  C   UNL     1     -13.420  11.152   5.727  1.00  0.00    -0.000 C 
BRANCH  14  15
ATOM     15  C   UNL     1     -12.325  10.120   6.074  1.00  0.00    -0.000 C 
BRANCH  15  16
ATOM     16  C   UNL     1     -11.698   9.449   4.840  1.00  0.00    -0.003 C 
ATOM     17  C   UNL     1     -12.430   9.782   3.542  1.00  0.00     0.004 C 
ENDBRANCH  15  16
ENDBRANCH  14  15
ENDBRANCH  13  14
ENDBRANCH  12  13
ENDBRANCH  11  12
ENDBRANCH  10  11
ENDBRANCH   1  10
TORSDOF 13
ENDMDL
MODEL 6
REMARK VINA RESULT:    -2.841     15.502     17.381
REMARK INTER + INTRA:          -6.546
REMARK INTER:                  -5.777
REMARK INTRA:                  -0.769
REMARK UNBOUND:                -1.547
REMARK SMILES CCCCCCCCCCCCCCC(=O)[O-]
REMARK SMILES IDX 9 1 10 2 11 3 12 4 13 5 14 6 15 7 16 8 17 9 8 10 7 11 6 12
REMARK SMILES IDX 5 13 4 14 3 15 2 16 1 17
REMARK H PARENT
REMARK Flexibility Score: inf
ROOT
ATOM      1  C   UNL     1     -17.595  10.782   1.986  1.00  0.00     0.000 C 
ENDROOT
BRANCH   1   2
ATOM      2  C   UNL     1     -16.570   9.879   2.689  1.00  0.00     0.000 C 
BRANCH   2   3
ATOM      3  C   UNL     1     -16.025  10.499   3.985  1.00  0.00     0.000 C 
BRANCH   3   4
ATOM      4  C   UNL     1     -14.882   9.650   4.560  1.00  0.00     0.000 C 
BRANCH   4   5
ATOM      5  C   UNL     1     -13.595   9.732   3.718  1.00  0.00     0.006 C 
BRANCH   5   6
ATOM      6  C   UNL     1     -12.315   9.356   4.481  1.00  0.00     0.053 C 
BRANCH   6   7
ATOM      7  C   UNL     1     -12.084  10.246   5.662  1.00  0.00     0.041 C 
ATOM      8  O   UNL     1     -12.316   9.828   6.827  1.00  0.00    -0.550 OA
ATOM      9  O   UNL     1     -11.645  11.551   5.474  1.00  0.00    -0.550 OA
ENDBRANCH   6   7
ENDBRANCH   5   6
ENDBRANCH   4   5
ENDBRANCH   3   4
ENDBRANCH   2   3
ENDBRANCH   1   2
BRANCH   1  10
ATOM     10  C   UNL     1     -17.686  10.506   0.474  1.00  0.00     0.000 C 
BRANCH  10  11
ATOM     11  C   UNL     1     -16.633   9.495  -0.009  1.00  0.00    -0.000 C 
BRANCH  11  12
ATOM     12  C   UNL     1     -16.157   9.780  -1.444  1.00  0.00    -0.000 C 
BRANCH  12  13
ATOM     13  C   UNL     1     -16.118  11.282  -1.765  1.00  0.00    -0.000 C 
BRANCH  13  14
ATOM     14  C   UNL     1     -14.907  11.675  -2.629  1.00  0.00    -0.000 C 
BRANCH  14  15
ATOM     15  C   UNL     1     -13.845  10.555  -2.688  1.00  0.00    -0.000 C 
BRANCH  15  16
ATOM     16  C   UNL     1     -12.736  10.812  -3.722  1.00  0.00    -0.003 C 
ATOM     17  C   UNL     1     -12.840   9.906  -4.947  1.00  0.00     0.004 C 
ENDBRANCH  15  16
ENDBRANCH  14  15
ENDBRANCH  13  14
ENDBRANCH  12  13
ENDBRANCH  11  12
ENDBRANCH  10  11
ENDBRANCH   1  10
TORSDOF 13
ENDMDL
MODEL 7
REMARK VINA RESULT:    -2.801     15.933     17.638
REMARK INTER + INTRA:          -6.476
REMARK INTER:                  -5.492
REMARK INTRA:                  -0.984
REMARK UNBOUND:                -1.547
REMARK SMILES CCCCCCCCCCCCCCC(=O)[O-]
REMARK SMILES IDX 9 1 10 2 11 3 12 4 13 5 14 6 15 7 16 8 17 9 8 10 7 11 6 12
REMARK SMILES IDX 5 13 4 14 3 15 2 16 1 17
REMARK H PARENT
REMARK Flexibility Score: inf
ROOT
ATOM      1  C   UNL     1     -13.506   8.882  -0.907  1.00  0.00     0.000 C 
ENDROOT
BRANCH   1   2
ATOM      2  C   UNL     1     -12.307   9.571  -0.238  1.00  0.00     0.000 C 
BRANCH   2   3
ATOM      3  C   UNL     1     -11.875   8.875   1.063  1.00  0.00     0.000 C 
BRANCH   3   4
ATOM      4  C   UNL     1     -12.984   8.956   2.121  1.00  0.00     0.000 C 
BRANCH   4   5
ATOM      5  C   UNL     1     -12.452   9.333   3.516  1.00  0.00     0.006 C 
BRANCH   5   6
ATOM      6  C   UNL     1     -13.329  10.343   4.275  1.00  0.00     0.053 C 
BRANCH   6   7
ATOM      7  C   UNL     1     -13.106  10.278   5.755  1.00  0.00     0.041 C 
ATOM      8  O   UNL     1     -12.066   9.738   6.216  1.00  0.00    -0.550 OA
ATOM      9  O   UNL     1     -14.063  10.783   6.625  1.00  0.00    -0.550 OA
ENDBRANCH   6   7
ENDBRANCH   5   6
ENDBRANCH   4   5
ENDBRANCH   3   4
ENDBRANCH   2   3
ENDBRANCH   1   2
BRANCH   1  10
ATOM     10  C   UNL     1     -14.275   9.824  -1.853  1.00  0.00     0.000 C 
BRANCH  10  11
ATOM     11  C   UNL     1     -15.689  10.149  -1.344  1.00  0.00    -0.000 C 
BRANCH  11  12
ATOM     12  C   UNL     1     -16.355  11.285  -2.139  1.00  0.00    -0.000 C 
BRANCH  12  13
ATOM     13  C   UNL     1     -15.331  12.246  -2.764  1.00  0.00    -0.000 C 
BRANCH  13  14
ATOM     14  C   UNL     1     -15.611  12.532  -4.250  1.00  0.00    -0.000 C 
BRANCH  14  15
ATOM     15  C   UNL     1     -14.319  12.540  -5.095  1.00  0.00    -0.000 C 
BRANCH  15  16
ATOM     16  C   UNL     1     -13.688  11.148  -5.267  1.00  0.00    -0.003 C 
ATOM     17  C   UNL     1     -14.709  10.066  -5.607  1.00  0.00     0.004 C 
ENDBRANCH  15  16
ENDBRANCH  14  15
ENDBRANCH  13  14
ENDBRANCH  12  13
ENDBRANCH  11  12
ENDBRANCH  10  11
ENDBRANCH   1  10
TORSDOF 13
ENDMDL
MODEL 8
REMARK VINA RESULT:    -2.785     18.999     20.510
REMARK INTER + INTRA:          -6.448
REMARK INTER:                  -4.967
REMARK INTRA:                  -1.482
REMARK UNBOUND:                -1.547
REMARK SMILES CCCCCCCCCCCCCCC(=O)[O-]
REMARK SMILES IDX 9 1 10 2 11 3 12 4 13 5 14 6 15 7 16 8 17 9 8 10 7 11 6 12
REMARK SMILES IDX 5 13 4 14 3 15 2 16 1 17
REMARK H PARENT
REMARK Flexibility Score: inf
ROOT
ATOM      1  C   UNL     1     -13.344  10.824  -2.544  1.00  0.00     0.000 C 
ENDROOT
BRANCH   1   2
ATOM      2  C   UNL     1     -14.030   9.528  -2.087  1.00  0.00     0.000 C 
BRANCH   2   3
ATOM      3  C   UNL     1     -15.489   9.749  -1.657  1.00  0.00     0.000 C 
BRANCH   3   4
ATOM      4  C   UNL     1     -15.866  11.235  -1.746  1.00  0.00     0.000 C 
BRANCH   4   5
ATOM      5  C   UNL     1     -17.323  11.507  -1.327  1.00  0.00     0.006 C 
BRANCH   5   6
ATOM      6  C   UNL     1     -17.763  12.972  -1.484  1.00  0.00     0.053 C 
BRANCH   6   7
ATOM      7  C   UNL     1     -18.286  13.541  -0.201  1.00  0.00     0.041 C 
ATOM      8  O   UNL     1     -18.834  12.791   0.648  1.00  0.00    -0.550 OA
ATOM      9  O   UNL     1     -18.200  14.906   0.040  1.00  0.00    -0.550 OA
ENDBRANCH   6   7
ENDBRANCH   5   6
ENDBRANCH   4   5
ENDBRANCH   3   4
ENDBRANCH   2   3
ENDBRANCH   1   2
BRANCH   1  10
ATOM     10  C   UNL     1     -12.749  10.710  -3.960  1.00  0.00     0.000 C 
BRANCH  10  11
ATOM     11  C   UNL     1     -13.675   9.960  -4.933  1.00  0.00    -0.000 C 
BRANCH  11  12
ATOM     12  C   UNL     1     -14.186  10.861  -6.070  1.00  0.00    -0.000 C 
BRANCH  12  13
ATOM     13  C   UNL     1     -13.741  12.323  -5.911  1.00  0.00    -0.000 C 
BRANCH  13  14
ATOM     14  C   UNL     1     -14.919  13.313  -5.961  1.00  0.00    -0.000 C 
BRANCH  14  15
ATOM     15  C   UNL     1     -15.961  13.034  -4.857  1.00  0.00    -0.000 C 
BRANCH  15  16
ATOM     16  C   UNL     1     -17.193  13.952  -4.928  1.00  0.00    -0.003 C 
ATOM     17  C   UNL     1     -17.165  14.900  -6.124  1.00  0.00     0.004 C 
ENDBRANCH  15  16
ENDBRANCH  14  15
ENDBRANCH  13  14
ENDBRANCH  12  13
ENDBRANCH  11  12
ENDBRANCH  10  11
ENDBRANCH   1  10
TORSDOF 13
ENDMDL
