MODEL 1
REMARK VINA RESULT:    -5.521      0.000      0.000
REMARK INTER + INTRA:         -10.431
REMARK INTER:                  -7.619
REMARK INTRA:                  -2.811
REMARK UNBOUND:                -2.811
REMARK SMILES CC[C@H](CC[C@@H](C)[C@H]1CC[C@@H]2[C@H]3CC=C4C[C@H](O)CC[C@@]4(C)[C@H]3CC[C@]21C)C(C)C
REMARK SMILES IDX 5 1 4 2 3 3 2 4 1 5 28 6 29 7 30 8 6 9 7 10 8 11 9 12 26 13
REMARK SMILES IDX 10 14 11 15 25 16 27 17 12 18 24 19 23 20 13 21 21 22 14 23
REMARK SMILES IDX 15 24 20 25 22 26 16 27 19 28 17 29 18 30
REMARK H PARENT 18 31
REMARK Flexibility Score: inf
ROOT
ATOM      1  C   UNL     1      10.009  -9.104  37.668  1.00  0.00     0.004 C 
ENDROOT
BRANCH   1   2
ATOM      2  C   UNL     1      10.884  -7.901  38.089  1.00  0.00     0.004 C 
BRANCH   2   3
ATOM      3  C   UNL     1      12.285  -8.339  38.603  1.00  0.00    -0.009 C 
BRANCH   3   4
ATOM      4  C   UNL     1      13.388  -7.550  37.838  1.00  0.00     0.000 C 
ATOM      5  C   UNL     1      13.036  -7.222  36.387  1.00  0.00     0.004 C 
ENDBRANCH   3   4
BRANCH   3   6
ATOM      6  C   UNL     1      12.356  -8.234  40.170  1.00  0.00    -0.014 C 
ATOM      7  C   UNL     1      12.636  -9.588  40.843  1.00  0.00     0.007 C 
ATOM      8  C   UNL     1      13.323  -7.157  40.688  1.00  0.00     0.007 C 
ENDBRANCH   3   6
ENDBRANCH   2   3
ENDBRANCH   1   2
BRANCH   1   9
ATOM      9  C   UNL     1       8.484  -8.923  37.934  1.00  0.00    -0.011 C 
ATOM     10  C   UNL     1       7.690  -9.754  36.898  1.00  0.00     0.008 C 
BRANCH   9  11
ATOM     11  C   UNL     1       8.060  -9.267  39.407  1.00  0.00    -0.002 C 
ATOM     12  C   UNL     1       8.927 -10.377  40.047  1.00  0.00     0.005 C 
ATOM     13  C   UNL     1       8.017  -8.104  40.487  1.00  0.00    -0.026 C 
ATOM     14  C   UNL     1       9.057 -10.037  41.522  1.00  0.00     0.005 C 
ATOM     15  C   UNL     1       9.097  -8.519  41.505  1.00  0.00    -0.001 C 
ATOM     16  C   UNL     1       8.363  -6.651  40.051  1.00  0.00     0.007 C 
ATOM     17  C   UNL     1       6.574  -8.114  41.089  1.00  0.00     0.012 C 
ATOM     18  C   UNL     1       8.983  -7.772  42.860  1.00  0.00     0.000 C 
ATOM     19  C   UNL     1       9.029  -5.777  41.156  1.00  0.00     0.005 C 
ATOM     20  C   UNL     1       8.769  -6.206  42.640  1.00  0.00     0.003 C 
ATOM     21  C   UNL     1      10.188  -8.125  43.784  1.00  0.00     0.031 C 
ATOM     22  C   UNL     1       9.562  -5.325  43.689  1.00  0.00    -0.008 C 
ATOM     23  C   UNL     1      11.287  -7.111  43.715  1.00  0.00    -0.027 C 
ATOM     24  C   UNL     1      11.014  -5.798  43.744  1.00  0.00    -0.065 C 
ATOM     25  C   UNL     1       9.551  -3.803  43.328  1.00  0.00     0.014 C 
ATOM     26  C   UNL     1       8.891  -5.481  45.086  1.00  0.00     0.016 C 
ATOM     27  C   UNL     1      12.149  -4.803  43.602  1.00  0.00     0.063 C 
ATOM     28  C   UNL     1      10.425  -2.971  44.282  1.00  0.00     0.033 C 
ATOM     29  C   UNL     1      11.885  -3.491  44.378  1.00  0.00     0.118 C 
BRANCH  29  30
ATOM     30  O   UNL     1      12.276  -3.619  45.722  1.00  0.00    -0.393 OA
ATOM     31  H   UNL     1      11.708  -4.319  46.135  1.00  0.00     0.210 HD
ENDBRANCH  29  30
ENDBRANCH   9  11
ENDBRANCH   1   9
TORSDOF 7
ENDMDL
MODEL 2
REMARK VINA RESULT:    -5.311      7.133     11.093
REMARK INTER + INTRA:         -10.140
REMARK INTER:                  -7.089
REMARK INTRA:                  -3.051
REMARK UNBOUND:                -2.811
REMARK SMILES CC[C@H](CC[C@@H](C)[C@H]1CC[C@@H]2[C@H]3CC=C4C[C@H](O)CC[C@@]4(C)[C@H]3CC[C@]21C)C(C)C
REMARK SMILES IDX 5 1 4 2 3 3 2 4 1 5 28 6 29 7 30 8 6 9 7 10 8 11 9 12 26 13
REMARK SMILES IDX 10 14 11 15 25 16 27 17 12 18 24 19 23 20 13 21 21 22 14 23
REMARK SMILES IDX 15 24 20 25 22 26 16 27 19 28 17 29 18 30
REMARK H PARENT 18 31
REMARK Flexibility Score: inf
ROOT
ATOM      1  C   UNL     1      13.663  -7.082  32.065  1.00  0.00     0.004 C 
ENDROOT
BRANCH   1   2
ATOM      2  C   UNL     1      12.731  -7.112  33.299  1.00  0.00     0.004 C 
BRANCH   2   3
ATOM      3  C   UNL     1      12.407  -8.561  33.761  1.00  0.00    -0.009 C 
BRANCH   3   4
ATOM      4  C   UNL     1      12.497  -8.643  35.312  1.00  0.00     0.000 C 
ATOM      5  C   UNL     1      12.530  -7.285  36.014  1.00  0.00     0.004 C 
ENDBRANCH   3   4
BRANCH   3   6
ATOM      6  C   UNL     1      11.044  -9.046  33.145  1.00  0.00    -0.014 C 
ATOM      7  C   UNL     1      11.154 -10.422  32.468  1.00  0.00     0.007 C 
ATOM      8  C   UNL     1       9.861  -9.013  34.126  1.00  0.00     0.007 C 
ENDBRANCH   3   6
ENDBRANCH   2   3
ENDBRANCH   1   2
BRANCH   1   9
ATOM      9  C   UNL     1      13.292  -6.011  30.996  1.00  0.00    -0.011 C 
ATOM     10  C   UNL     1      14.592  -5.383  30.439  1.00  0.00     0.008 C 
BRANCH   9  11
ATOM     11  C   UNL     1      12.372  -6.564  29.849  1.00  0.00    -0.002 C 
ATOM     12  C   UNL     1      12.572  -8.075  29.583  1.00  0.00     0.005 C 
ATOM     13  C   UNL     1      10.800  -6.370  29.961  1.00  0.00    -0.026 C 
ATOM     14  C   UNL     1      11.214  -8.637  29.199  1.00  0.00     0.005 C 
ATOM     15  C   UNL     1      10.266  -7.813  30.053  1.00  0.00    -0.001 C 
ATOM     16  C   UNL     1      10.215  -5.609  31.187  1.00  0.00     0.007 C 
ATOM     17  C   UNL     1      10.351  -5.634  28.657  1.00  0.00     0.012 C 
ATOM     18  C   UNL     1       8.745  -7.924  29.768  1.00  0.00     0.000 C 
ATOM     19  C   UNL     1       8.802  -6.085  31.638  1.00  0.00     0.005 C 
ATOM     20  C   UNL     1       7.926  -6.805  30.558  1.00  0.00     0.003 C 
ATOM     21  C   UNL     1       8.244  -9.378  30.023  1.00  0.00     0.031 C 
ATOM     22  C   UNL     1       6.550  -7.340  31.129  1.00  0.00    -0.008 C 
ATOM     23  C   UNL     1       7.647  -9.553  31.386  1.00  0.00    -0.027 C 
ATOM     24  C   UNL     1       6.796  -8.644  31.886  1.00  0.00    -0.065 C 
ATOM     25  C   UNL     1       5.867  -6.324  32.103  1.00  0.00     0.014 C 
ATOM     26  C   UNL     1       5.573  -7.581  29.941  1.00  0.00     0.016 C 
ATOM     27  C   UNL     1       6.267  -8.823  33.295  1.00  0.00     0.063 C 
ATOM     28  C   UNL     1       4.595  -6.900  32.748  1.00  0.00     0.033 C 
ATOM     29  C   UNL     1       4.838  -8.256  33.466  1.00  0.00     0.118 C 
BRANCH  29  30
ATOM     30  O   UNL     1       3.876  -9.202  33.075  1.00  0.00    -0.393 OA
ATOM     31  H   UNL     1       4.025  -9.404  32.115  1.00  0.00     0.210 HD
ENDBRANCH  29  30
ENDBRANCH   9  11
ENDBRANCH   1   9
TORSDOF 7
ENDMDL
MODEL 3
REMARK VINA RESULT:    -4.757      3.544      6.481
REMARK INTER + INTRA:          -9.375
REMARK INTER:                  -6.344
REMARK INTRA:                  -3.031
REMARK UNBOUND:                -2.811
REMARK SMILES CC[C@H](CC[C@@H](C)[C@H]1CC[C@@H]2[C@H]3CC=C4C[C@H](O)CC[C@@]4(C)[C@H]3CC[C@]21C)C(C)C
REMARK SMILES IDX 5 1 4 2 3 3 2 4 1 5 28 6 29 7 30 8 6 9 7 10 8 11 9 12 26 13
REMARK SMILES IDX 10 14 11 15 25 16 27 17 12 18 24 19 23 20 13 21 21 22 14 23
REMARK SMILES IDX 15 24 20 25 22 26 16 27 19 28 17 29 18 30
REMARK H PARENT 18 31
REMARK Flexibility Score: inf
ROOT
ATOM      1  C   UNL     1       5.122 -14.210  41.983  1.00  0.00     0.004 C 
ENDROOT
BRANCH   1   2
ATOM      2  C   UNL     1       6.035 -13.575  43.058  1.00  0.00     0.004 C 
BRANCH   2   3
ATOM      3  C   UNL     1       5.590 -12.133  43.435  1.00  0.00    -0.009 C 
BRANCH   3   4
ATOM      4  C   UNL     1       4.468 -12.202  44.512  1.00  0.00     0.000 C 
ATOM      5  C   UNL     1       4.683 -13.276  45.578  1.00  0.00     0.004 C 
ENDBRANCH   3   4
BRANCH   3   6
ATOM      6  C   UNL     1       6.835 -11.255  43.823  1.00  0.00    -0.014 C 
ATOM      7  C   UNL     1       6.510 -10.206  44.898  1.00  0.00     0.007 C 
ATOM      8  C   UNL     1       8.083 -12.065  44.209  1.00  0.00     0.007 C 
ENDBRANCH   3   6
ENDBRANCH   2   3
ENDBRANCH   1   2
BRANCH   1   9
ATOM      9  C   UNL     1       5.716 -14.204  40.541  1.00  0.00    -0.011 C 
ATOM     10  C   UNL     1       5.297 -15.507  39.818  1.00  0.00     0.008 C 
BRANCH   9  11
ATOM     11  C   UNL     1       5.331 -12.927  39.712  1.00  0.00    -0.002 C 
ATOM     12  C   UNL     1       4.018 -12.261  40.191  1.00  0.00     0.005 C 
ATOM     13  C   UNL     1       6.378 -11.738  39.599  1.00  0.00    -0.026 C 
ATOM     14  C   UNL     1       4.193 -10.764  40.006  1.00  0.00     0.005 C 
ATOM     15  C   UNL     1       5.668 -10.566  40.306  1.00  0.00    -0.001 C 
ATOM     16  C   UNL     1       7.768 -11.884  40.285  1.00  0.00     0.007 C 
ATOM     17  C   UNL     1       6.599 -11.487  38.073  1.00  0.00     0.012 C 
ATOM     18  C   UNL     1       6.298  -9.185  39.987  1.00  0.00     0.000 C 
ATOM     19  C   UNL     1       8.390 -10.549  40.793  1.00  0.00     0.005 C 
ATOM     20  C   UNL     1       7.889  -9.235  40.103  1.00  0.00     0.003 C 
ATOM     21  C   UNL     1       5.633  -8.067  40.846  1.00  0.00     0.031 C 
ATOM     22  C   UNL     1       8.499  -7.923  40.748  1.00  0.00    -0.008 C 
ATOM     23  C   UNL     1       6.412  -7.747  42.084  1.00  0.00    -0.027 C 
ATOM     24  C   UNL     1       7.746  -7.604  42.039  1.00  0.00    -0.065 C 
ATOM     25  C   UNL     1      10.019  -8.070  41.086  1.00  0.00     0.014 C 
ATOM     26  C   UNL     1       8.353  -6.751  39.734  1.00  0.00     0.016 C 
ATOM     27  C   UNL     1       8.505  -7.348  43.325  1.00  0.00     0.063 C 
ATOM     28  C   UNL     1      10.573  -6.839  41.823  1.00  0.00     0.033 C 
ATOM     29  C   UNL     1       9.768  -6.483  43.103  1.00  0.00     0.118 C 
BRANCH  29  30
ATOM     30  O   UNL     1       9.446  -5.115  43.120  1.00  0.00    -0.393 OA
ATOM     31  H   UNL     1      10.295  -4.606  43.073  1.00  0.00     0.210 HD
ENDBRANCH  29  30
ENDBRANCH   9  11
ENDBRANCH   1   9
TORSDOF 7
ENDMDL
MODEL 4
REMARK VINA RESULT:    -4.711      4.594      7.732
REMARK INTER + INTRA:          -9.312
REMARK INTER:                  -7.912
REMARK INTRA:                  -1.400
REMARK UNBOUND:                -2.811
REMARK SMILES CC[C@H](CC[C@@H](C)[C@H]1CC[C@@H]2[C@H]3CC=C4C[C@H](O)CC[C@@]4(C)[C@H]3CC[C@]21C)C(C)C
REMARK SMILES IDX 5 1 4 2 3 3 2 4 1 5 28 6 29 7 30 8 6 9 7 10 8 11 9 12 26 13
REMARK SMILES IDX 10 14 11 15 25 16 27 17 12 18 24 19 23 20 13 21 21 22 14 23
REMARK SMILES IDX 15 24 20 25 22 26 16 27 19 28 17 29 18 30
REMARK H PARENT 18 31
REMARK Flexibility Score: inf
ROOT
ATOM      1  C   UNL     1      17.370  -2.784  40.771  1.00  0.00     0.004 C 
ENDROOT
BRANCH   1   2
ATOM      2  C   UNL     1      18.166  -1.875  39.806  1.00  0.00     0.004 C 
BRANCH   2   3
ATOM      3  C   UNL     1      17.713  -2.041  38.328  1.00  0.00    -0.009 C 
BRANCH   3   4
ATOM      4  C   UNL     1      18.900  -2.579  37.478  1.00  0.00     0.000 C 
ATOM      5  C   UNL     1      20.249  -1.938  37.805  1.00  0.00     0.004 C 
ENDBRANCH   3   4
BRANCH   3   6
ATOM      6  C   UNL     1      16.394  -2.895  38.247  1.00  0.00    -0.014 C 
ATOM      7  C   UNL     1      15.290  -2.206  37.428  1.00  0.00     0.007 C 
ATOM      8  C   UNL     1      16.607  -4.341  37.770  1.00  0.00     0.007 C 
ENDBRANCH   3   6
ENDBRANCH   2   3
ENDBRANCH   1   2
BRANCH   1   9
ATOM      9  C   UNL     1      18.100  -4.102  41.173  1.00  0.00    -0.011 C 
ATOM     10  C   UNL     1      19.617  -3.938  40.912  1.00  0.00     0.008 C 
BRANCH   9  11
ATOM     11  C   UNL     1      17.807  -4.555  42.648  1.00  0.00    -0.002 C 
ATOM     12  C   UNL     1      18.078  -3.445  43.692  1.00  0.00     0.005 C 
ATOM     13  C   UNL     1      16.366  -5.118  43.009  1.00  0.00    -0.026 C 
ATOM     14  C   UNL     1      17.041  -3.614  44.790  1.00  0.00     0.005 C 
ATOM     15  C   UNL     1      15.822  -4.089  44.019  1.00  0.00    -0.001 C 
ATOM     16  C   UNL     1      15.295  -5.235  41.886  1.00  0.00     0.007 C 
ATOM     17  C   UNL     1      16.589  -6.532  43.636  1.00  0.00     0.012 C 
ATOM     18  C   UNL     1      14.605  -4.609  44.829  1.00  0.00     0.000 C 
ATOM     19  C   UNL     1      13.824  -5.040  42.362  1.00  0.00     0.005 C 
ATOM     20  C   UNL     1      13.536  -5.313  43.877  1.00  0.00     0.003 C 
ATOM     21  C   UNL     1      14.014  -3.474  45.719  1.00  0.00     0.031 C 
ATOM     22  C   UNL     1      12.041  -4.995  44.292  1.00  0.00    -0.008 C 
ATOM     23  C   UNL     1      12.850  -2.783  45.079  1.00  0.00    -0.027 C 
ATOM     24  C   UNL     1      11.882  -3.486  44.471  1.00  0.00    -0.065 C 
ATOM     25  C   UNL     1      11.005  -5.479  43.225  1.00  0.00     0.014 C 
ATOM     26  C   UNL     1      11.722  -5.734  45.625  1.00  0.00     0.016 C 
ATOM     27  C   UNL     1      10.757  -2.747  43.775  1.00  0.00     0.063 C 
ATOM     28  C   UNL     1       9.568  -5.058  43.576  1.00  0.00     0.033 C 
ATOM     29  C   UNL     1       9.423  -3.530  43.815  1.00  0.00     0.118 C 
BRANCH  29  30
ATOM     30  O   UNL     1       8.733  -3.281  45.013  1.00  0.00    -0.393 OA
ATOM     31  H   UNL     1       9.274  -2.641  45.544  1.00  0.00     0.210 HD
ENDBRANCH  29  30
ENDBRANCH   9  11
ENDBRANCH   1   9
TORSDOF 7
ENDMDL
MODEL 5
REMARK VINA RESULT:    -4.700      7.088     11.240
REMARK INTER + INTRA:          -9.297
REMARK INTER:                  -6.233
REMARK INTRA:                  -3.064
REMARK UNBOUND:                -2.811
REMARK SMILES CC[C@H](CC[C@@H](C)[C@H]1CC[C@@H]2[C@H]3CC=C4C[C@H](O)CC[C@@]4(C)[C@H]3CC[C@]21C)C(C)C
REMARK SMILES IDX 5 1 4 2 3 3 2 4 1 5 28 6 29 7 30 8 6 9 7 10 8 11 9 12 26 13
REMARK SMILES IDX 10 14 11 15 25 16 27 17 12 18 24 19 23 20 13 21 21 22 14 23
REMARK SMILES IDX 15 24 20 25 22 26 16 27 19 28 17 29 18 30
REMARK H PARENT 18 31
REMARK Flexibility Score: inf
ROOT
ATOM      1  C   UNL     1       6.258 -10.733  33.331  1.00  0.00     0.004 C 
ENDROOT
BRANCH   1   2
ATOM      2  C   UNL     1       7.797 -10.866  33.278  1.00  0.00     0.004 C 
BRANCH   2   3
ATOM      3  C   UNL     1       8.518  -9.706  34.022  1.00  0.00    -0.009 C 
BRANCH   3   4
ATOM      4  C   UNL     1       8.731 -10.098  35.512  1.00  0.00     0.000 C 
ATOM      5  C   UNL     1       7.778  -9.407  36.488  1.00  0.00     0.004 C 
ENDBRANCH   3   4
BRANCH   3   6
ATOM      6  C   UNL     1       9.821  -9.281  33.251  1.00  0.00    -0.014 C 
ATOM      7  C   UNL     1      10.872  -8.639  34.170  1.00  0.00     0.007 C 
ATOM      8  C   UNL     1      10.447 -10.401  32.403  1.00  0.00     0.007 C 
ENDBRANCH   3   6
ENDBRANCH   2   3
ENDBRANCH   1   2
BRANCH   1   9
ATOM      9  C   UNL     1       5.578 -10.501  31.947  1.00  0.00    -0.011 C 
ATOM     10  C   UNL     1       4.168 -11.137  31.965  1.00  0.00     0.008 C 
BRANCH   9  11
ATOM     11  C   UNL     1       5.532  -8.991  31.517  1.00  0.00    -0.002 C 
ATOM     12  C   UNL     1       5.561  -8.015  32.717  1.00  0.00     0.005 C 
ATOM     13  C   UNL     1       6.634  -8.442  30.514  1.00  0.00    -0.026 C 
ATOM     14  C   UNL     1       6.347  -6.794  32.271  1.00  0.00     0.005 C 
ATOM     15  C   UNL     1       7.395  -7.397  31.353  1.00  0.00    -0.001 C 
ATOM     16  C   UNL     1       7.708  -9.421  29.958  1.00  0.00     0.007 C 
ATOM     17  C   UNL     1       5.861  -7.814  29.309  1.00  0.00     0.012 C 
ATOM     18  C   UNL     1       8.255  -6.431  30.496  1.00  0.00     0.000 C 
ATOM     19  C   UNL     1       9.093  -8.773  29.660  1.00  0.00     0.005 C 
ATOM     20  C   UNL     1       9.102  -7.228  29.403  1.00  0.00     0.003 C 
ATOM     21  C   UNL     1       9.110  -5.501  31.410  1.00  0.00     0.031 C 
ATOM     22  C   UNL     1      10.559  -6.639  29.207  1.00  0.00    -0.008 C 
ATOM     23  C   UNL     1      10.505  -6.009  31.609  1.00  0.00    -0.027 C 
ATOM     24  C   UNL     1      11.221  -6.476  30.575  1.00  0.00    -0.065 C 
ATOM     25  C   UNL     1      11.467  -7.558  28.326  1.00  0.00     0.014 C 
ATOM     26  C   UNL     1      10.452  -5.260  28.493  1.00  0.00     0.016 C 
ATOM     27  C   UNL     1      12.603  -7.045  30.830  1.00  0.00     0.063 C 
ATOM     28  C   UNL     1      12.913  -7.043  28.242  1.00  0.00     0.033 C 
ATOM     29  C   UNL     1      13.561  -6.823  29.636  1.00  0.00     0.118 C 
BRANCH  29  30
ATOM     30  O   UNL     1      14.162  -5.555  29.708  1.00  0.00    -0.393 OA
ATOM     31  H   UNL     1      13.436  -4.880  29.754  1.00  0.00     0.210 HD
ENDBRANCH  29  30
ENDBRANCH   9  11
ENDBRANCH   1   9
TORSDOF 7
ENDMDL
MODEL 6
REMARK VINA RESULT:    -4.696     10.886     14.345
REMARK INTER + INTRA:          -9.292
REMARK INTER:                  -6.292
REMARK INTRA:                  -3.001
REMARK UNBOUND:                -2.811
REMARK SMILES CC[C@H](CC[C@@H](C)[C@H]1CC[C@@H]2[C@H]3CC=C4C[C@H](O)CC[C@@]4(C)[C@H]3CC[C@]21C)C(C)C
REMARK SMILES IDX 5 1 4 2 3 3 2 4 1 5 28 6 29 7 30 8 6 9 7 10 8 11 9 12 26 13
REMARK SMILES IDX 10 14 11 15 25 16 27 17 12 18 24 19 23 20 13 21 21 22 14 23
REMARK SMILES IDX 15 24 20 25 22 26 16 27 19 28 17 29 18 30
REMARK H PARENT 18 31
REMARK Flexibility Score: inf
ROOT
ATOM      1  C   UNL     1      21.842  -9.561  42.182  1.00  0.00     0.004 C 
ENDROOT
BRANCH   1   2
ATOM      2  C   UNL     1      20.509 -10.216  42.615  1.00  0.00     0.004 C 
BRANCH   2   3
ATOM      3  C   UNL     1      20.454 -10.489  44.145  1.00  0.00    -0.009 C 
BRANCH   3   4
ATOM      4  C   UNL     1      19.594  -9.392  44.837  1.00  0.00     0.000 C 
ATOM      5  C   UNL     1      20.385  -8.166  45.293  1.00  0.00     0.004 C 
ENDBRANCH   3   4
BRANCH   3   6
ATOM      6  C   UNL     1      20.000 -11.968  44.426  1.00  0.00    -0.014 C 
ATOM      7  C   UNL     1      19.749 -12.239  45.918  1.00  0.00     0.007 C 
ATOM      8  C   UNL     1      18.806 -12.434  43.577  1.00  0.00     0.007 C 
ENDBRANCH   3   6
ENDBRANCH   2   3
ENDBRANCH   1   2
BRANCH   1   9
ATOM      9  C   UNL     1      22.623 -10.343  41.084  1.00  0.00    -0.011 C 
ATOM     10  C   UNL     1      23.453  -9.341  40.245  1.00  0.00     0.008 C 
BRANCH   9  11
ATOM     11  C   UNL     1      23.515 -11.503  41.656  1.00  0.00    -0.002 C 
ATOM     12  C   UNL     1      23.902 -11.298  43.140  1.00  0.00     0.005 C 
ATOM     13  C   UNL     1      22.983 -12.996  41.571  1.00  0.00    -0.026 C 
ATOM     14  C   UNL     1      23.942 -12.677  43.777  1.00  0.00     0.005 C 
ATOM     15  C   UNL     1      22.828 -13.407  43.048  1.00  0.00    -0.001 C 
ATOM     16  C   UNL     1      21.609 -13.274  40.894  1.00  0.00     0.007 C 
ATOM     17  C   UNL     1      24.082 -13.815  40.821  1.00  0.00     0.012 C 
ATOM     18  C   UNL     1      22.708 -14.941  43.250  1.00  0.00     0.000 C 
ATOM     19  C   UNL     1      20.826 -14.489  41.477  1.00  0.00     0.005 C 
ATOM     20  C   UNL     1      21.674 -15.579  42.215  1.00  0.00     0.003 C 
ATOM     21  C   UNL     1      22.404 -15.276  44.741  1.00  0.00     0.031 C 
ATOM     22  C   UNL     1      20.788 -16.723  42.860  1.00  0.00    -0.008 C 
ATOM     23  C   UNL     1      20.944 -15.478  45.004  1.00  0.00    -0.027 C 
ATOM     24  C   UNL     1      20.191 -16.214  44.171  1.00  0.00    -0.065 C 
ATOM     25  C   UNL     1      19.618 -17.176  41.927  1.00  0.00     0.014 C 
ATOM     26  C   UNL     1      21.687 -17.966  43.124  1.00  0.00     0.016 C 
ATOM     27  C   UNL     1      18.703 -16.338  44.434  1.00  0.00     0.063 C 
ATOM     28  C   UNL     1      18.691 -18.198  42.608  1.00  0.00     0.033 C 
ATOM     29  C   UNL     1      18.133 -17.698  43.969  1.00  0.00     0.118 C 
BRANCH  29  30
ATOM     30  O   UNL     1      18.305 -18.678  44.963  1.00  0.00    -0.393 OA
ATOM     31  H   UNL     1      19.220 -19.048  44.864  1.00  0.00     0.210 HD
ENDBRANCH  29  30
ENDBRANCH   9  11
ENDBRANCH   1   9
TORSDOF 7
ENDMDL
MODEL 7
REMARK VINA RESULT:    -4.660      2.456      6.324
REMARK INTER + INTRA:          -9.242
REMARK INTER:                  -7.066
REMARK INTRA:                  -2.176
REMARK UNBOUND:                -2.811
REMARK SMILES CC[C@H](CC[C@@H](C)[C@H]1CC[C@@H]2[C@H]3CC=C4C[C@H](O)CC[C@@]4(C)[C@H]3CC[C@]21C)C(C)C
REMARK SMILES IDX 5 1 4 2 3 3 2 4 1 5 28 6 29 7 30 8 6 9 7 10 8 11 9 12 26 13
REMARK SMILES IDX 10 14 11 15 25 16 27 17 12 18 24 19 23 20 13 21 21 22 14 23
REMARK SMILES IDX 15 24 20 25 22 26 16 27 19 28 17 29 18 30
REMARK H PARENT 18 31
REMARK Flexibility Score: inf
ROOT
ATOM      1  C   UNL     1      13.821  -4.177  43.640  1.00  0.00     0.004 C 
ENDROOT
BRANCH   1   2
ATOM      2  C   UNL     1      14.635  -5.403  43.165  1.00  0.00     0.004 C 
BRANCH   2   3
ATOM      3  C   UNL     1      14.520  -5.633  41.631  1.00  0.00    -0.009 C 
BRANCH   3   4
ATOM      4  C   UNL     1      15.707  -4.931  40.911  1.00  0.00     0.000 C 
ATOM      5  C   UNL     1      15.592  -4.906  39.386  1.00  0.00     0.004 C 
ENDBRANCH   3   4
BRANCH   3   6
ATOM      6  C   UNL     1      14.357  -7.164  41.313  1.00  0.00    -0.014 C 
ATOM      7  C   UNL     1      14.472  -8.047  42.566  1.00  0.00     0.007 C 
ATOM      8  C   UNL     1      13.090  -7.512  40.515  1.00  0.00     0.007 C 
ENDBRANCH   3   6
ENDBRANCH   2   3
ENDBRANCH   1   2
BRANCH   1   9
ATOM      9  C   UNL     1      13.065  -4.381  44.987  1.00  0.00    -0.011 C 
ATOM     10  C   UNL     1      13.638  -3.404  46.041  1.00  0.00     0.008 C 
BRANCH   9  11
ATOM     11  C   UNL     1      11.505  -4.248  44.856  1.00  0.00    -0.002 C 
ATOM     12  C   UNL     1      11.069  -3.139  43.869  1.00  0.00     0.005 C 
ATOM     13  C   UNL     1      10.655  -5.524  44.442  1.00  0.00    -0.026 C 
ATOM     14  C   UNL     1       9.802  -3.630  43.188  1.00  0.00     0.005 C 
ATOM     15  C   UNL     1      10.045  -5.125  43.084  1.00  0.00    -0.001 C 
ATOM     16  C   UNL     1      11.386  -6.879  44.211  1.00  0.00     0.007 C 
ATOM     17  C   UNL     1       9.581  -5.721  45.560  1.00  0.00     0.012 C 
ATOM     18  C   UNL     1       8.858  -6.027  42.656  1.00  0.00     0.000 C 
ATOM     19  C   UNL     1      10.727  -7.804  43.144  1.00  0.00     0.005 C 
ATOM     20  C   UNL     1       9.204  -7.572  42.860  1.00  0.00     0.003 C 
ATOM     21  C   UNL     1       8.387  -5.666  41.214  1.00  0.00     0.031 C 
ATOM     22  C   UNL     1       8.643  -8.486  41.695  1.00  0.00    -0.008 C 
ATOM     23  C   UNL     1       8.988  -6.556  40.170  1.00  0.00    -0.027 C 
ATOM     24  C   UNL     1       9.047  -7.884  40.349  1.00  0.00    -0.065 C 
ATOM     25  C   UNL     1       9.186  -9.951  41.764  1.00  0.00     0.014 C 
ATOM     26  C   UNL     1       7.092  -8.553  41.811  1.00  0.00     0.016 C 
ATOM     27  C   UNL     1       9.724  -8.743  39.299  1.00  0.00     0.063 C 
ATOM     28  C   UNL     1       8.735 -10.797  40.562  1.00  0.00     0.033 C 
ATOM     29  C   UNL     1       9.097 -10.153  39.196  1.00  0.00     0.118 C 
BRANCH  29  30
ATOM     30  O   UNL     1       7.979 -10.141  38.344  1.00  0.00    -0.393 OA
ATOM     31  H   UNL     1       7.172 -10.274  38.905  1.00  0.00     0.210 HD
ENDBRANCH  29  30
ENDBRANCH   9  11
ENDBRANCH   1   9
TORSDOF 7
ENDMDL
MODEL 8
REMARK VINA RESULT:    -4.602      3.760      7.045
REMARK INTER + INTRA:          -9.162
REMARK INTER:                  -6.127
REMARK INTRA:                  -3.035
REMARK UNBOUND:                -2.811
REMARK SMILES CC[C@H](CC[C@@H](C)[C@H]1CC[C@@H]2[C@H]3CC=C4C[C@H](O)CC[C@@]4(C)[C@H]3CC[C@]21C)C(C)C
REMARK SMILES IDX 5 1 4 2 3 3 2 4 1 5 28 6 29 7 30 8 6 9 7 10 8 11 9 12 26 13
REMARK SMILES IDX 10 14 11 15 25 16 27 17 12 18 24 19 23 20 13 21 21 22 14 23
REMARK SMILES IDX 15 24 20 25 22 26 16 27 19 28 17 29 18 30
REMARK H PARENT 18 31
REMARK Flexibility Score: inf
ROOT
ATOM      1  C   UNL     1      11.274  -7.507  40.980  1.00  0.00     0.004 C 
ENDROOT
BRANCH   1   2
ATOM      2  C   UNL     1      11.191  -8.809  40.150  1.00  0.00     0.004 C 
BRANCH   2   3
ATOM      3  C   UNL     1      10.527  -8.585  38.762  1.00  0.00    -0.009 C 
BRANCH   3   4
ATOM      4  C   UNL     1      11.556  -8.900  37.638  1.00  0.00     0.000 C 
ATOM      5  C   UNL     1      12.171  -7.664  36.981  1.00  0.00     0.004 C 
ENDBRANCH   3   4
BRANCH   3   6
ATOM      6  C   UNL     1       9.171  -9.374  38.665  1.00  0.00    -0.014 C 
ATOM      7  C   UNL     1       8.393  -9.063  37.376  1.00  0.00     0.007 C 
ATOM      8  C   UNL     1       9.307 -10.892  38.867  1.00  0.00     0.007 C 
ENDBRANCH   3   6
ENDBRANCH   2   3
ENDBRANCH   1   2
BRANCH   1   9
ATOM      9  C   UNL     1      10.713  -7.623  42.430  1.00  0.00    -0.011 C 
ATOM     10  C   UNL     1      11.546  -6.716  43.367  1.00  0.00     0.008 C 
BRANCH   9  11
ATOM     11  C   UNL     1       9.176  -7.315  42.533  1.00  0.00    -0.002 C 
ATOM     12  C   UNL     1       8.644  -6.469  41.351  1.00  0.00     0.005 C 
ATOM     13  C   UNL     1       8.155  -8.523  42.667  1.00  0.00    -0.026 C 
ATOM     14  C   UNL     1       7.228  -6.946  41.073  1.00  0.00     0.005 C 
ATOM     15  C   UNL     1       7.317  -8.431  41.377  1.00  0.00    -0.001 C 
ATOM     16  C   UNL     1       8.706  -9.978  42.727  1.00  0.00     0.007 C 
ATOM     17  C   UNL     1       7.319  -8.254  43.959  1.00  0.00     0.012 C 
ATOM     18  C   UNL     1       5.996  -9.241  41.444  1.00  0.00     0.000 C 
ATOM     19  C   UNL     1       7.768 -11.058  42.110  1.00  0.00     0.005 C 
ATOM     20  C   UNL     1       6.244 -10.703  42.034  1.00  0.00     0.003 C 
ATOM     21  C   UNL     1       5.274  -9.228  40.062  1.00  0.00     0.031 C 
ATOM     22  C   UNL     1       5.383 -11.813  41.305  1.00  0.00    -0.008 C 
ATOM     23  C   UNL     1       5.571 -10.444  39.242  1.00  0.00    -0.027 C 
ATOM     24  C   UNL     1       5.554 -11.667  39.794  1.00  0.00    -0.065 C 
ATOM     25  C   UNL     1       5.803 -13.264  41.712  1.00  0.00     0.014 C 
ATOM     26  C   UNL     1       3.888 -11.629  41.700  1.00  0.00     0.016 C 
ATOM     27  C   UNL     1       5.927 -12.867  38.946  1.00  0.00     0.063 C 
ATOM     28  C   UNL     1       5.047 -14.337  40.910  1.00  0.00     0.033 C 
ATOM     29  C   UNL     1       5.175 -14.149  39.374  1.00  0.00     0.118 C 
BRANCH  29  30
ATOM     30  O   UNL     1       3.912 -14.215  38.760  1.00  0.00    -0.393 OA
ATOM     31  H   UNL     1       3.957 -14.910  38.054  1.00  0.00     0.210 HD
ENDBRANCH  29  30
ENDBRANCH   9  11
ENDBRANCH   1   9
TORSDOF 7
ENDMDL
MODEL 9
REMARK VINA RESULT:    -4.594     11.104     13.804
REMARK INTER + INTRA:          -9.150
REMARK INTER:                  -6.093
REMARK INTRA:                  -3.057
REMARK UNBOUND:                -2.811
REMARK SMILES CC[C@H](CC[C@@H](C)[C@H]1CC[C@@H]2[C@H]3CC=C4C[C@H](O)CC[C@@]4(C)[C@H]3CC[C@]21C)C(C)C
REMARK SMILES IDX 5 1 4 2 3 3 2 4 1 5 28 6 29 7 30 8 6 9 7 10 8 11 9 12 26 13
REMARK SMILES IDX 10 14 11 15 25 16 27 17 12 18 24 19 23 20 13 21 21 22 14 23
REMARK SMILES IDX 15 24 20 25 22 26 16 27 19 28 17 29 18 30
REMARK H PARENT 18 31
REMARK Flexibility Score: inf
ROOT
ATOM      1  C   UNL     1      12.276 -19.982  42.190  1.00  0.00     0.004 C 
ENDROOT
BRANCH   1   2
ATOM      2  C   UNL     1      12.875 -18.679  41.611  1.00  0.00     0.004 C 
BRANCH   2   3
ATOM      3  C   UNL     1      13.669 -18.926  40.296  1.00  0.00    -0.009 C 
BRANCH   3   4
ATOM      4  C   UNL     1      12.684 -18.946  39.091  1.00  0.00     0.000 C 
ATOM      5  C   UNL     1      12.472 -20.328  38.473  1.00  0.00     0.004 C 
ENDBRANCH   3   4
BRANCH   3   6
ATOM      6  C   UNL     1      14.858 -17.906  40.169  1.00  0.00    -0.014 C 
ATOM      7  C   UNL     1      15.300 -17.687  38.713  1.00  0.00     0.007 C 
ATOM      8  C   UNL     1      14.615 -16.562  40.874  1.00  0.00     0.007 C 
ENDBRANCH   3   6
ENDBRANCH   2   3
ENDBRANCH   1   2
BRANCH   1   9
ATOM      9  C   UNL     1      12.801 -20.364  43.607  1.00  0.00    -0.011 C 
ATOM     10  C   UNL     1      11.735 -21.226  44.324  1.00  0.00     0.008 C 
BRANCH   9  11
ATOM     11  C   UNL     1      14.205 -21.069  43.586  1.00  0.00    -0.002 C 
ATOM     12  C   UNL     1      14.472 -21.854  42.279  1.00  0.00     0.005 C 
ATOM     13  C   UNL     1      15.510 -20.194  43.814  1.00  0.00    -0.026 C 
ATOM     14  C   UNL     1      15.957 -21.725  41.985  1.00  0.00     0.005 C 
ATOM     15  C   UNL     1      16.267 -20.323  42.478  1.00  0.00    -0.001 C 
ATOM     16  C   UNL     1      15.362 -18.669  44.087  1.00  0.00     0.007 C 
ATOM     17  C   UNL     1      16.272 -20.843  45.014  1.00  0.00     0.012 C 
ATOM     18  C   UNL     1      17.757 -19.898  42.573  1.00  0.00     0.000 C 
ATOM     19  C   UNL     1      16.538 -17.793  43.560  1.00  0.00     0.005 C 
ATOM     20  C   UNL     1      17.913 -18.516  43.356  1.00  0.00     0.003 C 
ATOM     21  C   UNL     1      18.421 -19.909  41.163  1.00  0.00     0.031 C 
ATOM     22  C   UNL     1      19.021 -17.576  42.726  1.00  0.00    -0.008 C 
ATOM     23  C   UNL     1      18.437 -18.557  40.520  1.00  0.00    -0.027 C 
ATOM     24  C   UNL     1      18.787 -17.466  41.220  1.00  0.00    -0.065 C 
ATOM     25  C   UNL     1      19.006 -16.136  43.335  1.00  0.00     0.014 C 
ATOM     26  C   UNL     1      20.423 -18.192  43.011  1.00  0.00     0.016 C 
ATOM     27  C   UNL     1      18.724 -16.107  40.552  1.00  0.00     0.063 C 
ATOM     28  C   UNL     1      20.001 -15.196  42.634  1.00  0.00     0.033 C 
ATOM     29  C   UNL     1      19.796 -15.133  41.095  1.00  0.00     0.118 C 
BRANCH  29  30
ATOM     30  O   UNL     1      21.019 -15.312  40.426  1.00  0.00    -0.393 OA
ATOM     31  H   UNL     1      21.744 -15.061  41.054  1.00  0.00     0.210 HD
ENDBRANCH  29  30
ENDBRANCH   9  11
ENDBRANCH   1   9
TORSDOF 7
ENDMDL
