MODEL 1
REMARK VINA RESULT:    -5.331      0.000      0.000
REMARK INTER + INTRA:          -9.717
REMARK INTER:                  -9.070
REMARK INTRA:                  -0.647
REMARK UNBOUND:                -0.647
REMARK SMILES CCCCCCCCCCCCCC(=O)[O-]
REMARK SMILES IDX 8 1 9 2 10 3 11 4 12 5 13 6 14 7 15 8 16 9 7 10 6 11 5 12
REMARK SMILES IDX 4 13 3 14 2 15 1 16
REMARK H PARENT
REMARK Flexibility Score: inf
ROOT
ATOM      1  C   UNL     1      21.220  29.952  36.214  1.00  0.00     0.000 C 
ENDROOT
BRANCH   1   2
ATOM      2  C   UNL     1      20.139  29.307  37.101  1.00  0.00     0.000 C 
BRANCH   2   3
ATOM      3  C   UNL     1      19.808  27.864  36.682  1.00  0.00     0.000 C 
BRANCH   3   4
ATOM      4  C   UNL     1      18.296  27.581  36.682  1.00  0.00     0.000 C 
BRANCH   4   5
ATOM      5  C   UNL     1      17.965  26.130  36.295  1.00  0.00     0.006 C 
BRANCH   5   6
ATOM      6  C   UNL     1      19.199  25.220  36.353  1.00  0.00     0.053 C 
BRANCH   6   7
ATOM      7  C   UNL     1      19.522  24.629  35.016  1.00  0.00     0.041 C 
ATOM      8  O   UNL     1      20.713  24.590  34.611  1.00  0.00    -0.550 OA
ATOM      9  O   UNL     1      18.503  24.149  34.202  1.00  0.00    -0.550 OA
ENDBRANCH   6   7
ENDBRANCH   5   6
ENDBRANCH   4   5
ENDBRANCH   3   4
ENDBRANCH   2   3
ENDBRANCH   1   2
BRANCH   1  10
ATOM     10  C   UNL     1      21.281  31.492  36.267  1.00  0.00     0.000 C 
BRANCH  10  11
ATOM     11  C   UNL     1      19.999  32.182  36.767  1.00  0.00    -0.000 C 
BRANCH  11  12
ATOM     12  C   UNL     1      20.030  33.707  36.584  1.00  0.00    -0.000 C 
BRANCH  12  13
ATOM     13  C   UNL     1      18.826  34.185  35.759  1.00  0.00    -0.000 C 
BRANCH  13  14
ATOM     14  C   UNL     1      19.241  34.859  34.442  1.00  0.00    -0.000 C 
BRANCH  14  15
ATOM     15  C   UNL     1      20.588  34.344  33.912  1.00  0.00    -0.003 C 
ATOM     16  C   UNL     1      20.600  34.309  32.387  1.00  0.00     0.004 C 
ENDBRANCH  14  15
ENDBRANCH  13  14
ENDBRANCH  12  13
ENDBRANCH  11  12
ENDBRANCH  10  11
ENDBRANCH   1  10
TORSDOF 12
ENDMDL
MODEL 2
REMARK VINA RESULT:    -5.215      1.170      1.777
REMARK INTER + INTRA:          -9.520
REMARK INTER:                  -8.831
REMARK INTRA:                  -0.689
REMARK UNBOUND:                -0.647
REMARK SMILES CCCCCCCCCCCCCC(=O)[O-]
REMARK SMILES IDX 8 1 9 2 10 3 11 4 12 5 13 6 14 7 15 8 16 9 7 10 6 11 5 12
REMARK SMILES IDX 4 13 3 14 2 15 1 16
REMARK H PARENT
REMARK Flexibility Score: inf
ROOT
ATOM      1  C   UNL     1      20.676  29.324  36.521  1.00  0.00     0.000 C 
ENDROOT
BRANCH   1   2
ATOM      2  C   UNL     1      19.938  28.018  36.869  1.00  0.00     0.000 C 
BRANCH   2   3
ATOM      3  C   UNL     1      18.411  28.140  36.727  1.00  0.00     0.000 C 
BRANCH   3   4
ATOM      4  C   UNL     1      17.689  26.802  36.954  1.00  0.00     0.000 C 
BRANCH   4   5
ATOM      5  C   UNL     1      17.748  25.880  35.723  1.00  0.00     0.006 C 
BRANCH   5   6
ATOM      6  C   UNL     1      18.716  24.706  35.926  1.00  0.00     0.053 C 
BRANCH   6   7
ATOM      7  C   UNL     1      19.570  24.471  34.719  1.00  0.00     0.041 C 
ATOM      8  O   UNL     1      19.054  24.053  33.650  1.00  0.00    -0.550 OA
ATOM      9  O   UNL     1      20.941  24.684  34.784  1.00  0.00    -0.550 OA
ENDBRANCH   6   7
ENDBRANCH   5   6
ENDBRANCH   4   5
ENDBRANCH   3   4
ENDBRANCH   2   3
ENDBRANCH   1   2
BRANCH   1  10
ATOM     10  C   UNL     1      19.976  30.618  36.983  1.00  0.00     0.000 C 
BRANCH  10  11
ATOM     11  C   UNL     1      20.691  31.924  36.595  1.00  0.00    -0.000 C 
BRANCH  11  12
ATOM     12  C   UNL     1      21.823  31.706  35.579  1.00  0.00    -0.000 C 
BRANCH  12  13
ATOM     13  C   UNL     1      22.427  33.047  35.134  1.00  0.00    -0.000 C 
BRANCH  13  14
ATOM     14  C   UNL     1      21.386  34.175  35.075  1.00  0.00    -0.000 C 
BRANCH  14  15
ATOM     15  C   UNL     1      21.376  34.900  33.721  1.00  0.00    -0.003 C 
ATOM     16  C   UNL     1      20.897  33.975  32.606  1.00  0.00     0.004 C 
ENDBRANCH  14  15
ENDBRANCH  13  14
ENDBRANCH  12  13
ENDBRANCH  11  12
ENDBRANCH  10  11
ENDBRANCH   1  10
TORSDOF 12
ENDMDL
MODEL 3
REMARK VINA RESULT:    -5.161      3.509      7.745
REMARK INTER + INTRA:          -9.429
REMARK INTER:                  -8.638
REMARK INTRA:                  -0.791
REMARK UNBOUND:                -0.647
REMARK SMILES CCCCCCCCCCCCCC(=O)[O-]
REMARK SMILES IDX 8 1 9 2 10 3 11 4 12 5 13 6 14 7 15 8 16 9 7 10 6 11 5 12
REMARK SMILES IDX 4 13 3 14 2 15 1 16
REMARK H PARENT
REMARK Flexibility Score: inf
ROOT
ATOM      1  C   UNL     1      21.296  30.115  36.093  1.00  0.00     0.000 C 
ENDROOT
BRANCH   1   2
ATOM      2  C   UNL     1      21.033  31.600  36.403  1.00  0.00     0.000 C 
BRANCH   2   3
ATOM      3  C   UNL     1      19.624  31.851  36.967  1.00  0.00     0.000 C 
BRANCH   3   4
ATOM      4  C   UNL     1      19.163  33.306  36.778  1.00  0.00     0.000 C 
BRANCH   4   5
ATOM      5  C   UNL     1      20.205  34.167  36.041  1.00  0.00     0.006 C 
BRANCH   5   6
ATOM      6  C   UNL     1      19.674  34.696  34.703  1.00  0.00     0.053 C 
BRANCH   6   7
ATOM      7  C   UNL     1      20.563  34.315  33.559  1.00  0.00     0.041 C 
ATOM      8  O   UNL     1      21.694  33.808  33.778  1.00  0.00    -0.550 OA
ATOM      9  O   UNL     1      20.155  34.547  32.252  1.00  0.00    -0.550 OA
ENDBRANCH   6   7
ENDBRANCH   5   6
ENDBRANCH   4   5
ENDBRANCH   3   4
ENDBRANCH   2   3
ENDBRANCH   1   2
BRANCH   1  10
ATOM     10  C   UNL     1      20.630  29.113  37.058  1.00  0.00     0.000 C 
BRANCH  10  11
ATOM     11  C   UNL     1      20.138  27.807  36.409  1.00  0.00    -0.000 C 
BRANCH  11  12
ATOM     12  C   UNL     1      18.633  27.572  36.606  1.00  0.00    -0.000 C 
BRANCH  12  13
ATOM     13  C   UNL     1      18.262  26.111  36.311  1.00  0.00    -0.000 C 
BRANCH  13  14
ATOM     14  C   UNL     1      19.474  25.169  36.373  1.00  0.00    -0.000 C 
BRANCH  14  15
ATOM     15  C   UNL     1      19.569  24.245  35.149  1.00  0.00    -0.003 C 
ATOM     16  C   UNL     1      18.291  24.303  34.317  1.00  0.00     0.004 C 
ENDBRANCH  14  15
ENDBRANCH  13  14
ENDBRANCH  12  13
ENDBRANCH  11  12
ENDBRANCH  10  11
ENDBRANCH   1  10
TORSDOF 12
ENDMDL
MODEL 4
REMARK VINA RESULT:    -4.667     16.448     18.114
REMARK INTER + INTRA:          -8.589
REMARK INTER:                  -7.634
REMARK INTRA:                  -0.955
REMARK UNBOUND:                -0.647
REMARK SMILES CCCCCCCCCCCCCC(=O)[O-]
REMARK SMILES IDX 8 1 9 2 10 3 11 4 12 5 13 6 14 7 15 8 16 9 7 10 6 11 5 12
REMARK SMILES IDX 4 13 3 14 2 15 1 16
REMARK H PARENT
REMARK Flexibility Score: inf
ROOT
ATOM      1  C   UNL     1      22.374  22.534  20.046  1.00  0.00     0.000 C 
ENDROOT
BRANCH   1   2
ATOM      2  C   UNL     1      21.813  21.420  20.949  1.00  0.00     0.000 C 
BRANCH   2   3
ATOM      3  C   UNL     1      22.909  20.491  21.499  1.00  0.00     0.000 C 
BRANCH   3   4
ATOM      4  C   UNL     1      22.471  19.017  21.533  1.00  0.00     0.000 C 
BRANCH   4   5
ATOM      5  C   UNL     1      23.579  18.058  21.064  1.00  0.00     0.006 C 
BRANCH   5   6
ATOM      6  C   UNL     1      24.833  18.810  20.596  1.00  0.00     0.053 C 
BRANCH   6   7
ATOM      7  C   UNL     1      25.839  17.888  19.979  1.00  0.00     0.041 C 
ATOM      8  O   UNL     1      27.052  17.962  20.309  1.00  0.00    -0.550 OA
ATOM      9  O   UNL     1      25.443  16.967  19.018  1.00  0.00    -0.550 OA
ENDBRANCH   6   7
ENDBRANCH   5   6
ENDBRANCH   4   5
ENDBRANCH   3   4
ENDBRANCH   2   3
ENDBRANCH   1   2
BRANCH   1  10
ATOM     10  C   UNL     1      21.713  22.651  18.658  1.00  0.00     0.000 C 
BRANCH  10  11
ATOM     11  C   UNL     1      21.189  24.053  18.299  1.00  0.00    -0.000 C 
BRANCH  11  12
ATOM     12  C   UNL     1      20.507  24.757  19.482  1.00  0.00    -0.000 C 
BRANCH  12  13
ATOM     13  C   UNL     1      19.099  24.192  19.720  1.00  0.00    -0.000 C 
BRANCH  13  14
ATOM     14  C   UNL     1      18.940  23.568  21.115  1.00  0.00    -0.000 C 
BRANCH  14  15
ATOM     15  C   UNL     1      18.185  22.231  21.083  1.00  0.00    -0.003 C 
ATOM     16  C   UNL     1      17.426  21.997  22.386  1.00  0.00     0.004 C 
ENDBRANCH  14  15
ENDBRANCH  13  14
ENDBRANCH  12  13
ENDBRANCH  11  12
ENDBRANCH  10  11
ENDBRANCH   1  10
TORSDOF 12
ENDMDL
MODEL 5
REMARK VINA RESULT:    -4.631     15.378     18.550
REMARK INTER + INTRA:          -8.528
REMARK INTER:                  -7.641
REMARK INTRA:                  -0.886
REMARK UNBOUND:                -0.647
REMARK SMILES CCCCCCCCCCCCCC(=O)[O-]
REMARK SMILES IDX 8 1 9 2 10 3 11 4 12 5 13 6 14 7 15 8 16 9 7 10 6 11 5 12
REMARK SMILES IDX 4 13 3 14 2 15 1 16
REMARK H PARENT
REMARK Flexibility Score: inf
ROOT
ATOM      1  C   UNL     1      22.633  22.282  19.866  1.00  0.00     0.000 C 
ENDROOT
BRANCH   1   2
ATOM      2  C   UNL     1      21.728  22.456  18.632  1.00  0.00     0.000 C 
BRANCH   2   3
ATOM      3  C   UNL     1      21.332  23.922  18.385  1.00  0.00     0.000 C 
BRANCH   3   4
ATOM      4  C   UNL     1      19.809  24.119  18.320  1.00  0.00     0.000 C 
BRANCH   4   5
ATOM      5  C   UNL     1      19.214  24.580  19.663  1.00  0.00     0.006 C 
BRANCH   5   6
ATOM      6  C   UNL     1      18.830  23.397  20.561  1.00  0.00     0.053 C 
BRANCH   6   7
ATOM      7  C   UNL     1      19.243  23.619  21.984  1.00  0.00     0.041 C 
ATOM      8  O   UNL     1      18.498  23.241  22.926  1.00  0.00    -0.550 OA
ATOM      9  O   UNL     1      20.435  24.271  22.270  1.00  0.00    -0.550 OA
ENDBRANCH   6   7
ENDBRANCH   5   6
ENDBRANCH   4   5
ENDBRANCH   3   4
ENDBRANCH   2   3
ENDBRANCH   1   2
BRANCH   1  10
ATOM     10  C   UNL     1      22.006  21.500  21.037  1.00  0.00     0.000 C 
BRANCH  10  11
ATOM     11  C   UNL     1      22.887  20.385  21.626  1.00  0.00    -0.000 C 
BRANCH  11  12
ATOM     12  C   UNL     1      22.294  18.982  21.421  1.00  0.00    -0.000 C 
BRANCH  12  13
ATOM     13  C   UNL     1      23.402  17.949  21.170  1.00  0.00    -0.000 C 
BRANCH  13  14
ATOM     14  C   UNL     1      24.786  18.594  21.001  1.00  0.00    -0.000 C 
BRANCH  14  15
ATOM     15  C   UNL     1      25.559  18.029  19.800  1.00  0.00    -0.003 C 
ATOM     16  C   UNL     1      27.011  17.737  20.169  1.00  0.00     0.004 C 
ENDBRANCH  14  15
ENDBRANCH  13  14
ENDBRANCH  12  13
ENDBRANCH  11  12
ENDBRANCH  10  11
ENDBRANCH   1  10
TORSDOF 12
ENDMDL
MODEL 6
REMARK VINA RESULT:    -4.615     16.009     18.510
REMARK INTER + INTRA:          -8.500
REMARK INTER:                  -7.717
REMARK INTRA:                  -0.783
REMARK UNBOUND:                -0.647
REMARK SMILES CCCCCCCCCCCCCC(=O)[O-]
REMARK SMILES IDX 8 1 9 2 10 3 11 4 12 5 13 6 14 7 15 8 16 9 7 10 6 11 5 12
REMARK SMILES IDX 4 13 3 14 2 15 1 16
REMARK H PARENT
REMARK Flexibility Score: inf
ROOT
ATOM      1  C   UNL     1      22.442  22.508  19.921  1.00  0.00     0.000 C 
ENDROOT
BRANCH   1   2
ATOM      2  C   UNL     1      21.609  22.786  18.656  1.00  0.00     0.000 C 
BRANCH   2   3
ATOM      3  C   UNL     1      21.132  24.246  18.566  1.00  0.00     0.000 C 
BRANCH   3   4
ATOM      4  C   UNL     1      19.612  24.383  18.753  1.00  0.00     0.000 C 
BRANCH   4   5
ATOM      5  C   UNL     1      19.171  24.165  20.211  1.00  0.00     0.006 C 
BRANCH   5   6
ATOM      6  C   UNL     1      18.434  22.832  20.398  1.00  0.00     0.053 C 
BRANCH   6   7
ATOM      7  C   UNL     1      18.224  22.508  21.845  1.00  0.00     0.041 C 
ATOM      8  O   UNL     1      18.625  23.302  22.736  1.00  0.00    -0.550 OA
ATOM      9  O   UNL     1      17.614  21.316  22.211  1.00  0.00    -0.550 OA
ENDBRANCH   6   7
ENDBRANCH   5   6
ENDBRANCH   4   5
ENDBRANCH   3   4
ENDBRANCH   2   3
ENDBRANCH   1   2
BRANCH   1  10
ATOM     10  C   UNL     1      21.879  21.415  20.852  1.00  0.00     0.000 C 
BRANCH  10  11
ATOM     11  C   UNL     1      22.912  20.400  21.370  1.00  0.00    -0.000 C 
BRANCH  11  12
ATOM     12  C   UNL     1      22.303  19.018  21.654  1.00  0.00    -0.000 C 
BRANCH  12  13
ATOM     13  C   UNL     1      23.132  17.907  20.992  1.00  0.00    -0.000 C 
BRANCH  13  14
ATOM     14  C   UNL     1      24.638  18.055  21.255  1.00  0.00    -0.000 C 
BRANCH  14  15
ATOM     15  C   UNL     1      25.465  18.085  19.961  1.00  0.00    -0.003 C 
ATOM     16  C   UNL     1      26.951  17.903  20.254  1.00  0.00     0.004 C 
ENDBRANCH  14  15
ENDBRANCH  13  14
ENDBRANCH  12  13
ENDBRANCH  11  12
ENDBRANCH  10  11
ENDBRANCH   1  10
TORSDOF 12
ENDMDL
MODEL 7
REMARK VINA RESULT:    -4.556     15.680     18.270
REMARK INTER + INTRA:          -8.399
REMARK INTER:                  -6.743
REMARK INTRA:                  -1.656
REMARK UNBOUND:                -0.647
REMARK SMILES CCCCCCCCCCCCCC(=O)[O-]
REMARK SMILES IDX 8 1 9 2 10 3 11 4 12 5 13 6 14 7 15 8 16 9 7 10 6 11 5 12
REMARK SMILES IDX 4 13 3 14 2 15 1 16
REMARK H PARENT
REMARK Flexibility Score: inf
ROOT
ATOM      1  C   UNL     1      18.937  22.204  16.885  1.00  0.00     0.000 C 
ENDROOT
BRANCH   1   2
ATOM      2  C   UNL     1      17.717  21.277  17.034  1.00  0.00     0.000 C 
BRANCH   2   3
ATOM      3  C   UNL     1      17.457  20.864  18.493  1.00  0.00     0.000 C 
BRANCH   3   4
ATOM      4  C   UNL     1      18.720  20.330  19.190  1.00  0.00     0.000 C 
BRANCH   4   5
ATOM      5  C   UNL     1      18.874  20.861  20.625  1.00  0.00     0.006 C 
BRANCH   5   6
ATOM      6  C   UNL     1      17.986  22.085  20.887  1.00  0.00     0.053 C 
BRANCH   6   7
ATOM      7  C   UNL     1      18.355  22.781  22.161  1.00  0.00     0.041 C 
ATOM      8  O   UNL     1      19.286  23.629  22.172  1.00  0.00    -0.550 OA
ATOM      9  O   UNL     1      17.692  22.473  23.341  1.00  0.00    -0.550 OA
ENDBRANCH   6   7
ENDBRANCH   5   6
ENDBRANCH   4   5
ENDBRANCH   3   4
ENDBRANCH   2   3
ENDBRANCH   1   2
BRANCH   1  10
ATOM     10  C   UNL     1      18.804  23.581  17.568  1.00  0.00     0.000 C 
BRANCH  10  11
ATOM     11  C   UNL     1      20.027  24.504  17.421  1.00  0.00    -0.000 C 
BRANCH  11  12
ATOM     12  C   UNL     1      21.342  23.824  17.829  1.00  0.00    -0.000 C 
BRANCH  12  13
ATOM     13  C   UNL     1      21.356  23.513  19.333  1.00  0.00    -0.000 C 
BRANCH  13  14
ATOM     14  C   UNL     1      22.307  22.360  19.690  1.00  0.00    -0.000 C 
BRANCH  14  15
ATOM     15  C   UNL     1      22.212  21.951  21.168  1.00  0.00    -0.003 C 
ATOM     16  C   UNL     1      22.679  20.513  21.371  1.00  0.00     0.004 C 
ENDBRANCH  14  15
ENDBRANCH  13  14
ENDBRANCH  12  13
ENDBRANCH  11  12
ENDBRANCH  10  11
ENDBRANCH   1  10
TORSDOF 12
ENDMDL
MODEL 8
REMARK VINA RESULT:    -4.544     16.483     18.230
REMARK INTER + INTRA:          -8.378
REMARK INTER:                  -7.062
REMARK INTRA:                  -1.316
REMARK UNBOUND:                -0.647
REMARK SMILES CCCCCCCCCCCCCC(=O)[O-]
REMARK SMILES IDX 8 1 9 2 10 3 11 4 12 5 13 6 14 7 15 8 16 9 7 10 6 11 5 12
REMARK SMILES IDX 4 13 3 14 2 15 1 16
REMARK H PARENT
REMARK Flexibility Score: inf
ROOT
ATOM      1  C   UNL     1      20.566  21.296  20.659  1.00  0.00     0.000 C 
ENDROOT
BRANCH   1   2
ATOM      2  C   UNL     1      22.084  21.549  20.636  1.00  0.00     0.000 C 
BRANCH   2   3
ATOM      3  C   UNL     1      22.867  20.561  21.519  1.00  0.00     0.000 C 
BRANCH   3   4
ATOM      4  C   UNL     1      22.265  19.146  21.498  1.00  0.00     0.000 C 
BRANCH   4   5
ATOM      5  C   UNL     1      23.256  18.088  20.982  1.00  0.00     0.006 C 
BRANCH   5   6
ATOM      6  C   UNL     1      24.715  18.494  21.228  1.00  0.00     0.053 C 
BRANCH   6   7
ATOM      7  C   UNL     1      25.618  18.029  20.128  1.00  0.00     0.041 C 
ATOM      8  O   UNL     1      25.135  17.661  19.025  1.00  0.00    -0.550 OA
ATOM      9  O   UNL     1      26.991  17.972  20.330  1.00  0.00    -0.550 OA
ENDBRANCH   6   7
ENDBRANCH   5   6
ENDBRANCH   4   5
ENDBRANCH   3   4
ENDBRANCH   2   3
ENDBRANCH   1   2
BRANCH   1  10
ATOM     10  C   UNL     1      19.725  22.399  21.333  1.00  0.00     0.000 C 
BRANCH  10  11
ATOM     11  C   UNL     1      20.333  23.812  21.276  1.00  0.00    -0.000 C 
BRANCH  11  12
ATOM     12  C   UNL     1      19.825  24.633  20.080  1.00  0.00    -0.000 C 
BRANCH  12  13
ATOM     13  C   UNL     1      20.956  24.896  19.075  1.00  0.00    -0.000 C 
BRANCH  13  14
ATOM     14  C   UNL     1      20.573  24.510  17.639  1.00  0.00    -0.000 C 
BRANCH  14  15
ATOM     15  C   UNL     1      20.674  22.998  17.385  1.00  0.00    -0.003 C 
ATOM     16  C   UNL     1      19.289  22.367  17.272  1.00  0.00     0.004 C 
ENDBRANCH  14  15
ENDBRANCH  13  14
ENDBRANCH  12  13
ENDBRANCH  11  12
ENDBRANCH  10  11
ENDBRANCH   1  10
TORSDOF 12
ENDMDL
MODEL 9
REMARK VINA RESULT:    -4.489     16.790     18.497
REMARK INTER + INTRA:          -8.285
REMARK INTER:                  -6.940
REMARK INTRA:                  -1.345
REMARK UNBOUND:                -0.647
REMARK SMILES CCCCCCCCCCCCCC(=O)[O-]
REMARK SMILES IDX 8 1 9 2 10 3 11 4 12 5 13 6 14 7 15 8 16 9 7 10 6 11 5 12
REMARK SMILES IDX 4 13 3 14 2 15 1 16
REMARK H PARENT
REMARK Flexibility Score: inf
ROOT
ATOM      1  C   UNL     1      21.749  22.952  18.817  1.00  0.00     0.000 C 
ENDROOT
BRANCH   1   2
ATOM      2  C   UNL     1      22.251  22.647  20.240  1.00  0.00     0.000 C 
BRANCH   2   3
ATOM      3  C   UNL     1      21.730  21.305  20.782  1.00  0.00     0.000 C 
BRANCH   3   4
ATOM      4  C   UNL     1      22.829  20.482  21.475  1.00  0.00     0.000 C 
BRANCH   4   5
ATOM      5  C   UNL     1      22.537  18.971  21.458  1.00  0.00     0.006 C 
BRANCH   5   6
ATOM      6  C   UNL     1      23.821  18.133  21.514  1.00  0.00     0.053 C 
BRANCH   6   7
ATOM      7  C   UNL     1      24.358  17.842  20.146  1.00  0.00     0.041 C 
ATOM      8  O   UNL     1      23.934  16.850  19.498  1.00  0.00    -0.550 OA
ATOM      9  O   UNL     1      25.348  18.648  19.600  1.00  0.00    -0.550 OA
ENDBRANCH   6   7
ENDBRANCH   5   6
ENDBRANCH   4   5
ENDBRANCH   3   4
ENDBRANCH   2   3
ENDBRANCH   1   2
BRANCH   1  10
ATOM     10  C   UNL     1      20.985  24.282  18.659  1.00  0.00     0.000 C 
BRANCH  10  11
ATOM     11  C   UNL     1      19.537  24.150  18.157  1.00  0.00    -0.000 C 
BRANCH  11  12
ATOM     12  C   UNL     1      19.236  22.768  17.557  1.00  0.00    -0.000 C 
BRANCH  12  13
ATOM     13  C   UNL     1      18.036  22.114  18.259  1.00  0.00    -0.000 C 
BRANCH  13  14
ATOM     14  C   UNL     1      18.456  21.198  19.418  1.00  0.00    -0.000 C 
BRANCH  14  15
ATOM     15  C   UNL     1      17.779  21.573  20.744  1.00  0.00    -0.003 C 
ATOM     16  C   UNL     1      18.456  22.781  21.385  1.00  0.00     0.004 C 
ENDBRANCH  14  15
ENDBRANCH  13  14
ENDBRANCH  12  13
ENDBRANCH  11  12
ENDBRANCH  10  11
ENDBRANCH   1  10
TORSDOF 12
ENDMDL
