MODEL 1
REMARK VINA RESULT:    -4.661      0.000      0.000
REMARK INTER + INTRA:          -7.742
REMARK INTER:                  -7.114
REMARK INTRA:                  -0.628
REMARK UNBOUND:                -0.628
REMARK SMILES O=C([O-])CCCCCCCCC(=O)[O-]
REMARK SMILES IDX 7 1 6 2 5 3 4 4 2 5 1 6 3 7 8 8 9 9 10 10 11 11 12 12 13 13
REMARK SMILES IDX 14 14
REMARK H PARENT
REMARK Flexibility Score: inf
ROOT
ATOM      1  C   UNL     1      45.410  50.929  10.850  1.00  0.00     0.000 C 
ENDROOT
BRANCH   1   2
ATOM      2  C   UNL     1      44.496  50.447  11.986  1.00  0.00     0.000 C 
BRANCH   2   3
ATOM      3  C   UNL     1      43.838  49.087  11.686  1.00  0.00     0.006 C 
BRANCH   3   4
ATOM      4  C   UNL     1      42.922  48.568  12.806  1.00  0.00     0.053 C 
BRANCH   4   5
ATOM      5  C   UNL     1      42.022  49.640  13.340  1.00  0.00     0.041 C 
ATOM      6  O   UNL     1      41.046  50.046  12.656  1.00  0.00    -0.550 OA
ATOM      7  O   UNL     1      42.282  50.214  14.577  1.00  0.00    -0.550 OA
ENDBRANCH   4   5
ENDBRANCH   3   4
ENDBRANCH   2   3
ENDBRANCH   1   2
BRANCH   1   8
ATOM      8  C   UNL     1      46.886  50.843  11.258  1.00  0.00     0.000 C 
BRANCH   8   9
ATOM      9  C   UNL     1      47.658  49.891  10.333  1.00  0.00     0.000 C 
BRANCH   9  10
ATOM     10  C   UNL     1      47.435  48.412  10.685  1.00  0.00     0.006 C 
BRANCH  10  11
ATOM     11  C   UNL     1      46.746  47.633   9.557  1.00  0.00     0.053 C 
BRANCH  11  12
ATOM     12  C   UNL     1      46.955  46.163   9.735  1.00  0.00     0.041 C 
ATOM     13  O   UNL     1      46.571  45.591  10.789  1.00  0.00    -0.550 OA
ATOM     14  O   UNL     1      47.530  45.413   8.716  1.00  0.00    -0.550 OA
ENDBRANCH  11  12
ENDBRANCH  10  11
ENDBRANCH   9  10
ENDBRANCH   8   9
ENDBRANCH   1   8
TORSDOF 9
ENDMDL
MODEL 2
REMARK VINA RESULT:    -4.632      1.276      5.126
REMARK INTER + INTRA:          -7.697
REMARK INTER:                  -6.817
REMARK INTRA:                  -0.879
REMARK UNBOUND:                -0.628
REMARK SMILES O=C([O-])CCCCCCCCC(=O)[O-]
REMARK SMILES IDX 7 1 6 2 5 3 4 4 2 5 1 6 3 7 8 8 9 9 10 10 11 11 12 12 13 13
REMARK SMILES IDX 14 14
REMARK H PARENT
REMARK Flexibility Score: inf
ROOT
ATOM      1  C   UNL     1      47.248  49.818  10.919  1.00  0.00     0.000 C 
ENDROOT
BRANCH   1   2
ATOM      2  C   UNL     1      46.896  49.514   9.456  1.00  0.00     0.000 C 
BRANCH   2   3
ATOM      3  C   UNL     1      46.588  48.024   9.213  1.00  0.00     0.006 C 
BRANCH   3   4
ATOM      4  C   UNL     1      46.869  47.115  10.420  1.00  0.00     0.053 C 
BRANCH   4   5
ATOM      5  C   UNL     1      46.293  45.744  10.238  1.00  0.00     0.041 C 
ATOM      6  O   UNL     1      46.870  44.908   9.495  1.00  0.00    -0.550 OA
ATOM      7  O   UNL     1      45.101  45.402  10.863  1.00  0.00    -0.550 OA
ENDBRANCH   4   5
ENDBRANCH   3   4
ENDBRANCH   2   3
ENDBRANCH   1   2
BRANCH   1   8
ATOM      8  C   UNL     1      46.421  50.996  11.449  1.00  0.00     0.000 C 
BRANCH   8   9
ATOM      9  C   UNL     1      44.958  50.888  10.998  1.00  0.00     0.000 C 
BRANCH   9  10
ATOM     10  C   UNL     1      44.070  50.180  12.034  1.00  0.00     0.006 C 
BRANCH  10  11
ATOM     11  C   UNL     1      43.732  48.738  11.635  1.00  0.00     0.053 C 
BRANCH  11  12
ATOM     12  C   UNL     1      42.600  48.220  12.464  1.00  0.00     0.041 C 
ATOM     13  O   UNL     1      41.710  49.005  12.884  1.00  0.00    -0.550 OA
ATOM     14  O   UNL     1      42.500  46.860  12.733  1.00  0.00    -0.550 OA
ENDBRANCH  11  12
ENDBRANCH  10  11
ENDBRANCH   9  10
ENDBRANCH   8   9
ENDBRANCH   1   8
TORSDOF 9
ENDMDL
MODEL 3
REMARK VINA RESULT:    -4.585     12.355     14.262
REMARK INTER + INTRA:          -7.625
REMARK INTER:                  -6.880
REMARK INTRA:                  -0.745
REMARK UNBOUND:                -0.628
REMARK SMILES O=C([O-])CCCCCCCCC(=O)[O-]
REMARK SMILES IDX 7 1 6 2 5 3 4 4 2 5 1 6 3 7 8 8 9 9 10 10 11 11 12 12 13 13
REMARK SMILES IDX 14 14
REMARK H PARENT
REMARK Flexibility Score: inf
ROOT
ATOM      1  C   UNL     1      43.883  37.794  21.453  1.00  0.00     0.000 C 
ENDROOT
BRANCH   1   2
ATOM      2  C   UNL     1      44.846  36.695  20.980  1.00  0.00     0.000 C 
BRANCH   2   3
ATOM      3  C   UNL     1      44.612  36.288  19.513  1.00  0.00     0.006 C 
BRANCH   3   4
ATOM      4  C   UNL     1      45.758  36.665  18.561  1.00  0.00     0.053 C 
BRANCH   4   5
ATOM      5  C   UNL     1      46.616  35.484  18.219  1.00  0.00     0.041 C 
ATOM      6  O   UNL     1      47.037  35.328  17.043  1.00  0.00    -0.550 OA
ATOM      7  O   UNL     1      46.920  34.540  19.191  1.00  0.00    -0.550 OA
ENDBRANCH   4   5
ENDBRANCH   3   4
ENDBRANCH   2   3
ENDBRANCH   1   2
BRANCH   1   8
ATOM      8  C   UNL     1      44.636  39.101  21.732  1.00  0.00     0.000 C 
BRANCH   8   9
ATOM      9  C   UNL     1      44.733  39.962  20.464  1.00  0.00     0.000 C 
BRANCH   9  10
ATOM     10  C   UNL     1      46.185  40.287  20.079  1.00  0.00     0.006 C 
BRANCH  10  11
ATOM     11  C   UNL     1      46.423  40.223  18.565  1.00  0.00     0.053 C 
BRANCH  11  12
ATOM     12  C   UNL     1      47.887  40.142  18.270  1.00  0.00     0.041 C 
ATOM     13  O   UNL     1      48.303  39.435  17.315  1.00  0.00    -0.550 OA
ATOM     14  O   UNL     1      48.790  40.887  19.020  1.00  0.00    -0.550 OA
ENDBRANCH  11  12
ENDBRANCH  10  11
ENDBRANCH   9  10
ENDBRANCH   8   9
ENDBRANCH   1   8
TORSDOF 9
ENDMDL
MODEL 4
REMARK VINA RESULT:    -4.567      1.200      1.836
REMARK INTER + INTRA:          -7.598
REMARK INTER:                  -6.821
REMARK INTRA:                  -0.776
REMARK UNBOUND:                -0.628
REMARK SMILES O=C([O-])CCCCCCCCC(=O)[O-]
REMARK SMILES IDX 7 1 6 2 5 3 4 4 2 5 1 6 3 7 8 8 9 9 10 10 11 11 12 12 13 13
REMARK SMILES IDX 14 14
REMARK H PARENT
REMARK Flexibility Score: inf
ROOT
ATOM      1  C   UNL     1      46.170  51.077  10.186  1.00  0.00     0.000 C 
ENDROOT
BRANCH   1   2
ATOM      2  C   UNL     1      45.790  50.749  11.637  1.00  0.00     0.000 C 
BRANCH   2   3
ATOM      3  C   UNL     1      44.293  50.425  11.802  1.00  0.00     0.006 C 
BRANCH   3   4
ATOM      4  C   UNL     1      43.941  48.941  11.606  1.00  0.00     0.053 C 
BRANCH   4   5
ATOM      5  C   UNL     1      42.729  48.542  12.391  1.00  0.00     0.041 C 
ATOM      6  O   UNL     1      42.813  48.355  13.633  1.00  0.00    -0.550 OA
ATOM      7  O   UNL     1      41.516  48.344  11.745  1.00  0.00    -0.550 OA
ENDBRANCH   4   5
ENDBRANCH   3   4
ENDBRANCH   2   3
ENDBRANCH   1   2
BRANCH   1   8
ATOM      8  C   UNL     1      47.018  49.955   9.573  1.00  0.00     0.000 C 
BRANCH   8   9
ATOM      9  C   UNL     1      47.633  49.070  10.667  1.00  0.00     0.000 C 
BRANCH   9  10
ATOM     10  C   UNL     1      47.261  47.587  10.508  1.00  0.00     0.006 C 
BRANCH  10  11
ATOM     11  C   UNL     1      46.609  47.285   9.152  1.00  0.00     0.053 C 
BRANCH  11  12
ATOM     12  C   UNL     1      46.719  45.827   8.835  1.00  0.00     0.041 C 
ATOM     13  O   UNL     1      47.758  45.375   8.285  1.00  0.00    -0.550 OA
ATOM     14  O   UNL     1      45.696  44.958   9.193  1.00  0.00    -0.550 OA
ENDBRANCH  11  12
ENDBRANCH  10  11
ENDBRANCH   9  10
ENDBRANCH   8   9
ENDBRANCH   1   8
TORSDOF 9
ENDMDL
MODEL 5
REMARK VINA RESULT:    -4.549      4.745      5.948
REMARK INTER + INTRA:          -7.571
REMARK INTER:                  -7.116
REMARK INTRA:                  -0.455
REMARK UNBOUND:                -0.628
REMARK SMILES O=C([O-])CCCCCCCCC(=O)[O-]
REMARK SMILES IDX 7 1 6 2 5 3 4 4 2 5 1 6 3 7 8 8 9 9 10 10 11 11 12 12 13 13
REMARK SMILES IDX 14 14
REMARK H PARENT
REMARK Flexibility Score: inf
ROOT
ATOM      1  C   UNL     1      42.689  47.821  13.163  1.00  0.00     0.000 C 
ENDROOT
BRANCH   1   2
ATOM      2  C   UNL     1      42.797  49.328  12.890  1.00  0.00     0.000 C 
BRANCH   2   3
ATOM      3  C   UNL     1      41.964  50.174  13.871  1.00  0.00     0.006 C 
BRANCH   3   4
ATOM      4  C   UNL     1      40.548  50.508  13.374  1.00  0.00     0.053 C 
BRANCH   4   5
ATOM      5  C   UNL     1      39.767  51.290  14.387  1.00  0.00     0.041 C 
ATOM      6  O   UNL     1      40.159  51.347  15.581  1.00  0.00    -0.550 OA
ATOM      7  O   UNL     1      38.590  51.925  14.016  1.00  0.00    -0.550 OA
ENDBRANCH   4   5
ENDBRANCH   3   4
ENDBRANCH   2   3
ENDBRANCH   1   2
BRANCH   1   8
ATOM      8  C   UNL     1      42.050  47.091  11.974  1.00  0.00     0.000 C 
BRANCH   8   9
ATOM      9  C   UNL     1      40.528  46.985  12.147  1.00  0.00     0.000 C 
BRANCH   9  10
ATOM     10  C   UNL     1      39.895  45.955  11.198  1.00  0.00     0.006 C 
BRANCH  10  11
ATOM     11  C   UNL     1      40.369  46.118   9.748  1.00  0.00     0.053 C 
BRANCH  11  12
ATOM     12  C   UNL     1      39.219  45.958   8.804  1.00  0.00     0.041 C 
ATOM     13  O   UNL     1      38.241  45.230   9.115  1.00  0.00    -0.550 OA
ATOM     14  O   UNL     1      39.206  46.653   7.601  1.00  0.00    -0.550 OA
ENDBRANCH  11  12
ENDBRANCH  10  11
ENDBRANCH   9  10
ENDBRANCH   8   9
ENDBRANCH   1   8
TORSDOF 9
ENDMDL
MODEL 6
REMARK VINA RESULT:    -4.542      1.512      6.562
REMARK INTER + INTRA:          -7.560
REMARK INTER:                  -7.108
REMARK INTRA:                  -0.451
REMARK UNBOUND:                -0.628
REMARK SMILES O=C([O-])CCCCCCCCC(=O)[O-]
REMARK SMILES IDX 7 1 6 2 5 3 4 4 2 5 1 6 3 7 8 8 9 9 10 10 11 11 12 12 13 13
REMARK SMILES IDX 14 14
REMARK H PARENT
REMARK Flexibility Score: inf
ROOT
ATOM      1  C   UNL     1      45.190  50.291  11.765  1.00  0.00     0.000 C 
ENDROOT
BRANCH   1   2
ATOM      2  C   UNL     1      45.959  49.996  10.470  1.00  0.00     0.000 C 
BRANCH   2   3
ATOM      3  C   UNL     1      47.016  48.888  10.642  1.00  0.00     0.006 C 
BRANCH   3   4
ATOM      4  C   UNL     1      46.796  47.659   9.746  1.00  0.00     0.053 C 
BRANCH   4   5
ATOM      5  C   UNL     1      45.921  46.635  10.401  1.00  0.00     0.041 C 
ATOM      6  O   UNL     1      44.669  46.764  10.380  1.00  0.00    -0.550 OA
ATOM      7  O   UNL     1      46.491  45.555  11.064  1.00  0.00    -0.550 OA
ENDBRANCH   4   5
ENDBRANCH   3   4
ENDBRANCH   2   3
ENDBRANCH   1   2
BRANCH   1   8
ATOM      8  C   UNL     1      43.682  50.085  11.568  1.00  0.00     0.000 C 
BRANCH   8   9
ATOM      9  C   UNL     1      43.111  49.146  12.641  1.00  0.00     0.000 C 
BRANCH   9  10
ATOM     10  C   UNL     1      42.208  49.878  13.647  1.00  0.00     0.006 C 
BRANCH  10  11
ATOM     11  C   UNL     1      40.827  50.211  13.068  1.00  0.00     0.053 C 
BRANCH  11  12
ATOM     12  C   UNL     1      40.049  51.054  14.028  1.00  0.00     0.041 C 
ATOM     13  O   UNL     1      40.541  51.358  15.147  1.00  0.00    -0.550 OA
ATOM     14  O   UNL     1      38.800  51.546  13.669  1.00  0.00    -0.550 OA
ENDBRANCH  11  12
ENDBRANCH  10  11
ENDBRANCH   9  10
ENDBRANCH   8   9
ENDBRANCH   1   8
TORSDOF 9
ENDMDL
MODEL 7
REMARK VINA RESULT:    -4.542     12.483     13.848
REMARK INTER + INTRA:          -7.560
REMARK INTER:                  -7.128
REMARK INTRA:                  -0.432
REMARK UNBOUND:                -0.628
REMARK SMILES O=C([O-])CCCCCCCCC(=O)[O-]
REMARK SMILES IDX 7 1 6 2 5 3 4 4 2 5 1 6 3 7 8 8 9 9 10 10 11 11 12 12 13 13
REMARK SMILES IDX 14 14
REMARK H PARENT
REMARK Flexibility Score: inf
ROOT
ATOM      1  C   UNL     1      46.175  40.594  20.082  1.00  0.00     0.000 C 
ENDROOT
BRANCH   1   2
ATOM      2  C   UNL     1      46.701  40.403  21.511  1.00  0.00     0.000 C 
BRANCH   2   3
ATOM      3  C   UNL     1      47.832  41.385  21.868  1.00  0.00     0.006 C 
BRANCH   3   4
ATOM      4  C   UNL     1      48.820  41.656  20.722  1.00  0.00     0.053 C 
BRANCH   4   5
ATOM      5  C   UNL     1      49.904  42.608  21.127  1.00  0.00     0.041 C 
ATOM      6  O   UNL     1      50.909  42.191  21.760  1.00  0.00    -0.550 OA
ATOM      7  O   UNL     1      49.788  43.960  20.833  1.00  0.00    -0.550 OA
ENDBRANCH   4   5
ENDBRANCH   3   4
ENDBRANCH   2   3
ENDBRANCH   1   2
BRANCH   1   8
ATOM      8  C   UNL     1      45.817  39.246  19.443  1.00  0.00     0.000 C 
BRANCH   8   9
ATOM      9  C   UNL     1      45.040  38.360  20.427  1.00  0.00     0.000 C 
BRANCH   9  10
ATOM     10  C   UNL     1      44.972  36.892  19.976  1.00  0.00     0.006 C 
BRANCH  10  11
ATOM     11  C   UNL     1      45.344  36.711  18.499  1.00  0.00     0.053 C 
BRANCH  11  12
ATOM     12  C   UNL     1      46.439  35.702  18.358  1.00  0.00     0.041 C 
ATOM     13  O   UNL     1      47.131  35.660  17.307  1.00  0.00    -0.550 OA
ATOM     14  O   UNL     1      46.730  34.839  19.408  1.00  0.00    -0.550 OA
ENDBRANCH  11  12
ENDBRANCH  10  11
ENDBRANCH   9  10
ENDBRANCH   8   9
ENDBRANCH   1   8
TORSDOF 9
ENDMDL
MODEL 8
REMARK VINA RESULT:    -4.535     13.248     14.674
REMARK INTER + INTRA:          -7.549
REMARK INTER:                  -7.076
REMARK INTRA:                  -0.473
REMARK UNBOUND:                -0.628
REMARK SMILES O=C([O-])CCCCCCCCC(=O)[O-]
REMARK SMILES IDX 7 1 6 2 5 3 4 4 2 5 1 6 3 7 8 8 9 9 10 10 11 11 12 12 13 13
REMARK SMILES IDX 14 14
REMARK H PARENT
REMARK Flexibility Score: inf
ROOT
ATOM      1  C   UNL     1      45.629  38.967  19.766  1.00  0.00     0.000 C 
ENDROOT
BRANCH   1   2
ATOM      2  C   UNL     1      46.265  39.536  18.490  1.00  0.00     0.000 C 
BRANCH   2   3
ATOM      3  C   UNL     1      47.542  40.351  18.772  1.00  0.00     0.006 C 
BRANCH   3   4
ATOM      4  C   UNL     1      47.627  40.921  20.197  1.00  0.00     0.053 C 
BRANCH   4   5
ATOM      5  C   UNL     1      48.986  41.475  20.501  1.00  0.00     0.041 C 
ATOM      6  O   UNL     1      49.481  42.372  19.771  1.00  0.00    -0.550 OA
ATOM      7  O   UNL     1      49.717  40.976  21.570  1.00  0.00    -0.550 OA
ENDBRANCH   4   5
ENDBRANCH   3   4
ENDBRANCH   2   3
ENDBRANCH   1   2
BRANCH   1   8
ATOM      8  C   UNL     1      45.362  37.463  19.622  1.00  0.00     0.000 C 
BRANCH   8   9
ATOM      9  C   UNL     1      46.168  36.870  18.457  1.00  0.00     0.000 C 
BRANCH   9  10
ATOM     10  C   UNL     1      46.521  35.390  18.675  1.00  0.00     0.006 C 
BRANCH  10  11
ATOM     11  C   UNL     1      45.920  34.823  19.967  1.00  0.00     0.053 C 
BRANCH  11  12
ATOM     12  C   UNL     1      46.663  33.597  20.394  1.00  0.00     0.041 C 
ATOM     13  O   UNL     1      46.104  32.470  20.349  1.00  0.00    -0.550 OA
ATOM     14  O   UNL     1      47.990  33.691  20.793  1.00  0.00    -0.550 OA
ENDBRANCH  11  12
ENDBRANCH  10  11
ENDBRANCH   9  10
ENDBRANCH   8   9
ENDBRANCH   1   8
TORSDOF 9
ENDMDL
MODEL 9
REMARK VINA RESULT:    -4.522     12.257     13.891
REMARK INTER + INTRA:          -7.529
REMARK INTER:                  -6.905
REMARK INTRA:                  -0.623
REMARK UNBOUND:                -0.628
REMARK SMILES O=C([O-])CCCCCCCCC(=O)[O-]
REMARK SMILES IDX 7 1 6 2 5 3 4 4 2 5 1 6 3 7 8 8 9 9 10 10 11 11 12 12 13 13
REMARK SMILES IDX 14 14
REMARK H PARENT
REMARK Flexibility Score: inf
ROOT
ATOM      1  C   UNL     1      45.411  39.295  21.986  1.00  0.00     0.000 C 
ENDROOT
BRANCH   1   2
ATOM      2  C   UNL     1      46.398  40.459  21.821  1.00  0.00     0.000 C 
BRANCH   2   3
ATOM      3  C   UNL     1      46.500  40.953  20.366  1.00  0.00     0.006 C 
BRANCH   3   4
ATOM      4  C   UNL     1      47.894  40.794  19.739  1.00  0.00     0.053 C 
BRANCH   4   5
ATOM      5  C   UNL     1      47.827  40.225  18.355  1.00  0.00     0.041 C 
ATOM      6  O   UNL     1      48.859  39.748  17.815  1.00  0.00    -0.550 OA
ATOM      7  O   UNL     1      46.632  40.253  17.648  1.00  0.00    -0.550 OA
ENDBRANCH   4   5
ENDBRANCH   3   4
ENDBRANCH   2   3
ENDBRANCH   1   2
BRANCH   1   8
ATOM      8  C   UNL     1      44.989  38.734  20.621  1.00  0.00     0.000 C 
BRANCH   8   9
ATOM      9  C   UNL     1      44.333  37.354  20.773  1.00  0.00     0.000 C 
BRANCH   9  10
ATOM     10  C   UNL     1      44.555  36.455  19.545  1.00  0.00     0.006 C 
BRANCH  10  11
ATOM     11  C   UNL     1      45.814  36.835  18.756  1.00  0.00     0.053 C 
BRANCH  11  12
ATOM     12  C   UNL     1      46.570  35.607  18.358  1.00  0.00     0.041 C 
ATOM     13  O   UNL     1      46.847  34.728  19.216  1.00  0.00    -0.550 OA
ATOM     14  O   UNL     1      46.927  35.409  17.030  1.00  0.00    -0.550 OA
ENDBRANCH  11  12
ENDBRANCH  10  11
ENDBRANCH   9  10
ENDBRANCH   8   9
ENDBRANCH   1   8
TORSDOF 9
ENDMDL
