MODEL 1
REMARK VINA RESULT:    -5.715      0.000      0.000
REMARK INTER + INTRA:          -6.994
REMARK INTER:                  -6.717
REMARK INTRA:                  -0.276
REMARK UNBOUND:                -0.276
REMARK SMILES O=c1cc(-c2ccc(O)c(O)c2)oc2cc(O)cc(O)c12
REMARK SMILES IDX 4 1 3 2 2 3 1 4 21 5 19 6 18 7 16 8 15 9 14 10 13 11 5 12
REMARK SMILES IDX 6 13 7 14 8 15 12 16 10 17 9 18 11 20 20 22 17 24
REMARK H PARENT 9 19 11 21 20 23 17 25
REMARK Flexibility Score: inf
ROOT
ATOM      1  C   UNL     1      80.303  24.655  45.449  1.00  0.00     0.138 A 
ATOM      2  C   UNL     1      78.911  24.608  45.283  1.00  0.00     0.100 A 
ATOM      3  C   UNL     1      78.373  24.056  44.120  1.00  0.00     0.197 A 
ATOM      4  O   UNL     1      77.124  24.084  43.973  1.00  0.00    -0.289 OA
ATOM      5  C   UNL     1      79.234  23.518  43.134  1.00  0.00     0.107 A 
ATOM      6  C   UNL     1      78.796  22.892  41.928  1.00  0.00     0.134 A 
ATOM      7  C   UNL     1      79.741  22.501  40.971  1.00  0.00     0.093 A 
ATOM      8  C   UNL     1      81.110  22.659  41.204  1.00  0.00     0.123 A 
ATOM      9  C   UNL     1      81.549  23.219  42.401  1.00  0.00     0.094 A 
ATOM     10  C   UNL     1      80.629  23.650  43.360  1.00  0.00     0.146 A 
ATOM     11  O   UNL     1      81.089  24.192  44.483  1.00  0.00    -0.456 OA
ENDROOT
BRANCH   1  12
ATOM     12  C   UNL     1      80.929  25.232  46.666  1.00  0.00     0.021 A 
ATOM     13  C   UNL     1      82.014  26.123  46.587  1.00  0.00     0.016 A 
ATOM     14  C   UNL     1      82.577  26.658  47.747  1.00  0.00     0.051 A 
ATOM     15  C   UNL     1      82.070  26.324  49.007  1.00  0.00     0.157 A 
ATOM     16  C   UNL     1      80.411  24.908  47.931  1.00  0.00     0.062 A 
ATOM     17  C   UNL     1      80.970  25.439  49.100  1.00  0.00     0.158 A 
BRANCH  15  18
ATOM     18  O   UNL     1      82.681  26.891  50.127  1.00  0.00    -0.504 OA
ATOM     19  H   UNL     1      82.930  26.373  50.957  1.00  0.00     0.293 HD
ENDBRANCH  15  18
BRANCH  17  20
ATOM     20  O   UNL     1      80.407  25.063  50.321  1.00  0.00    -0.504 OA
ATOM     21  H   UNL     1      80.337  24.107  50.640  1.00  0.00     0.293 HD
ENDBRANCH  17  20
ENDBRANCH   1  12
BRANCH   6  22
ATOM     22  O   UNL     1      77.458  22.611  41.635  1.00  0.00    -0.507 OA
ATOM     23  H   UNL     1      76.749  22.404  42.321  1.00  0.00     0.293 HD
ENDBRANCH   6  22
BRANCH   8  24
ATOM     24  O   UNL     1      82.044  22.253  40.253  1.00  0.00    -0.508 OA
ATOM     25  H   UNL     1      82.436  22.905  39.583  1.00  0.00     0.293 HD
ENDBRANCH   8  24
TORSDOF 5
ENDMDL
MODEL 2
REMARK VINA RESULT:    -5.650     10.609     11.546
REMARK INTER + INTRA:          -6.917
REMARK INTER:                  -6.603
REMARK INTRA:                  -0.314
REMARK UNBOUND:                -0.276
REMARK SMILES O=c1cc(-c2ccc(O)c(O)c2)oc2cc(O)cc(O)c12
REMARK SMILES IDX 4 1 3 2 2 3 1 4 21 5 19 6 18 7 16 8 15 9 14 10 13 11 5 12
REMARK SMILES IDX 6 13 7 14 8 15 12 16 10 17 9 18 11 20 20 22 17 24
REMARK H PARENT 9 19 11 21 20 23 17 25
REMARK Flexibility Score: inf
ROOT
ATOM      1  C   UNL     1      76.285  15.337  49.841  1.00  0.00     0.138 A 
ATOM      2  C   UNL     1      76.347  16.721  50.058  1.00  0.00     0.100 A 
ATOM      3  C   UNL     1      76.216  17.596  48.979  1.00  0.00     0.197 A 
ATOM      4  O   UNL     1      76.339  18.829  49.198  1.00  0.00    -0.289 OA
ATOM      5  C   UNL     1      75.987  17.082  47.680  1.00  0.00     0.107 A 
ATOM      6  C   UNL     1      75.796  17.881  46.514  1.00  0.00     0.134 A 
ATOM      7  C   UNL     1      75.694  17.261  45.262  1.00  0.00     0.093 A 
ATOM      8  C   UNL     1      75.715  15.868  45.145  1.00  0.00     0.123 A 
ATOM      9  C   UNL     1      75.847  15.079  46.284  1.00  0.00     0.094 A 
ATOM     10  C   UNL     1      75.986  15.669  47.542  1.00  0.00     0.146 A 
ATOM     11  O   UNL     1      76.123  14.880  48.603  1.00  0.00    -0.456 OA
ENDROOT
BRANCH   1  12
ATOM     12  C   UNL     1      76.418  14.361  50.951  1.00  0.00     0.021 A 
ATOM     13  C   UNL     1      76.225  14.738  52.293  1.00  0.00     0.016 A 
ATOM     14  C   UNL     1      76.347  13.797  53.317  1.00  0.00     0.051 A 
ATOM     15  C   UNL     1      76.654  12.463  53.029  1.00  0.00     0.157 A 
ATOM     16  C   UNL     1      76.713  13.019  50.662  1.00  0.00     0.062 A 
ATOM     17  C   UNL     1      76.838  12.068  51.683  1.00  0.00     0.158 A 
BRANCH  15  18
ATOM     18  O   UNL     1      76.765  11.573  54.099  1.00  0.00    -0.504 OA
ATOM     19  H   UNL     1      77.336  10.741  54.085  1.00  0.00     0.293 HD
ENDBRANCH  15  18
BRANCH  17  20
ATOM     20  O   UNL     1      77.142  10.755  51.317  1.00  0.00    -0.504 OA
ATOM     21  H   UNL     1      76.448  10.043  51.142  1.00  0.00     0.293 HD
ENDBRANCH  17  20
ENDBRANCH   1  12
BRANCH   6  22
ATOM     22  O   UNL     1      75.676  19.274  46.531  1.00  0.00    -0.507 OA
ATOM     23  H   UNL     1      74.896  19.781  46.920  1.00  0.00     0.293 HD
ENDBRANCH   6  22
BRANCH   8  24
ATOM     24  O   UNL     1      75.598  15.259  43.897  1.00  0.00    -0.508 OA
ATOM     25  H   UNL     1      76.277  15.422  43.161  1.00  0.00     0.293 HD
ENDBRANCH   8  24
TORSDOF 5
ENDMDL
MODEL 3
REMARK VINA RESULT:    -5.573      7.433     10.808
REMARK INTER + INTRA:          -6.826
REMARK INTER:                  -6.537
REMARK INTRA:                  -0.289
REMARK UNBOUND:                -0.276
REMARK SMILES O=c1cc(-c2ccc(O)c(O)c2)oc2cc(O)cc(O)c12
REMARK SMILES IDX 4 1 3 2 2 3 1 4 21 5 19 6 18 7 16 8 15 9 14 10 13 11 5 12
REMARK SMILES IDX 6 13 7 14 8 15 12 16 10 17 9 18 11 20 20 22 17 24
REMARK H PARENT 9 19 11 21 20 23 17 25
REMARK Flexibility Score: inf
ROOT
ATOM      1  C   UNL     1      75.433  17.500  44.448  1.00  0.00     0.138 A 
ATOM      2  C   UNL     1      75.548  16.119  44.662  1.00  0.00     0.100 A 
ATOM      3  C   UNL     1      75.804  15.638  45.947  1.00  0.00     0.197 A 
ATOM      4  O   UNL     1      75.964  14.399  46.095  1.00  0.00    -0.289 OA
ATOM      5  C   UNL     1      75.913  16.545  47.028  1.00  0.00     0.107 A 
ATOM      6  C   UNL     1      76.132  16.166  48.386  1.00  0.00     0.134 A 
ATOM      7  C   UNL     1      76.339  17.156  49.355  1.00  0.00     0.093 A 
ATOM      8  C   UNL     1      76.275  18.512  49.023  1.00  0.00     0.123 A 
ATOM      9  C   UNL     1      76.008  18.892  47.710  1.00  0.00     0.094 A 
ATOM     10  C   UNL     1      75.832  17.927  46.715  1.00  0.00     0.146 A 
ATOM     11  O   UNL     1      75.594  18.333  45.472  1.00  0.00    -0.456 OA
ENDROOT
BRANCH   1  12
ATOM     12  C   UNL     1      75.160  18.066  43.103  1.00  0.00     0.021 A 
ATOM     13  C   UNL     1      75.545  19.376  42.761  1.00  0.00     0.016 A 
ATOM     14  C   UNL     1      75.284  19.879  41.485  1.00  0.00     0.051 A 
ATOM     15  C   UNL     1      74.646  19.091  40.522  1.00  0.00     0.157 A 
ATOM     16  C   UNL     1      74.531  17.271  42.131  1.00  0.00     0.062 A 
ATOM     17  C   UNL     1      74.266  17.768  40.849  1.00  0.00     0.158 A 
BRANCH  15  18
ATOM     18  O   UNL     1      74.413  19.656  39.267  1.00  0.00    -0.504 OA
ATOM     19  H   UNL     1      73.888  20.506  39.119  1.00  0.00     0.293 HD
ENDBRANCH  15  18
BRANCH  17  20
ATOM     20  O   UNL     1      73.629  16.920  39.940  1.00  0.00    -0.504 OA
ATOM     21  H   UNL     1      72.628  16.881  39.812  1.00  0.00     0.293 HD
ENDBRANCH  17  20
ENDBRANCH   1  12
BRANCH   6  22
ATOM     22  O   UNL     1      76.130  14.843  48.838  1.00  0.00    -0.507 OA
ATOM     23  H   UNL     1      75.991  14.560  49.796  1.00  0.00     0.293 HD
ENDBRANCH   6  22
BRANCH   8  24
ATOM     24  O   UNL     1      76.468  19.491  49.995  1.00  0.00    -0.508 OA
ATOM     25  H   UNL     1      77.021  19.312  50.826  1.00  0.00     0.293 HD
ENDBRANCH   8  24
TORSDOF 5
ENDMDL
MODEL 4
REMARK VINA RESULT:    -5.537     10.015     12.546
REMARK INTER + INTRA:          -6.784
REMARK INTER:                  -6.489
REMARK INTRA:                  -0.295
REMARK UNBOUND:                -0.276
REMARK SMILES O=c1cc(-c2ccc(O)c(O)c2)oc2cc(O)cc(O)c12
REMARK SMILES IDX 4 1 3 2 2 3 1 4 21 5 19 6 18 7 16 8 15 9 14 10 13 11 5 12
REMARK SMILES IDX 6 13 7 14 8 15 12 16 10 17 9 18 11 20 20 22 17 24
REMARK H PARENT 9 19 11 21 20 23 17 25
REMARK Flexibility Score: inf
ROOT
ATOM      1  C   UNL     1      76.181  16.035  49.043  1.00  0.00     0.138 A 
ATOM      2  C   UNL     1      76.181  17.228  49.779  1.00  0.00     0.100 A 
ATOM      3  C   UNL     1      76.325  17.184  51.166  1.00  0.00     0.197 A 
ATOM      4  O   UNL     1      76.259  18.267  51.804  1.00  0.00    -0.289 OA
ATOM      5  C   UNL     1      76.503  15.939  51.816  1.00  0.00     0.107 A 
ATOM      6  C   UNL     1      76.702  15.777  53.219  1.00  0.00     0.134 A 
ATOM      7  C   UNL     1      76.750  14.487  53.765  1.00  0.00     0.093 A 
ATOM      8  C   UNL     1      76.668  13.356  52.948  1.00  0.00     0.123 A 
ATOM      9  C   UNL     1      76.529  13.505  51.570  1.00  0.00     0.094 A 
ATOM     10  C   UNL     1      76.442  14.778  51.001  1.00  0.00     0.146 A 
ATOM     11  O   UNL     1      76.295  14.875  49.684  1.00  0.00    -0.456 OA
ENDROOT
BRANCH   1  12
ATOM     12  C   UNL     1      76.031  16.023  47.566  1.00  0.00     0.021 A 
ATOM     13  C   UNL     1      76.050  14.824  46.831  1.00  0.00     0.016 A 
ATOM     14  C   UNL     1      75.897  14.842  45.444  1.00  0.00     0.051 A 
ATOM     15  C   UNL     1      75.715  16.048  44.760  1.00  0.00     0.157 A 
ATOM     16  C   UNL     1      75.835  17.233  46.881  1.00  0.00     0.062 A 
ATOM     17  C   UNL     1      75.681  17.261  45.488  1.00  0.00     0.158 A 
BRANCH  15  18
ATOM     18  O   UNL     1      75.572  15.996  43.372  1.00  0.00    -0.504 OA
ATOM     19  H   UNL     1      74.983  16.622  42.842  1.00  0.00     0.293 HD
ENDBRANCH  15  18
BRANCH  17  20
ATOM     20  O   UNL     1      75.499  18.503  44.877  1.00  0.00    -0.504 OA
ATOM     21  H   UNL     1      74.709  19.107  45.052  1.00  0.00     0.293 HD
ENDBRANCH  17  20
ENDBRANCH   1  12
BRANCH   6  22
ATOM     22  O   UNL     1      76.881  16.838  54.111  1.00  0.00    -0.507 OA
ATOM     23  H   UNL     1      76.382  17.714  54.074  1.00  0.00     0.293 HD
ENDBRANCH   6  22
BRANCH   8  24
ATOM     24  O   UNL     1      76.732  12.077  53.498  1.00  0.00    -0.508 OA
ATOM     25  H   UNL     1      76.616  11.248  52.926  1.00  0.00     0.293 HD
ENDBRANCH   8  24
TORSDOF 5
ENDMDL
MODEL 5
REMARK VINA RESULT:    -5.492      8.926     11.189
REMARK INTER + INTRA:          -6.731
REMARK INTER:                  -6.447
REMARK INTRA:                  -0.284
REMARK UNBOUND:                -0.276
REMARK SMILES O=c1cc(-c2ccc(O)c(O)c2)oc2cc(O)cc(O)c12
REMARK SMILES IDX 4 1 3 2 2 3 1 4 21 5 19 6 18 7 16 8 15 9 14 10 13 11 5 12
REMARK SMILES IDX 6 13 7 14 8 15 12 16 10 17 9 18 11 20 20 22 17 24
REMARK H PARENT 9 19 11 21 20 23 17 25
REMARK Flexibility Score: inf
ROOT
ATOM      1  C   UNL     1      74.648  17.395  43.617  1.00  0.00     0.138 A 
ATOM      2  C   UNL     1      75.268  16.190  43.258  1.00  0.00     0.100 A 
ATOM      3  C   UNL     1      75.783  15.354  44.251  1.00  0.00     0.197 A 
ATOM      4  O   UNL     1      76.388  14.311  43.894  1.00  0.00    -0.289 OA
ATOM      5  C   UNL     1      75.645  15.714  45.613  1.00  0.00     0.107 A 
ATOM      6  C   UNL     1      76.093  14.921  46.711  1.00  0.00     0.134 A 
ATOM      7  C   UNL     1      76.007  15.433  48.012  1.00  0.00     0.093 A 
ATOM      8  C   UNL     1      75.434  16.683  48.258  1.00  0.00     0.123 A 
ATOM      9  C   UNL     1      74.944  17.442  47.198  1.00  0.00     0.094 A 
ATOM     10  C   UNL     1      75.047  16.973  45.886  1.00  0.00     0.146 A 
ATOM     11  O   UNL     1      74.580  17.734  44.901  1.00  0.00    -0.456 OA
ENDROOT
BRANCH   1  12
ATOM     12  C   UNL     1      74.083  18.320  42.603  1.00  0.00     0.021 A 
ATOM     13  C   UNL     1      72.958  19.118  42.876  1.00  0.00     0.016 A 
ATOM     14  C   UNL     1      72.454  19.987  41.907  1.00  0.00     0.051 A 
ATOM     15  C   UNL     1      73.061  20.086  40.651  1.00  0.00     0.157 A 
ATOM     16  C   UNL     1      74.701  18.430  41.346  1.00  0.00     0.062 A 
ATOM     17  C   UNL     1      74.202  19.299  40.367  1.00  0.00     0.158 A 
BRANCH  15  18
ATOM     18  O   UNL     1      72.506  20.972  39.725  1.00  0.00    -0.504 OA
ATOM     19  H   UNL     1      71.537  21.255  39.727  1.00  0.00     0.293 HD
ENDBRANCH  15  18
BRANCH  17  20
ATOM     20  O   UNL     1      74.865  19.347  39.139  1.00  0.00    -0.504 OA
ATOM     21  H   UNL     1      75.654  19.948  38.947  1.00  0.00     0.293 HD
ENDBRANCH  17  20
ENDBRANCH   1  12
BRANCH   6  22
ATOM     22  O   UNL     1      76.603  13.626  46.583  1.00  0.00    -0.507 OA
ATOM     23  H   UNL     1      77.562  13.364  46.750  1.00  0.00     0.293 HD
ENDBRANCH   6  22
BRANCH   8  24
ATOM     24  O   UNL     1      75.339  17.178  49.557  1.00  0.00    -0.508 OA
ATOM     25  H   UNL     1      74.909  18.076  49.753  1.00  0.00     0.293 HD
ENDBRANCH   8  24
TORSDOF 5
ENDMDL
MODEL 6
REMARK VINA RESULT:    -5.489      2.517      4.063
REMARK INTER + INTRA:          -6.728
REMARK INTER:                  -6.464
REMARK INTRA:                  -0.264
REMARK UNBOUND:                -0.276
REMARK SMILES O=c1cc(-c2ccc(O)c(O)c2)oc2cc(O)cc(O)c12
REMARK SMILES IDX 4 1 3 2 2 3 1 4 21 5 19 6 18 7 16 8 15 9 14 10 13 11 5 12
REMARK SMILES IDX 6 13 7 14 8 15 12 16 10 17 9 18 11 20 20 22 17 24
REMARK H PARENT 9 19 11 21 20 23 17 25
REMARK Flexibility Score: inf
ROOT
ATOM      1  C   UNL     1      80.450  25.847  46.594  1.00  0.00     0.138 A 
ATOM      2  C   UNL     1      81.792  26.233  46.725  1.00  0.00     0.100 A 
ATOM      3  C   UNL     1      82.740  25.754  45.819  1.00  0.00     0.197 A 
ATOM      4  O   UNL     1      83.944  26.069  46.000  1.00  0.00    -0.289 OA
ATOM      5  C   UNL     1      82.334  24.910  44.758  1.00  0.00     0.107 A 
ATOM      6  C   UNL     1      83.206  24.396  43.752  1.00  0.00     0.134 A 
ATOM      7  C   UNL     1      82.715  23.475  42.818  1.00  0.00     0.093 A 
ATOM      8  C   UNL     1      81.369  23.098  42.818  1.00  0.00     0.123 A 
ATOM      9  C   UNL     1      80.498  23.636  43.763  1.00  0.00     0.094 A 
ATOM     10  C   UNL     1      80.967  24.530  44.729  1.00  0.00     0.146 A 
ATOM     11  O   UNL     1      80.106  25.010  45.621  1.00  0.00    -0.456 OA
ENDROOT
BRANCH   1  12
ATOM     12  C   UNL     1      79.401  26.326  47.529  1.00  0.00     0.021 A 
ATOM     13  C   UNL     1      78.389  27.210  47.112  1.00  0.00     0.016 A 
ATOM     14  C   UNL     1      77.409  27.637  48.010  1.00  0.00     0.051 A 
ATOM     15  C   UNL     1      77.409  27.189  49.335  1.00  0.00     0.157 A 
ATOM     16  C   UNL     1      79.392  25.866  48.856  1.00  0.00     0.062 A 
ATOM     17  C   UNL     1      78.413  26.290  49.763  1.00  0.00     0.158 A 
BRANCH  15  18
ATOM     18  O   UNL     1      76.402  27.657  50.182  1.00  0.00    -0.504 OA
ATOM     19  H   UNL     1      76.464  28.513  50.713  1.00  0.00     0.293 HD
ENDBRANCH  15  18
BRANCH  17  20
ATOM     20  O   UNL     1      78.476  25.796  51.068  1.00  0.00    -0.504 OA
ATOM     21  H   UNL     1      79.259  25.274  51.437  1.00  0.00     0.293 HD
ENDBRANCH  17  20
ENDBRANCH   1  12
BRANCH   6  22
ATOM     22  O   UNL     1      84.545  24.773  43.611  1.00  0.00    -0.507 OA
ATOM     23  H   UNL     1      85.079  24.696  42.760  1.00  0.00     0.293 HD
ENDBRANCH   6  22
BRANCH   8  24
ATOM     24  O   UNL     1      80.885  22.193  41.876  1.00  0.00    -0.508 OA
ATOM     25  H   UNL     1      80.362  21.369  42.151  1.00  0.00     0.293 HD
ENDBRANCH   8  24
TORSDOF 5
ENDMDL
MODEL 7
REMARK VINA RESULT:    -5.473      1.908      7.137
REMARK INTER + INTRA:          -6.709
REMARK INTER:                  -6.444
REMARK INTRA:                  -0.265
REMARK UNBOUND:                -0.276
REMARK SMILES O=c1cc(-c2ccc(O)c(O)c2)oc2cc(O)cc(O)c12
REMARK SMILES IDX 4 1 3 2 2 3 1 4 21 5 19 6 18 7 16 8 15 9 14 10 13 11 5 12
REMARK SMILES IDX 6 13 7 14 8 15 12 16 10 17 9 18 11 20 20 22 17 24
REMARK H PARENT 9 19 11 21 20 23 17 25
REMARK Flexibility Score: inf
ROOT
ATOM      1  C   UNL     1      80.423  25.245  44.759  1.00  0.00     0.138 A 
ATOM      2  C   UNL     1      81.401  26.106  45.278  1.00  0.00     0.100 A 
ATOM      3  C   UNL     1      81.535  26.246  46.660  1.00  0.00     0.197 A 
ATOM      4  O   UNL     1      82.379  27.073  47.093  1.00  0.00    -0.289 OA
ATOM      5  C   UNL     1      80.706  25.494  47.526  1.00  0.00     0.107 A 
ATOM      6  C   UNL     1      80.782  25.526  48.951  1.00  0.00     0.134 A 
ATOM      7  C   UNL     1      79.832  24.828  49.708  1.00  0.00     0.093 A 
ATOM      8  C   UNL     1      78.848  24.052  49.090  1.00  0.00     0.123 A 
ATOM      9  C   UNL     1      78.799  23.972  47.700  1.00  0.00     0.094 A 
ATOM     10  C   UNL     1      79.711  24.685  46.918  1.00  0.00     0.146 A 
ATOM     11  O   UNL     1      79.621  24.592  45.595  1.00  0.00    -0.456 OA
ENDROOT
BRANCH   1  12
ATOM     12  C   UNL     1      80.237  25.057  43.298  1.00  0.00     0.021 A 
ATOM     13  C   UNL     1      79.493  25.968  42.526  1.00  0.00     0.016 A 
ATOM     14  C   UNL     1      79.342  25.772  41.151  1.00  0.00     0.051 A 
ATOM     15  C   UNL     1      79.933  24.674  40.517  1.00  0.00     0.157 A 
ATOM     16  C   UNL     1      80.841  23.963  42.658  1.00  0.00     0.062 A 
ATOM     17  C   UNL     1      80.695  23.758  41.280  1.00  0.00     0.158 A 
BRANCH  15  18
ATOM     18  O   UNL     1      79.742  24.535  39.141  1.00  0.00    -0.504 OA
ATOM     19  H   UNL     1      80.399  24.083  38.522  1.00  0.00     0.293 HD
ENDBRANCH  15  18
BRANCH  17  20
ATOM     20  O   UNL     1      81.318  22.643  40.717  1.00  0.00    -0.504 OA
ATOM     21  H   UNL     1      80.833  21.935  40.184  1.00  0.00     0.293 HD
ENDBRANCH  17  20
ENDBRANCH   1  12
BRANCH   6  22
ATOM     22  O   UNL     1      81.776  26.200  49.666  1.00  0.00    -0.507 OA
ATOM     23  H   UNL     1      82.361  26.931  49.292  1.00  0.00     0.293 HD
ENDBRANCH   6  22
BRANCH   8  24
ATOM     24  O   UNL     1      77.916  23.349  49.851  1.00  0.00    -0.508 OA
ATOM     25  H   UNL     1      77.353  22.608  49.448  1.00  0.00     0.293 HD
ENDBRANCH   8  24
TORSDOF 5
ENDMDL
MODEL 8
REMARK VINA RESULT:    -5.406      1.237      2.732
REMARK INTER + INTRA:          -6.630
REMARK INTER:                  -6.320
REMARK INTRA:                  -0.310
REMARK UNBOUND:                -0.276
REMARK SMILES O=c1cc(-c2ccc(O)c(O)c2)oc2cc(O)cc(O)c12
REMARK SMILES IDX 4 1 3 2 2 3 1 4 21 5 19 6 18 7 16 8 15 9 14 10 13 11 5 12
REMARK SMILES IDX 6 13 7 14 8 15 12 16 10 17 9 18 11 20 20 22 17 24
REMARK H PARENT 9 19 11 21 20 23 17 25
REMARK Flexibility Score: inf
ROOT
ATOM      1  C   UNL     1      80.565  24.518  45.233  1.00  0.00     0.138 A 
ATOM      2  C   UNL     1      81.357  24.302  44.097  1.00  0.00     0.100 A 
ATOM      3  C   UNL     1      80.791  23.727  42.959  1.00  0.00     0.197 A 
ATOM      4  O   UNL     1      81.542  23.489  41.978  1.00  0.00    -0.289 OA
ATOM      5  C   UNL     1      79.414  23.397  42.948  1.00  0.00     0.107 A 
ATOM      6  C   UNL     1      78.720  22.846  41.830  1.00  0.00     0.134 A 
ATOM      7  C   UNL     1      77.384  22.451  41.974  1.00  0.00     0.093 A 
ATOM      8  C   UNL     1      76.701  22.645  43.178  1.00  0.00     0.123 A 
ATOM      9  C   UNL     1      77.355  23.232  44.258  1.00  0.00     0.094 A 
ATOM     10  C   UNL     1      78.697  23.604  44.156  1.00  0.00     0.146 A 
ATOM     11  O   UNL     1      79.288  24.149  45.215  1.00  0.00    -0.456 OA
ENDROOT
BRANCH   1  12
ATOM     12  C   UNL     1      81.115  25.126  46.471  1.00  0.00     0.021 A 
ATOM     13  C   UNL     1      82.224  25.991  46.438  1.00  0.00     0.016 A 
ATOM     14  C   UNL     1      82.715  26.557  47.616  1.00  0.00     0.051 A 
ATOM     15  C   UNL     1      82.111  26.281  48.847  1.00  0.00     0.157 A 
ATOM     16  C   UNL     1      80.501  24.860  47.705  1.00  0.00     0.062 A 
ATOM     17  C   UNL     1      80.988  25.423  48.893  1.00  0.00     0.158 A 
BRANCH  15  18
ATOM     18  O   UNL     1      82.653  26.877  49.988  1.00  0.00    -0.504 OA
ATOM     19  H   UNL     1      82.364  27.775  50.347  1.00  0.00     0.293 HD
ENDBRANCH  15  18
BRANCH  17  20
ATOM     20  O   UNL     1      80.329  25.105  50.082  1.00  0.00    -0.504 OA
ATOM     21  H   UNL     1      80.797  24.975  50.968  1.00  0.00     0.293 HD
ENDBRANCH  17  20
ENDBRANCH   1  12
BRANCH   6  22
ATOM     22  O   UNL     1      79.284  22.689  40.561  1.00  0.00    -0.507 OA
ATOM     23  H   UNL     1      79.138  21.892  39.959  1.00  0.00     0.293 HD
ENDBRANCH   6  22
BRANCH   8  24
ATOM     24  O   UNL     1      75.367  22.263  43.307  1.00  0.00    -0.508 OA
ATOM     25  H   UNL     1      74.610  22.897  43.080  1.00  0.00     0.293 HD
ENDBRANCH   8  24
TORSDOF 5
ENDMDL
MODEL 9
REMARK VINA RESULT:    -5.390      1.594      2.986
REMARK INTER + INTRA:          -6.612
REMARK INTER:                  -6.344
REMARK INTRA:                  -0.268
REMARK UNBOUND:                -0.276
REMARK SMILES O=c1cc(-c2ccc(O)c(O)c2)oc2cc(O)cc(O)c12
REMARK SMILES IDX 4 1 3 2 2 3 1 4 21 5 19 6 18 7 16 8 15 9 14 10 13 11 5 12
REMARK SMILES IDX 6 13 7 14 8 15 12 16 10 17 9 18 11 20 20 22 17 24
REMARK H PARENT 9 19 11 21 20 23 17 25
REMARK Flexibility Score: inf
ROOT
ATOM      1  C   UNL     1      79.715  24.616  45.542  1.00  0.00     0.138 A 
ATOM      2  C   UNL     1      81.000  24.631  44.981  1.00  0.00     0.100 A 
ATOM      3  C   UNL     1      81.212  24.065  43.723  1.00  0.00     0.197 A 
ATOM      4  O   UNL     1      82.387  24.039  43.275  1.00  0.00    -0.289 OA
ATOM      5  C   UNL     1      80.122  23.510  43.010  1.00  0.00     0.107 A 
ATOM      6  C   UNL     1      80.212  22.943  41.704  1.00  0.00     0.134 A 
ATOM      7  C   UNL     1      79.090  22.318  41.144  1.00  0.00     0.093 A 
ATOM      8  C   UNL     1      77.867  22.295  41.820  1.00  0.00     0.123 A 
ATOM      9  C   UNL     1      77.756  22.893  43.072  1.00  0.00     0.094 A 
ATOM     10  C   UNL     1      78.866  23.493  43.671  1.00  0.00     0.146 A 
ATOM     11  O   UNL     1      78.721  24.040  44.874  1.00  0.00    -0.456 OA
ENDROOT
BRANCH   1  12
ATOM     12  C   UNL     1      79.434  25.205  46.875  1.00  0.00     0.021 A 
ATOM     13  C   UNL     1      78.513  26.255  47.040  1.00  0.00     0.016 A 
ATOM     14  C   UNL     1      78.260  26.783  48.307  1.00  0.00     0.051 A 
ATOM     15  C   UNL     1      78.910  26.273  49.436  1.00  0.00     0.157 A 
ATOM     16  C   UNL     1      80.075  24.684  48.011  1.00  0.00     0.062 A 
ATOM     17  C   UNL     1      79.828  25.208  49.287  1.00  0.00     0.158 A 
BRANCH  15  18
ATOM     18  O   UNL     1      78.614  26.848  50.674  1.00  0.00    -0.504 OA
ATOM     19  H   UNL     1      79.271  26.914  51.437  1.00  0.00     0.293 HD
ENDBRANCH  15  18
BRANCH  17  20
ATOM     20  O   UNL     1      80.511  24.644  50.367  1.00  0.00    -0.504 OA
ATOM     21  H   UNL     1      81.007  25.182  51.063  1.00  0.00     0.293 HD
ENDBRANCH  17  20
ENDBRANCH   1  12
BRANCH   6  22
ATOM     22  O   UNL     1      81.362  22.989  40.909  1.00  0.00    -0.507 OA
ATOM     23  H   UNL     1      81.904  22.185  40.634  1.00  0.00     0.293 HD
ENDBRANCH   6  22
BRANCH   8  24
ATOM     24  O   UNL     1      76.752  21.684  41.249  1.00  0.00    -0.508 OA
ATOM     25  H   UNL     1      76.103  22.202  40.667  1.00  0.00     0.293 HD
ENDBRANCH   8  24
TORSDOF 5
ENDMDL
