MODEL 1
REMARK VINA RESULT:    -7.422      0.000      0.000
REMARK INTER + INTRA:          -9.066
REMARK INTER:                  -9.157
REMARK INTRA:                   0.091
REMARK UNBOUND:                 0.091
REMARK SMILES O=c1c(O)c(-c2cc(O)c(O)c(O)c2)oc2cc(O)cc(O)c12
REMARK SMILES IDX 5 1 3 2 2 3 1 4 23 5 21 6 20 7 18 8 17 9 16 10 15 11 6 12
REMARK SMILES IDX 7 13 8 14 14 15 10 16 12 17 9 18 11 20 13 22 4 24 22 26
REMARK SMILES IDX 19 28
REMARK H PARENT 9 19 11 21 13 23 4 25 22 27 19 29
REMARK Flexibility Score: inf
ROOT
ATOM      1  C   UNL     1      -0.803  15.753  16.195  1.00  0.00     0.180 A 
ATOM      2  C   UNL     1       0.280  16.218  15.426  1.00  0.00     0.208 A 
ATOM      3  C   UNL     1       1.447  15.442  15.358  1.00  0.00     0.238 A 
ATOM      4  O   UNL     1       2.420  15.845  14.664  1.00  0.00    -0.285 OA
ATOM      5  C   UNL     1       1.520  14.230  16.074  1.00  0.00     0.111 A 
ATOM      6  C   UNL     1       2.661  13.392  16.063  1.00  0.00     0.134 A 
ATOM      7  C   UNL     1       2.659  12.204  16.809  1.00  0.00     0.093 A 
ATOM      8  C   UNL     1       1.540  11.840  17.566  1.00  0.00     0.123 A 
ATOM      9  C   UNL     1       0.413  12.663  17.581  1.00  0.00     0.094 A 
ATOM     10  C   UNL     1       0.395  13.850  16.842  1.00  0.00     0.146 A 
ATOM     11  O   UNL     1      -0.693  14.612  16.869  1.00  0.00    -0.452 OA
ENDROOT
BRANCH   1  12
ATOM     12  C   UNL     1      -2.075  16.505  16.301  1.00  0.00     0.029 A 
ATOM     13  C   UNL     1      -3.318  15.852  16.243  1.00  0.00     0.062 A 
ATOM     14  C   UNL     1      -4.510  16.579  16.368  1.00  0.00     0.162 A 
ATOM     15  C   UNL     1      -2.040  17.891  16.520  1.00  0.00     0.062 A 
ATOM     16  C   UNL     1      -4.466  17.969  16.565  1.00  0.00     0.200 A 
ATOM     17  C   UNL     1      -3.230  18.622  16.644  1.00  0.00     0.162 A 
BRANCH  14  18
ATOM     18  O   UNL     1      -5.739  15.922  16.303  1.00  0.00    -0.504 OA
ATOM     19  H   UNL     1      -6.614  16.433  16.274  1.00  0.00     0.293 HD
ENDBRANCH  14  18
BRANCH  16  20
ATOM     20  O   UNL     1      -5.639  18.714  16.688  1.00  0.00    -0.502 OA
ATOM     21  H   UNL     1      -5.853  19.247  17.523  1.00  0.00     0.293 HD
ENDBRANCH  16  20
BRANCH  17  22
ATOM     22  O   UNL     1      -3.189  20.000  16.847  1.00  0.00    -0.504 OA
ATOM     23  H   UNL     1      -3.650  20.644  16.215  1.00  0.00     0.293 HD
ENDBRANCH  17  22
ENDBRANCH   1  12
BRANCH   2  24
ATOM     24  O   UNL     1       0.200  17.447  14.765  1.00  0.00    -0.502 OA
ATOM     25  H   UNL     1      -0.417  18.190  15.072  1.00  0.00     0.293 HD
ENDBRANCH   2  24
BRANCH   6  26
ATOM     26  O   UNL     1       3.793  13.728  15.318  1.00  0.00    -0.507 OA
ATOM     27  H   UNL     1       3.996  13.288  14.427  1.00  0.00     0.293 HD
ENDBRANCH   6  26
BRANCH   8  28
ATOM     28  O   UNL     1       1.539  10.662  18.309  1.00  0.00    -0.508 OA
ATOM     29  H   UNL     1       1.677   9.759  17.870  1.00  0.00     0.293 HD
ENDBRANCH   8  28
TORSDOF 7
ENDMDL
MODEL 2
REMARK VINA RESULT:    -6.864      4.070      5.613
REMARK INTER + INTRA:          -8.378
REMARK INTER:                  -8.461
REMARK INTRA:                   0.083
REMARK UNBOUND:                 0.091
REMARK SMILES O=c1c(O)c(-c2cc(O)c(O)c(O)c2)oc2cc(O)cc(O)c12
REMARK SMILES IDX 5 1 3 2 2 3 1 4 23 5 21 6 20 7 18 8 17 9 16 10 15 11 6 12
REMARK SMILES IDX 7 13 8 14 14 15 10 16 12 17 9 18 11 20 13 22 4 24 22 26
REMARK SMILES IDX 19 28
REMARK H PARENT 9 19 11 21 13 23 4 25 22 27 19 29
REMARK Flexibility Score: inf
ROOT
ATOM      1  C   UNL     1      -1.547  12.460  14.369  1.00  0.00     0.180 A 
ATOM      2  C   UNL     1      -1.250  11.608  15.450  1.00  0.00     0.208 A 
ATOM      3  C   UNL     1      -0.148  11.906  16.266  1.00  0.00     0.238 A 
ATOM      4  O   UNL     1       0.122  11.156  17.243  1.00  0.00    -0.285 OA
ATOM      5  C   UNL     1       0.648  13.033  15.977  1.00  0.00     0.111 A 
ATOM      6  C   UNL     1       1.778  13.401  16.746  1.00  0.00     0.134 A 
ATOM      7  C   UNL     1       2.525  14.534  16.389  1.00  0.00     0.093 A 
ATOM      8  C   UNL     1       2.164  15.303  15.277  1.00  0.00     0.123 A 
ATOM      9  C   UNL     1       1.051  14.945  14.516  1.00  0.00     0.094 A 
ATOM     10  C   UNL     1       0.292  13.821  14.857  1.00  0.00     0.146 A 
ATOM     11  O   UNL     1      -0.766  13.506  14.118  1.00  0.00    -0.452 OA
ENDROOT
BRANCH   1  12
ATOM     12  C   UNL     1      -2.705  12.223  13.475  1.00  0.00     0.029 A 
ATOM     13  C   UNL     1      -3.021  10.933  13.015  1.00  0.00     0.062 A 
ATOM     14  C   UNL     1      -4.134  10.726  12.188  1.00  0.00     0.162 A 
ATOM     15  C   UNL     1      -3.538  13.297  13.127  1.00  0.00     0.062 A 
ATOM     16  C   UNL     1      -4.949  11.811  11.825  1.00  0.00     0.200 A 
ATOM     17  C   UNL     1      -4.651  13.095  12.299  1.00  0.00     0.162 A 
BRANCH  14  18
ATOM     18  O   UNL     1      -4.435   9.444  11.730  1.00  0.00    -0.504 OA
ATOM     19  H   UNL     1      -5.392   9.118  11.653  1.00  0.00     0.293 HD
ENDBRANCH  14  18
BRANCH  16  20
ATOM     20  O   UNL     1      -6.060  11.630  11.001  1.00  0.00    -0.502 OA
ATOM     21  H   UNL     1      -5.995  11.680   9.991  1.00  0.00     0.293 HD
ENDBRANCH  16  20
BRANCH  17  22
ATOM     22  O   UNL     1      -5.466  14.168  11.944  1.00  0.00    -0.504 OA
ATOM     23  H   UNL     1      -6.466  14.152  12.104  1.00  0.00     0.293 HD
ENDBRANCH  17  22
ENDBRANCH   1  12
BRANCH   2  24
ATOM     24  O   UNL     1      -2.026  10.470  15.686  1.00  0.00    -0.502 OA
ATOM     25  H   UNL     1      -1.713   9.539  15.438  1.00  0.00     0.293 HD
ENDBRANCH   2  24
BRANCH   6  26
ATOM     26  O   UNL     1       2.164  12.653  17.860  1.00  0.00    -0.507 OA
ATOM     27  H   UNL     1       1.509  12.056  18.354  1.00  0.00     0.293 HD
ENDBRANCH   6  26
BRANCH   8  28
ATOM     28  O   UNL     1       2.906  16.427  14.921  1.00  0.00    -0.508 OA
ATOM     29  H   UNL     1       3.321  17.032  15.620  1.00  0.00     0.293 HD
ENDBRANCH   8  28
TORSDOF 7
ENDMDL
MODEL 3
REMARK VINA RESULT:    -6.849      4.390      6.330
REMARK INTER + INTRA:          -8.359
REMARK INTER:                  -8.166
REMARK INTRA:                  -0.193
REMARK UNBOUND:                 0.091
REMARK SMILES O=c1c(O)c(-c2cc(O)c(O)c(O)c2)oc2cc(O)cc(O)c12
REMARK SMILES IDX 5 1 3 2 2 3 1 4 23 5 21 6 20 7 18 8 17 9 16 10 15 11 6 12
REMARK SMILES IDX 7 13 8 14 14 15 10 16 12 17 9 18 11 20 13 22 4 24 22 26
REMARK SMILES IDX 19 28
REMARK H PARENT 9 19 11 21 13 23 4 25 22 27 19 29
REMARK Flexibility Score: inf
ROOT
ATOM      1  C   UNL     1      -1.477  12.268  14.608  1.00  0.00     0.180 A 
ATOM      2  C   UNL     1      -1.349  11.843  15.944  1.00  0.00     0.208 A 
ATOM      3  C   UNL     1      -0.456  12.521  16.788  1.00  0.00     0.238 A 
ATOM      4  O   UNL     1      -0.340  12.156  17.990  1.00  0.00    -0.285 OA
ATOM      5  C   UNL     1       0.306  13.592  16.280  1.00  0.00     0.111 A 
ATOM      6  C   UNL     1       1.232  14.324  17.062  1.00  0.00     0.134 A 
ATOM      7  C   UNL     1       1.959  15.373  16.480  1.00  0.00     0.093 A 
ATOM      8  C   UNL     1       1.780  15.702  15.132  1.00  0.00     0.123 A 
ATOM      9  C   UNL     1       0.869  14.983  14.357  1.00  0.00     0.094 A 
ATOM     10  C   UNL     1       0.133  13.936  14.919  1.00  0.00     0.146 A 
ATOM     11  O   UNL     1      -0.732  13.273  14.160  1.00  0.00    -0.452 OA
ENDROOT
BRANCH   1  12
ATOM     12  C   UNL     1      -2.413  11.616  13.662  1.00  0.00     0.029 A 
ATOM     13  C   UNL     1      -3.492  12.319  13.099  1.00  0.00     0.062 A 
ATOM     14  C   UNL     1      -4.352  11.691  12.187  1.00  0.00     0.162 A 
ATOM     15  C   UNL     1      -2.185  10.287  13.273  1.00  0.00     0.062 A 
ATOM     16  C   UNL     1      -4.130  10.353  11.822  1.00  0.00     0.200 A 
ATOM     17  C   UNL     1      -3.043   9.654  12.363  1.00  0.00     0.162 A 
BRANCH  14  18
ATOM     18  O   UNL     1      -5.424  12.395  11.640  1.00  0.00    -0.504 OA
ATOM     19  H   UNL     1      -6.132  12.823  12.225  1.00  0.00     0.293 HD
ENDBRANCH  14  18
BRANCH  16  20
ATOM     20  O   UNL     1      -4.974   9.706  10.919  1.00  0.00    -0.502 OA
ATOM     21  H   UNL     1      -5.551  10.216  10.261  1.00  0.00     0.293 HD
ENDBRANCH  16  20
BRANCH  17  22
ATOM     22  O   UNL     1      -2.821   8.329  11.992  1.00  0.00    -0.504 OA
ATOM     23  H   UNL     1      -1.975   8.047  11.510  1.00  0.00     0.293 HD
ENDBRANCH  17  22
ENDBRANCH   1  12
BRANCH   2  24
ATOM     24  O   UNL     1      -2.080  10.747  16.411  1.00  0.00    -0.502 OA
ATOM     25  H   UNL     1      -2.507  10.074  15.786  1.00  0.00     0.293 HD
ENDBRANCH   2  24
BRANCH   6  26
ATOM     26  O   UNL     1       1.433  14.019  18.410  1.00  0.00    -0.507 OA
ATOM     27  H   UNL     1       2.192  14.429  18.942  1.00  0.00     0.293 HD
ENDBRANCH   6  26
BRANCH   8  28
ATOM     28  O   UNL     1       2.503  16.742  14.554  1.00  0.00    -0.508 OA
ATOM     29  H   UNL     1       2.041  17.533  14.120  1.00  0.00     0.293 HD
ENDBRANCH   8  28
TORSDOF 7
ENDMDL
MODEL 4
REMARK VINA RESULT:    -6.835      5.064      6.618
REMARK INTER + INTRA:          -8.342
REMARK INTER:                  -8.117
REMARK INTRA:                  -0.225
REMARK UNBOUND:                 0.091
REMARK SMILES O=c1c(O)c(-c2cc(O)c(O)c(O)c2)oc2cc(O)cc(O)c12
REMARK SMILES IDX 5 1 3 2 2 3 1 4 23 5 21 6 20 7 18 8 17 9 16 10 15 11 6 12
REMARK SMILES IDX 7 13 8 14 14 15 10 16 12 17 9 18 11 20 13 22 4 24 22 26
REMARK SMILES IDX 19 28
REMARK H PARENT 9 19 11 21 13 23 4 25 22 27 19 29
REMARK Flexibility Score: inf
ROOT
ATOM      1  C   UNL     1      -1.450  11.891  13.979  1.00  0.00     0.180 A 
ATOM      2  C   UNL     1      -1.628  13.281  13.841  1.00  0.00     0.208 A 
ATOM      3  C   UNL     1      -1.071  14.135  14.805  1.00  0.00     0.238 A 
ATOM      4  O   UNL     1      -1.214  15.383  14.685  1.00  0.00    -0.285 OA
ATOM      5  C   UNL     1      -0.367  13.589  15.897  1.00  0.00     0.111 A 
ATOM      6  C   UNL     1       0.221  14.379  16.914  1.00  0.00     0.134 A 
ATOM      7  C   UNL     1       0.898  13.758  17.974  1.00  0.00     0.093 A 
ATOM      8  C   UNL     1       0.998  12.364  18.036  1.00  0.00     0.123 A 
ATOM      9  C   UNL     1       0.420  11.580  17.037  1.00  0.00     0.094 A 
ATOM     10  C   UNL     1      -0.258  12.180  15.971  1.00  0.00     0.146 A 
ATOM     11  O   UNL     1      -0.793  11.410  15.030  1.00  0.00    -0.452 OA
ENDROOT
BRANCH   1  12
ATOM     12  C   UNL     1      -1.991  10.926  12.994  1.00  0.00     0.029 A 
ATOM     13  C   UNL     1      -1.141  10.150  12.188  1.00  0.00     0.062 A 
ATOM     14  C   UNL     1      -1.673   9.225  11.277  1.00  0.00     0.162 A 
ATOM     15  C   UNL     1      -3.380  10.741  12.901  1.00  0.00     0.062 A 
ATOM     16  C   UNL     1      -3.064   9.063  11.175  1.00  0.00     0.200 A 
ATOM     17  C   UNL     1      -3.915   9.819  11.991  1.00  0.00     0.162 A 
BRANCH  14  18
ATOM     18  O   UNL     1      -0.821   8.464  10.477  1.00  0.00    -0.504 OA
ATOM     19  H   UNL     1      -0.003   8.870  10.036  1.00  0.00     0.293 HD
ENDBRANCH  14  18
BRANCH  16  20
ATOM     20  O   UNL     1      -3.616   8.152  10.275  1.00  0.00    -0.502 OA
ATOM     21  H   UNL     1      -3.166   7.924   9.395  1.00  0.00     0.293 HD
ENDBRANCH  16  20
BRANCH  17  22
ATOM     22  O   UNL     1      -5.295   9.649  11.893  1.00  0.00    -0.504 OA
ATOM     23  H   UNL     1      -5.810   9.084  12.558  1.00  0.00     0.293 HD
ENDBRANCH  17  22
ENDBRANCH   1  12
BRANCH   2  24
ATOM     24  O   UNL     1      -2.371  13.795  12.775  1.00  0.00    -0.502 OA
ATOM     25  H   UNL     1      -3.375  13.678  12.706  1.00  0.00     0.293 HD
ENDBRANCH   2  24
BRANCH   6  26
ATOM     26  O   UNL     1       0.138  15.772  16.878  1.00  0.00    -0.507 OA
ATOM     27  H   UNL     1       0.653  16.354  17.530  1.00  0.00     0.293 HD
ENDBRANCH   6  26
BRANCH   8  28
ATOM     28  O   UNL     1       1.669  11.748  19.090  1.00  0.00    -0.508 OA
ATOM     29  H   UNL     1       1.976  10.784  19.032  1.00  0.00     0.293 HD
ENDBRANCH   8  28
TORSDOF 7
ENDMDL
MODEL 5
REMARK VINA RESULT:    -6.828      4.656      6.918
REMARK INTER + INTRA:          -8.333
REMARK INTER:                  -7.966
REMARK INTRA:                  -0.366
REMARK UNBOUND:                 0.091
REMARK SMILES O=c1c(O)c(-c2cc(O)c(O)c(O)c2)oc2cc(O)cc(O)c12
REMARK SMILES IDX 5 1 3 2 2 3 1 4 23 5 21 6 20 7 18 8 17 9 16 10 15 11 6 12
REMARK SMILES IDX 7 13 8 14 14 15 10 16 12 17 9 18 11 20 13 22 4 24 22 26
REMARK SMILES IDX 19 28
REMARK H PARENT 9 19 11 21 13 23 4 25 22 27 19 29
REMARK Flexibility Score: inf
ROOT
ATOM      1  C   UNL     1      -1.865  13.254  14.021  1.00  0.00     0.180 A 
ATOM      2  C   UNL     1      -3.152  13.821  14.083  1.00  0.00     0.208 A 
ATOM      3  C   UNL     1      -4.156  13.321  13.240  1.00  0.00     0.238 A 
ATOM      4  O   UNL     1      -5.316  13.814  13.295  1.00  0.00    -0.285 OA
ATOM      5  C   UNL     1      -3.853  12.282  12.337  1.00  0.00     0.111 A 
ATOM      6  C   UNL     1      -4.805  11.725  11.449  1.00  0.00     0.134 A 
ATOM      7  C   UNL     1      -4.423  10.697  10.573  1.00  0.00     0.093 A 
ATOM      8  C   UNL     1      -3.109  10.218  10.568  1.00  0.00     0.123 A 
ATOM      9  C   UNL     1      -2.166  10.764  11.440  1.00  0.00     0.094 A 
ATOM     10  C   UNL     1      -2.528  11.787  12.322  1.00  0.00     0.146 A 
ATOM     11  O   UNL     1      -1.612  12.285  13.146  1.00  0.00    -0.452 OA
ENDROOT
BRANCH   1  12
ATOM     12  C   UNL     1      -0.759  13.714  14.892  1.00  0.00     0.029 A 
ATOM     13  C   UNL     1      -0.548  13.153  16.163  1.00  0.00     0.062 A 
ATOM     14  C   UNL     1       0.519  13.586  16.963  1.00  0.00     0.162 A 
ATOM     15  C   UNL     1       0.133  14.688  14.417  1.00  0.00     0.062 A 
ATOM     16  C   UNL     1       1.393  14.578  16.489  1.00  0.00     0.200 A 
ATOM     17  C   UNL     1       1.200  15.125  15.214  1.00  0.00     0.162 A 
BRANCH  14  18
ATOM     18  O   UNL     1       0.716  13.029  18.226  1.00  0.00    -0.504 OA
ATOM     19  H   UNL     1       0.488  12.060  18.421  1.00  0.00     0.293 HD
ENDBRANCH  14  18
BRANCH  16  20
ATOM     20  O   UNL     1       2.459  15.027  17.268  1.00  0.00    -0.502 OA
ATOM     21  H   UNL     1       3.229  14.422  17.529  1.00  0.00     0.293 HD
ENDBRANCH  16  20
BRANCH  17  22
ATOM     22  O   UNL     1       2.074  16.104  14.744  1.00  0.00    -0.504 OA
ATOM     23  H   UNL     1       1.968  16.512  13.823  1.00  0.00     0.293 HD
ENDBRANCH  17  22
ENDBRANCH   1  12
BRANCH   2  24
ATOM     24  O   UNL     1      -3.414  14.883  14.953  1.00  0.00    -0.502 OA
ATOM     25  H   UNL     1      -4.010  15.661  14.696  1.00  0.00     0.293 HD
ENDBRANCH   2  24
BRANCH   6  26
ATOM     26  O   UNL     1      -6.124  12.182  11.431  1.00  0.00    -0.507 OA
ATOM     27  H   UNL     1      -6.897  11.594  11.724  1.00  0.00     0.293 HD
ENDBRANCH   6  26
BRANCH   8  28
ATOM     28  O   UNL     1      -2.729   9.200   9.697  1.00  0.00    -0.508 OA
ATOM     29  H   UNL     1      -2.422   9.397   8.752  1.00  0.00     0.293 HD
ENDBRANCH   8  28
TORSDOF 7
ENDMDL
MODEL 6
REMARK VINA RESULT:    -6.821      5.084      6.571
REMARK INTER + INTRA:          -8.325
REMARK INTER:                  -8.104
REMARK INTRA:                  -0.221
REMARK UNBOUND:                 0.091
REMARK SMILES O=c1c(O)c(-c2cc(O)c(O)c(O)c2)oc2cc(O)cc(O)c12
REMARK SMILES IDX 5 1 3 2 2 3 1 4 23 5 21 6 20 7 18 8 17 9 16 10 15 11 6 12
REMARK SMILES IDX 7 13 8 14 14 15 10 16 12 17 9 18 11 20 13 22 4 24 22 26
REMARK SMILES IDX 19 28
REMARK H PARENT 9 19 11 21 13 23 4 25 22 27 19 29
REMARK Flexibility Score: inf
ROOT
ATOM      1  C   UNL     1      -1.487  11.908  13.958  1.00  0.00     0.180 A 
ATOM      2  C   UNL     1      -1.671  13.294  13.793  1.00  0.00     0.208 A 
ATOM      3  C   UNL     1      -1.106  14.170  14.731  1.00  0.00     0.238 A 
ATOM      4  O   UNL     1      -1.255  15.415  14.587  1.00  0.00    -0.285 OA
ATOM      5  C   UNL     1      -0.387  13.650  15.826  1.00  0.00     0.111 A 
ATOM      6  C   UNL     1       0.209  14.464  16.819  1.00  0.00     0.134 A 
ATOM      7  C   UNL     1       0.901  13.868  17.885  1.00  0.00     0.093 A 
ATOM      8  C   UNL     1       1.007  12.476  17.976  1.00  0.00     0.123 A 
ATOM      9  C   UNL     1       0.420  11.669  17.000  1.00  0.00     0.094 A 
ATOM     10  C   UNL     1      -0.272  12.243  15.930  1.00  0.00     0.146 A 
ATOM     11  O   UNL     1      -0.816  11.452  15.012  1.00  0.00    -0.452 OA
ENDROOT
BRANCH   1  12
ATOM     12  C   UNL     1      -2.036  10.921  13.000  1.00  0.00     0.029 A 
ATOM     13  C   UNL     1      -3.421  10.734  12.855  1.00  0.00     0.062 A 
ATOM     14  C   UNL     1      -3.922   9.811  11.926  1.00  0.00     0.162 A 
ATOM     15  C   UNL     1      -1.159  10.197  12.177  1.00  0.00     0.062 A 
ATOM     16  C   UNL     1      -3.035   9.075  11.123  1.00  0.00     0.200 A 
ATOM     17  C   UNL     1      -1.654   9.272  11.248  1.00  0.00     0.162 A 
BRANCH  14  18
ATOM     18  O   UNL     1      -5.298   9.629  11.795  1.00  0.00    -0.504 OA
ATOM     19  H   UNL     1      -5.687   9.014  11.089  1.00  0.00     0.293 HD
ENDBRANCH  14  18
BRANCH  16  20
ATOM     20  O   UNL     1      -3.509   8.149  10.194  1.00  0.00    -0.502 OA
ATOM     21  H   UNL     1      -3.368   7.151  10.307  1.00  0.00     0.293 HD
ENDBRANCH  16  20
BRANCH  17  22
ATOM     22  O   UNL     1      -0.778   8.545  10.444  1.00  0.00    -0.504 OA
ATOM     23  H   UNL     1       0.072   8.140  10.816  1.00  0.00     0.293 HD
ENDBRANCH  17  22
ENDBRANCH   1  12
BRANCH   2  24
ATOM     24  O   UNL     1      -2.429  13.783  12.725  1.00  0.00    -0.502 OA
ATOM     25  H   UNL     1      -3.290  13.342  12.423  1.00  0.00     0.293 HD
ENDBRANCH   2  24
BRANCH   6  26
ATOM     26  O   UNL     1       0.121  15.855  16.755  1.00  0.00    -0.507 OA
ATOM     27  H   UNL     1       0.748  16.455  17.280  1.00  0.00     0.293 HD
ENDBRANCH   6  26
BRANCH   8  28
ATOM     28  O   UNL     1       1.692  11.885  19.034  1.00  0.00    -0.508 OA
ATOM     29  H   UNL     1       1.451  10.960  19.371  1.00  0.00     0.293 HD
ENDBRANCH   8  28
TORSDOF 7
ENDMDL
MODEL 7
REMARK VINA RESULT:    -6.791      4.662      7.066
REMARK INTER + INTRA:          -8.288
REMARK INTER:                  -7.930
REMARK INTRA:                  -0.358
REMARK UNBOUND:                 0.091
REMARK SMILES O=c1c(O)c(-c2cc(O)c(O)c(O)c2)oc2cc(O)cc(O)c12
REMARK SMILES IDX 5 1 3 2 2 3 1 4 23 5 21 6 20 7 18 8 17 9 16 10 15 11 6 12
REMARK SMILES IDX 7 13 8 14 14 15 10 16 12 17 9 18 11 20 13 22 4 24 22 26
REMARK SMILES IDX 19 28
REMARK H PARENT 9 19 11 21 13 23 4 25 22 27 19 29
REMARK Flexibility Score: inf
ROOT
ATOM      1  C   UNL     1      -1.781  13.220  13.977  1.00  0.00     0.180 A 
ATOM      2  C   UNL     1      -3.056  13.810  14.063  1.00  0.00     0.208 A 
ATOM      3  C   UNL     1      -4.088  13.318  13.249  1.00  0.00     0.238 A 
ATOM      4  O   UNL     1      -5.238  13.832  13.325  1.00  0.00    -0.285 OA
ATOM      5  C   UNL     1      -3.825  12.263  12.352  1.00  0.00     0.111 A 
ATOM      6  C   UNL     1      -4.807  11.711  11.494  1.00  0.00     0.134 A 
ATOM      7  C   UNL     1      -4.463  10.667  10.622  1.00  0.00     0.093 A 
ATOM      8  C   UNL     1      -3.158  10.166  10.592  1.00  0.00     0.123 A 
ATOM      9  C   UNL     1      -2.186  10.705  11.435  1.00  0.00     0.094 A 
ATOM     10  C   UNL     1      -2.508  11.745  12.313  1.00  0.00     0.146 A 
ATOM     11  O   UNL     1      -1.566  12.236  13.109  1.00  0.00    -0.452 OA
ENDROOT
BRANCH   1  12
ATOM     12  C   UNL     1      -0.647  13.671  14.816  1.00  0.00     0.029 A 
ATOM     13  C   UNL     1       0.232  14.677  14.379  1.00  0.00     0.062 A 
ATOM     14  C   UNL     1       1.286  15.106  15.198  1.00  0.00     0.162 A 
ATOM     15  C   UNL     1      -0.479  13.125  16.099  1.00  0.00     0.062 A 
ATOM     16  C   UNL     1       1.460  14.538  16.471  1.00  0.00     0.200 A 
ATOM     17  C   UNL     1       0.575  13.550  16.920  1.00  0.00     0.162 A 
BRANCH  14  18
ATOM     18  O   UNL     1       2.156  16.100  14.752  1.00  0.00    -0.504 OA
ATOM     19  H   UNL     1       3.162  15.991  14.811  1.00  0.00     0.293 HD
ENDBRANCH  14  18
BRANCH  16  20
ATOM     20  O   UNL     1       2.503  14.947  17.302  1.00  0.00    -0.502 OA
ATOM     21  H   UNL     1       3.249  14.318  17.580  1.00  0.00     0.293 HD
ENDBRANCH  16  20
BRANCH  17  22
ATOM     22  O   UNL     1       0.746  12.994  18.187  1.00  0.00    -0.504 OA
ATOM     23  H   UNL     1       1.196  13.507  18.936  1.00  0.00     0.293 HD
ENDBRANCH  17  22
ENDBRANCH   1  12
BRANCH   2  24
ATOM     24  O   UNL     1      -3.279  14.887  14.925  1.00  0.00    -0.502 OA
ATOM     25  H   UNL     1      -2.693  15.068  15.731  1.00  0.00     0.293 HD
ENDBRANCH   2  24
BRANCH   6  26
ATOM     26  O   UNL     1      -6.118  12.192  11.501  1.00  0.00    -0.507 OA
ATOM     27  H   UNL     1      -6.702  12.135  12.328  1.00  0.00     0.293 HD
ENDBRANCH   6  26
BRANCH   8  28
ATOM     28  O   UNL     1      -2.816   9.130   9.725  1.00  0.00    -0.508 OA
ATOM     29  H   UNL     1      -3.503   8.699   9.118  1.00  0.00     0.293 HD
ENDBRANCH   8  28
TORSDOF 7
ENDMDL
MODEL 8
REMARK VINA RESULT:    -6.672      4.694      6.651
REMARK INTER + INTRA:          -8.141
REMARK INTER:                  -8.101
REMARK INTRA:                  -0.040
REMARK UNBOUND:                 0.091
REMARK SMILES O=c1c(O)c(-c2cc(O)c(O)c(O)c2)oc2cc(O)cc(O)c12
REMARK SMILES IDX 5 1 3 2 2 3 1 4 23 5 21 6 20 7 18 8 17 9 16 10 15 11 6 12
REMARK SMILES IDX 7 13 8 14 14 15 10 16 12 17 9 18 11 20 13 22 4 24 22 26
REMARK SMILES IDX 19 28
REMARK H PARENT 9 19 11 21 13 23 4 25 22 27 19 29
REMARK Flexibility Score: inf
ROOT
ATOM      1  C   UNL     1      -1.996  12.925  14.424  1.00  0.00     0.180 A 
ATOM      2  C   UNL     1      -3.268  13.479  14.187  1.00  0.00     0.208 A 
ATOM      3  C   UNL     1      -4.019  13.013  13.097  1.00  0.00     0.238 A 
ATOM      4  O   UNL     1      -5.165  13.495  12.882  1.00  0.00    -0.285 OA
ATOM      5  C   UNL     1      -3.480  12.022  12.252  1.00  0.00     0.111 A 
ATOM      6  C   UNL     1      -4.168  11.502  11.130  1.00  0.00     0.134 A 
ATOM      7  C   UNL     1      -3.559  10.522  10.332  1.00  0.00     0.093 A 
ATOM      8  C   UNL     1      -2.276  10.054  10.635  1.00  0.00     0.123 A 
ATOM      9  C   UNL     1      -1.593  10.563  11.740  1.00  0.00     0.094 A 
ATOM     10  C   UNL     1      -2.183  11.539  12.549  1.00  0.00     0.146 A 
ATOM     11  O   UNL     1      -1.513  12.002  13.597  1.00  0.00    -0.452 OA
ENDROOT
BRANCH   1  12
ATOM     12  C   UNL     1      -1.152  13.350  15.565  1.00  0.00     0.029 A 
ATOM     13  C   UNL     1      -0.598  12.413  16.454  1.00  0.00     0.062 A 
ATOM     14  C   UNL     1       0.217  12.834  17.514  1.00  0.00     0.162 A 
ATOM     15  C   UNL     1      -0.851  14.711  15.730  1.00  0.00     0.062 A 
ATOM     16  C   UNL     1       0.494  14.200  17.685  1.00  0.00     0.200 A 
ATOM     17  C   UNL     1      -0.038  15.136  16.790  1.00  0.00     0.162 A 
BRANCH  14  18
ATOM     18  O   UNL     1       0.757  11.897  18.394  1.00  0.00    -0.504 OA
ATOM     19  H   UNL     1       1.144  12.171  19.290  1.00  0.00     0.293 HD
ENDBRANCH  14  18
BRANCH  16  20
ATOM     20  O   UNL     1       1.300  14.643  18.735  1.00  0.00    -0.502 OA
ATOM     21  H   UNL     1       1.062  14.473  19.705  1.00  0.00     0.293 HD
ENDBRANCH  16  20
BRANCH  17  22
ATOM     22  O   UNL     1       0.246  16.491  16.958  1.00  0.00    -0.504 OA
ATOM     23  H   UNL     1      -0.286  17.070  17.597  1.00  0.00     0.293 HD
ENDBRANCH  17  22
ENDBRANCH   1  12
BRANCH   2  24
ATOM     24  O   UNL     1      -3.761  14.495  15.011  1.00  0.00    -0.502 OA
ATOM     25  H   UNL     1      -3.172  14.997  15.666  1.00  0.00     0.293 HD
ENDBRANCH   2  24
BRANCH   6  26
ATOM     26  O   UNL     1      -5.450  11.950  10.803  1.00  0.00    -0.507 OA
ATOM     27  H   UNL     1      -5.725  12.918  10.929  1.00  0.00     0.293 HD
ENDBRANCH   6  26
BRANCH   8  28
ATOM     28  O   UNL     1      -1.671   9.082   9.842  1.00  0.00    -0.508 OA
ATOM     29  H   UNL     1      -1.010   9.327   9.114  1.00  0.00     0.293 HD
ENDBRANCH   8  28
TORSDOF 7
ENDMDL
MODEL 9
REMARK VINA RESULT:    -6.602      5.185      7.170
REMARK INTER + INTRA:          -8.055
REMARK INTER:                  -7.698
REMARK INTRA:                  -0.356
REMARK UNBOUND:                 0.091
REMARK SMILES O=c1c(O)c(-c2cc(O)c(O)c(O)c2)oc2cc(O)cc(O)c12
REMARK SMILES IDX 5 1 3 2 2 3 1 4 23 5 21 6 20 7 18 8 17 9 16 10 15 11 6 12
REMARK SMILES IDX 7 13 8 14 14 15 10 16 12 17 9 18 11 20 13 22 4 24 22 26
REMARK SMILES IDX 19 28
REMARK H PARENT 9 19 11 21 13 23 4 25 22 27 19 29
REMARK Flexibility Score: inf
ROOT
ATOM      1  C   UNL     1      -2.711  12.596  13.561  1.00  0.00     0.180 A 
ATOM      2  C   UNL     1      -3.547  12.931  14.643  1.00  0.00     0.208 A 
ATOM      3  C   UNL     1      -3.133  13.933  15.535  1.00  0.00     0.238 A 
ATOM      4  O   UNL     1      -3.878  14.249  16.502  1.00  0.00    -0.285 OA
ATOM      5  C   UNL     1      -1.888  14.566  15.342  1.00  0.00     0.111 A 
ATOM      6  C   UNL     1      -1.395  15.582  16.197  1.00  0.00     0.134 A 
ATOM      7  C   UNL     1      -0.141  16.157  15.943  1.00  0.00     0.093 A 
ATOM      8  C   UNL     1       0.628  15.735  14.853  1.00  0.00     0.123 A 
ATOM      9  C   UNL     1       0.147  14.734  14.008  1.00  0.00     0.094 A 
ATOM     10  C   UNL     1      -1.101  14.150  14.243  1.00  0.00     0.146 A 
ATOM     11  O   UNL     1      -1.537  13.204  13.420  1.00  0.00    -0.452 OA
ENDROOT
BRANCH   1  12
ATOM     12  C   UNL     1      -3.087  11.564  12.567  1.00  0.00     0.029 A 
ATOM     13  C   UNL     1      -2.713  10.219  12.733  1.00  0.00     0.062 A 
ATOM     14  C   UNL     1      -3.098   9.252  11.793  1.00  0.00     0.162 A 
ATOM     15  C   UNL     1      -3.882  11.922  11.467  1.00  0.00     0.062 A 
ATOM     16  C   UNL     1      -3.874   9.625  10.683  1.00  0.00     0.200 A 
ATOM     17  C   UNL     1      -4.267  10.959  10.524  1.00  0.00     0.162 A 
BRANCH  14  18
ATOM     18  O   UNL     1      -2.716   7.922  11.963  1.00  0.00    -0.504 OA
ATOM     19  H   UNL     1      -2.121   7.634  12.732  1.00  0.00     0.293 HD
ENDBRANCH  14  18
BRANCH  16  20
ATOM     20  O   UNL     1      -4.266   8.681   9.733  1.00  0.00    -0.502 OA
ATOM     21  H   UNL     1      -4.993   7.999   9.918  1.00  0.00     0.293 HD
ENDBRANCH  16  20
BRANCH  17  22
ATOM     22  O   UNL     1      -5.044  11.323   9.426  1.00  0.00    -0.504 OA
ATOM     23  H   UNL     1      -6.037  11.502   9.512  1.00  0.00     0.293 HD
ENDBRANCH  17  22
ENDBRANCH   1  12
BRANCH   2  24
ATOM     24  O   UNL     1      -4.754  12.255  14.840  1.00  0.00    -0.502 OA
ATOM     25  H   UNL     1      -5.590  12.721  15.171  1.00  0.00     0.293 HD
ENDBRANCH   2  24
BRANCH   6  26
ATOM     26  O   UNL     1      -2.140  16.023  17.292  1.00  0.00    -0.507 OA
ATOM     27  H   UNL     1      -2.232  17.008  17.513  1.00  0.00     0.293 HD
ENDBRANCH   6  26
BRANCH   8  28
ATOM     28  O   UNL     1       1.874  16.305  14.602  1.00  0.00    -0.508 OA
ATOM     29  H   UNL     1       2.185  17.137  15.090  1.00  0.00     0.293 HD
ENDBRANCH   8  28
TORSDOF 7
ENDMDL
