MODEL 1
REMARK VINA RESULT:    -3.962      0.000      0.000
REMARK INTER + INTRA:          -6.037
REMARK INTER:                  -5.352
REMARK INTRA:                  -0.686
REMARK UNBOUND:                -0.686
REMARK SMILES CCCCCCC=CC(=O)[O-]
REMARK SMILES IDX 5 1 6 2 7 3 8 4 9 5 10 6 11 7 4 8 3 9 2 10 1 11
REMARK H PARENT
REMARK Flexibility Score: inf
ROOT
ATOM      1  C   UNL     1     -21.887  16.634  -0.643  1.00  0.00     0.004 C 
ENDROOT
BRANCH   1   2
ATOM      2  C   UNL     1     -21.137  15.868  -1.743  1.00  0.00     0.027 C 
BRANCH   2   3
ATOM      3  C   UNL     1     -21.963  15.766  -2.993  1.00  0.00    -0.025 C 
ATOM      4  C   UNL     1     -21.437  16.000  -4.200  1.00  0.00     0.020 C 
BRANCH   4   5
ATOM      5  C   UNL     1     -22.237  15.918  -5.431  1.00  0.00     0.064 C 
ATOM      6  O   UNL     1     -23.281  16.611  -5.540  1.00  0.00    -0.545 OA
ATOM      7  O   UNL     1     -21.857  15.085  -6.477  1.00  0.00    -0.545 OA
ENDBRANCH   4   5
ENDBRANCH   2   3
ENDBRANCH   1   2
BRANCH   1   8
ATOM      8  C   UNL     1     -23.156  17.327  -1.164  1.00  0.00     0.000 C 
BRANCH   8   9
ATOM      9  C   UNL     1     -22.981  18.849  -1.312  1.00  0.00    -0.000 C 
BRANCH   9  10
ATOM     10  C   UNL     1     -22.569  19.258  -2.734  1.00  0.00    -0.003 C 
ATOM     11  C   UNL     1     -21.091  19.634  -2.839  1.00  0.00     0.004 C 
ENDBRANCH   9  10
ENDBRANCH   8   9
ENDBRANCH   1   8
TORSDOF 6
ENDMDL
MODEL 2
REMARK VINA RESULT:    -3.842      1.444      2.154
REMARK INTER + INTRA:          -5.875
REMARK INTER:                  -5.351
REMARK INTRA:                  -0.524
REMARK UNBOUND:                -0.686
REMARK SMILES CCCCCCC=CC(=O)[O-]
REMARK SMILES IDX 5 1 6 2 7 3 8 4 9 5 10 6 11 7 4 8 3 9 2 10 1 11
REMARK H PARENT
REMARK Flexibility Score: inf
ROOT
ATOM      1  C   UNL     1     -22.368  16.272  -2.208  1.00  0.00     0.004 C 
ENDROOT
BRANCH   1   2
ATOM      2  C   UNL     1     -23.601  16.993  -2.772  1.00  0.00     0.027 C 
BRANCH   2   3
ATOM      3  C   UNL     1     -23.812  16.655  -4.220  1.00  0.00    -0.025 C 
ATOM      4  C   UNL     1     -22.812  16.209  -4.986  1.00  0.00     0.020 C 
BRANCH   4   5
ATOM      5  C   UNL     1     -23.000  15.888  -6.409  1.00  0.00     0.064 C 
ATOM      6  O   UNL     1     -22.254  15.038  -6.959  1.00  0.00    -0.545 OA
ATOM      7  O   UNL     1     -23.992  16.511  -7.157  1.00  0.00    -0.545 OA
ENDBRANCH   4   5
ENDBRANCH   2   3
ENDBRANCH   1   2
BRANCH   1   8
ATOM      8  C   UNL     1     -21.342  17.241  -1.598  1.00  0.00     0.000 C 
BRANCH   8   9
ATOM      9  C   UNL     1     -20.383  17.824  -2.651  1.00  0.00    -0.000 C 
BRANCH   9  10
ATOM     10  C   UNL     1     -20.829  19.208  -3.150  1.00  0.00    -0.003 C 
ATOM     11  C   UNL     1     -20.735  20.287  -2.071  1.00  0.00     0.004 C 
ENDBRANCH   9  10
ENDBRANCH   8   9
ENDBRANCH   1   8
TORSDOF 6
ENDMDL
MODEL 3
REMARK VINA RESULT:    -3.809      0.911      1.628
REMARK INTER + INTRA:          -5.831
REMARK INTER:                  -5.099
REMARK INTRA:                  -0.732
REMARK UNBOUND:                -0.686
REMARK SMILES CCCCCCC=CC(=O)[O-]
REMARK SMILES IDX 5 1 6 2 7 3 8 4 9 5 10 6 11 7 4 8 3 9 2 10 1 11
REMARK H PARENT
REMARK Flexibility Score: inf
ROOT
ATOM      1  C   UNL     1     -20.381  17.696  -2.276  1.00  0.00     0.004 C 
ENDROOT
BRANCH   1   2
ATOM      2  C   UNL     1     -21.111  16.373  -1.996  1.00  0.00     0.027 C 
BRANCH   2   3
ATOM      3  C   UNL     1     -21.935  15.948  -3.178  1.00  0.00    -0.025 C 
ATOM      4  C   UNL     1     -21.560  16.232  -4.429  1.00  0.00     0.020 C 
BRANCH   4   5
ATOM      5  C   UNL     1     -22.364  15.834  -5.595  1.00  0.00     0.064 C 
ATOM      6  O   UNL     1     -23.559  16.217  -5.686  1.00  0.00    -0.545 OA
ATOM      7  O   UNL     1     -21.822  15.041  -6.600  1.00  0.00    -0.545 OA
ENDBRANCH   4   5
ENDBRANCH   2   3
ENDBRANCH   1   2
BRANCH   1   8
ATOM      8  C   UNL     1     -21.174  18.923  -1.798  1.00  0.00     0.000 C 
BRANCH   8   9
ATOM      9  C   UNL     1     -21.856  19.673  -2.955  1.00  0.00    -0.000 C 
BRANCH   9  10
ATOM     10  C   UNL     1     -23.344  19.314  -3.092  1.00  0.00    -0.003 C 
ATOM     11  C   UNL     1     -23.947  18.778  -1.794  1.00  0.00     0.004 C 
ENDBRANCH   9  10
ENDBRANCH   8   9
ENDBRANCH   1   8
TORSDOF 6
ENDMDL
MODEL 4
REMARK VINA RESULT:    -3.746      1.169      2.511
REMARK INTER + INTRA:          -5.746
REMARK INTER:                  -5.304
REMARK INTRA:                  -0.442
REMARK UNBOUND:                -0.686
REMARK SMILES CCCCCCC=CC(=O)[O-]
REMARK SMILES IDX 5 1 6 2 7 3 8 4 9 5 10 6 11 7 4 8 3 9 2 10 1 11
REMARK H PARENT
REMARK Flexibility Score: inf
ROOT
ATOM      1  C   UNL     1     -21.150  18.435  -1.751  1.00  0.00     0.004 C 
ENDROOT
BRANCH   1   2
ATOM      2  C   UNL     1     -20.508  17.940  -3.056  1.00  0.00     0.027 C 
BRANCH   2   3
ATOM      3  C   UNL     1     -21.550  17.452  -4.021  1.00  0.00    -0.025 C 
ATOM      4  C   UNL     1     -21.470  16.241  -4.583  1.00  0.00     0.020 C 
BRANCH   4   5
ATOM      5  C   UNL     1     -22.474  15.756  -5.541  1.00  0.00     0.064 C 
ATOM      6  O   UNL     1     -23.692  15.995  -5.339  1.00  0.00    -0.545 OA
ATOM      7  O   UNL     1     -22.097  15.035  -6.668  1.00  0.00    -0.545 OA
ENDBRANCH   4   5
ENDBRANCH   2   3
ENDBRANCH   1   2
BRANCH   1   8
ATOM      8  C   UNL     1     -22.648  18.100  -1.663  1.00  0.00     0.000 C 
BRANCH   8   9
ATOM      9  C   UNL     1     -22.961  17.077  -0.558  1.00  0.00    -0.000 C 
BRANCH   9  10
ATOM     10  C   UNL     1     -21.749  16.198  -0.209  1.00  0.00    -0.003 C 
ATOM     11  C   UNL     1     -21.681  15.843   1.276  1.00  0.00     0.004 C 
ENDBRANCH   9  10
ENDBRANCH   8   9
ENDBRANCH   1   8
TORSDOF 6
ENDMDL
MODEL 5
REMARK VINA RESULT:    -3.744      1.534      2.711
REMARK INTER + INTRA:          -5.743
REMARK INTER:                  -5.076
REMARK INTRA:                  -0.667
REMARK UNBOUND:                -0.686
REMARK SMILES CCCCCCC=CC(=O)[O-]
REMARK SMILES IDX 5 1 6 2 7 3 8 4 9 5 10 6 11 7 4 8 3 9 2 10 1 11
REMARK H PARENT
REMARK Flexibility Score: inf
ROOT
ATOM      1  C   UNL     1     -23.926  18.751  -3.245  1.00  0.00     0.004 C 
ENDROOT
BRANCH   1   2
ATOM      2  C   UNL     1     -24.123  17.236  -3.402  1.00  0.00     0.027 C 
BRANCH   2   3
ATOM      3  C   UNL     1     -23.991  16.818  -4.839  1.00  0.00    -0.025 C 
ATOM      4  C   UNL     1     -22.965  16.071  -5.259  1.00  0.00     0.020 C 
BRANCH   4   5
ATOM      5  C   UNL     1     -22.816  15.668  -6.666  1.00  0.00     0.064 C 
ATOM      6  O   UNL     1     -21.862  14.920  -7.000  1.00  0.00    -0.545 OA
ATOM      7  O   UNL     1     -23.716  16.101  -7.633  1.00  0.00    -0.545 OA
ENDBRANCH   4   5
ENDBRANCH   2   3
ENDBRANCH   1   2
BRANCH   1   8
ATOM      8  C   UNL     1     -22.675  19.105  -2.425  1.00  0.00     0.000 C 
BRANCH   8   9
ATOM      9  C   UNL     1     -21.396  19.131  -3.280  1.00  0.00    -0.000 C 
BRANCH   9  10
ATOM     10  C   UNL     1     -20.483  17.924  -3.008  1.00  0.00    -0.003 C 
ATOM     11  C   UNL     1     -20.880  17.152  -1.751  1.00  0.00     0.004 C 
ENDBRANCH   9  10
ENDBRANCH   8   9
ENDBRANCH   1   8
TORSDOF 6
ENDMDL
MODEL 6
REMARK VINA RESULT:    -3.628      3.039      4.004
REMARK INTER + INTRA:          -5.586
REMARK INTER:                  -5.103
REMARK INTRA:                  -0.483
REMARK UNBOUND:                -0.686
REMARK SMILES CCCCCCC=CC(=O)[O-]
REMARK SMILES IDX 5 1 6 2 7 3 8 4 9 5 10 6 11 7 4 8 3 9 2 10 1 11
REMARK H PARENT
REMARK Flexibility Score: inf
ROOT
ATOM      1  C   UNL     1     -21.404  17.159  -4.166  1.00  0.00     0.004 C 
ENDROOT
BRANCH   1   2
ATOM      2  C   UNL     1     -21.317  15.805  -3.444  1.00  0.00     0.027 C 
BRANCH   2   3
ATOM      3  C   UNL     1     -22.018  15.853  -2.117  1.00  0.00    -0.025 C 
ATOM      4  C   UNL     1     -21.372  16.189  -0.997  1.00  0.00     0.020 C 
BRANCH   4   5
ATOM      5  C   UNL     1     -22.043  16.225   0.312  1.00  0.00     0.064 C 
ATOM      6  O   UNL     1     -23.249  16.574   0.383  1.00  0.00    -0.545 OA
ATOM      7  O   UNL     1     -21.362  15.880   1.474  1.00  0.00    -0.545 OA
ENDBRANCH   4   5
ENDBRANCH   2   3
ENDBRANCH   1   2
BRANCH   1   8
ATOM      8  C   UNL     1     -22.632  17.979  -3.741  1.00  0.00     0.000 C 
BRANCH   8   9
ATOM      9  C   UNL     1     -22.252  19.342  -3.135  1.00  0.00    -0.000 C 
BRANCH   9  10
ATOM     10  C   UNL     1     -20.765  19.422  -2.755  1.00  0.00    -0.003 C 
ATOM     11  C   UNL     1     -20.462  20.562  -1.783  1.00  0.00     0.004 C 
ENDBRANCH   9  10
ENDBRANCH   8   9
ENDBRANCH   1   8
TORSDOF 6
ENDMDL
MODEL 7
REMARK VINA RESULT:    -3.435      3.063      5.157
REMARK INTER + INTRA:          -5.326
REMARK INTER:                  -5.069
REMARK INTRA:                  -0.258
REMARK UNBOUND:                -0.686
REMARK SMILES CCCCCCC=CC(=O)[O-]
REMARK SMILES IDX 5 1 6 2 7 3 8 4 9 5 10 6 11 7 4 8 3 9 2 10 1 11
REMARK H PARENT
REMARK Flexibility Score: inf
ROOT
ATOM      1  C   UNL     1     -24.125  16.649  -4.000  1.00  0.00     0.004 C 
ENDROOT
BRANCH   1   2
ATOM      2  C   UNL     1     -24.115  18.128  -3.584  1.00  0.00     0.027 C 
BRANCH   2   3
ATOM      3  C   UNL     1     -22.957  18.428  -2.676  1.00  0.00    -0.025 C 
ATOM      4  C   UNL     1     -21.914  19.155  -3.089  1.00  0.00     0.020 C 
BRANCH   4   5
ATOM      5  C   UNL     1     -20.767  19.444  -2.216  1.00  0.00     0.064 C 
ATOM      6  O   UNL     1     -20.113  18.494  -1.714  1.00  0.00    -0.545 OA
ATOM      7  O   UNL     1     -20.394  20.753  -1.935  1.00  0.00    -0.545 OA
ENDBRANCH   4   5
ENDBRANCH   2   3
ENDBRANCH   1   2
BRANCH   1   8
ATOM      8  C   UNL     1     -23.178  16.358  -5.175  1.00  0.00     0.000 C 
BRANCH   8   9
ATOM      9  C   UNL     1     -23.926  16.187  -6.509  1.00  0.00    -0.000 C 
BRANCH   9  10
ATOM     10  C   UNL     1     -22.983  15.838  -7.671  1.00  0.00    -0.003 C 
ATOM     11  C   UNL     1     -21.879  14.861  -7.268  1.00  0.00     0.004 C 
ENDBRANCH   9  10
ENDBRANCH   8   9
ENDBRANCH   1   8
TORSDOF 6
ENDMDL
MODEL 8
REMARK VINA RESULT:    -3.381      2.734      4.532
REMARK INTER + INTRA:          -5.253
REMARK INTER:                  -5.056
REMARK INTRA:                  -0.197
REMARK UNBOUND:                -0.686
REMARK SMILES CCCCCCC=CC(=O)[O-]
REMARK SMILES IDX 5 1 6 2 7 3 8 4 9 5 10 6 11 7 4 8 3 9 2 10 1 11
REMARK H PARENT
REMARK Flexibility Score: inf
ROOT
ATOM      1  C   UNL     1     -21.543  15.534  -2.671  1.00  0.00     0.004 C 
ENDROOT
BRANCH   1   2
ATOM      2  C   UNL     1     -21.405  16.245  -1.316  1.00  0.00     0.027 C 
BRANCH   2   3
ATOM      3  C   UNL     1     -21.583  17.729  -1.461  1.00  0.00    -0.025 C 
ATOM      4  C   UNL     1     -20.660  18.488  -2.061  1.00  0.00     0.020 C 
BRANCH   4   5
ATOM      5  C   UNL     1     -20.814  19.944  -2.198  1.00  0.00     0.064 C 
ATOM      6  O   UNL     1     -21.570  20.409  -3.088  1.00  0.00    -0.545 OA
ATOM      7  O   UNL     1     -20.135  20.817  -1.355  1.00  0.00    -0.545 OA
ENDBRANCH   4   5
ENDBRANCH   2   3
ENDBRANCH   1   2
BRANCH   1   8
ATOM      8  C   UNL     1     -22.690  16.102  -3.524  1.00  0.00     0.000 C 
BRANCH   8   9
ATOM      9  C   UNL     1     -22.358  16.117  -5.026  1.00  0.00    -0.000 C 
BRANCH   9  10
ATOM     10  C   UNL     1     -23.613  16.245  -5.904  1.00  0.00    -0.003 C 
ATOM     11  C   UNL     1     -23.337  15.958  -7.380  1.00  0.00     0.004 C 
ENDBRANCH   9  10
ENDBRANCH   8   9
ENDBRANCH   1   8
TORSDOF 6
ENDMDL
MODEL 9
REMARK VINA RESULT:    -3.375      3.006      4.888
REMARK INTER + INTRA:          -5.245
REMARK INTER:                  -4.841
REMARK INTRA:                  -0.405
REMARK UNBOUND:                -0.686
REMARK SMILES CCCCCCC=CC(=O)[O-]
REMARK SMILES IDX 5 1 6 2 7 3 8 4 9 5 10 6 11 7 4 8 3 9 2 10 1 11
REMARK H PARENT
REMARK Flexibility Score: inf
ROOT
ATOM      1  C   UNL     1     -21.104  16.585  -4.114  1.00  0.00     0.004 C 
ENDROOT
BRANCH   1   2
ATOM      2  C   UNL     1     -21.765  17.902  -3.678  1.00  0.00     0.027 C 
BRANCH   2   3
ATOM      3  C   UNL     1     -22.237  17.826  -2.254  1.00  0.00    -0.025 C 
ATOM      4  C   UNL     1     -22.238  16.672  -1.579  1.00  0.00     0.020 C 
BRANCH   4   5
ATOM      5  C   UNL     1     -22.711  16.581  -0.189  1.00  0.00     0.064 C 
ATOM      6  O   UNL     1     -23.887  16.928   0.091  1.00  0.00    -0.545 OA
ATOM      7  O   UNL     1     -21.876  16.117   0.821  1.00  0.00    -0.545 OA
ENDBRANCH   4   5
ENDBRANCH   2   3
ENDBRANCH   1   2
BRANCH   1   8
ATOM      8  C   UNL     1     -21.876  15.879  -5.240  1.00  0.00     0.000 C 
BRANCH   8   9
ATOM      9  C   UNL     1     -23.292  16.449  -5.434  1.00  0.00    -0.000 C 
BRANCH   9  10
ATOM     10  C   UNL     1     -23.788  16.312  -6.882  1.00  0.00    -0.003 C 
ATOM     11  C   UNL     1     -22.795  15.579  -7.783  1.00  0.00     0.004 C 
ENDBRANCH   9  10
ENDBRANCH   8   9
ENDBRANCH   1   8
TORSDOF 6
ENDMDL
