MODEL 1
REMARK VINA RESULT:    -4.503      0.000      0.000
REMARK INTER + INTRA:          -7.948
REMARK INTER:                  -7.135
REMARK INTRA:                  -0.813
REMARK UNBOUND:                -0.813
REMARK SMILES CC[C@H](C=C[C@@H](C)[C@@H]1CC[C@@H]2[C@H]3CC=C4C[C@@H](O[C@@H]5O[C@H](CO)[C@H](O)[C@H](O)[C@H]5O)CC[C@]4(C)[C@@H]3CC[C@]21C)C(C)C
REMARK SMILES IDX 8 1 9 2 10 3 11 4 37 5 36 6 35 7 34 8 12 9 13 10 14 11 15 12
REMARK SMILES IDX 32 13 31 14 30 15 17 16 16 17 33 18 38 19 6 20 7 21 5 22
REMARK SMILES IDX 4 23 3 24 2 25 1 26 39 27 40 28 41 29 18 30 19 31 28 32
REMARK SMILES IDX 20 33 26 34 21 35 24 36 29 37 27 39 22 41 23 42 25 44
REMARK H PARENT 29 38 27 40 23 43 25 45
REMARK Flexibility Score: inf
ROOT
ATOM      1  C   UNL     1      -0.504  -3.706  22.051  1.00  0.00     0.002 C 
ATOM      2  C   UNL     1      -1.809  -4.547  22.142  1.00  0.00     0.005 C 
ATOM      3  C   UNL     1      -2.704  -4.118  20.967  1.00  0.00     0.005 C 
ATOM      4  C   UNL     1      -1.969  -2.936  20.356  1.00  0.00    -0.001 C 
ATOM      5  C   UNL     1      -0.476  -3.250  20.561  1.00  0.00    -0.026 C 
ATOM      6  C   UNL     1       0.322  -1.953  20.278  1.00  0.00     0.007 C 
ATOM      7  C   UNL     1       0.028  -1.386  18.865  1.00  0.00     0.005 C 
ATOM      8  C   UNL     1      -1.499  -1.205  18.599  1.00  0.00     0.003 C 
ATOM      9  C   UNL     1      -2.290  -2.512  18.913  1.00  0.00     0.000 C 
ATOM     10  C   UNL     1      -3.784  -2.232  18.691  1.00  0.00     0.031 C 
ATOM     11  C   UNL     1      -3.978  -1.996  17.223  1.00  0.00    -0.027 C 
ATOM     12  C   UNL     1      -3.055  -1.315  16.509  1.00  0.00    -0.065 C 
ATOM     13  C   UNL     1      -1.918  -0.534  17.203  1.00  0.00    -0.008 C 
ATOM     14  C   UNL     1      -0.724  -0.425  16.201  1.00  0.00     0.014 C 
ATOM     15  C   UNL     1      -1.109   0.144  14.813  1.00  0.00     0.033 C 
ATOM     16  C   UNL     1      -2.478  -0.333  14.260  1.00  0.00     0.125 C 
ATOM     17  C   UNL     1      -2.980  -1.571  15.022  1.00  0.00     0.063 C 
ATOM     18  C   UNL     1      -2.444   0.892  17.510  1.00  0.00     0.016 C 
ATOM     19  C   UNL     1       0.056  -4.401  19.649  1.00  0.00     0.012 C 
ENDROOT
BRANCH   1  20
ATOM     20  C   UNL     1       0.749  -4.462  22.594  1.00  0.00     0.012 C 
ATOM     21  C   UNL     1       0.473  -5.125  23.957  1.00  0.00     0.012 C 
BRANCH  20  22
ATOM     22  C   UNL     1       1.965  -3.560  22.691  1.00  0.00    -0.028 C 
ATOM     23  C   UNL     1       3.201  -4.029  22.980  1.00  0.00    -0.027 C 
BRANCH  23  24
ATOM     24  C   UNL     1       4.505  -3.238  22.887  1.00  0.00     0.014 C 
BRANCH  24  25
ATOM     25  C   UNL     1       5.044  -3.025  21.443  1.00  0.00     0.004 C 
ATOM     26  C   UNL     1       5.627  -4.307  20.840  1.00  0.00     0.004 C 
ENDBRANCH  24  25
BRANCH  24  27
ATOM     27  C   UNL     1       4.378  -1.907  23.697  1.00  0.00    -0.011 C 
ATOM     28  C   UNL     1       3.153  -1.072  23.297  1.00  0.00     0.008 C 
ATOM     29  C   UNL     1       5.653  -1.053  23.610  1.00  0.00     0.008 C 
ENDBRANCH  24  27
ENDBRANCH  23  24
ENDBRANCH  20  22
ENDBRANCH   1  20
BRANCH  16  30
ATOM     30  O   UNL     1      -3.395   0.757  14.345  1.00  0.00    -0.346 OA
BRANCH  30  31
ATOM     31  C   UNL     1      -2.859   2.045  14.056  1.00  0.00     0.282 C 
ATOM     32  C   UNL     1      -3.332   2.650  12.707  1.00  0.00     0.202 C 
ATOM     33  O   UNL     1      -3.026   2.921  15.162  1.00  0.00    -0.341 OA
ATOM     34  C   UNL     1      -2.447   3.862  12.346  1.00  0.00     0.179 C 
ATOM     35  C   UNL     1      -2.784   4.305  14.896  1.00  0.00     0.178 C 
ATOM     36  C   UNL     1      -1.940   4.608  13.613  1.00  0.00     0.177 C 
BRANCH  32  37
ATOM     37  O   UNL     1      -3.305   1.689  11.678  1.00  0.00    -0.385 OA
ATOM     38  H   UNL     1      -3.237   0.795  12.107  1.00  0.00     0.211 HD
ENDBRANCH  32  37
BRANCH  34  39
ATOM     39  O   UNL     1      -3.117   4.721  11.452  1.00  0.00    -0.387 OA
ATOM     40  H   UNL     1      -3.849   4.207  11.021  1.00  0.00     0.211 HD
ENDBRANCH  34  39
BRANCH  35  41
ATOM     41  C   UNL     1      -4.118   5.075  14.965  1.00  0.00     0.191 C 
BRANCH  41  42
ATOM     42  O   UNL     1      -3.898   6.404  15.351  1.00  0.00    -0.394 OA
ATOM     43  H   UNL     1      -2.912   6.521  15.427  1.00  0.00     0.210 HD
ENDBRANCH  41  42
ENDBRANCH  35  41
BRANCH  36  44
ATOM     44  O   UNL     1      -1.858   5.989  13.370  1.00  0.00    -0.387 OA
ATOM     45  H   UNL     1      -2.349   6.444  14.105  1.00  0.00     0.211 HD
ENDBRANCH  36  44
ENDBRANCH  30  31
ENDBRANCH  16  30
TORSDOF 12
ENDMDL
MODEL 2
REMARK VINA RESULT:    -3.675     15.813     18.590
REMARK INTER + INTRA:          -6.636
REMARK INTER:                  -5.349
REMARK INTRA:                  -1.287
REMARK UNBOUND:                -0.813
REMARK SMILES CC[C@H](C=C[C@@H](C)[C@@H]1CC[C@@H]2[C@H]3CC=C4C[C@@H](O[C@@H]5O[C@H](CO)[C@H](O)[C@H](O)[C@H]5O)CC[C@]4(C)[C@@H]3CC[C@]21C)C(C)C
REMARK SMILES IDX 8 1 9 2 10 3 11 4 37 5 36 6 35 7 34 8 12 9 13 10 14 11 15 12
REMARK SMILES IDX 32 13 31 14 30 15 17 16 16 17 33 18 38 19 6 20 7 21 5 22
REMARK SMILES IDX 4 23 3 24 2 25 1 26 39 27 40 28 41 29 18 30 19 31 28 32
REMARK SMILES IDX 20 33 26 34 21 35 24 36 29 37 27 39 22 41 23 42 25 44
REMARK H PARENT 29 38 27 40 23 43 25 45
REMARK Flexibility Score: inf
ROOT
ATOM      1  C   UNL     1      15.112   2.144  14.293  1.00  0.00     0.002 C 
ATOM      2  C   UNL     1      15.687   3.026  15.438  1.00  0.00     0.005 C 
ATOM      3  C   UNL     1      15.828   4.452  14.881  1.00  0.00     0.005 C 
ATOM      4  C   UNL     1      15.502   4.304  13.403  1.00  0.00    -0.001 C 
ATOM      5  C   UNL     1      14.449   3.183  13.340  1.00  0.00    -0.026 C 
ATOM      6  C   UNL     1      14.318   2.741  11.862  1.00  0.00     0.007 C 
ATOM      7  C   UNL     1      13.971   3.930  10.928  1.00  0.00     0.005 C 
ATOM      8  C   UNL     1      14.953   5.129  11.097  1.00  0.00     0.003 C 
ATOM      9  C   UNL     1      15.091   5.546  12.593  1.00  0.00     0.000 C 
ATOM     10  C   UNL     1      16.122   6.683  12.680  1.00  0.00     0.031 C 
ATOM     11  C   UNL     1      15.524   7.874  11.993  1.00  0.00    -0.027 C 
ATOM     12  C   UNL     1      14.787   7.723  10.872  1.00  0.00    -0.065 C 
ATOM     13  C   UNL     1      14.748   6.379  10.111  1.00  0.00    -0.008 C 
ATOM     14  C   UNL     1      13.403   6.311   9.318  1.00  0.00     0.014 C 
ATOM     15  C   UNL     1      13.132   7.541   8.418  1.00  0.00     0.033 C 
ATOM     16  C   UNL     1      13.548   8.908   9.023  1.00  0.00     0.125 C 
ATOM     17  C   UNL     1      13.774   8.794  10.540  1.00  0.00     0.063 C 
ATOM     18  C   UNL     1      15.923   6.375   9.101  1.00  0.00     0.016 C 
ATOM     19  C   UNL     1      13.047   3.606  13.886  1.00  0.00     0.012 C 
ENDROOT
BRANCH   1  20
ATOM     20  C   UNL     1      14.218   0.974  14.813  1.00  0.00     0.012 C 
ATOM     21  C   UNL     1      13.883   1.130  16.309  1.00  0.00     0.012 C 
BRANCH  20  22
ATOM     22  C   UNL     1      14.846  -0.383  14.560  1.00  0.00    -0.028 C 
ATOM     23  C   UNL     1      15.211  -1.217  15.561  1.00  0.00    -0.027 C 
BRANCH  23  24
ATOM     24  C   UNL     1      15.645  -2.673  15.403  1.00  0.00     0.014 C 
BRANCH  24  25
ATOM     25  C   UNL     1      16.068  -3.382  16.722  1.00  0.00     0.004 C 
ATOM     26  C   UNL     1      15.686  -2.576  17.967  1.00  0.00     0.004 C 
ENDBRANCH  24  25
BRANCH  24  27
ATOM     27  C   UNL     1      14.562  -3.466  14.602  1.00  0.00    -0.011 C 
ATOM     28  C   UNL     1      13.799  -4.484  15.462  1.00  0.00     0.008 C 
ATOM     29  C   UNL     1      15.151  -4.158  13.361  1.00  0.00     0.008 C 
ENDBRANCH  24  27
ENDBRANCH  23  24
ENDBRANCH  20  22
ENDBRANCH   1  20
BRANCH  16  30
ATOM     30  O   UNL     1      14.717   9.359   8.340  1.00  0.00    -0.346 OA
BRANCH  30  31
ATOM     31  C   UNL     1      15.045  10.735   8.511  1.00  0.00     0.282 C 
ATOM     32  C   UNL     1      13.828  11.698   8.462  1.00  0.00     0.202 C 
ATOM     33  O   UNL     1      15.869  10.921   9.653  1.00  0.00    -0.341 OA
ATOM     34  C   UNL     1      14.324  13.152   8.319  1.00  0.00     0.179 C 
ATOM     35  C   UNL     1      16.033  12.274  10.085  1.00  0.00     0.178 C 
ATOM     36  C   UNL     1      15.696  13.368   9.018  1.00  0.00     0.177 C 
BRANCH  32  37
ATOM     37  O   UNL     1      12.954  11.363   7.408  1.00  0.00    -0.385 OA
ATOM     38  H   UNL     1      12.528  10.495   7.639  1.00  0.00     0.211 HD
ENDBRANCH  32  37
BRANCH  34  39
ATOM     39  O   UNL     1      13.345  14.060   8.770  1.00  0.00    -0.387 OA
ATOM     40  H   UNL     1      12.742  13.579   9.395  1.00  0.00     0.211 HD
ENDBRANCH  34  39
BRANCH  35  41
ATOM     41  C   UNL     1      15.306  12.466  11.431  1.00  0.00     0.191 C 
BRANCH  41  42
ATOM     42  O   UNL     1      16.085  13.238  12.304  1.00  0.00    -0.394 OA
ATOM     43  H   UNL     1      16.299  14.084  11.825  1.00  0.00     0.210 HD
ENDBRANCH  41  42
ENDBRANCH  35  41
BRANCH  36  44
ATOM     44  O   UNL     1      15.769  14.659   9.569  1.00  0.00    -0.387 OA
ATOM     45  H   UNL     1      15.540  14.577  10.533  1.00  0.00     0.211 HD
ENDBRANCH  36  44
ENDBRANCH  30  31
ENDBRANCH  16  30
TORSDOF 12
ENDMDL
MODEL 3
REMARK VINA RESULT:    -3.172     15.598     20.053
REMARK INTER + INTRA:          -5.840
REMARK INTER:                  -4.112
REMARK INTRA:                  -1.728
REMARK UNBOUND:                -0.813
REMARK SMILES CC[C@H](C=C[C@@H](C)[C@@H]1CC[C@@H]2[C@H]3CC=C4C[C@@H](O[C@@H]5O[C@H](CO)[C@H](O)[C@H](O)[C@H]5O)CC[C@]4(C)[C@@H]3CC[C@]21C)C(C)C
REMARK SMILES IDX 8 1 9 2 10 3 11 4 37 5 36 6 35 7 34 8 12 9 13 10 14 11 15 12
REMARK SMILES IDX 32 13 31 14 30 15 17 16 16 17 33 18 38 19 6 20 7 21 5 22
REMARK SMILES IDX 4 23 3 24 2 25 1 26 39 27 40 28 41 29 18 30 19 31 28 32
REMARK SMILES IDX 20 33 26 34 21 35 24 36 29 37 27 39 22 41 23 42 25 44
REMARK H PARENT 29 38 27 40 23 43 25 45
REMARK Flexibility Score: inf
ROOT
ATOM      1  C   UNL     1      13.221   7.710   9.853  1.00  0.00     0.002 C 
ATOM      2  C   UNL     1      12.381   8.506  10.893  1.00  0.00     0.005 C 
ATOM      3  C   UNL     1      12.293   7.639  12.160  1.00  0.00     0.005 C 
ATOM      4  C   UNL     1      12.925   6.320  11.748  1.00  0.00    -0.001 C 
ATOM      5  C   UNL     1      14.019   6.703  10.735  1.00  0.00    -0.026 C 
ATOM      6  C   UNL     1      14.474   5.408  10.019  1.00  0.00     0.007 C 
ATOM      7  C   UNL     1      14.952   4.325  11.022  1.00  0.00     0.005 C 
ATOM      8  C   UNL     1      13.902   4.040  12.139  1.00  0.00     0.003 C 
ATOM      9  C   UNL     1      13.437   5.357  12.833  1.00  0.00     0.000 C 
ATOM     10  C   UNL     1      12.359   4.997  13.868  1.00  0.00     0.031 C 
ATOM     11  C   UNL     1      13.030   4.199  14.946  1.00  0.00    -0.027 C 
ATOM     12  C   UNL     1      13.990   3.300  14.639  1.00  0.00    -0.065 C 
ATOM     13  C   UNL     1      14.249   2.868  13.179  1.00  0.00    -0.008 C 
ATOM     14  C   UNL     1      15.730   2.383  13.073  1.00  0.00     0.014 C 
ATOM     15  C   UNL     1      16.125   1.309  14.116  1.00  0.00     0.033 C 
ATOM     16  C   UNL     1      15.530   1.515  15.534  1.00  0.00     0.125 C 
ATOM     17  C   UNL     1      15.000   2.949  15.708  1.00  0.00     0.063 C 
ATOM     18  C   UNL     1      13.310   1.674  12.868  1.00  0.00     0.016 C 
ATOM     19  C   UNL     1      15.256   7.405  11.382  1.00  0.00     0.012 C 
ENDROOT
BRANCH   1  20
ATOM     20  C   UNL     1      14.041   8.631   8.896  1.00  0.00     0.012 C 
ATOM     21  C   UNL     1      13.330   9.975   8.646  1.00  0.00     0.012 C 
BRANCH  20  22
ATOM     22  C   UNL     1      14.351   7.954   7.575  1.00  0.00    -0.028 C 
ATOM     23  C   UNL     1      13.404   7.340   6.829  1.00  0.00    -0.027 C 
BRANCH  23  24
ATOM     24  C   UNL     1      13.580   6.827   5.401  1.00  0.00     0.014 C 
BRANCH  24  25
ATOM     25  C   UNL     1      12.616   7.455   4.352  1.00  0.00     0.004 C 
ATOM     26  C   UNL     1      11.149   7.372   4.782  1.00  0.00     0.004 C 
ENDBRANCH  24  25
BRANCH  24  27
ATOM     27  C   UNL     1      15.084   6.920   4.984  1.00  0.00    -0.011 C 
ATOM     28  C   UNL     1      15.431   8.231   4.264  1.00  0.00     0.008 C 
ATOM     29  C   UNL     1      15.524   5.717   4.134  1.00  0.00     0.008 C 
ENDBRANCH  24  27
ENDBRANCH  23  24
ENDBRANCH  20  22
ENDBRANCH   1  20
BRANCH  16  30
ATOM     30  O   UNL     1      14.508   0.539  15.734  1.00  0.00    -0.346 OA
BRANCH  30  31
ATOM     31  C   UNL     1      14.945  -0.816  15.792  1.00  0.00     0.282 C 
ATOM     32  C   UNL     1      14.587  -1.551  17.112  1.00  0.00     0.202 C 
ATOM     33  O   UNL     1      14.556  -1.524  14.624  1.00  0.00    -0.341 OA
ATOM     34  C   UNL     1      15.385  -2.868  17.203  1.00  0.00     0.179 C 
ATOM     35  C   UNL     1      14.692  -2.945  14.688  1.00  0.00     0.178 C 
ATOM     36  C   UNL     1      15.654  -3.482  15.800  1.00  0.00     0.177 C 
BRANCH  32  37
ATOM     37  O   UNL     1      14.837  -0.738  18.234  1.00  0.00    -0.385 OA
ATOM     38  H   UNL     1      14.015  -0.740  18.793  1.00  0.00     0.211 HD
ENDBRANCH  32  37
BRANCH  34  39
ATOM     39  O   UNL     1      14.750  -3.779  18.071  1.00  0.00    -0.387 OA
ATOM     40  H   UNL     1      14.530  -4.596  17.553  1.00  0.00     0.211 HD
ENDBRANCH  34  39
BRANCH  35  41
ATOM     41  C   UNL     1      13.289  -3.587  14.710  1.00  0.00     0.191 C 
BRANCH  41  42
ATOM     42  O   UNL     1      13.341  -4.897  14.217  1.00  0.00    -0.394 OA
ATOM     43  H   UNL     1      13.037  -4.859  13.269  1.00  0.00     0.210 HD
ENDBRANCH  41  42
ENDBRANCH  35  41
BRANCH  36  44
ATOM     44  O   UNL     1      15.628  -4.885  15.864  1.00  0.00    -0.387 OA
ATOM     45  H   UNL     1      16.568  -5.198  15.784  1.00  0.00     0.211 HD
ENDBRANCH  36  44
ENDBRANCH  30  31
ENDBRANCH  16  30
TORSDOF 12
ENDMDL
MODEL 4
REMARK VINA RESULT:    -2.700      4.806     10.525
REMARK INTER + INTRA:          -5.091
REMARK INTER:                  -4.583
REMARK INTRA:                  -0.508
REMARK UNBOUND:                -0.813
REMARK SMILES CC[C@H](C=C[C@@H](C)[C@@H]1CC[C@@H]2[C@H]3CC=C4C[C@@H](O[C@@H]5O[C@H](CO)[C@H](O)[C@H](O)[C@H]5O)CC[C@]4(C)[C@@H]3CC[C@]21C)C(C)C
REMARK SMILES IDX 8 1 9 2 10 3 11 4 37 5 36 6 35 7 34 8 12 9 13 10 14 11 15 12
REMARK SMILES IDX 32 13 31 14 30 15 17 16 16 17 33 18 38 19 6 20 7 21 5 22
REMARK SMILES IDX 4 23 3 24 2 25 1 26 39 27 40 28 41 29 18 30 19 31 28 32
REMARK SMILES IDX 20 33 26 34 21 35 24 36 29 37 27 39 22 41 23 42 25 44
REMARK H PARENT 29 38 27 40 23 43 25 45
REMARK Flexibility Score: inf
ROOT
ATOM      1  C   UNL     1      -2.884   1.195  14.362  1.00  0.00     0.002 C 
ATOM      2  C   UNL     1      -4.125   0.286  14.128  1.00  0.00     0.005 C 
ATOM      3  C   UNL     1      -3.954  -0.950  15.027  1.00  0.00     0.005 C 
ATOM      4  C   UNL     1      -2.556  -0.796  15.603  1.00  0.00    -0.001 C 
ATOM      5  C   UNL     1      -2.353   0.723  15.749  1.00  0.00    -0.026 C 
ATOM      6  C   UNL     1      -0.846   0.975  16.004  1.00  0.00     0.007 C 
ATOM      7  C   UNL     1      -0.325   0.190  17.236  1.00  0.00     0.005 C 
ATOM      8  C   UNL     1      -0.661  -1.331  17.161  1.00  0.00     0.003 C 
ATOM      9  C   UNL     1      -2.177  -1.567  16.880  1.00  0.00     0.000 C 
ATOM     10  C   UNL     1      -2.410  -3.080  16.754  1.00  0.00     0.031 C 
ATOM     11  C   UNL     1      -2.163  -3.679  18.106  1.00  0.00    -0.027 C 
ATOM     12  C   UNL     1      -1.164  -3.219  18.890  1.00  0.00    -0.065 C 
ATOM     13  C   UNL     1      -0.087  -2.259  18.337  1.00  0.00    -0.008 C 
ATOM     14  C   UNL     1       0.487  -1.435  19.534  1.00  0.00     0.014 C 
ATOM     15  C   UNL     1       0.977  -2.297  20.724  1.00  0.00     0.033 C 
ATOM     16  C   UNL     1       0.097  -3.533  21.051  1.00  0.00     0.125 C 
ATOM     17  C   UNL     1      -1.284  -3.420  20.383  1.00  0.00     0.063 C 
ATOM     18  C   UNL     1       1.051  -3.124  17.736  1.00  0.00     0.016 C 
ATOM     19  C   UNL     1      -3.193   1.362  16.901  1.00  0.00     0.012 C 
ENDROOT
BRANCH   1  20
ATOM     20  C   UNL     1      -3.199   2.714  14.193  1.00  0.00     0.012 C 
ATOM     21  C   UNL     1      -3.927   3.004  12.866  1.00  0.00     0.012 C 
BRANCH  20  22
ATOM     22  C   UNL     1      -1.954   3.574  14.302  1.00  0.00    -0.028 C 
ATOM     23  C   UNL     1      -1.674   4.566  13.428  1.00  0.00    -0.027 C 
BRANCH  23  24
ATOM     24  C   UNL     1      -0.569   5.612  13.581  1.00  0.00     0.014 C 
BRANCH  24  25
ATOM     25  C   UNL     1       0.601   5.488  12.562  1.00  0.00     0.004 C 
ATOM     26  C   UNL     1       1.971   5.453  13.246  1.00  0.00     0.004 C 
ENDBRANCH  24  25
BRANCH  24  27
ATOM     27  C   UNL     1      -1.196   7.043  13.624  1.00  0.00    -0.011 C 
ATOM     28  C   UNL     1      -0.371   8.087  12.857  1.00  0.00     0.008 C 
ATOM     29  C   UNL     1      -1.447   7.521  15.063  1.00  0.00     0.008 C 
ENDBRANCH  24  27
ENDBRANCH  23  24
ENDBRANCH  20  22
ENDBRANCH   1  20
BRANCH  16  30
ATOM     30  O   UNL     1       0.800  -4.702  20.632  1.00  0.00    -0.346 OA
BRANCH  30  31
ATOM     31  C   UNL     1       2.085  -4.897  21.215  1.00  0.00     0.282 C 
ATOM     32  C   UNL     1       3.275  -4.530  20.288  1.00  0.00     0.202 C 
ATOM     33  O   UNL     1       2.156  -4.291  22.498  1.00  0.00    -0.341 OA
ATOM     34  C   UNL     1       4.585  -5.088  20.882  1.00  0.00     0.179 C 
ATOM     35  C   UNL     1       3.466  -4.179  23.058  1.00  0.00     0.178 C 
ATOM     36  C   UNL     1       4.549  -5.124  22.436  1.00  0.00     0.177 C 
BRANCH  32  37
ATOM     37  O   UNL     1       3.073  -5.014  18.981  1.00  0.00    -0.385 OA
ATOM     38  H   UNL     1       3.293  -5.983  18.985  1.00  0.00     0.211 HD
ENDBRANCH  32  37
BRANCH  34  39
ATOM     39  O   UNL     1       5.699  -4.380  20.389  1.00  0.00    -0.387 OA
ATOM     40  H   UNL     1       5.755  -3.517  20.877  1.00  0.00     0.211 HD
ENDBRANCH  34  39
BRANCH  35  41
ATOM     41  C   UNL     1       3.877  -2.693  23.092  1.00  0.00     0.191 C 
BRANCH  41  42
ATOM     42  O   UNL     1       2.938  -1.941  23.809  1.00  0.00    -0.394 OA
ATOM     43  H   UNL     1       3.245  -0.994  23.778  1.00  0.00     0.210 HD
ENDBRANCH  41  42
ENDBRANCH  35  41
BRANCH  36  44
ATOM     44  O   UNL     1       5.824  -4.857  22.963  1.00  0.00    -0.387 OA
ATOM     45  H   UNL     1       5.816  -5.157  23.911  1.00  0.00     0.211 HD
ENDBRANCH  36  44
ENDBRANCH  30  31
ENDBRANCH  16  30
TORSDOF 12
ENDMDL
MODEL 5
REMARK VINA RESULT:    -2.675     15.920     20.103
REMARK INTER + INTRA:          -5.052
REMARK INTER:                  -4.760
REMARK INTRA:                  -0.292
REMARK UNBOUND:                -0.813
REMARK SMILES CC[C@H](C=C[C@@H](C)[C@@H]1CC[C@@H]2[C@H]3CC=C4C[C@@H](O[C@@H]5O[C@H](CO)[C@H](O)[C@H](O)[C@H]5O)CC[C@]4(C)[C@@H]3CC[C@]21C)C(C)C
REMARK SMILES IDX 8 1 9 2 10 3 11 4 37 5 36 6 35 7 34 8 12 9 13 10 14 11 15 12
REMARK SMILES IDX 32 13 31 14 30 15 17 16 16 17 33 18 38 19 6 20 7 21 5 22
REMARK SMILES IDX 4 23 3 24 2 25 1 26 39 27 40 28 41 29 18 30 19 31 28 32
REMARK SMILES IDX 20 33 26 34 21 35 24 36 29 37 27 39 22 41 23 42 25 44
REMARK H PARENT 29 38 27 40 23 43 25 45
REMARK Flexibility Score: inf
ROOT
ATOM      1  C   UNL     1      13.290   7.686   9.599  1.00  0.00     0.002 C 
ATOM      2  C   UNL     1      12.396   8.487  10.588  1.00  0.00     0.005 C 
ATOM      3  C   UNL     1      12.270   7.642  11.868  1.00  0.00     0.005 C 
ATOM      4  C   UNL     1      12.939   6.325  11.506  1.00  0.00    -0.001 C 
ATOM      5  C   UNL     1      14.066   6.708  10.531  1.00  0.00    -0.026 C 
ATOM      6  C   UNL     1      14.571   5.408   9.858  1.00  0.00     0.007 C 
ATOM      7  C   UNL     1      15.025   4.351  10.899  1.00  0.00     0.005 C 
ATOM      8  C   UNL     1      13.935   4.069  11.978  1.00  0.00     0.003 C 
ATOM      9  C   UNL     1      13.421   5.391  12.629  1.00  0.00     0.000 C 
ATOM     10  C   UNL     1      12.309   5.032  13.626  1.00  0.00     0.031 C 
ATOM     11  C   UNL     1      12.948   4.265  14.745  1.00  0.00    -0.027 C 
ATOM     12  C   UNL     1      13.934   3.377  14.493  1.00  0.00    -0.065 C 
ATOM     13  C   UNL     1      14.258   2.923  13.053  1.00  0.00    -0.008 C 
ATOM     14  C   UNL     1      15.750   2.460  13.016  1.00  0.00     0.014 C 
ATOM     15  C   UNL     1      16.119   1.412  14.094  1.00  0.00     0.033 C 
ATOM     16  C   UNL     1      15.463   1.634  15.483  1.00  0.00     0.125 C 
ATOM     17  C   UNL     1      14.904   3.061  15.608  1.00  0.00     0.063 C 
ATOM     18  C   UNL     1      13.351   1.708  12.727  1.00  0.00     0.016 C 
ATOM     19  C   UNL     1      15.265   7.442  11.213  1.00  0.00     0.012 C 
ENDROOT
BRANCH   1  20
ATOM     20  C   UNL     1      14.133   8.603   8.658  1.00  0.00     0.012 C 
ATOM     21  C   UNL     1      15.353   7.862   8.079  1.00  0.00     0.012 C 
BRANCH  20  22
ATOM     22  C   UNL     1      14.579   9.878   9.349  1.00  0.00    -0.028 C 
ATOM     23  C   UNL     1      15.636  10.606   8.924  1.00  0.00    -0.027 C 
BRANCH  23  24
ATOM     24  C   UNL     1      16.021  12.000   9.419  1.00  0.00     0.014 C 
BRANCH  24  25
ATOM     25  C   UNL     1      15.715  13.159   8.426  1.00  0.00     0.004 C 
ATOM     26  C   UNL     1      14.256  13.159   7.960  1.00  0.00     0.004 C 
ENDBRANCH  24  25
BRANCH  24  27
ATOM     27  C   UNL     1      15.427  12.241  10.844  1.00  0.00    -0.011 C 
ATOM     28  C   UNL     1      15.791  13.615  11.426  1.00  0.00     0.008 C 
ATOM     29  C   UNL     1      15.820  11.128  11.830  1.00  0.00     0.008 C 
ENDBRANCH  24  27
ENDBRANCH  23  24
ENDBRANCH  20  22
ENDBRANCH   1  20
BRANCH  16  30
ATOM     30  O   UNL     1      14.450   0.645  15.660  1.00  0.00    -0.346 OA
BRANCH  30  31
ATOM     31  C   UNL     1      14.907  -0.699  15.781  1.00  0.00     0.282 C 
ATOM     32  C   UNL     1      14.531  -1.388  17.121  1.00  0.00     0.202 C 
ATOM     33  O   UNL     1      14.556  -1.459  14.634  1.00  0.00    -0.341 OA
ATOM     34  C   UNL     1      15.348  -2.687  17.282  1.00  0.00     0.179 C 
ATOM     35  C   UNL     1      14.712  -2.875  14.757  1.00  0.00     0.178 C 
ATOM     36  C   UNL     1      15.658  -3.351  15.911  1.00  0.00     0.177 C 
BRANCH  32  37
ATOM     37  O   UNL     1      14.743  -0.527  18.216  1.00  0.00    -0.385 OA
ATOM     38  H   UNL     1      14.742   0.404  17.867  1.00  0.00     0.211 HD
ENDBRANCH  32  37
BRANCH  34  39
ATOM     39  O   UNL     1      14.708  -3.573  18.172  1.00  0.00    -0.387 OA
ATOM     40  H   UNL     1      15.326  -4.329  18.351  1.00  0.00     0.211 HD
ENDBRANCH  34  39
BRANCH  35  41
ATOM     41  C   UNL     1      13.320  -3.538  14.775  1.00  0.00     0.191 C 
BRANCH  41  42
ATOM     42  O   UNL     1      12.866  -3.761  13.468  1.00  0.00    -0.394 OA
ATOM     43  H   UNL     1      13.602  -3.483  12.858  1.00  0.00     0.210 HD
ENDBRANCH  41  42
ENDBRANCH  35  41
BRANCH  36  44
ATOM     44  O   UNL     1      15.653  -4.751  16.030  1.00  0.00    -0.387 OA
ATOM     45  H   UNL     1      15.018  -4.979  16.760  1.00  0.00     0.211 HD
ENDBRANCH  36  44
ENDBRANCH  30  31
ENDBRANCH  16  30
TORSDOF 12
ENDMDL
MODEL 6
REMARK VINA RESULT:    -2.459     14.694     17.555
REMARK INTER + INTRA:          -4.710
REMARK INTER:                  -4.754
REMARK INTRA:                   0.044
REMARK UNBOUND:                -0.813
REMARK SMILES CC[C@H](C=C[C@@H](C)[C@@H]1CC[C@@H]2[C@H]3CC=C4C[C@@H](O[C@@H]5O[C@H](CO)[C@H](O)[C@H](O)[C@H]5O)CC[C@]4(C)[C@@H]3CC[C@]21C)C(C)C
REMARK SMILES IDX 8 1 9 2 10 3 11 4 37 5 36 6 35 7 34 8 12 9 13 10 14 11 15 12
REMARK SMILES IDX 32 13 31 14 30 15 17 16 16 17 33 18 38 19 6 20 7 21 5 22
REMARK SMILES IDX 4 23 3 24 2 25 1 26 39 27 40 28 41 29 18 30 19 31 28 32
REMARK SMILES IDX 20 33 26 34 21 35 24 36 29 37 27 39 22 41 23 42 25 44
REMARK H PARENT 29 38 27 40 23 43 25 45
REMARK Flexibility Score: inf
ROOT
ATOM      1  C   UNL     1      14.765   0.340  15.895  1.00  0.00     0.002 C 
ATOM      2  C   UNL     1      15.832  -0.457  15.092  1.00  0.00     0.005 C 
ATOM      3  C   UNL     1      16.125   0.344  13.812  1.00  0.00     0.005 C 
ATOM      4  C   UNL     1      15.100   1.466  13.839  1.00  0.00    -0.001 C 
ATOM      5  C   UNL     1      14.900   1.786  15.331  1.00  0.00    -0.026 C 
ATOM      6  C   UNL     1      13.636   2.671  15.459  1.00  0.00     0.007 C 
ATOM      7  C   UNL     1      13.731   3.952  14.590  1.00  0.00     0.005 C 
ATOM      8  C   UNL     1      14.080   3.640  13.102  1.00  0.00     0.003 C 
ATOM      9  C   UNL     1      15.341   2.728  12.992  1.00  0.00     0.000 C 
ATOM     10  C   UNL     1      15.577   2.414  11.506  1.00  0.00     0.031 C 
ATOM     11  C   UNL     1      15.961   3.700  10.838  1.00  0.00    -0.027 C 
ATOM     12  C   UNL     1      15.369   4.862  11.192  1.00  0.00    -0.065 C 
ATOM     13  C   UNL     1      14.111   4.882  12.088  1.00  0.00    -0.008 C 
ATOM     14  C   UNL     1      14.061   6.262  12.819  1.00  0.00     0.014 C 
ATOM     15  C   UNL     1      14.171   7.487  11.877  1.00  0.00     0.033 C 
ATOM     16  C   UNL     1      15.168   7.327  10.699  1.00  0.00     0.125 C 
ATOM     17  C   UNL     1      16.124   6.147  10.942  1.00  0.00     0.063 C 
ATOM     18  C   UNL     1      12.872   4.762  11.164  1.00  0.00     0.016 C 
ATOM     19  C   UNL     1      16.117   2.515  15.986  1.00  0.00     0.012 C 
ENDROOT
BRANCH   1  20
ATOM     20  C   UNL     1      14.899   0.156  17.440  1.00  0.00     0.012 C 
ATOM     21  C   UNL     1      15.739   1.279  18.079  1.00  0.00     0.012 C 
BRANCH  20  22
ATOM     22  C   UNL     1      15.475  -1.198  17.808  1.00  0.00    -0.028 C 
ATOM     23  C   UNL     1      14.699  -2.272  18.080  1.00  0.00    -0.027 C 
BRANCH  23  24
ATOM     24  C   UNL     1      15.185  -3.711  18.245  1.00  0.00     0.014 C 
BRANCH  24  25
ATOM     25  C   UNL     1      16.118  -3.955  19.467  1.00  0.00     0.004 C 
ATOM     26  C   UNL     1      15.685  -3.159  20.702  1.00  0.00     0.004 C 
ENDBRANCH  24  25
BRANCH  24  27
ATOM     27  C   UNL     1      13.968  -4.691  18.199  1.00  0.00    -0.011 C 
ATOM     28  C   UNL     1      13.398  -4.880  16.786  1.00  0.00     0.008 C 
ATOM     29  C   UNL     1      12.851  -4.272  19.169  1.00  0.00     0.008 C 
ENDBRANCH  24  27
ENDBRANCH  23  24
ENDBRANCH  20  22
ENDBRANCH   1  20
BRANCH  16  30
ATOM     30  O   UNL     1      14.415   7.167   9.498  1.00  0.00    -0.346 OA
BRANCH  30  31
ATOM     31  C   UNL     1      14.475   8.252   8.576  1.00  0.00     0.282 C 
ATOM     32  C   UNL     1      13.249   9.203   8.622  1.00  0.00     0.202 C 
ATOM     33  O   UNL     1      15.722   8.927   8.671  1.00  0.00    -0.341 OA
ATOM     34  C   UNL     1      13.260  10.121   7.381  1.00  0.00     0.179 C 
ATOM     35  C   UNL     1      15.794  10.189   8.003  1.00  0.00     0.178 C 
ATOM     36  C   UNL     1      14.707  10.435   6.904  1.00  0.00     0.177 C 
BRANCH  32  37
ATOM     37  O   UNL     1      12.043   8.480   8.696  1.00  0.00    -0.385 OA
ATOM     38  H   UNL     1      11.764   8.463   9.650  1.00  0.00     0.211 HD
ENDBRANCH  32  37
BRANCH  34  39
ATOM     39  O   UNL     1      12.510  11.290   7.618  1.00  0.00    -0.387 OA
ATOM     40  H   UNL     1      12.324  11.719   6.742  1.00  0.00     0.211 HD
ENDBRANCH  34  39
BRANCH  35  41
ATOM     41  C   UNL     1      15.887  11.313   9.055  1.00  0.00     0.191 C 
BRANCH  41  42
ATOM     42  O   UNL     1      15.832  10.780  10.349  1.00  0.00    -0.394 OA
ATOM     43  H   UNL     1      15.940   9.794  10.258  1.00  0.00     0.210 HD
ENDBRANCH  41  42
ENDBRANCH  35  41
BRANCH  36  44
ATOM     44  O   UNL     1      14.783  11.741   6.393  1.00  0.00    -0.387 OA
ATOM     45  H   UNL     1      15.659  12.114   6.677  1.00  0.00     0.211 HD
ENDBRANCH  36  44
ENDBRANCH  30  31
ENDBRANCH  16  30
TORSDOF 12
ENDMDL
MODEL 7
REMARK VINA RESULT:    -2.354     16.325     20.540
REMARK INTER + INTRA:          -4.543
REMARK INTER:                  -3.644
REMARK INTRA:                  -0.899
REMARK UNBOUND:                -0.813
REMARK SMILES CC[C@H](C=C[C@@H](C)[C@@H]1CC[C@@H]2[C@H]3CC=C4C[C@@H](O[C@@H]5O[C@H](CO)[C@H](O)[C@H](O)[C@H]5O)CC[C@]4(C)[C@@H]3CC[C@]21C)C(C)C
REMARK SMILES IDX 8 1 9 2 10 3 11 4 37 5 36 6 35 7 34 8 12 9 13 10 14 11 15 12
REMARK SMILES IDX 32 13 31 14 30 15 17 16 16 17 33 18 38 19 6 20 7 21 5 22
REMARK SMILES IDX 4 23 3 24 2 25 1 26 39 27 40 28 41 29 18 30 19 31 28 32
REMARK SMILES IDX 20 33 26 34 21 35 24 36 29 37 27 39 22 41 23 42 25 44
REMARK H PARENT 29 38 27 40 23 43 25 45
REMARK Flexibility Score: inf
ROOT
ATOM      1  C   UNL     1      14.887   8.423   9.133  1.00  0.00     0.002 C 
ATOM      2  C   UNL     1      15.921   7.610   8.303  1.00  0.00     0.005 C 
ATOM      3  C   UNL     1      16.125   6.268   9.025  1.00  0.00     0.005 C 
ATOM      4  C   UNL     1      15.347   6.426  10.322  1.00  0.00    -0.001 C 
ATOM      5  C   UNL     1      14.152   7.325   9.959  1.00  0.00    -0.026 C 
ATOM      6  C   UNL     1      13.507   7.809  11.282  1.00  0.00     0.007 C 
ATOM      7  C   UNL     1      13.098   6.626  12.197  1.00  0.00     0.005 C 
ATOM      8  C   UNL     1      14.272   5.630  12.447  1.00  0.00     0.003 C 
ATOM      9  C   UNL     1      14.926   5.172  11.107  1.00  0.00     0.000 C 
ATOM     10  C   UNL     1      16.110   4.251  11.442  1.00  0.00     0.031 C 
ATOM     11  C   UNL     1      15.542   3.004  12.050  1.00  0.00    -0.027 C 
ATOM     12  C   UNL     1      14.485   3.068  12.889  1.00  0.00    -0.065 C 
ATOM     13  C   UNL     1      13.992   4.416  13.458  1.00  0.00    -0.008 C 
ATOM     14  C   UNL     1      12.479   4.265  13.818  1.00  0.00     0.014 C 
ATOM     15  C   UNL     1      12.159   3.053  14.728  1.00  0.00     0.033 C 
ATOM     16  C   UNL     1      12.963   1.763  14.417  1.00  0.00     0.125 C 
ATOM     17  C   UNL     1      13.615   1.840  13.026  1.00  0.00     0.063 C 
ATOM     18  C   UNL     1      14.788   4.698  14.758  1.00  0.00     0.016 C 
ATOM     19  C   UNL     1      13.073   6.613   9.081  1.00  0.00     0.012 C 
ENDROOT
BRANCH   1  20
ATOM     20  C   UNL     1      14.009   9.370   8.257  1.00  0.00     0.012 C 
ATOM     21  C   UNL     1      13.879   8.856   6.810  1.00  0.00     0.012 C 
BRANCH  20  22
ATOM     22  C   UNL     1      14.528  10.796   8.257  1.00  0.00    -0.028 C 
ATOM     23  C   UNL     1      14.303  11.654   9.277  1.00  0.00    -0.027 C 
BRANCH  23  24
ATOM     24  C   UNL     1      14.961  13.022   9.461  1.00  0.00     0.014 C 
BRANCH  24  25
ATOM     25  C   UNL     1      14.793  14.000   8.263  1.00  0.00     0.004 C 
ATOM     26  C   UNL     1      16.094  14.195   7.480  1.00  0.00     0.004 C 
ENDBRANCH  24  25
BRANCH  24  27
ATOM     27  C   UNL     1      14.521  13.643  10.826  1.00  0.00    -0.011 C 
ATOM     28  C   UNL     1      13.779  14.979  10.671  1.00  0.00     0.008 C 
ATOM     29  C   UNL     1      15.702  13.804  11.796  1.00  0.00     0.008 C 
ENDBRANCH  24  27
ENDBRANCH  23  24
ENDBRANCH  20  22
ENDBRANCH   1  20
BRANCH  16  30
ATOM     30  O   UNL     1      13.928   1.581  15.452  1.00  0.00    -0.346 OA
BRANCH  30  31
ATOM     31  C   UNL     1      14.633   0.342  15.433  1.00  0.00     0.282 C 
ATOM     32  C   UNL     1      14.691  -0.385  16.804  1.00  0.00     0.202 C 
ATOM     33  O   UNL     1      14.178  -0.483  14.371  1.00  0.00    -0.341 OA
ATOM     34  C   UNL     1      15.741  -1.514  16.746  1.00  0.00     0.179 C 
ATOM     35  C   UNL     1      14.608  -1.846  14.418  1.00  0.00     0.178 C 
ATOM     36  C   UNL     1      15.854  -2.129  15.322  1.00  0.00     0.177 C 
BRANCH  32  37
ATOM     37  O   UNL     1      14.983   0.514  17.848  1.00  0.00    -0.385 OA
ATOM     38  H   UNL     1      15.060   1.421  17.448  1.00  0.00     0.211 HD
ENDBRANCH  32  37
BRANCH  34  39
ATOM     39  O   UNL     1      15.482  -2.489  17.730  1.00  0.00    -0.387 OA
ATOM     40  H   UNL     1      15.992  -3.307  17.495  1.00  0.00     0.211 HD
ENDBRANCH  34  39
BRANCH  35  41
ATOM     41  C   UNL     1      13.395  -2.748  14.723  1.00  0.00     0.191 C 
BRANCH  41  42
ATOM     42  O   UNL     1      13.604  -4.038  14.218  1.00  0.00    -0.394 OA
ATOM     43  H   UNL     1      14.562  -4.259  14.382  1.00  0.00     0.210 HD
ENDBRANCH  41  42
ENDBRANCH  35  41
BRANCH  36  44
ATOM     44  O   UNL     1      16.125  -3.506  15.402  1.00  0.00    -0.387 OA
ATOM     45  H   UNL     1      16.679  -3.647  16.214  1.00  0.00     0.211 HD
ENDBRANCH  36  44
ENDBRANCH  30  31
ENDBRANCH  16  30
TORSDOF 12
ENDMDL
MODEL 8
REMARK VINA RESULT:    -2.044     16.082     18.675
REMARK INTER + INTRA:          -4.052
REMARK INTER:                  -3.216
REMARK INTRA:                  -0.837
REMARK UNBOUND:                -0.813
REMARK SMILES CC[C@H](C=C[C@@H](C)[C@@H]1CC[C@@H]2[C@H]3CC=C4C[C@@H](O[C@@H]5O[C@H](CO)[C@H](O)[C@H](O)[C@H]5O)CC[C@]4(C)[C@@H]3CC[C@]21C)C(C)C
REMARK SMILES IDX 8 1 9 2 10 3 11 4 37 5 36 6 35 7 34 8 12 9 13 10 14 11 15 12
REMARK SMILES IDX 32 13 31 14 30 15 17 16 16 17 33 18 38 19 6 20 7 21 5 22
REMARK SMILES IDX 4 23 3 24 2 25 1 26 39 27 40 28 41 29 18 30 19 31 28 32
REMARK SMILES IDX 20 33 26 34 21 35 24 36 29 37 27 39 22 41 23 42 25 44
REMARK H PARENT 29 38 27 40 23 43 25 45
REMARK Flexibility Score: inf
ROOT
ATOM      1  C   UNL     1      12.983   3.478  13.412  1.00  0.00     0.002 C 
ATOM      2  C   UNL     1      11.919   4.321  14.170  1.00  0.00     0.005 C 
ATOM      3  C   UNL     1      11.919   5.723  13.537  1.00  0.00     0.005 C 
ATOM      4  C   UNL     1      13.092   5.690  12.571  1.00  0.00    -0.001 C 
ATOM      5  C   UNL     1      13.145   4.239  12.061  1.00  0.00    -0.026 C 
ATOM      6  C   UNL     1      14.503   4.039  11.344  1.00  0.00     0.007 C 
ATOM      7  C   UNL     1      14.718   5.071  10.207  1.00  0.00     0.005 C 
ATOM      8  C   UNL     1      14.519   6.541  10.688  1.00  0.00     0.003 C 
ATOM      9  C   UNL     1      13.158   6.719  11.429  1.00  0.00     0.000 C 
ATOM     10  C   UNL     1      13.071   8.170  11.927  1.00  0.00     0.031 C 
ATOM     11  C   UNL     1      12.978   9.049  10.716  1.00  0.00    -0.027 C 
ATOM     12  C   UNL     1      13.691   8.764   9.605  1.00  0.00    -0.065 C 
ATOM     13  C   UNL     1      14.810   7.701   9.618  1.00  0.00    -0.008 C 
ATOM     14  C   UNL     1      14.978   7.155   8.164  1.00  0.00     0.014 C 
ATOM     15  C   UNL     1      15.179   8.254   7.091  1.00  0.00     0.033 C 
ATOM     16  C   UNL     1      14.329   9.536   7.290  1.00  0.00     0.125 C 
ATOM     17  C   UNL     1      13.179   9.288   8.282  1.00  0.00     0.063 C 
ATOM     18  C   UNL     1      16.125   8.407  10.040  1.00  0.00     0.016 C 
ATOM     19  C   UNL     1      11.980   3.872  11.087  1.00  0.00     0.012 C 
ENDROOT
BRANCH   1  20
ATOM     20  C   UNL     1      12.625   1.960  13.343  1.00  0.00     0.012 C 
ATOM     21  C   UNL     1      11.283   1.657  14.037  1.00  0.00     0.012 C 
BRANCH  20  22
ATOM     22  C   UNL     1      13.720   1.086  13.922  1.00  0.00    -0.028 C 
ATOM     23  C   UNL     1      14.115   1.170  15.213  1.00  0.00    -0.027 C 
BRANCH  23  24
ATOM     24  C   UNL     1      15.046   0.194  15.932  1.00  0.00     0.014 C 
BRANCH  24  25
ATOM     25  C   UNL     1      15.762  -0.835  15.009  1.00  0.00     0.004 C 
ATOM     26  C   UNL     1      15.399  -2.282  15.355  1.00  0.00     0.004 C 
ENDBRANCH  24  25
BRANCH  24  27
ATOM     27  C   UNL     1      16.034   0.983  16.852  1.00  0.00    -0.011 C 
ATOM     28  C   UNL     1      15.825   0.700  18.346  1.00  0.00     0.008 C 
ATOM     29  C   UNL     1      15.986   2.497  16.587  1.00  0.00     0.008 C 
ENDBRANCH  24  27
ENDBRANCH  23  24
ENDBRANCH  20  22
ENDBRANCH   1  20
BRANCH  16  30
ATOM     30  O   UNL     1      15.197  10.581   7.728  1.00  0.00    -0.346 OA
BRANCH  30  31
ATOM     31  C   UNL     1      14.582  11.630   8.471  1.00  0.00     0.282 C 
ATOM     32  C   UNL     1      15.449  12.188   9.632  1.00  0.00     0.202 C 
ATOM     33  O   UNL     1      14.077  12.635   7.605  1.00  0.00    -0.341 OA
ATOM     34  C   UNL     1      14.574  13.059  10.557  1.00  0.00     0.179 C 
ATOM     35  C   UNL     1      13.691  13.859   8.235  1.00  0.00     0.178 C 
ATOM     36  C   UNL     1      13.433  13.771   9.777  1.00  0.00     0.177 C 
BRANCH  32  37
ATOM     37  O   UNL     1      16.062  11.149  10.358  1.00  0.00    -0.385 OA
ATOM     38  H   UNL     1      17.019  11.392  10.475  1.00  0.00     0.211 HD
ENDBRANCH  32  37
BRANCH  34  39
ATOM     39  O   UNL     1      15.368  13.965  11.289  1.00  0.00    -0.387 OA
ATOM     40  H   UNL     1      16.314  13.835  11.017  1.00  0.00     0.211 HD
ENDBRANCH  34  39
BRANCH  35  41
ATOM     41  C   UNL     1      14.678  14.971   7.828  1.00  0.00     0.191 C 
BRANCH  41  42
ATOM     42  O   UNL     1      15.812  14.946   8.649  1.00  0.00    -0.394 OA
ATOM     43  H   UNL     1      16.539  14.516   8.122  1.00  0.00     0.210 HD
ENDBRANCH  41  42
ENDBRANCH  35  41
BRANCH  36  44
ATOM     44  O   UNL     1      13.180  15.040  10.325  1.00  0.00    -0.387 OA
ATOM     45  H   UNL     1      12.244  15.277  10.090  1.00  0.00     0.211 HD
ENDBRANCH  36  44
ENDBRANCH  30  31
ENDBRANCH  16  30
TORSDOF 12
ENDMDL
MODEL 9
REMARK VINA RESULT:    -1.986     14.322     16.993
REMARK INTER + INTRA:          -3.960
REMARK INTER:                  -4.460
REMARK INTRA:                   0.500
REMARK UNBOUND:                -0.813
REMARK SMILES CC[C@H](C=C[C@@H](C)[C@@H]1CC[C@@H]2[C@H]3CC=C4C[C@@H](O[C@@H]5O[C@H](CO)[C@H](O)[C@H](O)[C@H]5O)CC[C@]4(C)[C@@H]3CC[C@]21C)C(C)C
REMARK SMILES IDX 8 1 9 2 10 3 11 4 37 5 36 6 35 7 34 8 12 9 13 10 14 11 15 12
REMARK SMILES IDX 32 13 31 14 30 15 17 16 16 17 33 18 38 19 6 20 7 21 5 22
REMARK SMILES IDX 4 23 3 24 2 25 1 26 39 27 40 28 41 29 18 30 19 31 28 32
REMARK SMILES IDX 20 33 26 34 21 35 24 36 29 37 27 39 22 41 23 42 25 44
REMARK H PARENT 29 38 27 40 23 43 25 45
REMARK Flexibility Score: inf
ROOT
ATOM      1  C   UNL     1      15.907  -0.655  15.828  1.00  0.00     0.002 C 
ATOM      2  C   UNL     1      15.204  -0.236  17.151  1.00  0.00     0.005 C 
ATOM      3  C   UNL     1      14.650   1.183  16.938  1.00  0.00     0.005 C 
ATOM      4  C   UNL     1      15.201   1.592  15.581  1.00  0.00    -0.001 C 
ATOM      5  C   UNL     1      15.262   0.287  14.768  1.00  0.00    -0.026 C 
ATOM      6  C   UNL     1      16.121   0.557  13.508  1.00  0.00     0.007 C 
ATOM      7  C   UNL     1      15.575   1.746  12.674  1.00  0.00     0.005 C 
ATOM      8  C   UNL     1      15.371   3.032  13.532  1.00  0.00     0.003 C 
ATOM      9  C   UNL     1      14.525   2.739  14.808  1.00  0.00     0.000 C 
ATOM     10  C   UNL     1      14.429   4.035  15.627  1.00  0.00     0.031 C 
ATOM     11  C   UNL     1      13.610   5.004  14.827  1.00  0.00    -0.027 C 
ATOM     12  C   UNL     1      13.741   5.068  13.484  1.00  0.00    -0.065 C 
ATOM     13  C   UNL     1      14.901   4.355  12.754  1.00  0.00    -0.008 C 
ATOM     14  C   UNL     1      14.445   4.066  11.288  1.00  0.00     0.014 C 
ATOM     15  C   UNL     1      13.906   5.306  10.532  1.00  0.00     0.033 C 
ATOM     16  C   UNL     1      13.042   6.274  11.383  1.00  0.00     0.125 C 
ATOM     17  C   UNL     1      12.574   5.599  12.683  1.00  0.00     0.063 C 
ATOM     18  C   UNL     1      16.105   5.330  12.719  1.00  0.00     0.016 C 
ATOM     19  C   UNL     1      13.860  -0.253  14.340  1.00  0.00     0.012 C 
ENDROOT
BRANCH   1  20
ATOM     20  C   UNL     1      15.838  -2.191  15.560  1.00  0.00     0.012 C 
ATOM     21  C   UNL     1      14.542  -2.587  14.826  1.00  0.00     0.012 C 
BRANCH  20  22
ATOM     22  C   UNL     1      15.982  -3.003  16.833  1.00  0.00    -0.028 C 
ATOM     23  C   UNL     1      15.094  -2.929  17.850  1.00  0.00    -0.027 C 
BRANCH  23  24
ATOM     24  C   UNL     1      15.040  -3.857  19.064  1.00  0.00     0.014 C 
BRANCH  24  25
ATOM     25  C   UNL     1      15.628  -3.260  20.376  1.00  0.00     0.004 C 
ATOM     26  C   UNL     1      15.946  -1.768  20.248  1.00  0.00     0.004 C 
ENDBRANCH  24  25
BRANCH  24  27
ATOM     27  C   UNL     1      13.591  -4.417  19.240  1.00  0.00    -0.011 C 
ATOM     28  C   UNL     1      12.966  -4.901  17.924  1.00  0.00     0.008 C 
ATOM     29  C   UNL     1      12.661  -3.405  19.928  1.00  0.00     0.008 C 
ENDBRANCH  24  27
ENDBRANCH  23  24
ENDBRANCH  20  22
ENDBRANCH   1  20
BRANCH  16  30
ATOM     30  O   UNL     1      13.809   7.450  11.636  1.00  0.00    -0.346 OA
BRANCH  30  31
ATOM     31  C   UNL     1      13.739   8.465  10.639  1.00  0.00     0.282 C 
ATOM     32  C   UNL     1      15.107   8.847  10.012  1.00  0.00     0.202 C 
ATOM     33  O   UNL     1      12.739   8.161   9.677  1.00  0.00    -0.341 OA
ATOM     34  C   UNL     1      14.961  10.159   9.213  1.00  0.00     0.179 C 
ATOM     35  C   UNL     1      12.763   8.954   8.488  1.00  0.00     0.178 C 
ATOM     36  C   UNL     1      13.543  10.307   8.594  1.00  0.00     0.177 C 
BRANCH  32  37
ATOM     37  O   UNL     1      16.104   8.972  10.999  1.00  0.00    -0.385 OA
ATOM     38  H   UNL     1      15.747   9.567  11.710  1.00  0.00     0.211 HD
ENDBRANCH  32  37
BRANCH  34  39
ATOM     39  O   UNL     1      15.981  10.271   8.246  1.00  0.00    -0.387 OA
ATOM     40  H   UNL     1      15.783  11.062   7.680  1.00  0.00     0.211 HD
ENDBRANCH  34  39
BRANCH  35  41
ATOM     41  C   UNL     1      13.199   8.072   7.300  1.00  0.00     0.191 C 
BRANCH  41  42
ATOM     42  O   UNL     1      12.084   7.654   6.563  1.00  0.00    -0.394 OA
ATOM     43  H   UNL     1      11.613   6.972   7.115  1.00  0.00     0.210 HD
ENDBRANCH  41  42
ENDBRANCH  35  41
BRANCH  36  44
ATOM     44  O   UNL     1      13.615  10.955   7.349  1.00  0.00    -0.387 OA
ATOM     45  H   UNL     1      12.713  10.895   6.937  1.00  0.00     0.211 HD
ENDBRANCH  36  44
ENDBRANCH  30  31
ENDBRANCH  16  30
TORSDOF 12
ENDMDL
