MODEL 1
REMARK VINA RESULT:    -6.214      0.000      0.000
REMARK INTER + INTRA:         -16.483
REMARK INTER:                 -14.205
REMARK INTRA:                  -2.278
REMARK UNBOUND:                -2.278
REMARK SMILES CCCCCCCCCCCCCCCCCCCCCCCC(=O)[O-]
REMARK SMILES IDX 13 1 14 2 15 3 16 4 17 5 18 6 19 7 20 8 21 9 22 10 23 11
REMARK SMILES IDX 24 12 25 13 26 14 12 15 11 16 10 17 9 18 8 19 7 20 6 21 5 22
REMARK SMILES IDX 4 23 3 24 2 25 1 26
REMARK H PARENT
REMARK Flexibility Score: inf
ROOT
ATOM      1  C   UNL     1      43.669 -48.692 165.507  1.00  0.00     0.000 C 
ENDROOT
BRANCH   1   2
ATOM      2  C   UNL     1      42.200 -48.238 165.388  1.00  0.00     0.000 C 
BRANCH   2   3
ATOM      3  C   UNL     1      41.344 -49.063 164.411  1.00  0.00     0.000 C 
BRANCH   3   4
ATOM      4  C   UNL     1      40.960 -48.276 163.147  1.00  0.00     0.000 C 
BRANCH   4   5
ATOM      5  C   UNL     1      39.692 -48.824 162.468  1.00  0.00     0.000 C 
BRANCH   5   6
ATOM      6  C   UNL     1      39.018 -47.855 161.477  1.00  0.00     0.000 C 
BRANCH   6   7
ATOM      7  C   UNL     1      37.803 -48.429 160.720  1.00  0.00     0.000 C 
BRANCH   7   8
ATOM      8  C   UNL     1      36.506 -47.611 160.847  1.00  0.00     0.000 C 
BRANCH   8   9
ATOM      9  C   UNL     1      35.429 -48.327 161.680  1.00  0.00     0.000 C 
BRANCH   9  10
ATOM     10  C   UNL     1      35.256 -49.806 161.285  1.00  0.00     0.006 C 
BRANCH  10  11
ATOM     11  C   UNL     1      34.905 -50.740 162.454  1.00  0.00     0.053 C 
BRANCH  11  12
ATOM     12  C   UNL     1      35.990 -51.736 162.725  1.00  0.00     0.041 C 
ATOM     13  O   UNL     1      35.736 -52.969 162.717  1.00  0.00    -0.550 OA
ATOM     14  O   UNL     1      37.293 -51.304 162.943  1.00  0.00    -0.550 OA
ENDBRANCH  11  12
ENDBRANCH  10  11
ENDBRANCH   9  10
ENDBRANCH   8   9
ENDBRANCH   7   8
ENDBRANCH   6   7
ENDBRANCH   5   6
ENDBRANCH   4   5
ENDBRANCH   3   4
ENDBRANCH   2   3
ENDBRANCH   1   2
BRANCH   1  15
ATOM     15  C   UNL     1      44.150 -49.643 164.392  1.00  0.00     0.000 C 
BRANCH  15  16
ATOM     16  C   UNL     1      45.605 -49.421 163.932  1.00  0.00     0.000 C 
BRANCH  16  17
ATOM     17  C   UNL     1      45.757 -48.732 162.560  1.00  0.00     0.000 C 
BRANCH  17  18
ATOM     18  C   UNL     1      44.499 -47.998 162.062  1.00  0.00    -0.000 C 
BRANCH  18  19
ATOM     19  C   UNL     1      44.330 -46.609 162.699  1.00  0.00    -0.000 C 
BRANCH  19  20
ATOM     20  C   UNL     1      45.629 -46.085 163.336  1.00  0.00    -0.000 C 
BRANCH  20  21
ATOM     21  C   UNL     1      45.554 -45.837 164.856  1.00  0.00    -0.000 C 
BRANCH  21  22
ATOM     22  C   UNL     1      46.902 -45.897 165.598  1.00  0.00    -0.000 C 
BRANCH  22  23
ATOM     23  C   UNL     1      47.987 -46.644 164.809  1.00  0.00    -0.000 C 
BRANCH  23  24
ATOM     24  C   UNL     1      49.233 -45.765 164.625  1.00  0.00    -0.000 C 
BRANCH  24  25
ATOM     25  C   UNL     1      50.536 -46.517 164.937  1.00  0.00    -0.003 C 
ATOM     26  C   UNL     1      50.289 -47.903 165.536  1.00  0.00     0.004 C 
ENDBRANCH  24  25
ENDBRANCH  23  24
ENDBRANCH  22  23
ENDBRANCH  21  22
ENDBRANCH  20  21
ENDBRANCH  19  20
ENDBRANCH  18  19
ENDBRANCH  17  18
ENDBRANCH  16  17
ENDBRANCH  15  16
ENDBRANCH   1  15
TORSDOF 22
ENDMDL
MODEL 2
REMARK VINA RESULT:    -6.098      5.582     10.993
REMARK INTER + INTRA:         -16.219
REMARK INTER:                 -13.171
REMARK INTRA:                  -3.048
REMARK UNBOUND:                -2.278
REMARK SMILES CCCCCCCCCCCCCCCCCCCCCCCC(=O)[O-]
REMARK SMILES IDX 13 1 14 2 15 3 16 4 17 5 18 6 19 7 20 8 21 9 22 10 23 11
REMARK SMILES IDX 24 12 25 13 26 14 12 15 11 16 10 17 9 18 8 19 7 20 6 21 5 22
REMARK SMILES IDX 4 23 3 24 2 25 1 26
REMARK H PARENT
REMARK Flexibility Score: inf
ROOT
ATOM      1  C   UNL     1      44.509 -46.398 162.770  1.00  0.00     0.000 C 
ENDROOT
BRANCH   1   2
ATOM      2  C   UNL     1      45.874 -45.993 163.363  1.00  0.00     0.000 C 
BRANCH   2   3
ATOM      3  C   UNL     1      45.893 -45.831 164.893  1.00  0.00     0.000 C 
BRANCH   3   4
ATOM      4  C   UNL     1      47.292 -46.042 165.496  1.00  0.00     0.000 C 
BRANCH   4   5
ATOM      5  C   UNL     1      48.372 -46.268 164.425  1.00  0.00     0.000 C 
BRANCH   5   6
ATOM      6  C   UNL     1      49.676 -46.906 164.946  1.00  0.00     0.000 C 
BRANCH   6   7
ATOM      7  C   UNL     1      50.903 -45.971 164.962  1.00  0.00     0.000 C 
BRANCH   7   8
ATOM      8  C   UNL     1      51.913 -46.236 166.093  1.00  0.00     0.000 C 
BRANCH   8   9
ATOM      9  C   UNL     1      53.365 -46.304 165.590  1.00  0.00     0.000 C 
BRANCH   9  10
ATOM     10  C   UNL     1      53.972 -47.715 165.714  1.00  0.00     0.006 C 
BRANCH  10  11
ATOM     11  C   UNL     1      53.097 -48.720 166.481  1.00  0.00     0.053 C 
BRANCH  11  12
ATOM     12  C   UNL     1      53.869 -49.445 167.540  1.00  0.00     0.041 C 
ATOM     13  O   UNL     1      54.595 -48.805 168.346  1.00  0.00    -0.550 OA
ATOM     14  O   UNL     1      53.751 -50.823 167.666  1.00  0.00    -0.550 OA
ENDBRANCH  11  12
ENDBRANCH  10  11
ENDBRANCH   9  10
ENDBRANCH   8   9
ENDBRANCH   7   8
ENDBRANCH   6   7
ENDBRANCH   5   6
ENDBRANCH   4   5
ENDBRANCH   3   4
ENDBRANCH   2   3
ENDBRANCH   1   2
BRANCH   1  15
ATOM     15  C   UNL     1      44.582 -47.291 161.516  1.00  0.00     0.000 C 
BRANCH  15  16
ATOM     16  C   UNL     1      43.251 -47.962 161.117  1.00  0.00     0.000 C 
BRANCH  16  17
ATOM     17  C   UNL     1      41.993 -47.350 161.765  1.00  0.00     0.000 C 
BRANCH  17  18
ATOM     18  C   UNL     1      40.770 -48.285 161.810  1.00  0.00    -0.000 C 
BRANCH  18  19
ATOM     19  C   UNL     1      40.353 -48.648 163.245  1.00  0.00    -0.000 C 
BRANCH  19  20
ATOM     20  C   UNL     1      41.499 -49.277 164.056  1.00  0.00    -0.000 C 
BRANCH  20  21
ATOM     21  C   UNL     1      42.125 -48.356 165.123  1.00  0.00    -0.000 C 
BRANCH  21  22
ATOM     22  C   UNL     1      43.607 -48.629 165.438  1.00  0.00    -0.000 C 
BRANCH  22  23
ATOM     23  C   UNL     1      44.274 -49.561 164.416  1.00  0.00    -0.000 C 
BRANCH  23  24
ATOM     24  C   UNL     1      45.802 -49.407 164.451  1.00  0.00    -0.000 C 
BRANCH  24  25
ATOM     25  C   UNL     1      46.444 -49.594 163.068  1.00  0.00    -0.003 C 
ATOM     26  C   UNL     1      47.972 -49.617 163.125  1.00  0.00     0.004 C 
ENDBRANCH  24  25
ENDBRANCH  23  24
ENDBRANCH  22  23
ENDBRANCH  21  22
ENDBRANCH  20  21
ENDBRANCH  19  20
ENDBRANCH  18  19
ENDBRANCH  17  18
ENDBRANCH  16  17
ENDBRANCH  15  16
ENDBRANCH   1  15
TORSDOF 22
ENDMDL
MODEL 3
REMARK VINA RESULT:    -6.039      1.269      2.338
REMARK INTER + INTRA:         -16.083
REMARK INTER:                 -14.486
REMARK INTRA:                  -1.598
REMARK UNBOUND:                -2.278
REMARK SMILES CCCCCCCCCCCCCCCCCCCCCCCC(=O)[O-]
REMARK SMILES IDX 13 1 14 2 15 3 16 4 17 5 18 6 19 7 20 8 21 9 22 10 23 11
REMARK SMILES IDX 24 12 25 13 26 14 12 15 11 16 10 17 9 18 8 19 7 20 6 21 5 22
REMARK SMILES IDX 4 23 3 24 2 25 1 26
REMARK H PARENT
REMARK Flexibility Score: inf
ROOT
ATOM      1  C   UNL     1      41.485 -48.668 163.543  1.00  0.00     0.000 C 
ENDROOT
BRANCH   1   2
ATOM      2  C   UNL     1      40.446 -49.793 163.362  1.00  0.00     0.000 C 
BRANCH   2   3
ATOM      3  C   UNL     1      39.123 -49.353 162.710  1.00  0.00     0.000 C 
BRANCH   3   4
ATOM      4  C   UNL     1      39.265 -48.058 161.893  1.00  0.00     0.000 C 
BRANCH   4   5
ATOM      5  C   UNL     1      38.081 -47.827 160.937  1.00  0.00     0.000 C 
BRANCH   5   6
ATOM      6  C   UNL     1      36.798 -48.603 161.295  1.00  0.00     0.000 C 
BRANCH   6   7
ATOM      7  C   UNL     1      35.986 -49.122 160.091  1.00  0.00     0.000 C 
BRANCH   7   8
ATOM      8  C   UNL     1      34.929 -50.189 160.425  1.00  0.00     0.000 C 
BRANCH   8   9
ATOM      9  C   UNL     1      35.440 -51.623 160.207  1.00  0.00     0.000 C 
BRANCH   9  10
ATOM     10  C   UNL     1      35.215 -52.528 161.433  1.00  0.00     0.006 C 
BRANCH  10  11
ATOM     11  C   UNL     1      36.040 -52.140 162.672  1.00  0.00     0.053 C 
BRANCH  11  12
ATOM     12  C   UNL     1      36.101 -53.248 163.678  1.00  0.00     0.041 C 
ATOM     13  O   UNL     1      35.362 -54.260 163.552  1.00  0.00    -0.550 OA
ATOM     14  O   UNL     1      37.005 -53.182 164.731  1.00  0.00    -0.550 OA
ENDBRANCH  11  12
ENDBRANCH  10  11
ENDBRANCH   9  10
ENDBRANCH   8   9
ENDBRANCH   7   8
ENDBRANCH   6   7
ENDBRANCH   5   6
ENDBRANCH   4   5
ENDBRANCH   3   4
ENDBRANCH   2   3
ENDBRANCH   1   2
BRANCH   1  15
ATOM     15  C   UNL     1      41.911 -48.401 165.001  1.00  0.00     0.000 C 
BRANCH  15  16
ATOM     16  C   UNL     1      43.433 -48.390 165.242  1.00  0.00     0.000 C 
BRANCH  16  17
ATOM     17  C   UNL     1      44.229 -49.440 164.440  1.00  0.00     0.000 C 
BRANCH  17  18
ATOM     18  C   UNL     1      45.658 -49.015 164.059  1.00  0.00    -0.000 C 
BRANCH  18  19
ATOM     19  C   UNL     1      45.688 -47.993 162.910  1.00  0.00    -0.000 C 
BRANCH  19  20
ATOM     20  C   UNL     1      46.019 -46.569 163.390  1.00  0.00    -0.000 C 
BRANCH  20  21
ATOM     21  C   UNL     1      46.672 -46.487 164.785  1.00  0.00    -0.000 C 
BRANCH  21  22
ATOM     22  C   UNL     1      48.118 -45.960 164.802  1.00  0.00    -0.000 C 
BRANCH  22  23
ATOM     23  C   UNL     1      49.151 -47.056 165.100  1.00  0.00    -0.000 C 
BRANCH  23  24
ATOM     24  C   UNL     1      50.573 -46.475 165.124  1.00  0.00    -0.000 C 
BRANCH  24  25
ATOM     25  C   UNL     1      51.631 -47.523 165.504  1.00  0.00    -0.003 C 
ATOM     26  C   UNL     1      53.006 -46.907 165.765  1.00  0.00     0.004 C 
ENDBRANCH  24  25
ENDBRANCH  23  24
ENDBRANCH  22  23
ENDBRANCH  21  22
ENDBRANCH  20  21
ENDBRANCH  19  20
ENDBRANCH  18  19
ENDBRANCH  17  18
ENDBRANCH  16  17
ENDBRANCH  15  16
ENDBRANCH   1  15
TORSDOF 22
ENDMDL
MODEL 4
REMARK VINA RESULT:    -6.026      5.565     12.497
REMARK INTER + INTRA:         -16.054
REMARK INTER:                 -14.336
REMARK INTRA:                  -1.718
REMARK UNBOUND:                -2.278
REMARK SMILES CCCCCCCCCCCCCCCCCCCCCCCC(=O)[O-]
REMARK SMILES IDX 13 1 14 2 15 3 16 4 17 5 18 6 19 7 20 8 21 9 22 10 23 11
REMARK SMILES IDX 24 12 25 13 26 14 12 15 11 16 10 17 9 18 8 19 7 20 6 21 5 22
REMARK SMILES IDX 4 23 3 24 2 25 1 26
REMARK H PARENT
REMARK Flexibility Score: inf
ROOT
ATOM      1  C   UNL     1      45.742 -46.109 163.511  1.00  0.00     0.000 C 
ENDROOT
BRANCH   1   2
ATOM      2  C   UNL     1      45.938 -46.081 165.041  1.00  0.00     0.000 C 
BRANCH   2   3
ATOM      3  C   UNL     1      47.405 -46.060 165.506  1.00  0.00     0.000 C 
BRANCH   3   4
ATOM      4  C   UNL     1      48.395 -45.887 164.342  1.00  0.00     0.000 C 
BRANCH   4   5
ATOM      5  C   UNL     1      49.860 -46.055 164.780  1.00  0.00     0.000 C 
BRANCH   5   6
ATOM      6  C   UNL     1      50.253 -47.488 165.189  1.00  0.00     0.000 C 
BRANCH   6   7
ATOM      7  C   UNL     1      51.703 -47.655 165.688  1.00  0.00     0.000 C 
BRANCH   7   8
ATOM      8  C   UNL     1      52.359 -46.373 166.232  1.00  0.00     0.000 C 
BRANCH   8   9
ATOM      9  C   UNL     1      53.734 -46.094 165.602  1.00  0.00     0.000 C 
BRANCH   9  10
ATOM     10  C   UNL     1      54.251 -44.675 165.903  1.00  0.00     0.006 C 
BRANCH  10  11
ATOM     11  C   UNL     1      54.193 -43.709 164.709  1.00  0.00     0.053 C 
BRANCH  11  12
ATOM     12  C   UNL     1      53.565 -42.399 165.074  1.00  0.00     0.041 C 
ATOM     13  O   UNL     1      52.743 -41.851 164.293  1.00  0.00    -0.550 OA
ATOM     14  O   UNL     1      53.855 -41.805 166.296  1.00  0.00    -0.550 OA
ENDBRANCH  11  12
ENDBRANCH  10  11
ENDBRANCH   9  10
ENDBRANCH   8   9
ENDBRANCH   7   8
ENDBRANCH   6   7
ENDBRANCH   5   6
ENDBRANCH   4   5
ENDBRANCH   3   4
ENDBRANCH   2   3
ENDBRANCH   1   2
BRANCH   1  15
ATOM     15  C   UNL     1      45.118 -47.405 162.957  1.00  0.00     0.000 C 
BRANCH  15  16
ATOM     16  C   UNL     1      45.489 -48.687 163.729  1.00  0.00     0.000 C 
BRANCH  16  17
ATOM     17  C   UNL     1      44.295 -49.456 164.329  1.00  0.00     0.000 C 
BRANCH  17  18
ATOM     18  C   UNL     1      43.513 -48.693 165.414  1.00  0.00    -0.000 C 
BRANCH  18  19
ATOM     19  C   UNL     1      42.056 -48.413 165.010  1.00  0.00    -0.000 C 
BRANCH  19  20
ATOM     20  C   UNL     1      41.923 -47.939 163.552  1.00  0.00    -0.000 C 
BRANCH  20  21
ATOM     21  C   UNL     1      40.812 -48.634 162.741  1.00  0.00    -0.000 C 
BRANCH  21  22
ATOM     22  C   UNL     1      40.334 -49.985 163.305  1.00  0.00    -0.000 C 
BRANCH  22  23
ATOM     23  C   UNL     1      38.883 -50.313 162.925  1.00  0.00    -0.000 C 
BRANCH  23  24
ATOM     24  C   UNL     1      38.060 -49.029 162.745  1.00  0.00    -0.000 C 
BRANCH  24  25
ATOM     25  C   UNL     1      37.291 -49.003 161.416  1.00  0.00    -0.003 C 
ATOM     26  C   UNL     1      37.537 -47.724 160.615  1.00  0.00     0.004 C 
ENDBRANCH  24  25
ENDBRANCH  23  24
ENDBRANCH  22  23
ENDBRANCH  21  22
ENDBRANCH  20  21
ENDBRANCH  19  20
ENDBRANCH  18  19
ENDBRANCH  17  18
ENDBRANCH  16  17
ENDBRANCH  15  16
ENDBRANCH   1  15
TORSDOF 22
ENDMDL
MODEL 5
REMARK VINA RESULT:    -6.002      1.367      2.355
REMARK INTER + INTRA:         -15.999
REMARK INTER:                 -14.627
REMARK INTRA:                  -1.373
REMARK UNBOUND:                -2.278
REMARK SMILES CCCCCCCCCCCCCCCCCCCCCCCC(=O)[O-]
REMARK SMILES IDX 13 1 14 2 15 3 16 4 17 5 18 6 19 7 20 8 21 9 22 10 23 11
REMARK SMILES IDX 24 12 25 13 26 14 12 15 11 16 10 17 9 18 8 19 7 20 6 21 5 22
REMARK SMILES IDX 4 23 3 24 2 25 1 26
REMARK H PARENT
REMARK Flexibility Score: inf
ROOT
ATOM      1  C   UNL     1      43.070 -48.467 165.504  1.00  0.00     0.000 C 
ENDROOT
BRANCH   1   2
ATOM      2  C   UNL     1      41.631 -48.495 164.949  1.00  0.00     0.000 C 
BRANCH   2   3
ATOM      3  C   UNL     1      41.529 -48.671 163.424  1.00  0.00     0.000 C 
BRANCH   3   4
ATOM      4  C   UNL     1      40.076 -48.777 162.933  1.00  0.00     0.000 C 
BRANCH   4   5
ATOM      5  C   UNL     1      39.756 -47.781 161.805  1.00  0.00     0.000 C 
BRANCH   5   6
ATOM      6  C   UNL     1      38.403 -48.012 161.102  1.00  0.00     0.000 C 
BRANCH   6   7
ATOM      7  C   UNL     1      37.444 -48.980 161.825  1.00  0.00     0.000 C 
BRANCH   7   8
ATOM      8  C   UNL     1      35.981 -48.927 161.352  1.00  0.00     0.000 C 
BRANCH   8   9
ATOM      9  C   UNL     1      35.181 -50.180 161.748  1.00  0.00     0.000 C 
BRANCH   9  10
ATOM     10  C   UNL     1      35.988 -51.145 162.637  1.00  0.00     0.006 C 
BRANCH  10  11
ATOM     11  C   UNL     1      35.636 -52.630 162.448  1.00  0.00     0.053 C 
BRANCH  11  12
ATOM     12  C   UNL     1      36.075 -53.465 163.610  1.00  0.00     0.041 C 
ATOM     13  O   UNL     1      36.805 -52.969 164.508  1.00  0.00    -0.550 OA
ATOM     14  O   UNL     1      35.644 -54.781 163.723  1.00  0.00    -0.550 OA
ENDBRANCH  11  12
ENDBRANCH  10  11
ENDBRANCH   9  10
ENDBRANCH   8   9
ENDBRANCH   7   8
ENDBRANCH   6   7
ENDBRANCH   5   6
ENDBRANCH   4   5
ENDBRANCH   3   4
ENDBRANCH   2   3
ENDBRANCH   1   2
BRANCH   1  15
ATOM     15  C   UNL     1      44.093 -49.303 164.708  1.00  0.00     0.000 C 
BRANCH  15  16
ATOM     16  C   UNL     1      45.394 -48.561 164.342  1.00  0.00     0.000 C 
BRANCH  16  17
ATOM     17  C   UNL     1      45.208 -47.317 163.450  1.00  0.00     0.000 C 
BRANCH  17  18
ATOM     18  C   UNL     1      45.342 -45.970 164.183  1.00  0.00    -0.000 C 
BRANCH  18  19
ATOM     19  C   UNL     1      46.104 -46.091 165.513  1.00  0.00    -0.000 C 
BRANCH  19  20
ATOM     20  C   UNL     1      47.591 -45.716 165.382  1.00  0.00    -0.000 C 
BRANCH  20  21
ATOM     21  C   UNL     1      48.473 -46.780 164.698  1.00  0.00    -0.000 C 
BRANCH  21  22
ATOM     22  C   UNL     1      49.991 -46.570 164.850  1.00  0.00    -0.000 C 
BRANCH  22  23
ATOM     23  C   UNL     1      50.696 -47.761 165.515  1.00  0.00    -0.000 C 
BRANCH  23  24
ATOM     24  C   UNL     1      52.212 -47.524 165.595  1.00  0.00    -0.000 C 
BRANCH  24  25
ATOM     25  C   UNL     1      52.564 -46.169 166.227  1.00  0.00    -0.003 C 
ATOM     26  C   UNL     1      54.016 -45.761 165.979  1.00  0.00     0.004 C 
ENDBRANCH  24  25
ENDBRANCH  23  24
ENDBRANCH  22  23
ENDBRANCH  21  22
ENDBRANCH  20  21
ENDBRANCH  19  20
ENDBRANCH  18  19
ENDBRANCH  17  18
ENDBRANCH  16  17
ENDBRANCH  15  16
ENDBRANCH   1  15
TORSDOF 22
ENDMDL
MODEL 6
REMARK VINA RESULT:    -5.941      3.008      6.626
REMARK INTER + INTRA:         -15.860
REMARK INTER:                 -14.106
REMARK INTRA:                  -1.753
REMARK UNBOUND:                -2.278
REMARK SMILES CCCCCCCCCCCCCCCCCCCCCCCC(=O)[O-]
REMARK SMILES IDX 13 1 14 2 15 3 16 4 17 5 18 6 19 7 20 8 21 9 22 10 23 11
REMARK SMILES IDX 24 12 25 13 26 14 12 15 11 16 10 17 9 18 8 19 7 20 6 21 5 22
REMARK SMILES IDX 4 23 3 24 2 25 1 26
REMARK H PARENT
REMARK Flexibility Score: inf
ROOT
ATOM      1  C   UNL     1      48.824 -47.027 165.124  1.00  0.00     0.000 C 
ENDROOT
BRANCH   1   2
ATOM      2  C   UNL     1      47.497 -46.243 165.191  1.00  0.00     0.000 C 
BRANCH   2   3
ATOM      3  C   UNL     1      46.461 -46.633 164.122  1.00  0.00     0.000 C 
BRANCH   3   4
ATOM      4  C   UNL     1      46.346 -48.154 163.931  1.00  0.00     0.000 C 
BRANCH   4   5
ATOM      5  C   UNL     1      45.454 -48.538 162.738  1.00  0.00     0.000 C 
BRANCH   5   6
ATOM      6  C   UNL     1      44.325 -47.535 162.426  1.00  0.00     0.000 C 
BRANCH   6   7
ATOM      7  C   UNL     1      43.486 -47.861 161.173  1.00  0.00     0.000 C 
BRANCH   7   8
ATOM      8  C   UNL     1      41.998 -47.475 161.264  1.00  0.00     0.000 C 
BRANCH   8   9
ATOM      9  C   UNL     1      41.362 -47.868 162.608  1.00  0.00     0.000 C 
BRANCH   9  10
ATOM     10  C   UNL     1      39.937 -48.431 162.450  1.00  0.00     0.006 C 
BRANCH  10  11
ATOM     11  C   UNL     1      39.081 -47.714 161.393  1.00  0.00     0.053 C 
BRANCH  11  12
ATOM     12  C   UNL     1      37.688 -48.259 161.331  1.00  0.00     0.041 C 
ATOM     13  O   UNL     1      37.021 -48.175 160.266  1.00  0.00    -0.550 OA
ATOM     14  O   UNL     1      37.142 -48.900 162.436  1.00  0.00    -0.550 OA
ENDBRANCH  11  12
ENDBRANCH  10  11
ENDBRANCH   9  10
ENDBRANCH   8   9
ENDBRANCH   7   8
ENDBRANCH   6   7
ENDBRANCH   5   6
ENDBRANCH   4   5
ENDBRANCH   3   4
ENDBRANCH   2   3
ENDBRANCH   1   2
BRANCH   1  15
ATOM     15  C   UNL     1      50.046 -46.203 164.673  1.00  0.00     0.000 C 
BRANCH  15  16
ATOM     16  C   UNL     1      51.306 -46.379 165.545  1.00  0.00     0.000 C 
BRANCH  16  17
ATOM     17  C   UNL     1      51.828 -47.826 165.653  1.00  0.00     0.000 C 
BRANCH  17  18
ATOM     18  C   UNL     1      53.358 -47.970 165.556  1.00  0.00    -0.000 C 
BRANCH  18  19
ATOM     19  C   UNL     1      53.937 -48.896 166.639  1.00  0.00    -0.000 C 
BRANCH  19  20
ATOM     20  C   UNL     1      54.307 -48.143 167.929  1.00  0.00    -0.000 C 
BRANCH  20  21
ATOM     21  C   UNL     1      54.987 -46.776 167.713  1.00  0.00    -0.000 C 
BRANCH  21  22
ATOM     22  C   UNL     1      54.246 -45.571 168.319  1.00  0.00    -0.000 C 
BRANCH  22  23
ATOM     23  C   UNL     1      54.437 -44.281 167.509  1.00  0.00    -0.000 C 
BRANCH  23  24
ATOM     24  C   UNL     1      54.803 -44.599 166.052  1.00  0.00    -0.000 C 
BRANCH  24  25
ATOM     25  C   UNL     1      53.804 -44.001 165.050  1.00  0.00    -0.003 C 
ATOM     26  C   UNL     1      53.741 -42.474 165.119  1.00  0.00     0.004 C 
ENDBRANCH  24  25
ENDBRANCH  23  24
ENDBRANCH  22  23
ENDBRANCH  21  22
ENDBRANCH  20  21
ENDBRANCH  19  20
ENDBRANCH  18  19
ENDBRANCH  17  18
ENDBRANCH  16  17
ENDBRANCH  15  16
ENDBRANCH   1  15
TORSDOF 22
ENDMDL
MODEL 7
REMARK VINA RESULT:    -5.932      2.882      5.723
REMARK INTER + INTRA:         -15.838
REMARK INTER:                 -14.068
REMARK INTRA:                  -1.771
REMARK UNBOUND:                -2.278
REMARK SMILES CCCCCCCCCCCCCCCCCCCCCCCC(=O)[O-]
REMARK SMILES IDX 13 1 14 2 15 3 16 4 17 5 18 6 19 7 20 8 21 9 22 10 23 11
REMARK SMILES IDX 24 12 25 13 26 14 12 15 11 16 10 17 9 18 8 19 7 20 6 21 5 22
REMARK SMILES IDX 4 23 3 24 2 25 1 26
REMARK H PARENT
REMARK Flexibility Score: inf
ROOT
ATOM      1  C   UNL     1      46.665 -46.455 164.902  1.00  0.00     0.000 C 
ENDROOT
BRANCH   1   2
ATOM      2  C   UNL     1      46.652 -47.894 164.346  1.00  0.00     0.000 C 
BRANCH   2   3
ATOM      3  C   UNL     1      45.268 -48.566 164.321  1.00  0.00     0.000 C 
BRANCH   3   4
ATOM      4  C   UNL     1      44.141 -47.622 164.771  1.00  0.00     0.000 C 
BRANCH   4   5
ATOM      5  C   UNL     1      42.798 -48.349 164.961  1.00  0.00     0.000 C 
BRANCH   5   6
ATOM      6  C   UNL     1      42.250 -49.038 163.695  1.00  0.00     0.000 C 
BRANCH   6   7
ATOM      7  C   UNL     1      40.864 -48.548 163.229  1.00  0.00     0.000 C 
BRANCH   7   8
ATOM      8  C   UNL     1      40.886 -47.397 162.207  1.00  0.00     0.000 C 
BRANCH   8   9
ATOM      9  C   UNL     1      39.561 -47.257 161.439  1.00  0.00     0.000 C 
BRANCH   9  10
ATOM     10  C   UNL     1      38.541 -48.351 161.807  1.00  0.00     0.006 C 
BRANCH  10  11
ATOM     11  C   UNL     1      37.536 -48.686 160.693  1.00  0.00     0.053 C 
BRANCH  11  12
ATOM     12  C   UNL     1      36.443 -47.667 160.595  1.00  0.00     0.041 C 
ATOM     13  O   UNL     1      36.513 -46.742 159.743  1.00  0.00    -0.550 OA
ATOM     14  O   UNL     1      35.326 -47.764 161.415  1.00  0.00    -0.550 OA
ENDBRANCH  11  12
ENDBRANCH  10  11
ENDBRANCH   9  10
ENDBRANCH   8   9
ENDBRANCH   7   8
ENDBRANCH   6   7
ENDBRANCH   5   6
ENDBRANCH   4   5
ENDBRANCH   3   4
ENDBRANCH   2   3
ENDBRANCH   1   2
BRANCH   1  15
ATOM     15  C   UNL     1      48.059 -45.909 165.270  1.00  0.00     0.000 C 
BRANCH  15  16
ATOM     16  C   UNL     1      49.226 -46.510 164.460  1.00  0.00     0.000 C 
BRANCH  16  17
ATOM     17  C   UNL     1      50.600 -45.858 164.713  1.00  0.00     0.000 C 
BRANCH  17  18
ATOM     18  C   UNL     1      51.413 -46.486 165.859  1.00  0.00    -0.000 C 
BRANCH  18  19
ATOM     19  C   UNL     1      51.964 -47.877 165.504  1.00  0.00    -0.000 C 
BRANCH  19  20
ATOM     20  C   UNL     1      53.482 -47.992 165.732  1.00  0.00    -0.000 C 
BRANCH  20  21
ATOM     21  C   UNL     1      53.928 -47.890 167.205  1.00  0.00    -0.000 C 
BRANCH  21  22
ATOM     22  C   UNL     1      54.931 -46.762 167.510  1.00  0.00    -0.000 C 
BRANCH  22  23
ATOM     23  C   UNL     1      54.305 -45.599 168.292  1.00  0.00    -0.000 C 
BRANCH  23  24
ATOM     24  C   UNL     1      54.403 -44.289 167.496  1.00  0.00    -0.000 C 
BRANCH  24  25
ATOM     25  C   UNL     1      54.788 -44.519 166.027  1.00  0.00    -0.003 C 
ATOM     26  C   UNL     1      53.864 -43.787 165.053  1.00  0.00     0.004 C 
ENDBRANCH  24  25
ENDBRANCH  23  24
ENDBRANCH  22  23
ENDBRANCH  21  22
ENDBRANCH  20  21
ENDBRANCH  19  20
ENDBRANCH  18  19
ENDBRANCH  17  18
ENDBRANCH  16  17
ENDBRANCH  15  16
ENDBRANCH   1  15
TORSDOF 22
ENDMDL
MODEL 8
REMARK VINA RESULT:    -5.930      2.408      4.547
REMARK INTER + INTRA:         -15.834
REMARK INTER:                 -14.406
REMARK INTRA:                  -1.428
REMARK UNBOUND:                -2.278
REMARK SMILES CCCCCCCCCCCCCCCCCCCCCCCC(=O)[O-]
REMARK SMILES IDX 13 1 14 2 15 3 16 4 17 5 18 6 19 7 20 8 21 9 22 10 23 11
REMARK SMILES IDX 24 12 25 13 26 14 12 15 11 16 10 17 9 18 8 19 7 20 6 21 5 22
REMARK SMILES IDX 4 23 3 24 2 25 1 26
REMARK H PARENT
REMARK Flexibility Score: inf
ROOT
ATOM      1  C   UNL     1      46.072 -46.745 164.221  1.00  0.00     0.000 C 
ENDROOT
BRANCH   1   2
ATOM      2  C   UNL     1      45.052 -46.545 163.081  1.00  0.00     0.000 C 
BRANCH   2   3
ATOM      3  C   UNL     1      44.945 -47.721 162.095  1.00  0.00     0.000 C 
BRANCH   3   4
ATOM      4  C   UNL     1      43.505 -47.964 161.614  1.00  0.00     0.000 C 
BRANCH   4   5
ATOM      5  C   UNL     1      42.484 -47.949 162.764  1.00  0.00     0.000 C 
BRANCH   5   6
ATOM      6  C   UNL     1      41.010 -48.054 162.323  1.00  0.00     0.000 C 
BRANCH   6   7
ATOM      7  C   UNL     1      40.411 -46.768 161.720  1.00  0.00     0.000 C 
BRANCH   7   8
ATOM      8  C   UNL     1      38.931 -46.864 161.308  1.00  0.00     0.000 C 
BRANCH   8   9
ATOM      9  C   UNL     1      38.493 -48.305 160.995  1.00  0.00     0.000 C 
BRANCH   9  10
ATOM     10  C   UNL     1      36.979 -48.520 161.178  1.00  0.00     0.006 C 
BRANCH  10  11
ATOM     11  C   UNL     1      36.590 -49.222 162.490  1.00  0.00     0.053 C 
BRANCH  11  12
ATOM     12  C   UNL     1      36.118 -50.624 162.260  1.00  0.00     0.041 C 
ATOM     13  O   UNL     1      36.503 -51.555 163.016  1.00  0.00    -0.550 OA
ATOM     14  O   UNL     1      35.219 -50.897 161.237  1.00  0.00    -0.550 OA
ENDBRANCH  11  12
ENDBRANCH  10  11
ENDBRANCH   9  10
ENDBRANCH   8   9
ENDBRANCH   7   8
ENDBRANCH   6   7
ENDBRANCH   5   6
ENDBRANCH   4   5
ENDBRANCH   3   4
ENDBRANCH   2   3
ENDBRANCH   1   2
BRANCH   1  15
ATOM     15  C   UNL     1      46.597 -48.186 164.381  1.00  0.00     0.000 C 
BRANCH  15  16
ATOM     16  C   UNL     1      48.070 -48.390 163.971  1.00  0.00     0.000 C 
BRANCH  16  17
ATOM     17  C   UNL     1      49.108 -47.862 164.982  1.00  0.00     0.000 C 
BRANCH  17  18
ATOM     18  C   UNL     1      49.601 -46.429 164.712  1.00  0.00    -0.000 C 
BRANCH  18  19
ATOM     19  C   UNL     1      50.925 -46.111 165.427  1.00  0.00    -0.000 C 
BRANCH  19  20
ATOM     20  C   UNL     1      51.837 -47.344 165.563  1.00  0.00    -0.000 C 
BRANCH  20  21
ATOM     21  C   UNL     1      53.306 -47.031 165.911  1.00  0.00    -0.000 C 
BRANCH  21  22
ATOM     22  C   UNL     1      53.514 -45.860 166.889  1.00  0.00    -0.000 C 
BRANCH  22  23
ATOM     23  C   UNL     1      54.497 -44.805 166.361  1.00  0.00    -0.000 C 
BRANCH  23  24
ATOM     24  C   UNL     1      54.160 -44.420 164.912  1.00  0.00    -0.000 C 
BRANCH  24  25
ATOM     25  C   UNL     1      53.365 -43.108 164.821  1.00  0.00    -0.003 C 
ATOM     26  C   UNL     1      54.204 -41.946 164.289  1.00  0.00     0.004 C 
ENDBRANCH  24  25
ENDBRANCH  23  24
ENDBRANCH  22  23
ENDBRANCH  21  22
ENDBRANCH  20  21
ENDBRANCH  19  20
ENDBRANCH  18  19
ENDBRANCH  17  18
ENDBRANCH  16  17
ENDBRANCH  15  16
ENDBRANCH   1  15
TORSDOF 22
ENDMDL
MODEL 9
REMARK VINA RESULT:    -5.923      5.208     12.621
REMARK INTER + INTRA:         -15.818
REMARK INTER:                 -14.213
REMARK INTRA:                  -1.605
REMARK UNBOUND:                -2.278
REMARK SMILES CCCCCCCCCCCCCCCCCCCCCCCC(=O)[O-]
REMARK SMILES IDX 13 1 14 2 15 3 16 4 17 5 18 6 19 7 20 8 21 9 22 10 23 11
REMARK SMILES IDX 24 12 25 13 26 14 12 15 11 16 10 17 9 18 8 19 7 20 6 21 5 22
REMARK SMILES IDX 4 23 3 24 2 25 1 26
REMARK H PARENT
REMARK Flexibility Score: inf
ROOT
ATOM      1  C   UNL     1      44.796 -47.221 162.606  1.00  0.00     0.000 C 
ENDROOT
BRANCH   1   2
ATOM      2  C   UNL     1      44.625 -46.408 163.906  1.00  0.00     0.000 C 
BRANCH   2   3
ATOM      3  C   UNL     1      45.886 -46.321 164.785  1.00  0.00     0.000 C 
BRANCH   3   4
ATOM      4  C   UNL     1      46.966 -47.337 164.378  1.00  0.00     0.000 C 
BRANCH   4   5
ATOM      5  C   UNL     1      48.311 -47.087 165.082  1.00  0.00     0.000 C 
BRANCH   5   6
ATOM      6  C   UNL     1      49.344 -48.221 164.924  1.00  0.00     0.000 C 
BRANCH   6   7
ATOM      7  C   UNL     1      50.702 -47.973 165.612  1.00  0.00     0.000 C 
BRANCH   7   8
ATOM      8  C   UNL     1      51.354 -46.613 165.304  1.00  0.00     0.000 C 
BRANCH   8   9
ATOM      9  C   UNL     1      52.737 -46.454 165.958  1.00  0.00     0.000 C 
BRANCH   9  10
ATOM     10  C   UNL     1      53.688 -47.621 165.632  1.00  0.00     0.006 C 
BRANCH  10  11
ATOM     11  C   UNL     1      54.648 -47.997 166.772  1.00  0.00     0.053 C 
BRANCH  11  12
ATOM     12  C   UNL     1      54.107 -49.104 167.623  1.00  0.00     0.041 C 
ATOM     13  O   UNL     1      53.214 -49.870 167.174  1.00  0.00    -0.550 OA
ATOM     14  O   UNL     1      54.619 -49.317 168.897  1.00  0.00    -0.550 OA
ENDBRANCH  11  12
ENDBRANCH  10  11
ENDBRANCH   9  10
ENDBRANCH   8   9
ENDBRANCH   7   8
ENDBRANCH   6   7
ENDBRANCH   5   6
ENDBRANCH   4   5
ENDBRANCH   3   4
ENDBRANCH   2   3
ENDBRANCH   1   2
BRANCH   1  15
ATOM     15  C   UNL     1      43.520 -47.927 162.106  1.00  0.00     0.000 C 
BRANCH  15  16
ATOM     16  C   UNL     1      42.496 -48.275 163.205  1.00  0.00     0.000 C 
BRANCH  16  17
ATOM     17  C   UNL     1      41.019 -48.187 162.773  1.00  0.00     0.000 C 
BRANCH  17  18
ATOM     18  C   UNL     1      40.747 -47.236 161.592  1.00  0.00    -0.000 C 
BRANCH  18  19
ATOM     19  C   UNL     1      39.246 -46.990 161.362  1.00  0.00    -0.000 C 
BRANCH  19  20
ATOM     20  C   UNL     1      38.485 -48.272 160.982  1.00  0.00    -0.000 C 
BRANCH  20  21
ATOM     21  C   UNL     1      37.466 -48.760 162.032  1.00  0.00    -0.000 C 
BRANCH  21  22
ATOM     22  C   UNL     1      36.008 -48.836 161.546  1.00  0.00    -0.000 C 
BRANCH  22  23
ATOM     23  C   UNL     1      35.891 -48.977 160.022  1.00  0.00    -0.000 C 
BRANCH  23  24
ATOM     24  C   UNL     1      34.976 -47.890 159.439  1.00  0.00    -0.000 C 
BRANCH  24  25
ATOM     25  C   UNL     1      35.093 -46.556 160.192  1.00  0.00    -0.003 C 
ATOM     26  C   UNL     1      36.175 -45.644 159.613  1.00  0.00     0.004 C 
ENDBRANCH  24  25
ENDBRANCH  23  24
ENDBRANCH  22  23
ENDBRANCH  21  22
ENDBRANCH  20  21
ENDBRANCH  19  20
ENDBRANCH  18  19
ENDBRANCH  17  18
ENDBRANCH  16  17
ENDBRANCH  15  16
ENDBRANCH   1  15
TORSDOF 22
ENDMDL
