MODEL 1
REMARK VINA RESULT:    -5.486      0.000      0.000
REMARK INTER + INTRA:          -6.180
REMARK INTER:                  -6.127
REMARK INTRA:                  -0.053
REMARK UNBOUND:                -0.053
REMARK SMILES COc1cc2ccc(=O)oc2c(O)c1O
REMARK SMILES IDX 3 1 14 2 12 3 11 4 5 5 4 6 6 7 7 8 8 9 9 10 10 11 2 12 1 13
REMARK SMILES IDX 15 14 13 16
REMARK H PARENT 15 15 13 17
REMARK Flexibility Score: inf
ROOT
ATOM      1  C   UNL     1       8.521  -6.103  -6.983  1.00  0.00     0.165 A 
ATOM      2  C   UNL     1       9.869  -5.765  -7.214  1.00  0.00     0.204 A 
ATOM      3  C   UNL     1      10.504  -6.162  -8.405  1.00  0.00     0.205 A 
ATOM      4  C   UNL     1       9.797  -6.896  -9.366  1.00  0.00     0.184 A 
ATOM      5  C   UNL     1       8.447  -7.235  -9.138  1.00  0.00     0.025 A 
ATOM      6  C   UNL     1       7.815  -6.840  -7.952  1.00  0.00     0.062 A 
ATOM      7  C   UNL     1       7.769  -7.968 -10.117  1.00  0.00     0.020 A 
ATOM      8  C   UNL     1       8.440  -8.340 -11.282  1.00  0.00     0.094 A 
ATOM      9  C   UNL     1       9.778  -7.967 -11.440  1.00  0.00     0.336 A 
ATOM     10  O   UNL     1      10.402  -8.293 -12.484  1.00  0.00    -0.246 OA
ATOM     11  O   UNL     1      10.399  -7.270 -10.492  1.00  0.00    -0.419 OA
ENDROOT
BRANCH   1  12
ATOM     12  O   UNL     1       7.918  -5.690  -5.783  1.00  0.00    -0.493 OA
ATOM     13  C   UNL     1       7.910  -6.449  -4.578  1.00  0.00     0.278 C 
ENDBRANCH   1  12
BRANCH   2  14
ATOM     14  O   UNL     1      10.589  -5.035  -6.268  1.00  0.00    -0.502 OA
ATOM     15  H   UNL     1      10.221  -4.198  -5.833  1.00  0.00     0.293 HD
ENDBRANCH   2  14
BRANCH   3  16
ATOM     16  O   UNL     1      11.839  -5.835  -8.648  1.00  0.00    -0.502 OA
ATOM     17  H   UNL     1      12.520  -5.753  -7.903  1.00  0.00     0.293 HD
ENDBRANCH   3  16
TORSDOF 3
ENDMDL
MODEL 2
REMARK VINA RESULT:    -5.341     15.152     16.608
REMARK INTER + INTRA:          -6.019
REMARK INTER:                  -5.968
REMARK INTRA:                  -0.050
REMARK UNBOUND:                -0.053
REMARK SMILES COc1cc2ccc(=O)oc2c(O)c1O
REMARK SMILES IDX 3 1 14 2 12 3 11 4 5 5 4 6 6 7 7 8 8 9 9 10 10 11 2 12 1 13
REMARK SMILES IDX 15 14 13 16
REMARK H PARENT 15 15 13 17
REMARK Flexibility Score: inf
ROOT
ATOM      1  C   UNL     1      19.494  -0.076 -17.125  1.00  0.00     0.165 A 
ATOM      2  C   UNL     1      20.647   0.732 -17.100  1.00  0.00     0.204 A 
ATOM      3  C   UNL     1      21.397   0.932 -18.273  1.00  0.00     0.205 A 
ATOM      4  C   UNL     1      20.998   0.329 -19.472  1.00  0.00     0.184 A 
ATOM      5  C   UNL     1      19.843  -0.480 -19.501  1.00  0.00     0.025 A 
ATOM      6  C   UNL     1      19.097  -0.680 -18.333  1.00  0.00     0.062 A 
ATOM      7  C   UNL     1      19.471  -1.069 -20.714  1.00  0.00     0.020 A 
ATOM      8  C   UNL     1      20.244  -0.841 -21.852  1.00  0.00     0.094 A 
ATOM      9  C   UNL     1      21.376  -0.027 -21.748  1.00  0.00     0.336 A 
ATOM     10  O   UNL     1      22.089   0.190 -22.763  1.00  0.00    -0.246 OA
ATOM     11  O   UNL     1      21.708   0.520 -20.582  1.00  0.00    -0.419 OA
ENDROOT
BRANCH   1  12
ATOM     12  O   UNL     1      18.769  -0.255 -15.935  1.00  0.00    -0.493 OA
ATOM     13  C   UNL     1      17.951  -1.385 -15.648  1.00  0.00     0.278 C 
ENDBRANCH   1  12
BRANCH   2  14
ATOM     14  O   UNL     1      21.061   1.341 -15.914  1.00  0.00    -0.502 OA
ATOM     15  H   UNL     1      21.848   1.001 -15.376  1.00  0.00     0.293 HD
ENDBRANCH   2  14
BRANCH   3  16
ATOM     16  O   UNL     1      22.543   1.730 -18.264  1.00  0.00    -0.502 OA
ATOM     17  H   UNL     1      22.809   2.285 -17.459  1.00  0.00     0.293 HD
ENDBRANCH   3  16
TORSDOF 3
ENDMDL
MODEL 3
REMARK VINA RESULT:    -5.075      2.549      2.942
REMARK INTER + INTRA:          -5.721
REMARK INTER:                  -5.683
REMARK INTRA:                  -0.038
REMARK UNBOUND:                -0.053
REMARK SMILES COc1cc2ccc(=O)oc2c(O)c1O
REMARK SMILES IDX 3 1 14 2 12 3 11 4 5 5 4 6 6 7 7 8 8 9 9 10 10 11 2 12 1 13
REMARK SMILES IDX 15 14 13 16
REMARK H PARENT 15 15 13 17
REMARK Flexibility Score: inf
ROOT
ATOM      1  C   UNL     1       8.091  -6.935  -7.444  1.00  0.00     0.165 A 
ATOM      2  C   UNL     1       7.687  -5.588  -7.349  1.00  0.00     0.204 A 
ATOM      3  C   UNL     1       7.516  -4.816  -8.512  1.00  0.00     0.205 A 
ATOM      4  C   UNL     1       7.748  -5.385  -9.771  1.00  0.00     0.184 A 
ATOM      5  C   UNL     1       8.152  -6.732  -9.870  1.00  0.00     0.025 A 
ATOM      6  C   UNL     1       8.321  -7.501  -8.712  1.00  0.00     0.062 A 
ATOM      7  C   UNL     1       8.375  -7.269 -11.143  1.00  0.00     0.020 A 
ATOM      8  C   UNL     1       8.193  -6.466 -12.267  1.00  0.00     0.094 A 
ATOM      9  C   UNL     1       7.791  -5.139 -12.093  1.00  0.00     0.336 A 
ATOM     10  O   UNL     1       7.622  -4.396 -13.095  1.00  0.00    -0.246 OA
ATOM     11  O   UNL     1       7.586  -4.652 -10.872  1.00  0.00    -0.419 OA
ENDROOT
BRANCH   1  12
ATOM     12  O   UNL     1       8.251  -7.677  -6.262  1.00  0.00    -0.493 OA
ATOM     13  C   UNL     1       7.205  -8.381  -5.600  1.00  0.00     0.278 C 
ENDBRANCH   1  12
BRANCH   2  14
ATOM     14  O   UNL     1       7.452  -5.005  -6.103  1.00  0.00    -0.502 OA
ATOM     15  H   UNL     1       7.847  -5.376  -5.247  1.00  0.00     0.293 HD
ENDBRANCH   2  14
BRANCH   3  16
ATOM     16  O   UNL     1       7.117  -3.481  -8.434  1.00  0.00    -0.502 OA
ATOM     17  H   UNL     1       7.424  -2.785  -9.103  1.00  0.00     0.293 HD
ENDBRANCH   3  16
TORSDOF 3
ENDMDL
MODEL 4
REMARK VINA RESULT:    -5.049     10.958     13.053
REMARK INTER + INTRA:          -5.692
REMARK INTER:                  -5.624
REMARK INTRA:                  -0.068
REMARK UNBOUND:                -0.053
REMARK SMILES COc1cc2ccc(=O)oc2c(O)c1O
REMARK SMILES IDX 3 1 14 2 12 3 11 4 5 5 4 6 6 7 7 8 8 9 9 10 10 11 2 12 1 13
REMARK SMILES IDX 15 14 13 16
REMARK H PARENT 15 15 13 17
REMARK Flexibility Score: inf
ROOT
ATOM      1  C   UNL     1      19.371  -2.353  -8.302  1.00  0.00     0.165 A 
ATOM      2  C   UNL     1      19.039  -2.710  -6.980  1.00  0.00     0.204 A 
ATOM      3  C   UNL     1      20.047  -3.076  -6.071  1.00  0.00     0.205 A 
ATOM      4  C   UNL     1      21.387  -3.087  -6.478  1.00  0.00     0.184 A 
ATOM      5  C   UNL     1      21.724  -2.730  -7.800  1.00  0.00     0.025 A 
ATOM      6  C   UNL     1      20.720  -2.365  -8.705  1.00  0.00     0.062 A 
ATOM      7  C   UNL     1      23.071  -2.752  -8.174  1.00  0.00     0.020 A 
ATOM      8  C   UNL     1      24.037  -3.121  -7.239  1.00  0.00     0.094 A 
ATOM      9  C   UNL     1      23.630  -3.462  -5.946  1.00  0.00     0.336 A 
ATOM     10  O   UNL     1      24.486  -3.800  -5.086  1.00  0.00    -0.246 OA
ATOM     11  O   UNL     1      22.341  -3.434  -5.616  1.00  0.00    -0.419 OA
ENDROOT
BRANCH   1  12
ATOM     12  O   UNL     1      18.338  -1.992  -9.184  1.00  0.00    -0.493 OA
ATOM     13  C   UNL     1      17.939  -0.653  -9.458  1.00  0.00     0.278 C 
ENDBRANCH   1  12
BRANCH   2  14
ATOM     14  O   UNL     1      17.709  -2.705  -6.558  1.00  0.00    -0.502 OA
ATOM     15  H   UNL     1      17.152  -1.859  -6.527  1.00  0.00     0.293 HD
ENDBRANCH   2  14
BRANCH   3  16
ATOM     16  O   UNL     1      19.734  -3.433  -4.758  1.00  0.00    -0.502 OA
ATOM     17  H   UNL     1      19.215  -2.819  -4.141  1.00  0.00     0.293 HD
ENDBRANCH   3  16
TORSDOF 3
ENDMDL
MODEL 5
REMARK VINA RESULT:    -5.012      2.191      5.031
REMARK INTER + INTRA:          -5.650
REMARK INTER:                  -5.600
REMARK INTRA:                  -0.051
REMARK UNBOUND:                -0.053
REMARK SMILES COc1cc2ccc(=O)oc2c(O)c1O
REMARK SMILES IDX 3 1 14 2 12 3 11 4 5 5 4 6 6 7 7 8 8 9 9 10 10 11 2 12 1 13
REMARK SMILES IDX 15 14 13 16
REMARK H PARENT 15 15 13 17
REMARK Flexibility Score: inf
ROOT
ATOM      1  C   UNL     1       8.134  -6.637 -10.592  1.00  0.00     0.165 A 
ATOM      2  C   UNL     1       7.846  -5.372 -10.043  1.00  0.00     0.204 A 
ATOM      3  C   UNL     1       7.681  -5.223  -8.654  1.00  0.00     0.205 A 
ATOM      4  C   UNL     1       7.804  -6.334  -7.811  1.00  0.00     0.184 A 
ATOM      5  C   UNL     1       8.093  -7.602  -8.356  1.00  0.00     0.025 A 
ATOM      6  C   UNL     1       8.256  -7.751  -9.739  1.00  0.00     0.062 A 
ATOM      7  C   UNL     1       8.209  -8.692  -7.487  1.00  0.00     0.020 A 
ATOM      8  C   UNL     1       8.038  -8.497  -6.117  1.00  0.00     0.094 A 
ATOM      9  C   UNL     1       7.754  -7.211  -5.647  1.00  0.00     0.336 A 
ATOM     10  O   UNL     1       7.595  -7.013  -4.414  1.00  0.00    -0.246 OA
ATOM     11  O   UNL     1       7.648  -6.192  -6.496  1.00  0.00    -0.419 OA
ENDROOT
BRANCH   1  12
ATOM     12  O   UNL     1       8.292  -6.750 -11.983  1.00  0.00    -0.493 OA
ATOM     13  C   UNL     1       9.090  -7.736 -12.630  1.00  0.00     0.278 C 
ENDBRANCH   1  12
BRANCH   2  14
ATOM     14  O   UNL     1       7.719  -4.254 -10.869  1.00  0.00    -0.502 OA
ATOM     15  H   UNL     1       7.106  -3.480 -10.644  1.00  0.00     0.293 HD
ENDBRANCH   2  14
BRANCH   3  16
ATOM     16  O   UNL     1       7.395  -3.976  -8.096  1.00  0.00    -0.502 OA
ATOM     17  H   UNL     1       7.763  -3.114  -8.481  1.00  0.00     0.293 HD
ENDBRANCH   3  16
TORSDOF 3
ENDMDL
MODEL 6
REMARK VINA RESULT:    -4.945     22.409     23.436
REMARK INTER + INTRA:          -5.576
REMARK INTER:                  -5.507
REMARK INTRA:                  -0.069
REMARK UNBOUND:                -0.053
REMARK SMILES COc1cc2ccc(=O)oc2c(O)c1O
REMARK SMILES IDX 3 1 14 2 12 3 11 4 5 5 4 6 6 7 7 8 8 9 9 10 10 11 2 12 1 13
REMARK SMILES IDX 15 14 13 16
REMARK H PARENT 15 15 13 17
REMARK Flexibility Score: inf
ROOT
ATOM      1  C   UNL     1      23.457   6.524 -20.952  1.00  0.00     0.165 A 
ATOM      2  C   UNL     1      22.908   7.820 -20.891  1.00  0.00     0.204 A 
ATOM      3  C   UNL     1      23.006   8.576 -19.709  1.00  0.00     0.205 A 
ATOM      4  C   UNL     1      23.650   8.041 -18.587  1.00  0.00     0.184 A 
ATOM      5  C   UNL     1      24.202   6.745 -18.644  1.00  0.00     0.025 A 
ATOM      6  C   UNL     1      24.104   5.992 -19.821  1.00  0.00     0.062 A 
ATOM      7  C   UNL     1      24.839   6.240 -17.505  1.00  0.00     0.020 A 
ATOM      8  C   UNL     1      24.912   7.025 -16.356  1.00  0.00     0.094 A 
ATOM      9  C   UNL     1      24.343   8.303 -16.372  1.00  0.00     0.336 A 
ATOM     10  O   UNL     1      24.397   9.028 -15.345  1.00  0.00    -0.246 OA
ATOM     11  O   UNL     1      23.742   8.758 -17.468  1.00  0.00    -0.419 OA
ENDROOT
BRANCH   1  12
ATOM     12  O   UNL     1      23.342   5.797 -22.148  1.00  0.00    -0.493 OA
ATOM     13  C   UNL     1      24.371   5.675 -23.125  1.00  0.00     0.278 C 
ENDBRANCH   1  12
BRANCH   2  14
ATOM     14  O   UNL     1      22.262   8.368 -22.000  1.00  0.00    -0.502 OA
ATOM     15  H   UNL     1      21.935   9.327 -22.019  1.00  0.00     0.293 HD
ENDBRANCH   2  14
BRANCH   3  16
ATOM     16  O   UNL     1      22.467   9.861 -19.634  1.00  0.00    -0.502 OA
ATOM     17  H   UNL     1      21.580  10.050 -19.182  1.00  0.00     0.293 HD
ENDBRANCH   3  16
TORSDOF 3
ENDMDL
MODEL 7
REMARK VINA RESULT:    -4.893      2.090      3.773
REMARK INTER + INTRA:          -5.518
REMARK INTER:                  -5.469
REMARK INTRA:                  -0.049
REMARK UNBOUND:                -0.053
REMARK SMILES COc1cc2ccc(=O)oc2c(O)c1O
REMARK SMILES IDX 3 1 14 2 12 3 11 4 5 5 4 6 6 7 7 8 8 9 9 10 10 11 2 12 1 13
REMARK SMILES IDX 15 14 13 16
REMARK H PARENT 15 15 13 17
REMARK Flexibility Score: inf
ROOT
ATOM      1  C   UNL     1      11.296  -6.195  -9.758  1.00  0.00     0.165 A 
ATOM      2  C   UNL     1      10.464  -6.266  -8.623  1.00  0.00     0.204 A 
ATOM      3  C   UNL     1       9.206  -6.891  -8.705  1.00  0.00     0.205 A 
ATOM      4  C   UNL     1       8.777  -7.445  -9.917  1.00  0.00     0.184 A 
ATOM      5  C   UNL     1       9.607  -7.377 -11.055  1.00  0.00     0.025 A 
ATOM      6  C   UNL     1      10.859  -6.755 -10.974  1.00  0.00     0.062 A 
ATOM      7  C   UNL     1       9.148  -7.941 -12.250  1.00  0.00     0.020 A 
ATOM      8  C   UNL     1       7.895  -8.550 -12.284  1.00  0.00     0.094 A 
ATOM      9  C   UNL     1       7.126  -8.581 -11.117  1.00  0.00     0.336 A 
ATOM     10  O   UNL     1       5.991  -9.125 -11.126  1.00  0.00    -0.246 OA
ATOM     11  O   UNL     1       7.586  -8.037  -9.993  1.00  0.00    -0.419 OA
ENDROOT
BRANCH   1  12
ATOM     12  O   UNL     1      12.546  -5.565  -9.641  1.00  0.00    -0.493 OA
ATOM     13  C   UNL     1      13.409  -5.268 -10.734  1.00  0.00     0.278 C 
ENDBRANCH   1  12
BRANCH   2  14
ATOM     14  O   UNL     1      10.876  -5.719  -7.407  1.00  0.00    -0.502 OA
ATOM     15  H   UNL     1      10.424  -5.945  -6.530  1.00  0.00     0.293 HD
ENDBRANCH   2  14
BRANCH   3  16
ATOM     16  O   UNL     1       8.371  -6.969  -7.590  1.00  0.00    -0.502 OA
ATOM     17  H   UNL     1       8.045  -6.144  -7.100  1.00  0.00     0.293 HD
ENDBRANCH   3  16
TORSDOF 3
ENDMDL
MODEL 8
REMARK VINA RESULT:    -4.886      1.712      2.320
REMARK INTER + INTRA:          -5.510
REMARK INTER:                  -5.449
REMARK INTRA:                  -0.061
REMARK UNBOUND:                -0.053
REMARK SMILES COc1cc2ccc(=O)oc2c(O)c1O
REMARK SMILES IDX 3 1 14 2 12 3 11 4 5 5 4 6 6 7 7 8 8 9 9 10 10 11 2 12 1 13
REMARK SMILES IDX 15 14 13 16
REMARK H PARENT 15 15 13 17
REMARK Flexibility Score: inf
ROOT
ATOM      1  C   UNL     1       8.056  -5.780  -7.114  1.00  0.00     0.165 A 
ATOM      2  C   UNL     1       7.667  -5.065  -8.263  1.00  0.00     0.204 A 
ATOM      3  C   UNL     1       8.192  -5.407  -9.522  1.00  0.00     0.205 A 
ATOM      4  C   UNL     1       9.105  -6.462  -9.638  1.00  0.00     0.184 A 
ATOM      5  C   UNL     1       9.497  -7.181  -8.490  1.00  0.00     0.025 A 
ATOM      6  C   UNL     1       8.975  -6.841  -7.236  1.00  0.00     0.062 A 
ATOM      7  C   UNL     1      10.411  -8.230  -8.639  1.00  0.00     0.020 A 
ATOM      8  C   UNL     1      10.904  -8.534  -9.907  1.00  0.00     0.094 A 
ATOM      9  C   UNL     1      10.470  -7.778 -11.001  1.00  0.00     0.336 A 
ATOM     10  O   UNL     1      10.904  -8.035 -12.154  1.00  0.00    -0.246 OA
ATOM     11  O   UNL     1       9.601  -6.785 -10.831  1.00  0.00    -0.419 OA
ENDROOT
BRANCH   1  12
ATOM     12  O   UNL     1       7.513  -5.412  -5.872  1.00  0.00    -0.493 OA
ATOM     13  C   UNL     1       8.279  -5.024  -4.736  1.00  0.00     0.278 C 
ENDBRANCH   1  12
BRANCH   2  14
ATOM     14  O   UNL     1       6.759  -4.009  -8.166  1.00  0.00    -0.502 OA
ATOM     15  H   UNL     1       6.925  -3.202  -7.577  1.00  0.00     0.293 HD
ENDBRANCH   2  14
BRANCH   3  16
ATOM     16  O   UNL     1       7.815  -4.706 -10.670  1.00  0.00    -0.502 OA
ATOM     17  H   UNL     1       7.580  -5.175 -11.536  1.00  0.00     0.293 HD
ENDBRANCH   3  16
TORSDOF 3
ENDMDL
MODEL 9
REMARK VINA RESULT:    -4.833     21.811     23.435
REMARK INTER + INTRA:          -5.451
REMARK INTER:                  -5.384
REMARK INTRA:                  -0.067
REMARK UNBOUND:                -0.053
REMARK SMILES COc1cc2ccc(=O)oc2c(O)c1O
REMARK SMILES IDX 3 1 14 2 12 3 11 4 5 5 4 6 6 7 7 8 8 9 9 10 10 11 2 12 1 13
REMARK SMILES IDX 15 14 13 16
REMARK H PARENT 15 15 13 17
REMARK Flexibility Score: inf
ROOT
ATOM      1  C   UNL     1      23.055   6.409 -20.825  1.00  0.00     0.165 A 
ATOM      2  C   UNL     1      23.437   5.935 -19.554  1.00  0.00     0.204 A 
ATOM      3  C   UNL     1      23.626   6.835 -18.490  1.00  0.00     0.205 A 
ATOM      4  C   UNL     1      23.434   8.208 -18.690  1.00  0.00     0.184 A 
ATOM      5  C   UNL     1      23.051   8.686 -19.960  1.00  0.00     0.025 A 
ATOM      6  C   UNL     1      22.863   7.790 -21.020  1.00  0.00     0.062 A 
ATOM      7  C   UNL     1      22.867  10.063 -20.127  1.00  0.00     0.020 A 
ATOM      8  C   UNL     1      23.065  10.917 -19.043  1.00  0.00     0.094 A 
ATOM      9  C   UNL     1      23.444  10.371 -17.812  1.00  0.00     0.336 A 
ATOM     10  O   UNL     1      23.628  11.125 -16.821  1.00  0.00    -0.246 OA
ATOM     11  O   UNL     1      23.612   9.058 -17.681  1.00  0.00    -0.419 OA
ENDROOT
BRANCH   1  12
ATOM     12  O   UNL     1      22.876   5.483 -21.866  1.00  0.00    -0.493 OA
ATOM     13  C   UNL     1      23.715   5.380 -23.011  1.00  0.00     0.278 C 
ENDBRANCH   1  12
BRANCH   2  14
ATOM     14  O   UNL     1      23.634   4.571 -19.337  1.00  0.00    -0.502 OA
ATOM     15  H   UNL     1      23.424   3.873 -20.040  1.00  0.00     0.293 HD
ENDBRANCH   2  14
BRANCH   3  16
ATOM     16  O   UNL     1      24.004   6.380 -17.225  1.00  0.00    -0.502 OA
ATOM     17  H   UNL     1      23.439   6.543 -16.401  1.00  0.00     0.293 HD
ENDBRANCH   3  16
TORSDOF 3
ENDMDL
