MODEL 1
REMARK VINA RESULT:    -5.070      0.000      0.000
REMARK INTER + INTRA:          -5.070
REMARK INTER:                  -5.070
REMARK INTRA:                   0.000
REMARK UNBOUND:                 0.000
REMARK SMILES CC1=CC(=O)[C@H]2C[C@@H]1C2(C)C
REMARK SMILES IDX 1 1 2 2 3 3 4 4 5 5 6 6 7 7 8 8 9 9 10 10 11 11
REMARK H PARENT
REMARK Flexibility Score: inf
ROOT
ATOM      1  C   UNL     1     119.793 180.181 125.732  1.00  0.00     0.040 C 
ATOM      2  C   UNL     1     120.598 179.038 126.268  1.00  0.00    -0.066 C 
ATOM      3  C   UNL     1     120.387 178.519 127.510  1.00  0.00     0.047 C 
ATOM      4  C   UNL     1     121.273 177.377 127.910  1.00  0.00     0.159 C 
ATOM      5  O   UNL     1     121.205 176.840 129.045  1.00  0.00    -0.295 OA
ATOM      6  C   UNL     1     122.263 176.912 126.841  1.00  0.00     0.067 C 
ATOM      7  C   UNL     1     121.419 176.841 125.550  1.00  0.00     0.021 C 
ATOM      8  C   UNL     1     121.677 178.357 125.402  1.00  0.00     0.022 C 
ATOM      9  C   UNL     1     122.970 178.162 126.244  1.00  0.00    -0.019 C 
ATOM     10  C   UNL     1     124.193 177.786 125.369  1.00  0.00     0.012 C 
ATOM     11  C   UNL     1     123.396 179.302 127.212  1.00  0.00     0.012 C 
ENDROOT
TORSDOF 0
ENDMDL
MODEL 2
REMARK VINA RESULT:    -5.061      1.918      3.143
REMARK INTER + INTRA:          -5.061
REMARK INTER:                  -5.061
REMARK INTRA:                   0.000
REMARK UNBOUND:                 0.000
REMARK SMILES CC1=CC(=O)[C@H]2C[C@@H]1C2(C)C
REMARK SMILES IDX 1 1 2 2 3 3 4 4 5 5 6 6 7 7 8 8 9 9 10 10 11 11
REMARK H PARENT
REMARK Flexibility Score: inf
ROOT
ATOM      1  C   UNL     1     123.381 179.119 127.298  1.00  0.00     0.040 C 
ATOM      2  C   UNL     1     122.251 178.704 126.409  1.00  0.00    -0.066 C 
ATOM      3  C   UNL     1     121.062 179.370 126.385  1.00  0.00     0.047 C 
ATOM      4  C   UNL     1     120.023 178.837 125.445  1.00  0.00     0.159 C 
ATOM      5  O   UNL     1     118.873 179.339 125.360  1.00  0.00    -0.295 OA
ATOM      6  C   UNL     1     120.460 177.642 124.596  1.00  0.00     0.067 C 
ATOM      7  C   UNL     1     121.861 178.038 124.080  1.00  0.00     0.021 C 
ATOM      8  C   UNL     1     122.407 177.522 125.431  1.00  0.00     0.022 C 
ATOM      9  C   UNL     1     121.154 176.604 125.523  1.00  0.00    -0.019 C 
ATOM     10  C   UNL     1     121.370 175.239 124.822  1.00  0.00     0.012 C 
ATOM     11  C   UNL     1     120.538 176.339 126.926  1.00  0.00     0.012 C 
ENDROOT
TORSDOF 0
ENDMDL
MODEL 3
REMARK VINA RESULT:    -5.029      2.212      2.822
REMARK INTER + INTRA:          -5.029
REMARK INTER:                  -5.029
REMARK INTRA:                   0.000
REMARK UNBOUND:                 0.000
REMARK SMILES CC1=CC(=O)[C@H]2C[C@@H]1C2(C)C
REMARK SMILES IDX 1 1 2 2 3 3 4 4 5 5 6 6 7 7 8 8 9 9 10 10 11 11
REMARK H PARENT
REMARK Flexibility Score: inf
ROOT
ATOM      1  C   UNL     1     121.119 179.558 122.291  1.00  0.00     0.040 C 
ATOM      2  C   UNL     1     120.799 178.680 123.459  1.00  0.00    -0.066 C 
ATOM      3  C   UNL     1     119.518 178.435 123.856  1.00  0.00     0.047 C 
ATOM      4  C   UNL     1     119.353 177.536 125.045  1.00  0.00     0.159 C 
ATOM      5  O   UNL     1     118.225 177.267 125.532  1.00  0.00    -0.295 OA
ATOM      6  C   UNL     1     120.651 176.970 125.622  1.00  0.00     0.067 C 
ATOM      7  C   UNL     1     121.443 176.499 124.381  1.00  0.00     0.021 C 
ATOM      8  C   UNL     1     121.919 177.963 124.240  1.00  0.00     0.022 C 
ATOM      9  C   UNL     1     121.676 178.130 125.768  1.00  0.00    -0.019 C 
ATOM     10  C   UNL     1     122.912 177.724 126.610  1.00  0.00     0.012 C 
ATOM     11  C   UNL     1     121.166 179.506 126.284  1.00  0.00     0.012 C 
ENDROOT
TORSDOF 0
ENDMDL
MODEL 4
REMARK VINA RESULT:    -5.010      2.239      3.410
REMARK INTER + INTRA:          -5.010
REMARK INTER:                  -5.010
REMARK INTRA:                   0.000
REMARK UNBOUND:                 0.000
REMARK SMILES CC1=CC(=O)[C@H]2C[C@@H]1C2(C)C
REMARK SMILES IDX 1 1 2 2 3 3 4 4 5 5 6 6 7 7 8 8 9 9 10 10 11 11
REMARK H PARENT
REMARK Flexibility Score: inf
ROOT
ATOM      1  C   UNL     1     121.672 178.519 128.133  1.00  0.00     0.040 C 
ATOM      2  C   UNL     1     120.641 178.484 127.049  1.00  0.00    -0.066 C 
ATOM      3  C   UNL     1     119.493 177.758 127.161  1.00  0.00     0.047 C 
ATOM      4  C   UNL     1     118.555 177.818 125.992  1.00  0.00     0.159 C 
ATOM      5  O   UNL     1     117.483 177.161 125.957  1.00  0.00    -0.295 OA
ATOM      6  C   UNL     1     118.993 178.735 124.849  1.00  0.00     0.067 C 
ATOM      7  C   UNL     1     119.455 180.028 125.557  1.00  0.00     0.021 C 
ATOM      8  C   UNL     1     120.814 179.322 125.766  1.00  0.00     0.022 C 
ATOM      9  C   UNL     1     120.485 178.444 124.525  1.00  0.00    -0.019 C 
ATOM     10  C   UNL     1     120.940 179.104 123.199  1.00  0.00     0.012 C 
ATOM     11  C   UNL     1     120.966 176.965 124.523  1.00  0.00     0.012 C 
ENDROOT
TORSDOF 0
ENDMDL
MODEL 5
REMARK VINA RESULT:    -4.981      2.446      3.845
REMARK INTER + INTRA:          -4.981
REMARK INTER:                  -4.981
REMARK INTRA:                   0.000
REMARK UNBOUND:                 0.000
REMARK SMILES CC1=CC(=O)[C@H]2C[C@@H]1C2(C)C
REMARK SMILES IDX 1 1 2 2 3 3 4 4 5 5 6 6 7 7 8 8 9 9 10 10 11 11
REMARK H PARENT
REMARK Flexibility Score: inf
ROOT
ATOM      1  C   UNL     1     119.420 175.379 126.143  1.00  0.00     0.040 C 
ATOM      2  C   UNL     1     120.064 176.469 125.345  1.00  0.00    -0.066 C 
ATOM      3  C   UNL     1     121.208 176.270 124.632  1.00  0.00     0.047 C 
ATOM      4  C   UNL     1     121.737 177.456 123.883  1.00  0.00     0.159 C 
ATOM      5  O   UNL     1     122.806 177.411 123.222  1.00  0.00    -0.295 OA
ATOM      6  C   UNL     1     120.886 178.723 123.980  1.00  0.00     0.067 C 
ATOM      7  C   UNL     1     119.442 178.226 123.750  1.00  0.00     0.021 C 
ATOM      8  C   UNL     1     119.421 177.868 125.254  1.00  0.00     0.022 C 
ATOM      9  C   UNL     1     120.511 178.955 125.471  1.00  0.00    -0.019 C 
ATOM     10  C   UNL     1     119.903 180.360 125.714  1.00  0.00     0.012 C 
ATOM     11  C   UNL     1     121.598 178.700 126.554  1.00  0.00     0.012 C 
ENDROOT
TORSDOF 0
ENDMDL
MODEL 6
REMARK VINA RESULT:    -4.934      1.728      3.608
REMARK INTER + INTRA:          -4.934
REMARK INTER:                  -4.934
REMARK INTRA:                   0.000
REMARK UNBOUND:                 0.000
REMARK SMILES CC1=CC(=O)[C@H]2C[C@@H]1C2(C)C
REMARK SMILES IDX 1 1 2 2 3 3 4 4 5 5 6 6 7 7 8 8 9 9 10 10 11 11
REMARK H PARENT
REMARK Flexibility Score: inf
ROOT
ATOM      1  C   UNL     1     122.677 177.399 123.467  1.00  0.00     0.040 C 
ATOM      2  C   UNL     1     121.814 177.960 124.553  1.00  0.00    -0.066 C 
ATOM      3  C   UNL     1     122.249 178.080 125.839  1.00  0.00     0.047 C 
ATOM      4  C   UNL     1     121.271 178.658 126.818  1.00  0.00     0.159 C 
ATOM      5  O   UNL     1     121.539 178.781 128.041  1.00  0.00    -0.295 OA
ATOM      6  C   UNL     1     119.929 179.088 126.225  1.00  0.00     0.067 C 
ATOM      7  C   UNL     1     120.312 179.860 124.943  1.00  0.00     0.021 C 
ATOM      8  C   UNL     1     120.397 178.484 124.246  1.00  0.00     0.022 C 
ATOM      9  C   UNL     1     119.402 177.944 125.313  1.00  0.00    -0.019 C 
ATOM     10  C   UNL     1     117.923 178.153 124.900  1.00  0.00     0.012 C 
ATOM     11  C   UNL     1     119.569 176.476 125.798  1.00  0.00     0.012 C 
ENDROOT
TORSDOF 0
ENDMDL
MODEL 7
REMARK VINA RESULT:    -4.934      1.871      3.183
REMARK INTER + INTRA:          -4.934
REMARK INTER:                  -4.934
REMARK INTRA:                   0.000
REMARK UNBOUND:                 0.000
REMARK SMILES CC1=CC(=O)[C@H]2C[C@@H]1C2(C)C
REMARK SMILES IDX 1 1 2 2 3 3 4 4 5 5 6 6 7 7 8 8 9 9 10 10 11 11
REMARK H PARENT
REMARK Flexibility Score: inf
ROOT
ATOM      1  C   UNL     1     120.810 175.156 127.511  1.00  0.00     0.040 C 
ATOM      2  C   UNL     1     120.812 176.583 127.059  1.00  0.00    -0.066 C 
ATOM      3  C   UNL     1     120.047 177.017 126.018  1.00  0.00     0.047 C 
ATOM      4  C   UNL     1     120.156 178.474 125.678  1.00  0.00     0.159 C 
ATOM      5  O   UNL     1     119.533 178.987 124.714  1.00  0.00    -0.295 OA
ATOM      6  C   UNL     1     121.076 179.290 126.587  1.00  0.00     0.067 C 
ATOM      7  C   UNL     1     120.694 178.840 128.014  1.00  0.00     0.021 C 
ATOM      8  C   UNL     1     121.651 177.645 127.798  1.00  0.00     0.022 C 
ATOM      9  C   UNL     1     122.414 178.518 126.760  1.00  0.00    -0.019 C 
ATOM     10  C   UNL     1     123.516 179.387 127.417  1.00  0.00     0.012 C 
ATOM     11  C   UNL     1     123.026 177.812 125.516  1.00  0.00     0.012 C 
ENDROOT
TORSDOF 0
ENDMDL
MODEL 8
REMARK VINA RESULT:    -4.882      5.984      7.070
REMARK INTER + INTRA:          -4.882
REMARK INTER:                  -4.882
REMARK INTRA:                   0.000
REMARK UNBOUND:                 0.000
REMARK SMILES CC1=CC(=O)[C@H]2C[C@@H]1C2(C)C
REMARK SMILES IDX 1 1 2 2 3 3 4 4 5 5 6 6 7 7 8 8 9 9 10 10 11 11
REMARK H PARENT
REMARK Flexibility Score: inf
ROOT
ATOM      1  C   UNL     1     123.852 177.794 120.887  1.00  0.00     0.040 C 
ATOM      2  C   UNL     1     125.153 177.536 121.580  1.00  0.00    -0.066 C 
ATOM      3  C   UNL     1     126.331 178.054 121.133  1.00  0.00     0.047 C 
ATOM      4  C   UNL     1     127.553 177.708 121.930  1.00  0.00     0.159 C 
ATOM      5  O   UNL     1     128.704 178.091 121.597  1.00  0.00    -0.295 OA
ATOM      6  C   UNL     1     127.301 176.857 123.177  1.00  0.00     0.067 C 
ATOM      7  C   UNL     1     126.084 177.527 123.851  1.00  0.00     0.021 C 
ATOM      8  C   UNL     1     125.206 176.706 122.879  1.00  0.00     0.022 C 
ATOM      9  C   UNL     1     126.368 175.676 122.789  1.00  0.00    -0.019 C 
ATOM     10  C   UNL     1     126.289 174.598 123.900  1.00  0.00     0.012 C 
ATOM     11  C   UNL     1     126.610 174.958 121.431  1.00  0.00     0.012 C 
ENDROOT
TORSDOF 0
ENDMDL
MODEL 9
REMARK VINA RESULT:    -4.844      4.864      6.823
REMARK INTER + INTRA:          -4.844
REMARK INTER:                  -4.844
REMARK INTRA:                   0.000
REMARK UNBOUND:                 0.000
REMARK SMILES CC1=CC(=O)[C@H]2C[C@@H]1C2(C)C
REMARK SMILES IDX 1 1 2 2 3 3 4 4 5 5 6 6 7 7 8 8 9 9 10 10 11 11
REMARK H PARENT
REMARK Flexibility Score: inf
ROOT
ATOM      1  C   UNL     1     123.764 177.029 123.939  1.00  0.00     0.040 C 
ATOM      2  C   UNL     1     125.122 177.033 123.312  1.00  0.00    -0.066 C 
ATOM      3  C   UNL     1     125.316 176.741 121.995  1.00  0.00     0.047 C 
ATOM      4  C   UNL     1     126.734 176.783 121.509  1.00  0.00     0.159 C 
ATOM      5  O   UNL     1     127.047 176.493 120.326  1.00  0.00    -0.295 OA
ATOM      6  C   UNL     1     127.771 177.202 122.552  1.00  0.00     0.067 C 
ATOM      7  C   UNL     1     127.137 178.431 123.241  1.00  0.00     0.021 C 
ATOM      8  C   UNL     1     126.370 177.425 124.130  1.00  0.00     0.022 C 
ATOM      9  C   UNL     1     127.510 176.402 123.859  1.00  0.00    -0.019 C 
ATOM     10  C   UNL     1     128.674 176.534 124.874  1.00  0.00     0.012 C 
ATOM     11  C   UNL     1     127.134 174.897 123.742  1.00  0.00     0.012 C 
ENDROOT
TORSDOF 0
ENDMDL
