MODEL 1
REMARK VINA RESULT:    -2.993      0.000      0.000
REMARK INTER + INTRA:         -12.881
REMARK INTER:                  -7.541
REMARK INTRA:                  -5.339
REMARK UNBOUND:                -5.339
REMARK SMILES CCCCCCCCCCCCCCCCCCCCCCCCCCCC(=O)[O-]
REMARK SMILES IDX 15 1 16 2 17 3 18 4 19 5 20 6 21 7 22 8 23 9 24 10 25 11
REMARK SMILES IDX 26 12 27 13 28 14 29 15 30 16 14 17 13 18 12 19 11 20 10 21
REMARK SMILES IDX 9 22 8 23 7 24 6 25 5 26 4 27 3 28 2 29 1 30
REMARK H PARENT
REMARK Flexibility Score: inf
ROOT
ATOM      1  C   UNL     1    -102.197 -28.048 -16.314  1.00  0.00     0.000 C 
ENDROOT
BRANCH   1   2
ATOM      2  C   UNL     1    -101.075 -29.092 -16.438  1.00  0.00     0.000 C 
BRANCH   2   3
ATOM      3  C   UNL     1    -101.614 -30.532 -16.525  1.00  0.00     0.000 C 
BRANCH   3   4
ATOM      4  C   UNL     1    -100.688 -31.561 -15.851  1.00  0.00     0.000 C 
BRANCH   4   5
ATOM      5  C   UNL     1     -99.334 -31.007 -15.374  1.00  0.00     0.000 C 
BRANCH   5   6
ATOM      6  C   UNL     1     -99.125 -31.157 -13.856  1.00  0.00     0.000 C 
BRANCH   6   7
ATOM      7  C   UNL     1     -98.456 -29.923 -13.229  1.00  0.00     0.000 C 
BRANCH   7   8
ATOM      8  C   UNL     1     -98.506 -29.942 -11.691  1.00  0.00     0.000 C 
BRANCH   8   9
ATOM      9  C   UNL     1     -97.105 -29.963 -11.053  1.00  0.00     0.000 C 
BRANCH   9  10
ATOM     10  C   UNL     1     -95.954 -30.242 -12.035  1.00  0.00     0.000 C 
BRANCH  10  11
ATOM     11  C   UNL     1     -95.395 -31.667 -11.910  1.00  0.00     0.000 C 
BRANCH  11  12
ATOM     12  C   UNL     1     -95.715 -32.494 -13.160  1.00  0.00     0.006 C 
BRANCH  12  13
ATOM     13  C   UNL     1     -95.478 -31.677 -14.434  1.00  0.00     0.053 C 
BRANCH  13  14
ATOM     14  C   UNL     1     -95.951 -32.433 -15.635  1.00  0.00     0.041 C 
ATOM     15  O   UNL     1     -96.440 -33.588 -15.507  1.00  0.00    -0.550 OA
ATOM     16  O   UNL     1     -95.872 -31.857 -16.897  1.00  0.00    -0.550 OA
ENDBRANCH  13  14
ENDBRANCH  12  13
ENDBRANCH  11  12
ENDBRANCH  10  11
ENDBRANCH   9  10
ENDBRANCH   8   9
ENDBRANCH   7   8
ENDBRANCH   6   7
ENDBRANCH   5   6
ENDBRANCH   4   5
ENDBRANCH   3   4
ENDBRANCH   2   3
ENDBRANCH   1   2
BRANCH   1  17
ATOM     17  C   UNL     1    -102.087 -27.202 -15.036  1.00  0.00     0.000 C 
BRANCH  17  18
ATOM     18  C   UNL     1    -101.047 -27.796 -14.075  1.00  0.00     0.000 C 
BRANCH  18  19
ATOM     19  C   UNL     1    -101.452 -27.659 -12.599  1.00  0.00     0.000 C 
BRANCH  19  20
ATOM     20  C   UNL     1    -102.564 -28.644 -12.194  1.00  0.00     0.000 C 
BRANCH  20  21
ATOM     21  C   UNL     1    -102.331 -30.067 -12.744  1.00  0.00     0.000 C 
BRANCH  21  22
ATOM     22  C   UNL     1    -103.554 -30.674 -13.460  1.00  0.00    -0.000 C 
BRANCH  22  23
ATOM     23  C   UNL     1    -104.595 -29.657 -13.954  1.00  0.00    -0.000 C 
BRANCH  23  24
ATOM     24  C   UNL     1    -105.164 -30.010 -15.339  1.00  0.00    -0.000 C 
BRANCH  24  25
ATOM     25  C   UNL     1    -105.881 -28.806 -15.971  1.00  0.00    -0.000 C 
BRANCH  25  26
ATOM     26  C   UNL     1    -106.001 -27.619 -14.991  1.00  0.00    -0.000 C 
BRANCH  26  27
ATOM     27  C   UNL     1    -106.266 -26.267 -15.676  1.00  0.00    -0.000 C 
BRANCH  27  28
ATOM     28  C   UNL     1    -105.007 -25.671 -16.332  1.00  0.00    -0.000 C 
BRANCH  28  29
ATOM     29  C   UNL     1    -104.530 -24.387 -15.636  1.00  0.00    -0.003 C 
ATOM     30  C   UNL     1    -104.544 -24.503 -14.111  1.00  0.00     0.004 C 
ENDBRANCH  28  29
ENDBRANCH  27  28
ENDBRANCH  26  27
ENDBRANCH  25  26
ENDBRANCH  24  25
ENDBRANCH  23  24
ENDBRANCH  22  23
ENDBRANCH  21  22
ENDBRANCH  20  21
ENDBRANCH  19  20
ENDBRANCH  18  19
ENDBRANCH  17  18
ENDBRANCH   1  17
TORSDOF 26
ENDMDL
MODEL 2
REMARK VINA RESULT:    -2.976      1.855      4.844
REMARK INTER + INTRA:         -12.838
REMARK INTER:                  -7.309
REMARK INTRA:                  -5.529
REMARK UNBOUND:                -5.339
REMARK SMILES CCCCCCCCCCCCCCCCCCCCCCCCCCCC(=O)[O-]
REMARK SMILES IDX 15 1 16 2 17 3 18 4 19 5 20 6 21 7 22 8 23 9 24 10 25 11
REMARK SMILES IDX 26 12 27 13 28 14 29 15 30 16 14 17 13 18 12 19 11 20 10 21
REMARK SMILES IDX 9 22 8 23 7 24 6 25 5 26 4 27 3 28 2 29 1 30
REMARK H PARENT
REMARK Flexibility Score: inf
ROOT
ATOM      1  C   UNL     1    -104.430 -29.529 -13.574  1.00  0.00     0.000 C 
ENDROOT
BRANCH   1   2
ATOM      2  C   UNL     1    -103.998 -30.855 -14.221  1.00  0.00     0.000 C 
BRANCH   2   3
ATOM      3  C   UNL     1    -102.580 -31.284 -13.800  1.00  0.00     0.000 C 
BRANCH   3   4
ATOM      4  C   UNL     1    -101.628 -31.467 -14.996  1.00  0.00     0.000 C 
BRANCH   4   5
ATOM      5  C   UNL     1    -101.958 -30.607 -16.230  1.00  0.00     0.000 C 
BRANCH   5   6
ATOM      6  C   UNL     1    -101.142 -29.302 -16.288  1.00  0.00     0.000 C 
BRANCH   6   7
ATOM      7  C   UNL     1    -102.033 -28.050 -16.266  1.00  0.00     0.000 C 
BRANCH   7   8
ATOM      8  C   UNL     1    -101.986 -27.316 -14.914  1.00  0.00     0.000 C 
BRANCH   8   9
ATOM      9  C   UNL     1    -100.704 -27.620 -14.118  1.00  0.00     0.000 C 
BRANCH   9  10
ATOM     10  C   UNL     1    -100.940 -28.141 -12.690  1.00  0.00     0.000 C 
BRANCH  10  11
ATOM     11  C   UNL     1     -99.878 -29.156 -12.241  1.00  0.00     0.000 C 
BRANCH  11  12
ATOM     12  C   UNL     1     -98.864 -29.419 -13.360  1.00  0.00     0.006 C 
BRANCH  12  13
ATOM     13  C   UNL     1     -98.150 -30.758 -13.150  1.00  0.00     0.053 C 
BRANCH  13  14
ATOM     14  C   UNL     1     -96.687 -30.541 -12.926  1.00  0.00     0.041 C 
ATOM     15  O   UNL     1     -95.842 -31.037 -13.719  1.00  0.00    -0.550 OA
ATOM     16  O   UNL     1     -96.253 -29.774 -11.851  1.00  0.00    -0.550 OA
ENDBRANCH  13  14
ENDBRANCH  12  13
ENDBRANCH  11  12
ENDBRANCH  10  11
ENDBRANCH   9  10
ENDBRANCH   8   9
ENDBRANCH   7   8
ENDBRANCH   6   7
ENDBRANCH   5   6
ENDBRANCH   4   5
ENDBRANCH   3   4
ENDBRANCH   2   3
ENDBRANCH   1   2
BRANCH   1  17
ATOM     17  C   UNL     1    -105.951 -29.428 -13.378  1.00  0.00     0.000 C 
BRANCH  17  18
ATOM     18  C   UNL     1    -106.513 -28.192 -14.096  1.00  0.00     0.000 C 
BRANCH  18  19
ATOM     19  C   UNL     1    -105.668 -27.772 -15.309  1.00  0.00     0.000 C 
BRANCH  19  20
ATOM     20  C   UNL     1    -106.095 -26.411 -15.890  1.00  0.00     0.000 C 
BRANCH  20  21
ATOM     21  C   UNL     1    -104.925 -25.645 -16.541  1.00  0.00     0.000 C 
BRANCH  21  22
ATOM     22  C   UNL     1    -104.276 -24.589 -15.627  1.00  0.00    -0.000 C 
BRANCH  22  23
ATOM     23  C   UNL     1    -105.080 -23.290 -15.453  1.00  0.00    -0.000 C 
BRANCH  23  24
ATOM     24  C   UNL     1    -105.405 -22.981 -13.982  1.00  0.00    -0.000 C 
BRANCH  24  25
ATOM     25  C   UNL     1    -106.603 -23.810 -13.490  1.00  0.00    -0.000 C 
BRANCH  25  26
ATOM     26  C   UNL     1    -106.215 -24.772 -12.347  1.00  0.00    -0.000 C 
BRANCH  26  27
ATOM     27  C   UNL     1    -104.716 -24.758 -11.999  1.00  0.00    -0.000 C 
BRANCH  27  28
ATOM     28  C   UNL     1    -104.061 -26.147 -12.114  1.00  0.00    -0.000 C 
BRANCH  28  29
ATOM     29  C   UNL     1    -103.459 -26.627 -10.785  1.00  0.00    -0.003 C 
ATOM     30  C   UNL     1    -103.448 -25.535  -9.713  1.00  0.00     0.004 C 
ENDBRANCH  28  29
ENDBRANCH  27  28
ENDBRANCH  26  27
ENDBRANCH  25  26
ENDBRANCH  24  25
ENDBRANCH  23  24
ENDBRANCH  22  23
ENDBRANCH  21  22
ENDBRANCH  20  21
ENDBRANCH  19  20
ENDBRANCH  18  19
ENDBRANCH  17  18
ENDBRANCH   1  17
TORSDOF 26
ENDMDL
MODEL 3
REMARK VINA RESULT:    -2.921      4.763      8.004
REMARK INTER + INTRA:         -12.701
REMARK INTER:                  -7.412
REMARK INTRA:                  -5.289
REMARK UNBOUND:                -5.339
REMARK SMILES CCCCCCCCCCCCCCCCCCCCCCCCCCCC(=O)[O-]
REMARK SMILES IDX 15 1 16 2 17 3 18 4 19 5 20 6 21 7 22 8 23 9 24 10 25 11
REMARK SMILES IDX 26 12 27 13 28 14 29 15 30 16 14 17 13 18 12 19 11 20 10 21
REMARK SMILES IDX 9 22 8 23 7 24 6 25 5 26 4 27 3 28 2 29 1 30
REMARK H PARENT
REMARK Flexibility Score: inf
ROOT
ATOM      1  C   UNL     1    -101.745 -27.344 -14.529  1.00  0.00     0.000 C 
ENDROOT
BRANCH   1   2
ATOM      2  C   UNL     1    -101.999 -28.246 -15.748  1.00  0.00     0.000 C 
BRANCH   2   3
ATOM      3  C   UNL     1    -103.080 -27.679 -16.688  1.00  0.00     0.000 C 
BRANCH   3   4
ATOM      4  C   UNL     1    -103.143 -26.141 -16.672  1.00  0.00     0.000 C 
BRANCH   4   5
ATOM      5  C   UNL     1    -104.457 -25.548 -16.133  1.00  0.00     0.000 C 
BRANCH   5   6
ATOM      6  C   UNL     1    -104.253 -24.679 -14.878  1.00  0.00     0.000 C 
BRANCH   6   7
ATOM      7  C   UNL     1    -105.312 -23.572 -14.750  1.00  0.00     0.000 C 
BRANCH   7   8
ATOM      8  C   UNL     1    -105.827 -23.411 -13.309  1.00  0.00     0.000 C 
BRANCH   8   9
ATOM      9  C   UNL     1    -104.879 -22.575 -12.430  1.00  0.00     0.000 C 
BRANCH   9  10
ATOM     10  C   UNL     1    -105.080 -22.751 -10.915  1.00  0.00     0.000 C 
BRANCH  10  11
ATOM     11  C   UNL     1    -103.910 -22.198 -10.089  1.00  0.00     0.000 C 
BRANCH  11  12
ATOM     12  C   UNL     1    -103.929 -22.763  -8.664  1.00  0.00     0.006 C 
BRANCH  12  13
ATOM     13  C   UNL     1    -102.522 -23.165  -8.213  1.00  0.00     0.053 C 
BRANCH  13  14
ATOM     14  C   UNL     1    -102.552 -23.691  -6.813  1.00  0.00     0.041 C 
ATOM     15  O   UNL     1    -102.991 -22.974  -5.874  1.00  0.00    -0.550 OA
ATOM     16  O   UNL     1    -102.113 -24.982  -6.544  1.00  0.00    -0.550 OA
ENDBRANCH  13  14
ENDBRANCH  12  13
ENDBRANCH  11  12
ENDBRANCH  10  11
ENDBRANCH   9  10
ENDBRANCH   8   9
ENDBRANCH   7   8
ENDBRANCH   6   7
ENDBRANCH   5   6
ENDBRANCH   4   5
ENDBRANCH   3   4
ENDBRANCH   2   3
ENDBRANCH   1   2
BRANCH   1  17
ATOM     17  C   UNL     1    -100.402 -27.635 -13.841  1.00  0.00     0.000 C 
BRANCH  17  18
ATOM     18  C   UNL     1    -100.181 -29.148 -13.693  1.00  0.00     0.000 C 
BRANCH  18  19
ATOM     19  C   UNL     1     -99.683 -29.543 -12.294  1.00  0.00     0.000 C 
BRANCH  19  20
ATOM     20  C   UNL     1    -100.757 -30.271 -11.464  1.00  0.00     0.000 C 
BRANCH  20  21
ATOM     21  C   UNL     1    -101.966 -29.372 -11.132  1.00  0.00     0.000 C 
BRANCH  21  22
ATOM     22  C   UNL     1    -103.333 -30.025 -11.414  1.00  0.00    -0.000 C 
BRANCH  22  23
ATOM     23  C   UNL     1    -103.716 -30.129 -12.899  1.00  0.00    -0.000 C 
BRANCH  23  24
ATOM     24  C   UNL     1    -105.127 -29.592 -13.192  1.00  0.00    -0.000 C 
BRANCH  24  25
ATOM     25  C   UNL     1    -105.092 -28.096 -13.544  1.00  0.00    -0.000 C 
BRANCH  25  26
ATOM     26  C   UNL     1    -106.089 -27.274 -12.699  1.00  0.00    -0.000 C 
BRANCH  26  27
ATOM     27  C   UNL     1    -105.437 -26.506 -11.535  1.00  0.00    -0.000 C 
BRANCH  27  28
ATOM     28  C   UNL     1    -103.921 -26.315 -11.718  1.00  0.00    -0.000 C 
BRANCH  28  29
ATOM     29  C   UNL     1    -103.212 -25.938 -10.408  1.00  0.00    -0.003 C 
ATOM     30  C   UNL     1    -103.719 -26.742  -9.209  1.00  0.00     0.004 C 
ENDBRANCH  28  29
ENDBRANCH  27  28
ENDBRANCH  26  27
ENDBRANCH  25  26
ENDBRANCH  24  25
ENDBRANCH  23  24
ENDBRANCH  22  23
ENDBRANCH  21  22
ENDBRANCH  20  21
ENDBRANCH  19  20
ENDBRANCH  18  19
ENDBRANCH  17  18
ENDBRANCH   1  17
TORSDOF 26
ENDMDL
MODEL 4
REMARK VINA RESULT:    -2.890      3.752      8.173
REMARK INTER + INTRA:         -12.622
REMARK INTER:                  -7.208
REMARK INTRA:                  -5.414
REMARK UNBOUND:                -5.339
REMARK SMILES CCCCCCCCCCCCCCCCCCCCCCCCCCCC(=O)[O-]
REMARK SMILES IDX 15 1 16 2 17 3 18 4 19 5 20 6 21 7 22 8 23 9 24 10 25 11
REMARK SMILES IDX 26 12 27 13 28 14 29 15 30 16 14 17 13 18 12 19 11 20 10 21
REMARK SMILES IDX 9 22 8 23 7 24 6 25 5 26 4 27 3 28 2 29 1 30
REMARK H PARENT
REMARK Flexibility Score: inf
ROOT
ATOM      1  C   UNL     1    -101.500 -28.658 -15.265  1.00  0.00     0.000 C 
ENDROOT
BRANCH   1   2
ATOM      2  C   UNL     1    -102.463 -28.043 -16.292  1.00  0.00     0.000 C 
BRANCH   2   3
ATOM      3  C   UNL     1    -102.752 -26.555 -16.016  1.00  0.00     0.000 C 
BRANCH   3   4
ATOM      4  C   UNL     1    -103.996 -26.037 -16.760  1.00  0.00     0.000 C 
BRANCH   4   5
ATOM      5  C   UNL     1    -104.773 -24.923 -16.035  1.00  0.00     0.000 C 
BRANCH   5   6
ATOM      6  C   UNL     1    -106.271 -25.243 -15.874  1.00  0.00     0.000 C 
BRANCH   6   7
ATOM      7  C   UNL     1    -106.587 -26.726 -16.128  1.00  0.00     0.000 C 
BRANCH   7   8
ATOM      8  C   UNL     1    -106.821 -27.511 -14.825  1.00  0.00     0.000 C 
BRANCH   8   9
ATOM      9  C   UNL     1    -105.741 -28.579 -14.575  1.00  0.00     0.000 C 
BRANCH   9  10
ATOM     10  C   UNL     1    -104.872 -28.337 -13.328  1.00  0.00     0.000 C 
BRANCH  10  11
ATOM     11  C   UNL     1    -105.259 -27.059 -12.569  1.00  0.00     0.000 C 
BRANCH  11  12
ATOM     12  C   UNL     1    -104.163 -25.995 -12.694  1.00  0.00     0.006 C 
BRANCH  12  13
ATOM     13  C   UNL     1    -104.521 -24.741 -11.890  1.00  0.00     0.053 C 
BRANCH  13  14
ATOM     14  C   UNL     1    -104.462 -25.026 -10.423  1.00  0.00     0.041 C 
ATOM     15  O   UNL     1    -103.407 -25.483  -9.906  1.00  0.00    -0.550 OA
ATOM     16  O   UNL     1    -105.566 -24.770  -9.618  1.00  0.00    -0.550 OA
ENDBRANCH  13  14
ENDBRANCH  12  13
ENDBRANCH  11  12
ENDBRANCH  10  11
ENDBRANCH   9  10
ENDBRANCH   8   9
ENDBRANCH   7   8
ENDBRANCH   6   7
ENDBRANCH   5   6
ENDBRANCH   4   5
ENDBRANCH   3   4
ENDBRANCH   2   3
ENDBRANCH   1   2
BRANCH   1  17
ATOM     17  C   UNL     1    -101.192 -27.712 -14.093  1.00  0.00     0.000 C 
BRANCH  17  18
ATOM     18  C   UNL     1    -100.739 -28.503 -12.857  1.00  0.00     0.000 C 
BRANCH  18  19
ATOM     19  C   UNL     1    -101.577 -28.188 -11.608  1.00  0.00     0.000 C 
BRANCH  19  20
ATOM     20  C   UNL     1    -101.278 -29.140 -10.436  1.00  0.00     0.000 C 
BRANCH  20  21
ATOM     21  C   UNL     1     -99.882 -29.788 -10.533  1.00  0.00     0.000 C 
BRANCH  21  22
ATOM     22  C   UNL     1     -99.900 -31.329 -10.528  1.00  0.00    -0.000 C 
BRANCH  22  23
ATOM     23  C   UNL     1    -101.029 -31.974 -11.348  1.00  0.00    -0.000 C 
BRANCH  23  24
ATOM     24  C   UNL     1    -100.508 -32.786 -12.546  1.00  0.00    -0.000 C 
BRANCH  24  25
ATOM     25  C   UNL     1    -100.755 -32.047 -13.871  1.00  0.00    -0.000 C 
BRANCH  25  26
ATOM     26  C   UNL     1     -99.556 -32.166 -14.836  1.00  0.00    -0.000 C 
BRANCH  26  27
ATOM     27  C   UNL     1     -98.656 -30.918 -14.872  1.00  0.00    -0.000 C 
BRANCH  27  28
ATOM     28  C   UNL     1     -97.450 -31.022 -13.921  1.00  0.00    -0.000 C 
BRANCH  28  29
ATOM     29  C   UNL     1     -97.304 -29.790 -13.016  1.00  0.00    -0.003 C 
ATOM     30  C   UNL     1     -96.299 -30.004 -11.883  1.00  0.00     0.004 C 
ENDBRANCH  28  29
ENDBRANCH  27  28
ENDBRANCH  26  27
ENDBRANCH  25  26
ENDBRANCH  24  25
ENDBRANCH  23  24
ENDBRANCH  22  23
ENDBRANCH  21  22
ENDBRANCH  20  21
ENDBRANCH  19  20
ENDBRANCH  18  19
ENDBRANCH  17  18
ENDBRANCH   1  17
TORSDOF 26
ENDMDL
MODEL 5
REMARK VINA RESULT:    -2.868      4.800      8.082
REMARK INTER + INTRA:         -12.567
REMARK INTER:                  -7.983
REMARK INTRA:                  -4.585
REMARK UNBOUND:                -5.339
REMARK SMILES CCCCCCCCCCCCCCCCCCCCCCCCCCCC(=O)[O-]
REMARK SMILES IDX 15 1 16 2 17 3 18 4 19 5 20 6 21 7 22 8 23 9 24 10 25 11
REMARK SMILES IDX 26 12 27 13 28 14 29 15 30 16 14 17 13 18 12 19 11 20 10 21
REMARK SMILES IDX 9 22 8 23 7 24 6 25 5 26 4 27 3 28 2 29 1 30
REMARK H PARENT
REMARK Flexibility Score: inf
ROOT
ATOM      1  C   UNL     1    -103.836 -27.740 -11.747  1.00  0.00     0.000 C 
ENDROOT
BRANCH   1   2
ATOM      2  C   UNL     1    -104.775 -26.634 -12.255  1.00  0.00     0.000 C 
BRANCH   2   3
ATOM      3  C   UNL     1    -104.260 -25.221 -11.920  1.00  0.00     0.000 C 
BRANCH   3   4
ATOM      4  C   UNL     1    -105.079 -24.107 -12.596  1.00  0.00     0.000 C 
BRANCH   4   5
ATOM      5  C   UNL     1    -105.482 -22.942 -11.675  1.00  0.00     0.000 C 
BRANCH   5   6
ATOM      6  C   UNL     1    -104.686 -21.654 -11.953  1.00  0.00     0.000 C 
BRANCH   6   7
ATOM      7  C   UNL     1    -103.700 -21.315 -10.823  1.00  0.00     0.000 C 
BRANCH   7   8
ATOM      8  C   UNL     1    -103.988 -22.102  -9.533  1.00  0.00     0.000 C 
BRANCH   8   9
ATOM      9  C   UNL     1    -102.717 -22.713  -8.915  1.00  0.00     0.000 C 
BRANCH   9  10
ATOM     10  C   UNL     1    -102.971 -23.713  -7.774  1.00  0.00     0.000 C 
BRANCH  10  11
ATOM     11  C   UNL     1    -103.304 -25.125  -8.281  1.00  0.00     0.000 C 
BRANCH  11  12
ATOM     12  C   UNL     1    -103.198 -26.153  -7.149  1.00  0.00     0.006 C 
BRANCH  12  13
ATOM     13  C   UNL     1    -102.652 -25.509  -5.871  1.00  0.00     0.053 C 
BRANCH  13  14
ATOM     14  C   UNL     1    -101.356 -26.145  -5.478  1.00  0.00     0.041 C 
ATOM     15  O   UNL     1    -100.357 -25.429  -5.196  1.00  0.00    -0.550 OA
ATOM     16  O   UNL     1    -101.253 -27.529  -5.404  1.00  0.00    -0.550 OA
ENDBRANCH  13  14
ENDBRANCH  12  13
ENDBRANCH  11  12
ENDBRANCH  10  11
ENDBRANCH   9  10
ENDBRANCH   8   9
ENDBRANCH   7   8
ENDBRANCH   6   7
ENDBRANCH   5   6
ENDBRANCH   4   5
ENDBRANCH   3   4
ENDBRANCH   2   3
ENDBRANCH   1   2
BRANCH   1  17
ATOM     17  C   UNL     1    -102.420 -27.228 -11.439  1.00  0.00     0.000 C 
BRANCH  17  18
ATOM     18  C   UNL     1    -101.360 -28.226 -11.929  1.00  0.00     0.000 C 
BRANCH  18  19
ATOM     19  C   UNL     1    -101.922 -29.642 -12.126  1.00  0.00     0.000 C 
BRANCH  19  20
ATOM     20  C   UNL     1    -101.567 -30.238 -13.501  1.00  0.00     0.000 C 
BRANCH  20  21
ATOM     21  C   UNL     1    -100.948 -29.199 -14.459  1.00  0.00     0.000 C 
BRANCH  21  22
ATOM     22  C   UNL     1    -101.578 -29.185 -15.865  1.00  0.00    -0.000 C 
BRANCH  22  23
ATOM     23  C   UNL     1    -102.035 -27.805 -16.366  1.00  0.00    -0.000 C 
BRANCH  23  24
ATOM     24  C   UNL     1    -102.481 -26.874 -15.226  1.00  0.00    -0.000 C 
BRANCH  24  25
ATOM     25  C   UNL     1    -103.497 -25.832 -15.722  1.00  0.00    -0.000 C 
BRANCH  25  26
ATOM     26  C   UNL     1    -104.631 -26.473 -16.550  1.00  0.00    -0.000 C 
BRANCH  26  27
ATOM     27  C   UNL     1    -105.931 -26.701 -15.759  1.00  0.00    -0.000 C 
BRANCH  27  28
ATOM     28  C   UNL     1    -106.481 -28.131 -15.907  1.00  0.00    -0.000 C 
BRANCH  28  29
ATOM     29  C   UNL     1    -105.369 -29.191 -15.931  1.00  0.00    -0.003 C 
ATOM     30  C   UNL     1    -105.121 -29.818 -14.558  1.00  0.00     0.004 C 
ENDBRANCH  28  29
ENDBRANCH  27  28
ENDBRANCH  26  27
ENDBRANCH  25  26
ENDBRANCH  24  25
ENDBRANCH  23  24
ENDBRANCH  22  23
ENDBRANCH  21  22
ENDBRANCH  20  21
ENDBRANCH  19  20
ENDBRANCH  18  19
ENDBRANCH  17  18
ENDBRANCH   1  17
TORSDOF 26
ENDMDL
MODEL 6
REMARK VINA RESULT:    -2.859      3.975      7.299
REMARK INTER + INTRA:         -12.543
REMARK INTER:                  -7.417
REMARK INTRA:                  -5.126
REMARK UNBOUND:                -5.339
REMARK SMILES CCCCCCCCCCCCCCCCCCCCCCCCCCCC(=O)[O-]
REMARK SMILES IDX 15 1 16 2 17 3 18 4 19 5 20 6 21 7 22 8 23 9 24 10 25 11
REMARK SMILES IDX 26 12 27 13 28 14 29 15 30 16 14 17 13 18 12 19 11 20 10 21
REMARK SMILES IDX 9 22 8 23 7 24 6 25 5 26 4 27 3 28 2 29 1 30
REMARK H PARENT
REMARK Flexibility Score: inf
ROOT
ATOM      1  C   UNL     1    -101.492 -32.311 -13.238  1.00  0.00     0.000 C 
ENDROOT
BRANCH   1   2
ATOM      2  C   UNL     1    -102.638 -32.304 -12.213  1.00  0.00     0.000 C 
BRANCH   2   3
ATOM      3  C   UNL     1    -103.777 -31.344 -12.605  1.00  0.00     0.000 C 
BRANCH   3   4
ATOM      4  C   UNL     1    -103.396 -30.401 -13.760  1.00  0.00     0.000 C 
BRANCH   4   5
ATOM      5  C   UNL     1    -104.187 -30.611 -15.064  1.00  0.00     0.000 C 
BRANCH   5   6
ATOM      6  C   UNL     1    -103.421 -30.142 -16.314  1.00  0.00     0.000 C 
BRANCH   6   7
ATOM      7  C   UNL     1    -101.961 -29.771 -16.006  1.00  0.00     0.000 C 
BRANCH   7   8
ATOM      8  C   UNL     1    -101.627 -28.318 -16.388  1.00  0.00     0.000 C 
BRANCH   8   9
ATOM      9  C   UNL     1    -102.878 -27.424 -16.467  1.00  0.00     0.000 C 
BRANCH   9  10
ATOM     10  C   UNL     1    -103.098 -26.514 -15.246  1.00  0.00     0.000 C 
BRANCH  10  11
ATOM     11  C   UNL     1    -104.386 -26.846 -14.478  1.00  0.00     0.000 C 
BRANCH  11  12
ATOM     12  C   UNL     1    -105.222 -25.583 -14.236  1.00  0.00     0.006 C 
BRANCH  12  13
ATOM     13  C   UNL     1    -104.454 -24.327 -14.658  1.00  0.00     0.053 C 
BRANCH  13  14
ATOM     14  C   UNL     1    -105.292 -23.482 -15.564  1.00  0.00     0.041 C 
ATOM     15  O   UNL     1    -106.173 -24.012 -16.293  1.00  0.00    -0.550 OA
ATOM     16  O   UNL     1    -105.115 -22.104 -15.592  1.00  0.00    -0.550 OA
ENDBRANCH  13  14
ENDBRANCH  12  13
ENDBRANCH  11  12
ENDBRANCH  10  11
ENDBRANCH   9  10
ENDBRANCH   8   9
ENDBRANCH   7   8
ENDBRANCH   6   7
ENDBRANCH   5   6
ENDBRANCH   4   5
ENDBRANCH   3   4
ENDBRANCH   2   3
ENDBRANCH   1   2
BRANCH   1  17
ATOM     17  C   UNL     1    -100.140 -31.912 -12.625  1.00  0.00     0.000 C 
BRANCH  17  18
ATOM     18  C   UNL     1     -99.064 -31.785 -13.714  1.00  0.00     0.000 C 
BRANCH  18  19
ATOM     19  C   UNL     1     -98.770 -30.325 -14.094  1.00  0.00     0.000 C 
BRANCH  19  20
ATOM     20  C   UNL     1     -99.022 -29.346 -12.932  1.00  0.00     0.000 C 
BRANCH  20  21
ATOM     21  C   UNL     1     -99.870 -28.127 -13.352  1.00  0.00     0.000 C 
BRANCH  21  22
ATOM     22  C   UNL     1    -101.139 -27.919 -12.502  1.00  0.00    -0.000 C 
BRANCH  22  23
ATOM     23  C   UNL     1    -101.216 -28.764 -11.221  1.00  0.00    -0.000 C 
BRANCH  23  24
ATOM     24  C   UNL     1    -102.444 -28.431 -10.359  1.00  0.00    -0.000 C 
BRANCH  24  25
ATOM     25  C   UNL     1    -103.423 -27.516 -11.111  1.00  0.00    -0.000 C 
BRANCH  25  26
ATOM     26  C   UNL     1    -103.325 -26.048 -10.643  1.00  0.00    -0.000 C 
BRANCH  26  27
ATOM     27  C   UNL     1    -104.686 -25.341 -10.513  1.00  0.00    -0.000 C 
BRANCH  27  28
ATOM     28  C   UNL     1    -104.561 -23.880 -10.046  1.00  0.00    -0.000 C 
BRANCH  28  29
ATOM     29  C   UNL     1    -104.286 -22.911 -11.206  1.00  0.00    -0.003 C 
ATOM     30  C   UNL     1    -104.063 -21.473 -10.734  1.00  0.00     0.004 C 
ENDBRANCH  28  29
ENDBRANCH  27  28
ENDBRANCH  26  27
ENDBRANCH  25  26
ENDBRANCH  24  25
ENDBRANCH  23  24
ENDBRANCH  22  23
ENDBRANCH  21  22
ENDBRANCH  20  21
ENDBRANCH  19  20
ENDBRANCH  18  19
ENDBRANCH  17  18
ENDBRANCH   1  17
TORSDOF 26
ENDMDL
MODEL 7
REMARK VINA RESULT:    -2.854      4.852      8.624
REMARK INTER + INTRA:         -12.531
REMARK INTER:                  -7.778
REMARK INTRA:                  -4.753
REMARK UNBOUND:                -5.339
REMARK SMILES CCCCCCCCCCCCCCCCCCCCCCCCCCCC(=O)[O-]
REMARK SMILES IDX 15 1 16 2 17 3 18 4 19 5 20 6 21 7 22 8 23 9 24 10 25 11
REMARK SMILES IDX 26 12 27 13 28 14 29 15 30 16 14 17 13 18 12 19 11 20 10 21
REMARK SMILES IDX 9 22 8 23 7 24 6 25 5 26 4 27 3 28 2 29 1 30
REMARK H PARENT
REMARK Flexibility Score: inf
ROOT
ATOM      1  C   UNL     1    -105.575 -26.646 -15.872  1.00  0.00     0.000 C 
ENDROOT
BRANCH   1   2
ATOM      2  C   UNL     1    -105.833 -28.039 -15.276  1.00  0.00     0.000 C 
BRANCH   2   3
ATOM      3  C   UNL     1    -105.611 -28.080 -13.752  1.00  0.00     0.000 C 
BRANCH   3   4
ATOM      4  C   UNL     1    -104.671 -26.969 -13.252  1.00  0.00     0.000 C 
BRANCH   4   5
ATOM      5  C   UNL     1    -105.129 -26.256 -11.967  1.00  0.00     0.000 C 
BRANCH   5   6
ATOM      6  C   UNL     1    -103.955 -25.740 -11.115  1.00  0.00     0.000 C 
BRANCH   6   7
ATOM      7  C   UNL     1    -104.074 -26.151  -9.638  1.00  0.00     0.000 C 
BRANCH   7   8
ATOM      8  C   UNL     1    -104.232 -24.942  -8.699  1.00  0.00     0.000 C 
BRANCH   8   9
ATOM      9  C   UNL     1    -102.887 -24.267  -8.371  1.00  0.00     0.000 C 
BRANCH   9  10
ATOM     10  C   UNL     1    -102.794 -22.786  -8.779  1.00  0.00     0.000 C 
BRANCH  10  11
ATOM     11  C   UNL     1    -104.111 -22.238  -9.345  1.00  0.00     0.000 C 
BRANCH  11  12
ATOM     12  C   UNL     1    -103.874 -21.494 -10.664  1.00  0.00     0.006 C 
BRANCH  12  13
ATOM     13  C   UNL     1    -104.521 -22.234 -11.838  1.00  0.00     0.053 C 
BRANCH  13  14
ATOM     14  C   UNL     1    -105.477 -21.338 -12.559  1.00  0.00     0.041 C 
ATOM     15  O   UNL     1    -105.238 -20.975 -13.742  1.00  0.00    -0.550 OA
ATOM     16  O   UNL     1    -106.644 -20.916 -11.933  1.00  0.00    -0.550 OA
ENDBRANCH  13  14
ENDBRANCH  12  13
ENDBRANCH  11  12
ENDBRANCH  10  11
ENDBRANCH   9  10
ENDBRANCH   8   9
ENDBRANCH   7   8
ENDBRANCH   6   7
ENDBRANCH   5   6
ENDBRANCH   4   5
ENDBRANCH   3   4
ENDBRANCH   2   3
ENDBRANCH   1   2
BRANCH   1  17
ATOM     17  C   UNL     1    -104.612 -26.677 -17.070  1.00  0.00     0.000 C 
BRANCH  17  18
ATOM     18  C   UNL     1    -103.233 -26.127 -16.676  1.00  0.00     0.000 C 
BRANCH  18  19
ATOM     19  C   UNL     1    -102.367 -27.161 -15.940  1.00  0.00     0.000 C 
BRANCH  19  20
ATOM     20  C   UNL     1    -102.322 -28.521 -16.661  1.00  0.00     0.000 C 
BRANCH  20  21
ATOM     21  C   UNL     1    -102.123 -29.705 -15.692  1.00  0.00     0.000 C 
BRANCH  21  22
ATOM     22  C   UNL     1    -100.746 -30.387 -15.804  1.00  0.00    -0.000 C 
BRANCH  22  23
ATOM     23  C   UNL     1    -100.148 -30.880 -14.477  1.00  0.00    -0.000 C 
BRANCH  23  24
ATOM     24  C   UNL     1     -98.870 -30.122 -14.079  1.00  0.00    -0.000 C 
BRANCH  24  25
ATOM     25  C   UNL     1     -99.116 -29.216 -12.862  1.00  0.00    -0.000 C 
BRANCH  25  26
ATOM     26  C   UNL     1     -99.898 -27.938 -13.236  1.00  0.00    -0.000 C 
BRANCH  26  27
ATOM     27  C   UNL     1    -101.238 -27.785 -12.493  1.00  0.00    -0.000 C 
BRANCH  27  28
ATOM     28  C   UNL     1    -101.292 -28.592 -11.184  1.00  0.00    -0.000 C 
BRANCH  28  29
ATOM     29  C   UNL     1    -102.637 -29.308 -10.988  1.00  0.00    -0.003 C 
ATOM     30  C   UNL     1    -102.987 -30.236 -12.153  1.00  0.00     0.004 C 
ENDBRANCH  28  29
ENDBRANCH  27  28
ENDBRANCH  26  27
ENDBRANCH  25  26
ENDBRANCH  24  25
ENDBRANCH  23  24
ENDBRANCH  22  23
ENDBRANCH  21  22
ENDBRANCH  20  21
ENDBRANCH  19  20
ENDBRANCH  18  19
ENDBRANCH  17  18
ENDBRANCH   1  17
TORSDOF 26
ENDMDL
MODEL 8
REMARK VINA RESULT:    -2.833      2.868      5.609
REMARK INTER + INTRA:         -12.478
REMARK INTER:                  -8.452
REMARK INTRA:                  -4.026
REMARK UNBOUND:                -5.339
REMARK SMILES CCCCCCCCCCCCCCCCCCCCCCCCCCCC(=O)[O-]
REMARK SMILES IDX 15 1 16 2 17 3 18 4 19 5 20 6 21 7 22 8 23 9 24 10 25 11
REMARK SMILES IDX 26 12 27 13 28 14 29 15 30 16 14 17 13 18 12 19 11 20 10 21
REMARK SMILES IDX 9 22 8 23 7 24 6 25 5 26 4 27 3 28 2 29 1 30
REMARK H PARENT
REMARK Flexibility Score: inf
ROOT
ATOM      1  C   UNL     1    -103.393 -30.078 -15.905  1.00  0.00     0.000 C 
ENDROOT
BRANCH   1   2
ATOM      2  C   UNL     1    -103.450 -30.829 -14.565  1.00  0.00     0.000 C 
BRANCH   2   3
ATOM      3  C   UNL     1    -104.451 -30.202 -13.577  1.00  0.00     0.000 C 
BRANCH   3   4
ATOM      4  C   UNL     1    -104.982 -28.835 -14.047  1.00  0.00     0.000 C 
BRANCH   4   5
ATOM      5  C   UNL     1    -105.602 -27.961 -12.943  1.00  0.00     0.000 C 
BRANCH   5   6
ATOM      6  C   UNL     1    -104.596 -27.580 -11.841  1.00  0.00     0.000 C 
BRANCH   6   7
ATOM      7  C   UNL     1    -103.353 -26.869 -12.401  1.00  0.00     0.000 C 
BRANCH   7   8
ATOM      8  C   UNL     1    -102.046 -27.380 -11.767  1.00  0.00     0.000 C 
BRANCH   8   9
ATOM      9  C   UNL     1    -101.404 -28.524 -12.572  1.00  0.00     0.000 C 
BRANCH   9  10
ATOM     10  C   UNL     1    -100.023 -28.197 -13.168  1.00  0.00     0.000 C 
BRANCH  10  11
ATOM     11  C   UNL     1     -99.276 -29.444 -13.662  1.00  0.00     0.000 C 
BRANCH  11  12
ATOM     12  C   UNL     1     -97.912 -29.575 -12.973  1.00  0.00     0.006 C 
BRANCH  12  13
ATOM     13  C   UNL     1     -98.077 -29.903 -11.487  1.00  0.00     0.053 C 
BRANCH  13  14
ATOM     14  C   UNL     1     -96.743 -30.133 -10.851  1.00  0.00     0.041 C 
ATOM     15  O   UNL     1     -96.668 -30.617  -9.689  1.00  0.00    -0.550 OA
ATOM     16  O   UNL     1     -95.578 -29.833 -11.547  1.00  0.00    -0.550 OA
ENDBRANCH  13  14
ENDBRANCH  12  13
ENDBRANCH  11  12
ENDBRANCH  10  11
ENDBRANCH   9  10
ENDBRANCH   8   9
ENDBRANCH   7   8
ENDBRANCH   6   7
ENDBRANCH   5   6
ENDBRANCH   4   5
ENDBRANCH   3   4
ENDBRANCH   2   3
ENDBRANCH   1   2
BRANCH   1  17
ATOM     17  C   UNL     1    -101.961 -29.703 -16.318  1.00  0.00     0.000 C 
BRANCH  17  18
ATOM     18  C   UNL     1    -101.784 -28.178 -16.352  1.00  0.00     0.000 C 
BRANCH  18  19
ATOM     19  C   UNL     1    -103.097 -27.432 -16.638  1.00  0.00     0.000 C 
BRANCH  19  20
ATOM     20  C   UNL     1    -103.142 -26.037 -15.988  1.00  0.00     0.000 C 
BRANCH  20  21
ATOM     21  C   UNL     1    -104.560 -25.427 -15.980  1.00  0.00     0.000 C 
BRANCH  21  22
ATOM     22  C   UNL     1    -104.669 -24.096 -15.211  1.00  0.00    -0.000 C 
BRANCH  22  23
ATOM     23  C   UNL     1    -105.418 -24.172 -13.871  1.00  0.00    -0.000 C 
BRANCH  23  24
ATOM     24  C   UNL     1    -104.649 -23.506 -12.718  1.00  0.00    -0.000 C 
BRANCH  24  25
ATOM     25  C   UNL     1    -105.365 -22.236 -12.231  1.00  0.00    -0.000 C 
BRANCH  25  26
ATOM     26  C   UNL     1    -105.365 -22.122 -10.691  1.00  0.00    -0.000 C 
BRANCH  26  27
ATOM     27  C   UNL     1    -104.096 -22.680 -10.023  1.00  0.00    -0.000 C 
BRANCH  27  28
ATOM     28  C   UNL     1    -104.325 -24.041  -9.342  1.00  0.00    -0.000 C 
BRANCH  28  29
ATOM     29  C   UNL     1    -103.121 -24.491  -8.501  1.00  0.00    -0.003 C 
ATOM     30  C   UNL     1    -102.105 -23.369  -8.277  1.00  0.00     0.004 C 
ENDBRANCH  28  29
ENDBRANCH  27  28
ENDBRANCH  26  27
ENDBRANCH  25  26
ENDBRANCH  24  25
ENDBRANCH  23  24
ENDBRANCH  22  23
ENDBRANCH  21  22
ENDBRANCH  20  21
ENDBRANCH  19  20
ENDBRANCH  18  19
ENDBRANCH  17  18
ENDBRANCH   1  17
TORSDOF 26
ENDMDL
MODEL 9
REMARK VINA RESULT:    -2.798      3.647      8.534
REMARK INTER + INTRA:         -12.390
REMARK INTER:                  -7.467
REMARK INTRA:                  -4.923
REMARK UNBOUND:                -5.339
REMARK SMILES CCCCCCCCCCCCCCCCCCCCCCCCCCCC(=O)[O-]
REMARK SMILES IDX 15 1 16 2 17 3 18 4 19 5 20 6 21 7 22 8 23 9 24 10 25 11
REMARK SMILES IDX 26 12 27 13 28 14 29 15 30 16 14 17 13 18 12 19 11 20 10 21
REMARK SMILES IDX 9 22 8 23 7 24 6 25 5 26 4 27 3 28 2 29 1 30
REMARK H PARENT
REMARK Flexibility Score: inf
ROOT
ATOM      1  C   UNL     1    -103.162 -30.824 -14.118  1.00  0.00     0.000 C 
ENDROOT
BRANCH   1   2
ATOM      2  C   UNL     1    -102.611 -30.548 -15.526  1.00  0.00     0.000 C 
BRANCH   2   3
ATOM      3  C   UNL     1    -101.442 -29.545 -15.518  1.00  0.00     0.000 C 
BRANCH   3   4
ATOM      4  C   UNL     1    -101.617 -28.410 -16.543  1.00  0.00     0.000 C 
BRANCH   4   5
ATOM      5  C   UNL     1    -102.365 -27.170 -16.022  1.00  0.00     0.000 C 
BRANCH   5   6
ATOM      6  C   UNL     1    -103.666 -26.884 -16.796  1.00  0.00     0.000 C 
BRANCH   6   7
ATOM      7  C   UNL     1    -104.332 -25.568 -16.361  1.00  0.00     0.000 C 
BRANCH   7   8
ATOM      8  C   UNL     1    -105.692 -25.794 -15.676  1.00  0.00     0.000 C 
BRANCH   8   9
ATOM      9  C   UNL     1    -105.690 -25.358 -14.199  1.00  0.00     0.000 C 
BRANCH   9  10
ATOM     10  C   UNL     1    -104.638 -24.294 -13.842  1.00  0.00     0.000 C 
BRANCH  10  11
ATOM     11  C   UNL     1    -104.629 -23.941 -12.348  1.00  0.00     0.000 C 
BRANCH  11  12
ATOM     12  C   UNL     1    -105.207 -25.087 -11.509  1.00  0.00     0.006 C 
BRANCH  12  13
ATOM     13  C   UNL     1    -105.172 -24.748 -10.017  1.00  0.00     0.053 C 
BRANCH  13  14
ATOM     14  C   UNL     1    -103.803 -24.978  -9.460  1.00  0.00     0.041 C 
ATOM     15  O   UNL     1    -103.256 -26.109  -9.566  1.00  0.00    -0.550 OA
ATOM     16  O   UNL     1    -103.118 -23.940  -8.840  1.00  0.00    -0.550 OA
ENDBRANCH  13  14
ENDBRANCH  12  13
ENDBRANCH  11  12
ENDBRANCH  10  11
ENDBRANCH   9  10
ENDBRANCH   8   9
ENDBRANCH   7   8
ENDBRANCH   6   7
ENDBRANCH   5   6
ENDBRANCH   4   5
ENDBRANCH   3   4
ENDBRANCH   2   3
ENDBRANCH   1   2
BRANCH   1  17
ATOM     17  C   UNL     1    -104.606 -30.330 -13.934  1.00  0.00     0.000 C 
BRANCH  17  18
ATOM     18  C   UNL     1    -104.632 -28.828 -13.614  1.00  0.00     0.000 C 
BRANCH  18  19
ATOM     19  C   UNL     1    -103.766 -28.462 -12.399  1.00  0.00     0.000 C 
BRANCH  19  20
ATOM     20  C   UNL     1    -102.726 -27.372 -12.716  1.00  0.00     0.000 C 
BRANCH  20  21
ATOM     21  C   UNL     1    -101.293 -27.777 -12.314  1.00  0.00     0.000 C 
BRANCH  21  22
ATOM     22  C   UNL     1    -101.227 -28.816 -11.178  1.00  0.00    -0.000 C 
BRANCH  22  23
ATOM     23  C   UNL     1     -99.993 -29.733 -11.198  1.00  0.00    -0.000 C 
BRANCH  23  24
ATOM     24  C   UNL     1    -100.088 -30.841 -12.259  1.00  0.00    -0.000 C 
BRANCH  24  25
ATOM     25  C   UNL     1     -98.914 -30.768 -13.249  1.00  0.00    -0.000 C 
BRANCH  25  26
ATOM     26  C   UNL     1     -98.011 -29.543 -12.993  1.00  0.00    -0.000 C 
BRANCH  26  27
ATOM     27  C   UNL     1     -96.545 -29.899 -12.689  1.00  0.00    -0.000 C 
BRANCH  27  28
ATOM     28  C   UNL     1     -96.232 -29.916 -11.182  1.00  0.00    -0.000 C 
BRANCH  28  29
ATOM     29  C   UNL     1     -95.681 -31.270 -10.709  1.00  0.00    -0.003 C 
ATOM     30  C   UNL     1     -95.890 -32.384 -11.737  1.00  0.00     0.004 C 
ENDBRANCH  28  29
ENDBRANCH  27  28
ENDBRANCH  26  27
ENDBRANCH  25  26
ENDBRANCH  24  25
ENDBRANCH  23  24
ENDBRANCH  22  23
ENDBRANCH  21  22
ENDBRANCH  20  21
ENDBRANCH  19  20
ENDBRANCH  18  19
ENDBRANCH  17  18
ENDBRANCH   1  17
TORSDOF 26
ENDMDL
