MODEL 1
REMARK VINA RESULT:    -6.616      0.000      0.000
REMARK INTER + INTRA:          -6.616
REMARK INTER:                  -6.616
REMARK INTRA:                   0.000
REMARK UNBOUND:                 0.000
REMARK SMILES Cc1cc2cc3c(C)cc(=O)oc3c(C)c2o1
REMARK SMILES IDX 8 1 7 2 9 3 10 4 11 5 12 6 13 7 6 8 5 9 4 10 3 11 2 12 17 13
REMARK SMILES IDX 16 14 14 15 15 16 1 17
REMARK H PARENT
REMARK Flexibility Score: inf
ROOT
ATOM      1  C   UNL     1      -7.121  26.349  49.182  1.00  0.00     0.045 C 
ATOM      2  C   UNL     1      -5.801  26.039  49.841  1.00  0.00    -0.033 A 
ATOM      3  C   UNL     1      -5.223  26.988  50.695  1.00  0.00     0.098 A 
ATOM      4  C   UNL     1      -4.001  26.709  51.308  1.00  0.00     0.336 A 
ATOM      5  O   UNL     1      -3.477  27.558  52.075  1.00  0.00    -0.246 OA
ATOM      6  O   UNL     1      -3.384  25.555  51.091  1.00  0.00    -0.422 OA
ATOM      7  C   UNL     1      -3.877  24.610  50.293  1.00  0.00     0.145 A 
ATOM      8  C   UNL     1      -5.125  24.819  49.624  1.00  0.00     0.022 A 
ATOM      9  C   UNL     1      -5.636  23.811  48.771  1.00  0.00     0.024 A 
ATOM     10  C   UNL     1      -4.894  22.647  48.612  1.00  0.00     0.022 A 
ATOM     11  C   UNL     1      -5.139  21.527  47.851  1.00  0.00     0.054 A 
ATOM     12  C   UNL     1      -4.044  20.706  48.090  1.00  0.00     0.102 A 
ATOM     13  O   UNL     1      -3.202  21.278  48.931  1.00  0.00    -0.461 OA
ATOM     14  C   UNL     1      -3.701  22.448  49.254  1.00  0.00     0.140 A 
ATOM     15  C   UNL     1      -3.157  23.403  50.116  1.00  0.00     0.036 A 
ATOM     16  C   UNL     1      -1.833  23.179  50.789  1.00  0.00     0.052 C 
ATOM     17  C   UNL     1      -3.838  19.352  47.500  1.00  0.00     0.087 C 
ENDROOT
TORSDOF 0
ENDMDL
MODEL 2
REMARK VINA RESULT:    -6.473      2.153      4.336
REMARK INTER + INTRA:          -6.473
REMARK INTER:                  -6.473
REMARK INTRA:                   0.000
REMARK UNBOUND:                 0.000
REMARK SMILES Cc1cc2cc3c(C)cc(=O)oc3c(C)c2o1
REMARK SMILES IDX 8 1 7 2 9 3 10 4 11 5 12 6 13 7 6 8 5 9 4 10 3 11 2 12 17 13
REMARK SMILES IDX 16 14 14 15 15 16 1 17
REMARK H PARENT
REMARK Flexibility Score: inf
ROOT
ATOM      1  C   UNL     1      -5.100  22.947  48.214  1.00  0.00     0.045 C 
ATOM      2  C   UNL     1      -5.180  24.089  49.194  1.00  0.00    -0.033 A 
ATOM      3  C   UNL     1      -6.238  25.003  49.097  1.00  0.00     0.098 A 
ATOM      4  C   UNL     1      -6.318  26.064  50.000  1.00  0.00     0.336 A 
ATOM      5  O   UNL     1      -7.266  26.888  49.916  1.00  0.00    -0.246 OA
ATOM      6  O   UNL     1      -5.404  26.213  50.950  1.00  0.00    -0.422 OA
ATOM      7  C   UNL     1      -4.375  25.382  51.100  1.00  0.00     0.145 A 
ATOM      8  C   UNL     1      -4.219  24.270  50.213  1.00  0.00     0.022 A 
ATOM      9  C   UNL     1      -3.115  23.397  50.375  1.00  0.00     0.024 A 
ATOM     10  C   UNL     1      -2.215  23.662  51.401  1.00  0.00     0.022 A 
ATOM     11  C   UNL     1      -1.069  23.000  51.778  1.00  0.00     0.054 A 
ATOM     12  C   UNL     1      -0.592  23.733  52.858  1.00  0.00     0.102 A 
ATOM     13  O   UNL     1      -1.385  24.755  53.120  1.00  0.00    -0.461 OA
ATOM     14  C   UNL     1      -2.367  24.725  52.250  1.00  0.00     0.140 A 
ATOM     15  C   UNL     1      -3.443  25.610  52.142  1.00  0.00     0.036 A 
ATOM     16  C   UNL     1      -3.577  26.787  53.064  1.00  0.00     0.052 C 
ATOM     17  C   UNL     1       0.638  23.413  53.638  1.00  0.00     0.087 C 
ENDROOT
TORSDOF 0
ENDMDL
MODEL 3
REMARK VINA RESULT:    -6.451      1.865      5.368
REMARK INTER + INTRA:          -6.451
REMARK INTER:                  -6.451
REMARK INTRA:                   0.000
REMARK UNBOUND:                 0.000
REMARK SMILES Cc1cc2cc3c(C)cc(=O)oc3c(C)c2o1
REMARK SMILES IDX 8 1 7 2 9 3 10 4 11 5 12 6 13 7 6 8 5 9 4 10 3 11 2 12 17 13
REMARK SMILES IDX 16 14 14 15 15 16 1 17
REMARK H PARENT
REMARK Flexibility Score: inf
ROOT
ATOM      1  C   UNL     1      -5.466  21.893  47.711  1.00  0.00     0.045 C 
ATOM      2  C   UNL     1      -4.030  21.838  48.166  1.00  0.00    -0.033 A 
ATOM      3  C   UNL     1      -3.139  20.970  47.520  1.00  0.00     0.098 A 
ATOM      4  C   UNL     1      -1.808  20.913  47.937  1.00  0.00     0.336 A 
ATOM      5  O   UNL     1      -1.005  20.134  47.362  1.00  0.00    -0.246 OA
ATOM      6  O   UNL     1      -1.380  21.674  48.936  1.00  0.00    -0.422 OA
ATOM      7  C   UNL     1      -2.171  22.520  49.592  1.00  0.00     0.145 A 
ATOM      8  C   UNL     1      -3.551  22.637  49.228  1.00  0.00     0.022 A 
ATOM      9  C   UNL     1      -4.386  23.533  49.937  1.00  0.00     0.024 A 
ATOM     10  C   UNL     1      -3.826  24.271  50.974  1.00  0.00     0.022 A 
ATOM     11  C   UNL     1      -4.394  25.192  51.824  1.00  0.00     0.054 A 
ATOM     12  C   UNL     1      -3.347  25.583  52.652  1.00  0.00     0.102 A 
ATOM     13  O   UNL     1      -2.233  24.953  52.329  1.00  0.00    -0.461 OA
ATOM     14  C   UNL     1      -2.506  24.159  51.320  1.00  0.00     0.140 A 
ATOM     15  C   UNL     1      -1.635  23.300  50.646  1.00  0.00     0.036 A 
ATOM     16  C   UNL     1      -0.197  23.169  51.058  1.00  0.00     0.052 C 
ATOM     17  C   UNL     1      -3.447  26.587  53.748  1.00  0.00     0.087 C 
ENDROOT
TORSDOF 0
ENDMDL
MODEL 4
REMARK VINA RESULT:    -6.402      2.500      3.684
REMARK INTER + INTRA:          -6.402
REMARK INTER:                  -6.402
REMARK INTRA:                   0.000
REMARK UNBOUND:                 0.000
REMARK SMILES Cc1cc2cc3c(C)cc(=O)oc3c(C)c2o1
REMARK SMILES IDX 8 1 7 2 9 3 10 4 11 5 12 6 13 7 6 8 5 9 4 10 3 11 2 12 17 13
REMARK SMILES IDX 16 14 14 15 15 16 1 17
REMARK H PARENT
REMARK Flexibility Score: inf
ROOT
ATOM      1  C   UNL     1      -3.594  26.731  54.123  1.00  0.00     0.045 C 
ATOM      2  C   UNL     1      -2.442  25.976  53.512  1.00  0.00    -0.033 A 
ATOM      3  C   UNL     1      -1.161  26.120  54.060  1.00  0.00     0.098 A 
ATOM      4  C   UNL     1      -0.088  25.426  53.498  1.00  0.00     0.336 A 
ATOM      5  O   UNL     1       1.065  25.553  53.987  1.00  0.00    -0.246 OA
ATOM      6  O   UNL     1      -0.272  24.629  52.454  1.00  0.00    -0.422 OA
ATOM      7  C   UNL     1      -1.461  24.445  51.884  1.00  0.00     0.145 A 
ATOM      8  C   UNL     1      -2.612  25.124  52.398  1.00  0.00     0.022 A 
ATOM      9  C   UNL     1      -3.871  24.929  51.780  1.00  0.00     0.024 A 
ATOM     10  C   UNL     1      -3.938  24.077  50.683  1.00  0.00     0.022 A 
ATOM     11  C   UNL     1      -5.007  23.717  49.895  1.00  0.00     0.054 A 
ATOM     12  C   UNL     1      -4.461  22.852  48.954  1.00  0.00     0.102 A 
ATOM     13  O   UNL     1      -3.166  22.696  49.156  1.00  0.00    -0.461 OA
ATOM     14  C   UNL     1      -2.836  23.429  50.194  1.00  0.00     0.140 A 
ATOM     15  C   UNL     1      -1.574  23.576  50.772  1.00  0.00     0.036 A 
ATOM     16  C   UNL     1      -0.371  22.878  50.204  1.00  0.00     0.052 C 
ATOM     17  C   UNL     1      -5.222  22.170  47.869  1.00  0.00     0.087 C 
ENDROOT
TORSDOF 0
ENDMDL
MODEL 5
REMARK VINA RESULT:    -6.031      2.856      3.514
REMARK INTER + INTRA:          -6.031
REMARK INTER:                  -6.031
REMARK INTRA:                   0.000
REMARK UNBOUND:                 0.000
REMARK SMILES Cc1cc2cc3c(C)cc(=O)oc3c(C)c2o1
REMARK SMILES IDX 8 1 7 2 9 3 10 4 11 5 12 6 13 7 6 8 5 9 4 10 3 11 2 12 17 13
REMARK SMILES IDX 16 14 14 15 15 16 1 17
REMARK H PARENT
REMARK Flexibility Score: inf
ROOT
ATOM      1  C   UNL     1      -6.293  24.663  49.128  1.00  0.00     0.045 C 
ATOM      2  C   UNL     1      -5.206  24.601  48.086  1.00  0.00    -0.033 A 
ATOM      3  C   UNL     1      -4.793  25.782  47.457  1.00  0.00     0.098 A 
ATOM      4  C   UNL     1      -3.788  25.733  46.489  1.00  0.00     0.336 A 
ATOM      5  O   UNL     1      -3.413  26.791  45.920  1.00  0.00    -0.246 OA
ATOM      6  O   UNL     1      -3.221  24.578  46.163  1.00  0.00    -0.422 OA
ATOM      7  C   UNL     1      -3.565  23.420  46.721  1.00  0.00     0.145 A 
ATOM      8  C   UNL     1      -4.589  23.384  47.720  1.00  0.00     0.022 A 
ATOM      9  C   UNL     1      -4.954  22.146  48.301  1.00  0.00     0.024 A 
ATOM     10  C   UNL     1      -4.297  20.999  47.869  1.00  0.00     0.022 A 
ATOM     11  C   UNL     1      -4.451  19.685  48.245  1.00  0.00     0.054 A 
ATOM     12  C   UNL     1      -3.529  18.996  47.467  1.00  0.00     0.102 A 
ATOM     13  O   UNL     1      -2.864  19.825  46.683  1.00  0.00    -0.461 OA
ATOM     14  C   UNL     1      -3.316  21.036  46.915  1.00  0.00     0.140 A 
ATOM     15  C   UNL     1      -2.909  22.231  46.318  1.00  0.00     0.036 A 
ATOM     16  C   UNL     1      -1.852  22.247  45.252  1.00  0.00     0.052 C 
ATOM     17  C   UNL     1      -3.295  17.525  47.509  1.00  0.00     0.087 C 
ENDROOT
TORSDOF 0
ENDMDL
MODEL 6
REMARK VINA RESULT:    -5.968      3.169      4.334
REMARK INTER + INTRA:          -5.968
REMARK INTER:                  -5.968
REMARK INTRA:                   0.000
REMARK UNBOUND:                 0.000
REMARK SMILES Cc1cc2cc3c(C)cc(=O)oc3c(C)c2o1
REMARK SMILES IDX 8 1 7 2 9 3 10 4 11 5 12 6 13 7 6 8 5 9 4 10 3 11 2 12 17 13
REMARK SMILES IDX 16 14 14 15 15 16 1 17
REMARK H PARENT
REMARK Flexibility Score: inf
ROOT
ATOM      1  C   UNL     1      -5.472  23.221  48.497  1.00  0.00     0.045 C 
ATOM      2  C   UNL     1      -4.052  23.033  48.030  1.00  0.00    -0.033 A 
ATOM      3  C   UNL     1      -3.332  24.142  47.565  1.00  0.00     0.098 A 
ATOM      4  C   UNL     1      -2.016  23.975  47.129  1.00  0.00     0.336 A 
ATOM      5  O   UNL     1      -1.365  24.967  46.709  1.00  0.00    -0.246 OA
ATOM      6  O   UNL     1      -1.442  22.779  47.154  1.00  0.00    -0.422 OA
ATOM      7  C   UNL     1      -2.067  21.686  47.583  1.00  0.00     0.145 A 
ATOM      8  C   UNL     1      -3.420  21.770  48.044  1.00  0.00     0.022 A 
ATOM      9  C   UNL     1      -4.079  20.599  48.491  1.00  0.00     0.024 A 
ATOM     10  C   UNL     1      -3.378  19.399  48.459  1.00  0.00     0.022 A 
ATOM     11  C   UNL     1      -3.766  18.128  48.817  1.00  0.00     0.054 A 
ATOM     12  C   UNL     1      -2.647  17.345  48.557  1.00  0.00     0.102 A 
ATOM     13  O   UNL     1      -1.658  18.081  48.084  1.00  0.00    -0.461 OA
ATOM     14  C   UNL     1      -2.085  19.321  48.019  1.00  0.00     0.140 A 
ATOM     15  C   UNL     1      -1.383  20.446  47.580  1.00  0.00     0.036 A 
ATOM     16  C   UNL     1       0.026  20.335  47.073  1.00  0.00     0.052 C 
ATOM     17  C   UNL     1      -2.552  15.876  48.792  1.00  0.00     0.087 C 
ENDROOT
TORSDOF 0
ENDMDL
MODEL 7
REMARK VINA RESULT:    -5.953      2.405      6.079
REMARK INTER + INTRA:          -5.953
REMARK INTER:                  -5.953
REMARK INTRA:                   0.000
REMARK UNBOUND:                 0.000
REMARK SMILES Cc1cc2cc3c(C)cc(=O)oc3c(C)c2o1
REMARK SMILES IDX 8 1 7 2 9 3 10 4 11 5 12 6 13 7 6 8 5 9 4 10 3 11 2 12 17 13
REMARK SMILES IDX 16 14 14 15 15 16 1 17
REMARK H PARENT
REMARK Flexibility Score: inf
ROOT
ATOM      1  C   UNL     1      -4.371  18.137  48.452  1.00  0.00     0.045 C 
ATOM      2  C   UNL     1      -3.224  19.027  48.049  1.00  0.00    -0.033 A 
ATOM      3  C   UNL     1      -1.990  18.449  47.720  1.00  0.00     0.098 A 
ATOM      4  C   UNL     1      -0.923  19.267  47.347  1.00  0.00     0.336 A 
ATOM      5  O   UNL     1       0.187  18.753  47.052  1.00  0.00    -0.246 OA
ATOM      6  O   UNL     1      -1.067  20.585  47.299  1.00  0.00    -0.422 OA
ATOM      7  C   UNL     1      -2.209  21.200  47.597  1.00  0.00     0.145 A 
ATOM      8  C   UNL     1      -3.352  20.433  47.991  1.00  0.00     0.022 A 
ATOM      9  C   UNL     1      -4.560  21.096  48.315  1.00  0.00     0.024 A 
ATOM     10  C   UNL     1      -4.586  22.484  48.239  1.00  0.00     0.022 A 
ATOM     11  C   UNL     1      -5.603  23.374  48.501  1.00  0.00     0.054 A 
ATOM     12  C   UNL     1      -5.036  24.620  48.258  1.00  0.00     0.102 A 
ATOM     13  O   UNL     1      -3.778  24.497  47.876  1.00  0.00    -0.461 OA
ATOM     14  C   UNL     1      -3.494  23.216  47.860  1.00  0.00     0.140 A 
ATOM     15  C   UNL     1      -2.282  22.612  47.518  1.00  0.00     0.036 A 
ATOM     16  C   UNL     1      -1.085  23.433  47.132  1.00  0.00     0.052 C 
ATOM     17  C   UNL     1      -5.741  25.927  48.390  1.00  0.00     0.087 C 
ENDROOT
TORSDOF 0
ENDMDL
MODEL 8
REMARK VINA RESULT:    -5.951      1.785      3.575
REMARK INTER + INTRA:          -5.951
REMARK INTER:                  -5.951
REMARK INTRA:                   0.000
REMARK UNBOUND:                 0.000
REMARK SMILES Cc1cc2cc3c(C)cc(=O)oc3c(C)c2o1
REMARK SMILES IDX 8 1 7 2 9 3 10 4 11 5 12 6 13 7 6 8 5 9 4 10 3 11 2 12 17 13
REMARK SMILES IDX 16 14 14 15 15 16 1 17
REMARK H PARENT
REMARK Flexibility Score: inf
ROOT
ATOM      1  C   UNL     1       0.233  24.213  52.897  1.00  0.00     0.045 C 
ATOM      2  C   UNL     1      -1.198  24.635  52.685  1.00  0.00    -0.033 A 
ATOM      3  C   UNL     1      -1.761  25.597  53.534  1.00  0.00     0.098 A 
ATOM      4  C   UNL     1      -3.087  25.991  53.345  1.00  0.00     0.336 A 
ATOM      5  O   UNL     1      -3.597  26.854  54.105  1.00  0.00    -0.246 OA
ATOM      6  O   UNL     1      -3.815  25.465  52.369  1.00  0.00    -0.422 OA
ATOM      7  C   UNL     1      -3.344  24.548  51.527  1.00  0.00     0.145 A 
ATOM      8  C   UNL     1      -1.994  24.088  51.655  1.00  0.00     0.022 A 
ATOM      9  C   UNL     1      -1.505  23.105  50.760  1.00  0.00     0.024 A 
ATOM     10  C   UNL     1      -2.367  22.620  49.784  1.00  0.00     0.022 A 
ATOM     11  C   UNL     1      -2.167  21.673  48.806  1.00  0.00     0.054 A 
ATOM     12  C   UNL     1      -3.387  21.604  48.143  1.00  0.00     0.102 A 
ATOM     13  O   UNL     1      -4.257  22.444  48.673  1.00  0.00    -0.461 OA
ATOM     14  C   UNL     1      -3.657  23.062  49.663  1.00  0.00     0.140 A 
ATOM     15  C   UNL     1      -4.187  24.038  50.510  1.00  0.00     0.036 A 
ATOM     16  C   UNL     1      -5.613  24.490  50.380  1.00  0.00     0.052 C 
ATOM     17  C   UNL     1      -3.685  20.721  46.979  1.00  0.00     0.087 C 
ENDROOT
TORSDOF 0
ENDMDL
MODEL 9
REMARK VINA RESULT:    -5.814      2.002      3.838
REMARK INTER + INTRA:          -5.814
REMARK INTER:                  -5.814
REMARK INTRA:                   0.000
REMARK UNBOUND:                 0.000
REMARK SMILES Cc1cc2cc3c(C)cc(=O)oc3c(C)c2o1
REMARK SMILES IDX 8 1 7 2 9 3 10 4 11 5 12 6 13 7 6 8 5 9 4 10 3 11 2 12 17 13
REMARK SMILES IDX 16 14 14 15 15 16 1 17
REMARK H PARENT
REMARK Flexibility Score: inf
ROOT
ATOM      1  C   UNL     1      -0.238  23.176  51.037  1.00  0.00     0.045 C 
ATOM      2  C   UNL     1      -1.658  23.315  50.550  1.00  0.00    -0.033 A 
ATOM      3  C   UNL     1      -2.480  24.302  51.108  1.00  0.00     0.098 A 
ATOM      4  C   UNL     1      -3.797  24.435  50.664  1.00  0.00     0.336 A 
ATOM      5  O   UNL     1      -4.540  25.320  51.163  1.00  0.00    -0.246 OA
ATOM      6  O   UNL     1      -4.274  23.637  49.717  1.00  0.00    -0.422 OA
ATOM      7  C   UNL     1      -3.548  22.680  49.144  1.00  0.00     0.145 A 
ATOM      8  C   UNL     1      -2.189  22.476  49.545  1.00  0.00     0.022 A 
ATOM      9  C   UNL     1      -1.428  21.449  48.936  1.00  0.00     0.024 A 
ATOM     10  C   UNL     1      -2.041  20.668  47.962  1.00  0.00     0.022 A 
ATOM     11  C   UNL     1      -1.554  19.614  47.225  1.00  0.00     0.054 A 
ATOM     12  C   UNL     1      -2.625  19.233  46.425  1.00  0.00     0.102 A 
ATOM     13  O   UNL     1      -3.677  19.997  46.655  1.00  0.00    -0.461 OA
ATOM     14  C   UNL     1      -3.340  20.866  47.579  1.00  0.00     0.140 A 
ATOM     15  C   UNL     1      -4.132  21.871  48.138  1.00  0.00     0.036 A 
ATOM     16  C   UNL     1      -5.564  22.054  47.725  1.00  0.00     0.052 C 
ATOM     17  C   UNL     1      -2.602  18.128  45.425  1.00  0.00     0.087 C 
ENDROOT
TORSDOF 0
ENDMDL
