MODEL 1
REMARK VINA RESULT:    -3.352      0.000      0.000
REMARK INTER + INTRA:          -3.450
REMARK INTER:                  -3.450
REMARK INTRA:                   0.000
REMARK UNBOUND:                 0.000
REMARK SMILES Oc1ccc2[nH]ccc2c1
REMARK SMILES IDX 3 1 4 2 5 3 9 4 8 5 7 6 6 7 10 8 2 9 1 11
REMARK H PARENT 6 10 1 12
REMARK Flexibility Score: inf
ROOT
ATOM      1  C   UNL     1       0.317   8.833   9.912  1.00  0.00     0.048 A 
ATOM      2  C   UNL     1       1.081   8.603  11.072  1.00  0.00     0.030 A 
ATOM      3  C   UNL     1       2.424   8.975  11.051  1.00  0.00     0.046 A 
ATOM      4  C   UNL     1       2.996   9.546   9.946  1.00  0.00     0.003 A 
ATOM      5  C   UNL     1       4.317   9.791  10.246  1.00  0.00     0.028 A 
ATOM      6  C   UNL     1       4.483   9.343  11.554  1.00  0.00     0.083 A 
ATOM      7  N   UNL     1       3.322   8.846  12.041  1.00  0.00    -0.361 N 
ATOM      8  C   UNL     1       2.269   9.787   8.782  1.00  0.00     0.056 A 
ATOM      9  C   UNL     1       0.906   9.422   8.769  1.00  0.00     0.116 A 
ATOM     10  H   UNL     1       3.163   8.445  12.992  1.00  0.00     0.166 HD
ENDROOT
BRANCH   9  11
ATOM     11  O   UNL     1       0.128   9.638   7.634  1.00  0.00    -0.508 OA
ATOM     12  H   UNL     1      -0.691  10.235   7.660  1.00  0.00     0.293 HD
ENDBRANCH   9  11
TORSDOF 1
ENDMDL
MODEL 2
REMARK VINA RESULT:    -3.291      1.198      2.225
REMARK INTER + INTRA:          -3.387
REMARK INTER:                  -3.387
REMARK INTRA:                   0.000
REMARK UNBOUND:                 0.000
REMARK SMILES Oc1ccc2[nH]ccc2c1
REMARK SMILES IDX 3 1 4 2 5 3 9 4 8 5 7 6 6 7 10 8 2 9 1 11
REMARK H PARENT 6 10 1 12
REMARK Flexibility Score: inf
ROOT
ATOM      1  C   UNL     1       1.570   9.949   8.047  1.00  0.00     0.048 A 
ATOM      2  C   UNL     1       2.632   9.746   8.948  1.00  0.00     0.030 A 
ATOM      3  C   UNL     1       2.345   9.127  10.163  1.00  0.00     0.046 A 
ATOM      4  C   UNL     1       1.076   8.724  10.484  1.00  0.00     0.003 A 
ATOM      5  C   UNL     1       1.129   8.156  11.738  1.00  0.00     0.028 A 
ATOM      6  C   UNL     1       2.463   8.246  12.123  1.00  0.00     0.083 A 
ATOM      7  N   UNL     1       3.202   8.840  11.157  1.00  0.00    -0.361 N 
ATOM      8  C   UNL     1       0.002   8.910   9.616  1.00  0.00     0.056 A 
ATOM      9  C   UNL     1       0.258   9.534   8.377  1.00  0.00     0.116 A 
ATOM     10  H   UNL     1       4.228   9.034  11.183  1.00  0.00     0.166 HD
ENDROOT
BRANCH   9  11
ATOM     11  O   UNL     1      -0.775   9.747   7.467  1.00  0.00    -0.508 OA
ATOM     12  H   UNL     1      -1.738   9.532   7.701  1.00  0.00     0.293 HD
ENDBRANCH   9  11
TORSDOF 1
ENDMDL
MODEL 3
REMARK VINA RESULT:    -3.201      2.552      3.620
REMARK INTER + INTRA:          -3.295
REMARK INTER:                  -3.295
REMARK INTRA:                   0.000
REMARK UNBOUND:                 0.000
REMARK SMILES Oc1ccc2[nH]ccc2c1
REMARK SMILES IDX 3 1 4 2 5 3 9 4 8 5 7 6 6 7 10 8 2 9 1 11
REMARK H PARENT 6 10 1 12
REMARK Flexibility Score: inf
ROOT
ATOM      1  C   UNL     1       3.286   8.614  12.125  1.00  0.00     0.048 A 
ATOM      2  C   UNL     1       2.020   8.297  11.597  1.00  0.00     0.030 A 
ATOM      3  C   UNL     1       1.671   8.851  10.366  1.00  0.00     0.046 A 
ATOM      4  C   UNL     1       2.520   9.679   9.683  1.00  0.00     0.003 A 
ATOM      5  C   UNL     1       1.884  10.052   8.520  1.00  0.00     0.028 A 
ATOM      6  C   UNL     1       0.649   9.413   8.559  1.00  0.00     0.083 A 
ATOM      7  N   UNL     1       0.524   8.681   9.690  1.00  0.00    -0.361 N 
ATOM      8  C   UNL     1       3.780  10.015  10.177  1.00  0.00     0.056 A 
ATOM      9  C   UNL     1       4.165   9.470  11.421  1.00  0.00     0.116 A 
ATOM     10  H   UNL     1      -0.298   8.102   9.974  1.00  0.00     0.166 HD
ENDROOT
BRANCH   9  11
ATOM     11  O   UNL     1       5.411   9.769  11.966  1.00  0.00    -0.508 OA
ATOM     12  H   UNL     1       5.518   9.996  12.948  1.00  0.00     0.293 HD
ENDBRANCH   9  11
TORSDOF 1
ENDMDL
MODEL 4
REMARK VINA RESULT:    -2.989      2.611      4.102
REMARK INTER + INTRA:          -3.076
REMARK INTER:                  -3.076
REMARK INTRA:                   0.000
REMARK UNBOUND:                 0.000
REMARK SMILES Oc1ccc2[nH]ccc2c1
REMARK SMILES IDX 3 1 4 2 5 3 9 4 8 5 7 6 6 7 10 8 2 9 1 11
REMARK H PARENT 6 10 1 12
REMARK Flexibility Score: inf
ROOT
ATOM      1  C   UNL     1       3.359   9.435   8.523  1.00  0.00     0.048 A 
ATOM      2  C   UNL     1       2.176   9.501   7.763  1.00  0.00     0.030 A 
ATOM      3  C   UNL     1       0.962   9.467   8.447  1.00  0.00     0.046 A 
ATOM      4  C   UNL     1       0.906   9.371   9.811  1.00  0.00     0.003 A 
ATOM      5  C   UNL     1      -0.424   9.359  10.169  1.00  0.00     0.028 A 
ATOM      6  C   UNL     1      -1.125   9.451   8.970  1.00  0.00     0.083 A 
ATOM      7  N   UNL     1      -0.273   9.517   7.920  1.00  0.00    -0.361 N 
ATOM      8  C   UNL     1       2.057   9.303  10.593  1.00  0.00     0.056 A 
ATOM      9  C   UNL     1       3.304   9.336   9.933  1.00  0.00     0.116 A 
ATOM     10  H   UNL     1      -0.528   9.591   6.910  1.00  0.00     0.166 HD
ENDROOT
BRANCH   9  11
ATOM     11  O   UNL     1       4.489   9.271  10.661  1.00  0.00    -0.508 OA
ATOM     12  H   UNL     1       4.580   8.670  11.472  1.00  0.00     0.293 HD
ENDBRANCH   9  11
TORSDOF 1
ENDMDL
MODEL 5
REMARK VINA RESULT:    -2.718      2.351      3.732
REMARK INTER + INTRA:          -2.798
REMARK INTER:                  -2.798
REMARK INTRA:                   0.000
REMARK UNBOUND:                 0.000
REMARK SMILES Oc1ccc2[nH]ccc2c1
REMARK SMILES IDX 3 1 4 2 5 3 9 4 8 5 7 6 6 7 10 8 2 9 1 11
REMARK H PARENT 6 10 1 12
REMARK Flexibility Score: inf
ROOT
ATOM      1  C   UNL     1       2.580   9.690   8.657  1.00  0.00     0.048 A 
ATOM      2  C   UNL     1       1.175   9.698   8.564  1.00  0.00     0.030 A 
ATOM      3  C   UNL     1       0.446   9.392   9.711  1.00  0.00     0.046 A 
ATOM      4  C   UNL     1       1.060   9.090  10.897  1.00  0.00     0.003 A 
ATOM      5  C   UNL     1       0.071   8.838  11.821  1.00  0.00     0.028 A 
ATOM      6  C   UNL     1      -1.125   9.004  11.129  1.00  0.00     0.083 A 
ATOM      7  N   UNL     1      -0.890   9.343   9.840  1.00  0.00    -0.361 N 
ATOM      8  C   UNL     1       2.448   9.072  11.024  1.00  0.00     0.056 A 
ATOM      9  C   UNL     1       3.218   9.378   9.881  1.00  0.00     0.116 A 
ATOM     10  H   UNL     1      -1.605   9.528   9.101  1.00  0.00     0.166 HD
ENDROOT
BRANCH   9  11
ATOM     11  O   UNL     1       4.609   9.376   9.946  1.00  0.00    -0.508 OA
ATOM     12  H   UNL     1       5.103   9.825  10.709  1.00  0.00     0.293 HD
ENDBRANCH   9  11
TORSDOF 1
ENDMDL
MODEL 6
REMARK VINA RESULT:    -2.307      2.275      2.850
REMARK INTER + INTRA:          -2.374
REMARK INTER:                  -2.374
REMARK INTRA:                   0.000
REMARK UNBOUND:                 0.000
REMARK SMILES Oc1ccc2[nH]ccc2c1
REMARK SMILES IDX 3 1 4 2 5 3 9 4 8 5 7 6 6 7 10 8 2 9 1 11
REMARK H PARENT 6 10 1 12
REMARK Flexibility Score: inf
ROOT
ATOM      1  C   UNL     1      -0.830   9.442   9.772  1.00  0.00     0.048 A 
ATOM      2  C   UNL     1      -0.001   9.237   8.654  1.00  0.00     0.030 A 
ATOM      3  C   UNL     1       1.376   9.348   8.836  1.00  0.00     0.046 A 
ATOM      4  C   UNL     1       1.919   9.648  10.056  1.00  0.00     0.003 A 
ATOM      5  C   UNL     1       3.287   9.685   9.901  1.00  0.00     0.028 A 
ATOM      6  C   UNL     1       3.509   9.399   8.557  1.00  0.00     0.083 A 
ATOM      7  N   UNL     1       2.338   9.194   7.911  1.00  0.00    -0.361 N 
ATOM      8  C   UNL     1       1.128   9.857  11.184  1.00  0.00     0.056 A 
ATOM      9  C   UNL     1      -0.272   9.752  11.034  1.00  0.00     0.116 A 
ATOM     10  H   UNL     1       2.212   8.962   6.900  1.00  0.00     0.166 HD
ENDROOT
BRANCH   9  11
ATOM     11  O   UNL     1      -1.115   9.950  12.125  1.00  0.00    -0.508 OA
ATOM     12  H   UNL     1      -1.687  10.783  12.206  1.00  0.00     0.293 HD
ENDBRANCH   9  11
TORSDOF 1
ENDMDL
MODEL 7
REMARK VINA RESULT:    -1.914      1.722      3.184
REMARK INTER + INTRA:          -1.970
REMARK INTER:                  -1.970
REMARK INTRA:                   0.000
REMARK UNBOUND:                 0.000
REMARK SMILES Oc1ccc2[nH]ccc2c1
REMARK SMILES IDX 3 1 4 2 5 3 9 4 8 5 7 6 6 7 10 8 2 9 1 11
REMARK H PARENT 6 10 1 12
REMARK Flexibility Score: inf
ROOT
ATOM      1  C   UNL     1       3.000   9.737   9.541  1.00  0.00     0.048 A 
ATOM      2  C   UNL     1       2.479  10.024  10.817  1.00  0.00     0.030 A 
ATOM      3  C   UNL     1       1.103   9.900  10.999  1.00  0.00     0.046 A 
ATOM      4  C   UNL     1       0.273   9.515   9.981  1.00  0.00     0.003 A 
ATOM      5  C   UNL     1      -1.010   9.492  10.482  1.00  0.00     0.028 A 
ATOM      6  C   UNL     1      -0.888   9.876  11.814  1.00  0.00     0.083 A 
ATOM      7  N   UNL     1       0.405  10.124  12.125  1.00  0.00    -0.361 N 
ATOM      8  C   UNL     1       0.756   9.224   8.707  1.00  0.00     0.056 A 
ATOM      9  C   UNL     1       2.145   9.339   8.487  1.00  0.00     0.116 A 
ATOM     10  H   UNL     1       0.779  10.427  13.052  1.00  0.00     0.166 HD
ENDROOT
BRANCH   9  11
ATOM     11  O   UNL     1       2.686   9.061   7.235  1.00  0.00    -0.508 OA
ATOM     12  H   UNL     1       3.284   9.727   6.758  1.00  0.00     0.293 HD
ENDBRANCH   9  11
TORSDOF 1
ENDMDL
MODEL 8
REMARK VINA RESULT:    -0.836     22.218     23.170
REMARK INTER + INTRA:          -0.861
REMARK INTER:                  -0.861
REMARK INTRA:                   0.000
REMARK UNBOUND:                 0.000
REMARK SMILES Oc1ccc2[nH]ccc2c1
REMARK SMILES IDX 3 1 4 2 5 3 9 4 8 5 7 6 6 7 10 8 2 9 1 11
REMARK H PARENT 6 10 1 12
REMARK Flexibility Score: inf
ROOT
ATOM      1  C   UNL     1      17.270 -10.125   8.788  1.00  0.00     0.048 A 
ATOM      2  C   UNL     1      17.748  -9.929  10.097  1.00  0.00     0.030 A 
ATOM      3  C   UNL     1      17.445  -8.723  10.726  1.00  0.00     0.046 A 
ATOM      4  C   UNL     1      16.708  -7.751  10.104  1.00  0.00     0.003 A 
ATOM      5  C   UNL     1      16.589  -6.698  10.984  1.00  0.00     0.028 A 
ATOM      6  C   UNL     1      17.278  -7.097  12.125  1.00  0.00     0.083 A 
ATOM      7  N   UNL     1      17.800  -8.335  11.962  1.00  0.00    -0.361 N 
ATOM      8  C   UNL     1      16.220  -7.912   8.809  1.00  0.00     0.056 A 
ATOM      9  C   UNL     1      16.509  -9.122   8.142  1.00  0.00     0.116 A 
ATOM     10  H   UNL     1      18.361  -8.875  12.658  1.00  0.00     0.166 HD
ENDROOT
BRANCH   9  11
ATOM     11  O   UNL     1      16.049  -9.341   6.847  1.00  0.00    -0.508 OA
ATOM     12  H   UNL     1      15.269  -8.816   6.467  1.00  0.00     0.293 HD
ENDBRANCH   9  11
TORSDOF 1
ENDMDL
