MODEL 1
REMARK VINA RESULT:    -3.556      0.000      0.000
REMARK INTER + INTRA:          -4.115
REMARK INTER:                  -4.075
REMARK INTRA:                  -0.040
REMARK UNBOUND:                -0.040
REMARK SMILES CC(C)[C@H]([NH3+])C(=O)[O-]
REMARK SMILES IDX 4 1 5 2 6 6 7 7 8 8 2 9 1 10 3 11
REMARK H PARENT 5 3 5 4 5 5
REMARK Flexibility Score: inf
ROOT
ATOM      1  C   UNL     1      19.347  30.141  42.879  1.00  0.00     0.230 C 
ENDROOT
BRANCH   1   2
ATOM      2  N   UNL     1      18.222  29.327  42.392  1.00  0.00    -0.350 N 
ATOM      3  H   UNL     1      18.528  28.712  41.607  1.00  0.00     0.345 HD
ATOM      4  H   UNL     1      17.426  29.926  42.075  1.00  0.00     0.345 HD
ATOM      5  H   UNL     1      17.882  28.708  43.164  1.00  0.00     0.345 HD
ENDBRANCH   1   2
BRANCH   1   6
ATOM      6  C   UNL     1      20.598  29.308  43.013  1.00  0.00     0.099 C 
ATOM      7  O   UNL     1      20.607  28.262  43.716  1.00  0.00    -0.544 OA
ATOM      8  O   UNL     1      21.771  29.724  42.393  1.00  0.00    -0.544 OA
ENDBRANCH   1   6
BRANCH   1   9
ATOM      9  C   UNL     1      19.030  30.885  44.211  1.00  0.00     0.047 C 
ATOM     10  C   UNL     1      18.616  32.345  43.968  1.00  0.00     0.014 C 
ATOM     11  C   UNL     1      17.979  30.175  45.080  1.00  0.00     0.014 C 
ENDBRANCH   1   9
TORSDOF 3
ENDMDL
MODEL 2
REMARK VINA RESULT:    -3.493      1.918      2.048
REMARK INTER + INTRA:          -4.043
REMARK INTER:                  -4.067
REMARK INTRA:                   0.024
REMARK UNBOUND:                -0.040
REMARK SMILES CC(C)[C@H]([NH3+])C(=O)[O-]
REMARK SMILES IDX 4 1 5 2 6 6 7 7 8 8 2 9 1 10 3 11
REMARK H PARENT 5 3 5 4 5 5
REMARK Flexibility Score: inf
ROOT
ATOM      1  C   UNL     1      19.087  30.006  44.345  1.00  0.00     0.230 C 
ENDROOT
BRANCH   1   2
ATOM      2  N   UNL     1      20.499  29.910  44.749  1.00  0.00    -0.350 N 
ATOM      3  H   UNL     1      20.685  30.519  45.576  1.00  0.00     0.345 HD
ATOM      4  H   UNL     1      21.139  30.178  43.968  1.00  0.00     0.345 HD
ATOM      5  H   UNL     1      20.713  28.925  45.029  1.00  0.00     0.345 HD
ENDBRANCH   1   2
BRANCH   1   6
ATOM      6  C   UNL     1      18.929  29.748  42.866  1.00  0.00     0.099 C 
ATOM      7  O   UNL     1      17.815  29.409  42.385  1.00  0.00    -0.544 OA
ATOM      8  O   UNL     1      20.035  29.838  42.030  1.00  0.00    -0.544 OA
ENDBRANCH   1   6
BRANCH   1   9
ATOM      9  C   UNL     1      18.429  31.361  44.746  1.00  0.00     0.047 C 
ATOM     10  C   UNL     1      18.610  32.431  43.658  1.00  0.00     0.014 C 
ATOM     11  C   UNL     1      16.944  31.238  45.125  1.00  0.00     0.014 C 
ENDBRANCH   1   9
TORSDOF 3
ENDMDL
MODEL 3
REMARK VINA RESULT:    -3.486      1.834      2.287
REMARK INTER + INTRA:          -4.036
REMARK INTER:                  -3.975
REMARK INTRA:                  -0.061
REMARK UNBOUND:                -0.040
REMARK SMILES CC(C)[C@H]([NH3+])C(=O)[O-]
REMARK SMILES IDX 4 1 5 2 6 6 7 7 8 8 2 9 1 10 3 11
REMARK H PARENT 5 3 5 4 5 5
REMARK Flexibility Score: inf
ROOT
ATOM      1  C   UNL     1      19.116  30.200  44.253  1.00  0.00     0.230 C 
ENDROOT
BRANCH   1   2
ATOM      2  N   UNL     1      20.331  30.826  44.800  1.00  0.00    -0.350 N 
ATOM      3  H   UNL     1      21.123  30.738  44.126  1.00  0.00     0.345 HD
ATOM      4  H   UNL     1      20.603  30.399  45.714  1.00  0.00     0.345 HD
ATOM      5  H   UNL     1      20.157  31.847  44.951  1.00  0.00     0.345 HD
ENDBRANCH   1   2
BRANCH   1   6
ATOM      6  C   UNL     1      19.429  29.413  43.004  1.00  0.00     0.099 C 
ATOM      7  O   UNL     1      20.452  28.679  42.942  1.00  0.00    -0.544 OA
ATOM      8  O   UNL     1      18.607  29.534  41.891  1.00  0.00    -0.544 OA
ENDBRANCH   1   6
BRANCH   1   9
ATOM      9  C   UNL     1      17.968  31.221  43.993  1.00  0.00     0.047 C 
ATOM     10  C   UNL     1      16.925  31.211  45.122  1.00  0.00     0.014 C 
ATOM     11  C   UNL     1      18.462  32.655  43.743  1.00  0.00     0.014 C 
ENDBRANCH   1   9
TORSDOF 3
ENDMDL
MODEL 4
REMARK VINA RESULT:    -3.373      1.687      1.719
REMARK INTER + INTRA:          -3.906
REMARK INTER:                  -3.911
REMARK INTRA:                   0.005
REMARK UNBOUND:                -0.040
REMARK SMILES CC(C)[C@H]([NH3+])C(=O)[O-]
REMARK SMILES IDX 4 1 5 2 6 6 7 7 8 8 2 9 1 10 3 11
REMARK H PARENT 5 3 5 4 5 5
REMARK Flexibility Score: inf
ROOT
ATOM      1  C   UNL     1      19.952  30.986  43.444  1.00  0.00     0.230 C 
ENDROOT
BRANCH   1   2
ATOM      2  N   UNL     1      20.206  31.995  42.402  1.00  0.00    -0.350 N 
ATOM      3  H   UNL     1      20.933  31.656  41.734  1.00  0.00     0.345 HD
ATOM      4  H   UNL     1      20.511  32.904  42.817  1.00  0.00     0.345 HD
ATOM      5  H   UNL     1      19.328  32.158  41.857  1.00  0.00     0.345 HD
ENDBRANCH   1   2
BRANCH   1   6
ATOM      6  C   UNL     1      19.803  29.611  42.840  1.00  0.00     0.099 C 
ATOM      7  O   UNL     1      20.489  28.641  43.261  1.00  0.00    -0.544 OA
ATOM      8  O   UNL     1      18.933  29.419  41.773  1.00  0.00    -0.544 OA
ENDBRANCH   1   6
BRANCH   1   9
ATOM      9  C   UNL     1      18.729  31.333  44.344  1.00  0.00     0.047 C 
ATOM     10  C   UNL     1      17.630  32.067  43.560  1.00  0.00     0.014 C 
ATOM     11  C   UNL     1      18.136  30.118  45.076  1.00  0.00     0.014 C 
ENDBRANCH   1   9
TORSDOF 3
ENDMDL
MODEL 5
REMARK VINA RESULT:    -3.352      1.914      2.374
REMARK INTER + INTRA:          -3.882
REMARK INTER:                  -3.825
REMARK INTRA:                  -0.058
REMARK UNBOUND:                -0.040
REMARK SMILES CC(C)[C@H]([NH3+])C(=O)[O-]
REMARK SMILES IDX 4 1 5 2 6 6 7 7 8 8 2 9 1 10 3 11
REMARK H PARENT 5 3 5 4 5 5
REMARK Flexibility Score: inf
ROOT
ATOM      1  C   UNL     1      18.667  30.807  43.909  1.00  0.00     0.230 C 
ENDROOT
BRANCH   1   2
ATOM      2  N   UNL     1      18.677  31.652  45.115  1.00  0.00    -0.350 N 
ATOM      3  H   UNL     1      19.327  32.459  44.991  1.00  0.00     0.345 HD
ATOM      4  H   UNL     1      18.955  31.107  45.961  1.00  0.00     0.345 HD
ATOM      5  H   UNL     1      17.718  32.041  45.273  1.00  0.00     0.345 HD
ENDBRANCH   1   2
BRANCH   1   6
ATOM      6  C   UNL     1      19.899  29.938  43.848  1.00  0.00     0.099 C 
ATOM      7  O   UNL     1      20.151  29.109  44.763  1.00  0.00    -0.544 OA
ATOM      8  O   UNL     1      20.793  30.085  42.794  1.00  0.00    -0.544 OA
ENDBRANCH   1   6
BRANCH   1   9
ATOM      9  C   UNL     1      18.498  31.625  42.593  1.00  0.00     0.047 C 
ATOM     10  C   UNL     1      17.081  31.493  42.014  1.00  0.00     0.014 C 
ATOM     11  C   UNL     1      18.875  33.109  42.736  1.00  0.00     0.014 C 
ENDBRANCH   1   9
TORSDOF 3
ENDMDL
MODEL 6
REMARK VINA RESULT:    -3.308      2.616      3.117
REMARK INTER + INTRA:          -3.831
REMARK INTER:                  -3.782
REMARK INTRA:                  -0.049
REMARK UNBOUND:                -0.040
REMARK SMILES CC(C)[C@H]([NH3+])C(=O)[O-]
REMARK SMILES IDX 4 1 5 2 6 6 7 7 8 8 2 9 1 10 3 11
REMARK H PARENT 5 3 5 4 5 5
REMARK Flexibility Score: inf
ROOT
ATOM      1  C   UNL     1      18.179  30.075  42.661  1.00  0.00     0.230 C 
ENDROOT
BRANCH   1   2
ATOM      2  N   UNL     1      19.047  29.015  42.123  1.00  0.00    -0.350 N 
ATOM      3  H   UNL     1      18.711  28.708  41.184  1.00  0.00     0.345 HD
ATOM      4  H   UNL     1      19.088  28.192  42.764  1.00  0.00     0.345 HD
ATOM      5  H   UNL     1      20.017  29.389  42.003  1.00  0.00     0.345 HD
ENDBRANCH   1   2
BRANCH   1   6
ATOM      6  C   UNL     1      17.879  31.114  41.608  1.00  0.00     0.099 C 
ATOM      7  O   UNL     1      18.604  31.225  40.583  1.00  0.00    -0.544 OA
ATOM      8  O   UNL     1      16.819  31.993  41.792  1.00  0.00    -0.544 OA
ENDBRANCH   1   6
BRANCH   1   9
ATOM      9  C   UNL     1      18.754  30.739  43.949  1.00  0.00     0.047 C 
ATOM     10  C   UNL     1      17.769  30.655  45.125  1.00  0.00     0.014 C 
ATOM     11  C   UNL     1      20.126  30.188  44.368  1.00  0.00     0.014 C 
ENDBRANCH   1   9
TORSDOF 3
ENDMDL
MODEL 7
REMARK VINA RESULT:    -3.273     23.323     24.178
REMARK INTER + INTRA:          -3.791
REMARK INTER:                  -3.744
REMARK INTRA:                  -0.048
REMARK UNBOUND:                -0.040
REMARK SMILES CC(C)[C@H]([NH3+])C(=O)[O-]
REMARK SMILES IDX 4 1 5 2 6 6 7 7 8 8 2 9 1 10 3 11
REMARK H PARENT 5 3 5 4 5 5
REMARK Flexibility Score: inf
ROOT
ATOM      1  C   UNL     1      17.634  46.008  26.352  1.00  0.00     0.230 C 
ENDROOT
BRANCH   1   2
ATOM      2  N   UNL     1      16.573  46.626  27.164  1.00  0.00    -0.350 N 
ATOM      3  H   UNL     1      15.885  45.905  27.476  1.00  0.00     0.345 HD
ATOM      4  H   UNL     1      16.075  47.377  26.636  1.00  0.00     0.345 HD
ATOM      5  H   UNL     1      16.996  47.050  28.022  1.00  0.00     0.345 HD
ENDBRANCH   1   2
BRANCH   1   6
ATOM      6  C   UNL     1      18.622  47.044  25.875  1.00  0.00     0.099 C 
ATOM      7  O   UNL     1      19.763  47.139  26.400  1.00  0.00    -0.544 OA
ATOM      8  O   UNL     1      18.254  47.937  24.876  1.00  0.00    -0.544 OA
ENDBRANCH   1   6
BRANCH   1   9
ATOM      9  C   UNL     1      17.079  45.177  25.156  1.00  0.00     0.047 C 
ATOM     10  C   UNL     1      17.348  43.674  25.329  1.00  0.00     0.014 C 
ATOM     11  C   UNL     1      15.587  45.418  24.875  1.00  0.00     0.014 C 
ENDBRANCH   1   9
TORSDOF 3
ENDMDL
MODEL 8
REMARK VINA RESULT:    -3.271      2.721      3.561
REMARK INTER + INTRA:          -3.790
REMARK INTER:                  -3.816
REMARK INTRA:                   0.026
REMARK UNBOUND:                -0.040
REMARK SMILES CC(C)[C@H]([NH3+])C(=O)[O-]
REMARK SMILES IDX 4 1 5 2 6 6 7 7 8 8 2 9 1 10 3 11
REMARK H PARENT 5 3 5 4 5 5
REMARK Flexibility Score: inf
ROOT
ATOM      1  C   UNL     1      18.979  31.616  43.756  1.00  0.00     0.230 C 
ENDROOT
BRANCH   1   2
ATOM      2  N   UNL     1      18.438  31.620  45.125  1.00  0.00    -0.350 N 
ATOM      3  H   UNL     1      19.199  31.790  45.819  1.00  0.00     0.345 HD
ATOM      4  H   UNL     1      17.958  30.719  45.349  1.00  0.00     0.345 HD
ATOM      5  H   UNL     1      17.743  32.397  45.221  1.00  0.00     0.345 HD
ENDBRANCH   1   2
BRANCH   1   6
ATOM      6  C   UNL     1      17.940  31.153  42.765  1.00  0.00     0.099 C 
ATOM      7  O   UNL     1      17.613  31.876  41.786  1.00  0.00    -0.544 OA
ATOM      8  O   UNL     1      17.298  29.936  42.958  1.00  0.00    -0.544 OA
ENDBRANCH   1   6
BRANCH   1   9
ATOM      9  C   UNL     1      20.287  30.780  43.620  1.00  0.00     0.047 C 
ATOM     10  C   UNL     1      20.213  29.465  44.413  1.00  0.00     0.014 C 
ATOM     11  C   UNL     1      20.691  30.497  42.164  1.00  0.00     0.014 C 
ENDBRANCH   1   9
TORSDOF 3
ENDMDL
MODEL 9
REMARK VINA RESULT:    -3.270      2.445      3.177
REMARK INTER + INTRA:          -3.787
REMARK INTER:                  -3.720
REMARK INTRA:                  -0.067
REMARK UNBOUND:                -0.040
REMARK SMILES CC(C)[C@H]([NH3+])C(=O)[O-]
REMARK SMILES IDX 4 1 5 2 6 6 7 7 8 8 2 9 1 10 3 11
REMARK H PARENT 5 3 5 4 5 5
REMARK Flexibility Score: inf
ROOT
ATOM      1  C   UNL     1      17.646  31.951  42.800  1.00  0.00     0.230 C 
ENDROOT
BRANCH   1   2
ATOM      2  N   UNL     1      17.179  30.725  42.134  1.00  0.00    -0.350 N 
ATOM      3  H   UNL     1      17.487  30.710  41.136  1.00  0.00     0.345 HD
ATOM      4  H   UNL     1      16.139  30.638  42.178  1.00  0.00     0.345 HD
ATOM      5  H   UNL     1      17.600  29.891  42.606  1.00  0.00     0.345 HD
ENDBRANCH   1   2
BRANCH   1   6
ATOM      6  C   UNL     1      18.783  32.583  42.034  1.00  0.00     0.099 C 
ATOM      7  O   UNL     1      19.069  33.800  42.188  1.00  0.00    -0.544 OA
ATOM      8  O   UNL     1      19.494  31.826  41.111  1.00  0.00    -0.544 OA
ENDBRANCH   1   6
BRANCH   1   9
ATOM      9  C   UNL     1      18.039  31.723  44.291  1.00  0.00     0.047 C 
ATOM     10  C   UNL     1      16.862  31.186  45.118  1.00  0.00     0.014 C 
ATOM     11  C   UNL     1      19.270  30.820  44.473  1.00  0.00     0.014 C 
ENDBRANCH   1   9
TORSDOF 3
ENDMDL
