MODEL 1
REMARK VINA RESULT:    -3.607      0.000      0.000
REMARK INTER + INTRA:          -4.407
REMARK INTER:                  -4.239
REMARK INTRA:                  -0.167
REMARK UNBOUND:                -0.167
REMARK SMILES [NH3+][C@@H](CO)C(=O)[O-]
REMARK SMILES IDX 3 1 2 2 1 3 5 7 6 8 7 9 4 10
REMARK H PARENT 1 4 1 5 1 6 4 11
REMARK Flexibility Score: inf
ROOT
ATOM      1  C   UNL     1       2.611  26.839  12.182  1.00  0.00     0.227 C 
ENDROOT
BRANCH   1   2
ATOM      2  C   UNL     1       2.734  27.951  13.241  1.00  0.00     0.253 C 
BRANCH   2   3
ATOM      3  N   UNL     1       2.393  27.446  14.577  1.00  0.00    -0.348 N 
ATOM      4  H   UNL     1       1.867  28.168  15.123  1.00  0.00     0.345 HD
ATOM      5  H   UNL     1       3.268  27.196  15.095  1.00  0.00     0.345 HD
ATOM      6  H   UNL     1       1.807  26.584  14.494  1.00  0.00     0.345 HD
ENDBRANCH   2   3
BRANCH   2   7
ATOM      7  C   UNL     1       1.841  29.106  12.876  1.00  0.00     0.102 C 
ATOM      8  O   UNL     1       0.733  29.257  13.456  1.00  0.00    -0.544 OA
ATOM      9  O   UNL     1       2.239  30.024  11.911  1.00  0.00    -0.544 OA
ENDBRANCH   2   7
ENDBRANCH   1   2
BRANCH   1  10
ATOM     10  O   UNL     1       1.293  26.367  12.108  1.00  0.00    -0.390 OA
ATOM     11  H   UNL     1       0.850  26.874  11.378  1.00  0.00     0.210 HD
ENDBRANCH   1  10
TORSDOF 4
ENDMDL
MODEL 2
REMARK VINA RESULT:    -3.523     19.044     19.632
REMARK INTER + INTRA:          -4.308
REMARK INTER:                  -4.077
REMARK INTRA:                  -0.231
REMARK UNBOUND:                -0.167
REMARK SMILES [NH3+][C@@H](CO)C(=O)[O-]
REMARK SMILES IDX 3 1 2 2 1 3 5 7 6 8 7 9 4 10
REMARK H PARENT 1 4 1 5 1 6 4 11
REMARK Flexibility Score: inf
ROOT
ATOM      1  C   UNL     1     -10.590  13.809  20.282  1.00  0.00     0.227 C 
ENDROOT
BRANCH   1   2
ATOM      2  C   UNL     1     -10.657  15.338  20.455  1.00  0.00     0.253 C 
BRANCH   2   3
ATOM      3  N   UNL     1      -9.910  16.022  19.392  1.00  0.00    -0.348 N 
ATOM      4  H   UNL     1      -9.127  16.587  19.795  1.00  0.00     0.345 HD
ATOM      5  H   UNL     1     -10.551  16.656  18.860  1.00  0.00     0.345 HD
ATOM      6  H   UNL     1      -9.518  15.320  18.723  1.00  0.00     0.345 HD
ENDBRANCH   2   3
BRANCH   2   7
ATOM      7  C   UNL     1     -10.117  15.725  21.805  1.00  0.00     0.102 C 
ATOM      8  O   UNL     1      -8.902  16.035  21.935  1.00  0.00    -0.544 OA
ATOM      9  O   UNL     1     -10.955  15.758  22.913  1.00  0.00    -0.544 OA
ENDBRANCH   2   7
ENDBRANCH   1   2
BRANCH   1  10
ATOM     10  O   UNL     1      -9.293  13.337  20.530  1.00  0.00    -0.390 OA
ATOM     11  H   UNL     1      -9.374  12.636  21.229  1.00  0.00     0.210 HD
ENDBRANCH   1  10
TORSDOF 4
ENDMDL
MODEL 3
REMARK VINA RESULT:    -3.244      3.198      4.182
REMARK INTER + INTRA:          -3.980
REMARK INTER:                  -3.754
REMARK INTRA:                  -0.226
REMARK UNBOUND:                -0.167
REMARK SMILES [NH3+][C@@H](CO)C(=O)[O-]
REMARK SMILES IDX 3 1 2 2 1 3 5 7 6 8 7 9 4 10
REMARK H PARENT 1 4 1 5 1 6 4 11
REMARK Flexibility Score: inf
ROOT
ATOM      1  C   UNL     1       1.278  24.284   9.650  1.00  0.00     0.227 C 
ENDROOT
BRANCH   1   2
ATOM      2  C   UNL     1       1.352  24.557  11.164  1.00  0.00     0.253 C 
BRANCH   2   3
ATOM      3  N   UNL     1       0.078  25.082  11.668  1.00  0.00    -0.348 N 
ATOM      4  H   UNL     1       0.035  25.015  12.711  1.00  0.00     0.345 HD
ATOM      5  H   UNL     1      -0.717  24.538  11.258  1.00  0.00     0.345 HD
ATOM      6  H   UNL     1      -0.034  26.082  11.383  1.00  0.00     0.345 HD
ENDBRANCH   2   3
BRANCH   2   7
ATOM      7  C   UNL     1       2.467  25.524  11.456  1.00  0.00     0.102 C 
ATOM      8  O   UNL     1       2.223  26.613  12.041  1.00  0.00    -0.544 OA
ATOM      9  O   UNL     1       3.775  25.217  11.099  1.00  0.00    -0.544 OA
ENDBRANCH   2   7
ENDBRANCH   1   2
BRANCH   1  10
ATOM     10  O   UNL     1       2.296  23.404   9.253  1.00  0.00    -0.390 OA
ATOM     11  H   UNL     1       3.131  23.722   9.685  1.00  0.00     0.210 HD
ENDBRANCH   1  10
TORSDOF 4
ENDMDL
MODEL 4
REMARK VINA RESULT:    -3.197      2.012      2.630
REMARK INTER + INTRA:          -3.924
REMARK INTER:                  -3.917
REMARK INTRA:                  -0.007
REMARK UNBOUND:                -0.167
REMARK SMILES [NH3+][C@@H](CO)C(=O)[O-]
REMARK SMILES IDX 3 1 2 2 1 3 5 7 6 8 7 9 4 10
REMARK H PARENT 1 4 1 5 1 6 4 11
REMARK Flexibility Score: inf
ROOT
ATOM      1  C   UNL     1       2.610  28.362  14.143  1.00  0.00     0.227 C 
ENDROOT
BRANCH   1   2
ATOM      2  C   UNL     1       2.353  27.825  12.722  1.00  0.00     0.253 C 
BRANCH   2   3
ATOM      3  N   UNL     1       2.346  26.358  12.706  1.00  0.00    -0.348 N 
ATOM      4  H   UNL     1       2.457  25.975  13.674  1.00  0.00     0.345 HD
ATOM      5  H   UNL     1       3.130  26.006  12.108  1.00  0.00     0.345 HD
ATOM      6  H   UNL     1       1.447  26.009  12.301  1.00  0.00     0.345 HD
ENDBRANCH   2   3
BRANCH   2   7
ATOM      7  C   UNL     1       3.400  28.353  11.778  1.00  0.00     0.102 C 
ATOM      8  O   UNL     1       3.598  27.784  10.672  1.00  0.00    -0.544 OA
ATOM      9  O   UNL     1       4.143  29.479  12.112  1.00  0.00    -0.544 OA
ENDBRANCH   2   7
ENDBRANCH   1   2
BRANCH   1  10
ATOM     10  O   UNL     1       1.877  27.632  15.090  1.00  0.00    -0.390 OA
ATOM     11  H   UNL     1       2.419  27.621  15.922  1.00  0.00     0.210 HD
ENDBRANCH   1  10
TORSDOF 4
ENDMDL
MODEL 5
REMARK VINA RESULT:    -3.165      4.669      5.541
REMARK INTER + INTRA:          -3.888
REMARK INTER:                  -3.658
REMARK INTRA:                  -0.230
REMARK UNBOUND:                -0.167
REMARK SMILES [NH3+][C@@H](CO)C(=O)[O-]
REMARK SMILES IDX 3 1 2 2 1 3 5 7 6 8 7 9 4 10
REMARK H PARENT 1 4 1 5 1 6 4 11
REMARK Flexibility Score: inf
ROOT
ATOM      1  C   UNL     1       3.819  24.933  10.777  1.00  0.00     0.227 C 
ENDROOT
BRANCH   1   2
ATOM      2  C   UNL     1       5.212  24.472  10.309  1.00  0.00     0.253 C 
BRANCH   2   3
ATOM      3  N   UNL     1       6.067  24.131  11.453  1.00  0.00    -0.348 N 
ATOM      4  H   UNL     1       5.656  24.494  12.345  1.00  0.00     0.345 HD
ATOM      5  H   UNL     1       7.019  24.546  11.321  1.00  0.00     0.345 HD
ATOM      6  H   UNL     1       6.172  23.092  11.522  1.00  0.00     0.345 HD
ENDBRANCH   2   3
BRANCH   2   7
ATOM      7  C   UNL     1       5.857  25.551   9.481  1.00  0.00     0.102 C 
ATOM      8  O   UNL     1       5.160  26.490   9.012  1.00  0.00    -0.544 OA
ATOM      9  O   UNL     1       7.226  25.528   9.241  1.00  0.00    -0.544 OA
ENDBRANCH   2   7
ENDBRANCH   1   2
BRANCH   1  10
ATOM     10  O   UNL     1       3.924  26.035  11.638  1.00  0.00    -0.390 OA
ATOM     11  H   UNL     1       2.998  26.283  11.897  1.00  0.00     0.210 HD
ENDBRANCH   1  10
TORSDOF 4
ENDMDL
MODEL 6
REMARK VINA RESULT:    -3.144      3.884      4.599
REMARK INTER + INTRA:          -3.862
REMARK INTER:                  -3.657
REMARK INTRA:                  -0.206
REMARK UNBOUND:                -0.167
REMARK SMILES [NH3+][C@@H](CO)C(=O)[O-]
REMARK SMILES IDX 3 1 2 2 1 3 5 7 6 8 7 9 4 10
REMARK H PARENT 1 4 1 5 1 6 4 11
REMARK Flexibility Score: inf
ROOT
ATOM      1  C   UNL     1       0.577  24.121  10.953  1.00  0.00     0.227 C 
ENDROOT
BRANCH   1   2
ATOM      2  C   UNL     1       1.741  24.718  10.140  1.00  0.00     0.253 C 
BRANCH   2   3
ATOM      3  N   UNL     1       2.344  23.708   9.263  1.00  0.00    -0.348 N 
ATOM      4  H   UNL     1       1.664  22.936   9.063  1.00  0.00     0.345 HD
ATOM      5  H   UNL     1       3.195  23.304   9.719  1.00  0.00     0.345 HD
ATOM      6  H   UNL     1       2.637  24.148   8.361  1.00  0.00     0.345 HD
ENDBRANCH   2   3
BRANCH   2   7
ATOM      7  C   UNL     1       2.778  25.285  11.072  1.00  0.00     0.102 C 
ATOM      8  O   UNL     1       3.961  24.851  11.042  1.00  0.00    -0.544 OA
ATOM      9  O   UNL     1       2.444  26.301  11.960  1.00  0.00    -0.544 OA
ENDBRANCH   2   7
ENDBRANCH   1   2
BRANCH   1  10
ATOM     10  O   UNL     1      -0.028  25.104  11.750  1.00  0.00    -0.390 OA
ATOM     11  H   UNL     1      -0.671  24.634  12.343  1.00  0.00     0.210 HD
ENDBRANCH   1  10
TORSDOF 4
ENDMDL
MODEL 7
REMARK VINA RESULT:    -3.139      1.895      2.597
REMARK INTER + INTRA:          -3.857
REMARK INTER:                  -3.635
REMARK INTRA:                  -0.223
REMARK UNBOUND:                -0.167
REMARK SMILES [NH3+][C@@H](CO)C(=O)[O-]
REMARK SMILES IDX 3 1 2 2 1 3 5 7 6 8 7 9 4 10
REMARK H PARENT 1 4 1 5 1 6 4 11
REMARK Flexibility Score: inf
ROOT
ATOM      1  C   UNL     1       2.761  28.524  14.520  1.00  0.00     0.227 C 
ENDROOT
BRANCH   1   2
ATOM      2  C   UNL     1       2.269  28.856  13.099  1.00  0.00     0.253 C 
BRANCH   2   3
ATOM      3  N   UNL     1       0.806  28.970  13.061  1.00  0.00    -0.348 N 
ATOM      4  H   UNL     1       0.363  28.282  13.713  1.00  0.00     0.345 HD
ATOM      5  H   UNL     1       0.461  28.790  12.089  1.00  0.00     0.345 HD
ATOM      6  H   UNL     1       0.516  29.937  13.334  1.00  0.00     0.345 HD
ENDBRANCH   2   3
BRANCH   2   7
ATOM      7  C   UNL     1       2.735  27.799  12.135  1.00  0.00     0.102 C 
ATOM      8  O   UNL     1       2.251  26.637  12.187  1.00  0.00    -0.544 OA
ATOM      9  O   UNL     1       3.689  28.100  11.170  1.00  0.00    -0.544 OA
ENDBRANCH   2   7
ENDBRANCH   1   2
BRANCH   1  10
ATOM     10  O   UNL     1       2.020  27.467  15.068  1.00  0.00    -0.390 OA
ATOM     11  H   UNL     1       1.151  27.851  15.360  1.00  0.00     0.210 HD
ENDBRANCH   1  10
TORSDOF 4
ENDMDL
MODEL 8
REMARK VINA RESULT:    -3.130      1.639      2.570
REMARK INTER + INTRA:          -3.846
REMARK INTER:                  -3.833
REMARK INTRA:                  -0.012
REMARK UNBOUND:                -0.167
REMARK SMILES [NH3+][C@@H](CO)C(=O)[O-]
REMARK SMILES IDX 3 1 2 2 1 3 5 7 6 8 7 9 4 10
REMARK H PARENT 1 4 1 5 1 6 4 11
REMARK Flexibility Score: inf
ROOT
ATOM      1  C   UNL     1       1.230  29.263  13.135  1.00  0.00     0.227 C 
ENDROOT
BRANCH   1   2
ATOM      2  C   UNL     1       2.158  28.084  12.786  1.00  0.00     0.253 C 
BRANCH   2   3
ATOM      3  N   UNL     1       2.510  27.317  13.986  1.00  0.00    -0.348 N 
ATOM      4  H   UNL     1       1.670  27.168  14.592  1.00  0.00     0.345 HD
ATOM      5  H   UNL     1       3.240  27.831  14.534  1.00  0.00     0.345 HD
ATOM      6  H   UNL     1       2.905  26.388  13.713  1.00  0.00     0.345 HD
ENDBRANCH   2   3
BRANCH   2   7
ATOM      7  C   UNL     1       3.401  28.594  12.109  1.00  0.00     0.102 C 
ATOM      8  O   UNL     1       3.807  28.057  11.044  1.00  0.00    -0.544 OA
ATOM      9  O   UNL     1       4.100  29.670  12.643  1.00  0.00    -0.544 OA
ENDBRANCH   2   7
ENDBRANCH   1   2
BRANCH   1  10
ATOM     10  O   UNL     1       0.532  29.010  14.325  1.00  0.00    -0.390 OA
ATOM     11  H   UNL     1       0.772  29.737  14.956  1.00  0.00     0.210 HD
ENDBRANCH   1  10
TORSDOF 4
ENDMDL
MODEL 9
REMARK VINA RESULT:    -3.117      1.822      2.122
REMARK INTER + INTRA:          -3.831
REMARK INTER:                  -3.818
REMARK INTRA:                  -0.013
REMARK UNBOUND:                -0.167
REMARK SMILES [NH3+][C@@H](CO)C(=O)[O-]
REMARK SMILES IDX 3 1 2 2 1 3 5 7 6 8 7 9 4 10
REMARK H PARENT 1 4 1 5 1 6 4 11
REMARK Flexibility Score: inf
ROOT
ATOM      1  C   UNL     1       2.380  27.617  12.699  1.00  0.00     0.227 C 
ENDROOT
BRANCH   1   2
ATOM      2  C   UNL     1       1.991  29.065  13.049  1.00  0.00     0.253 C 
BRANCH   2   3
ATOM      3  N   UNL     1       0.577  29.154  13.429  1.00  0.00    -0.348 N 
ATOM      4  H   UNL     1       0.470  29.126  14.470  1.00  0.00     0.345 HD
ATOM      5  H   UNL     1       0.046  28.356  13.009  1.00  0.00     0.345 HD
ATOM      6  H   UNL     1       0.164  30.044  13.067  1.00  0.00     0.345 HD
ENDBRANCH   2   3
BRANCH   2   7
ATOM      7  C   UNL     1       2.274  29.969  11.879  1.00  0.00     0.102 C 
ATOM      8  O   UNL     1       3.319  29.808  11.194  1.00  0.00    -0.544 OA
ATOM      9  O   UNL     1       1.378  30.975  11.536  1.00  0.00    -0.544 OA
ENDBRANCH   2   7
ENDBRANCH   1   2
BRANCH   1  10
ATOM     10  O   UNL     1       2.731  26.904  13.854  1.00  0.00    -0.390 OA
ATOM     11  H   UNL     1       1.888  26.732  14.349  1.00  0.00     0.210 HD
ENDBRANCH   1  10
TORSDOF 4
ENDMDL
