MODEL 1
REMARK VINA RESULT:    -2.928      0.000      0.000
REMARK INTER + INTRA:          -3.474
REMARK INTER:                  -3.441
REMARK INTRA:                  -0.033
REMARK UNBOUND:                -0.033
REMARK SMILES O=C([O-])CCC(=O)[O-]
REMARK SMILES IDX 4 1 2 2 1 3 3 4 5 5 6 6 7 7 8 8
REMARK H PARENT
REMARK Flexibility Score: inf
ROOT
ATOM      1  C   UNL     1      -5.929  -2.250  -4.251  1.00  0.00     0.059 C 
ENDROOT
BRANCH   1   2
ATOM      2  C   UNL     1      -5.945  -3.340  -5.277  1.00  0.00     0.042 C 
ATOM      3  O   UNL     1      -4.898  -3.996  -5.521  1.00  0.00    -0.550 OA
ATOM      4  O   UNL     1      -7.104  -3.606  -5.995  1.00  0.00    -0.550 OA
ENDBRANCH   1   2
BRANCH   1   5
ATOM      5  C   UNL     1      -6.185  -0.877  -4.880  1.00  0.00     0.059 C 
BRANCH   5   6
ATOM      6  C   UNL     1      -6.336   0.187  -3.837  1.00  0.00     0.042 C 
ATOM      7  O   UNL     1      -6.636  -0.122  -2.653  1.00  0.00    -0.550 OA
ATOM      8  O   UNL     1      -6.106   1.518  -4.162  1.00  0.00    -0.550 OA
ENDBRANCH   5   6
ENDBRANCH   1   5
TORSDOF 3
ENDMDL
MODEL 2
REMARK VINA RESULT:    -2.898     12.284     13.252
REMARK INTER + INTRA:          -3.440
REMARK INTER:                  -3.304
REMARK INTRA:                  -0.136
REMARK UNBOUND:                -0.033
REMARK SMILES O=C([O-])CCC(=O)[O-]
REMARK SMILES IDX 4 1 2 2 1 3 3 4 5 5 6 6 7 7 8 8
REMARK H PARENT
REMARK Flexibility Score: inf
ROOT
ATOM      1  C   UNL     1      -1.390   2.204   7.852  1.00  0.00     0.059 C 
ENDROOT
BRANCH   1   2
ATOM      2  C   UNL     1      -2.326   2.260   6.685  1.00  0.00     0.042 C 
ATOM      3  O   UNL     1      -2.445   3.322   6.018  1.00  0.00    -0.550 OA
ATOM      4  O   UNL     1      -3.100   1.154   6.357  1.00  0.00    -0.550 OA
ENDBRANCH   1   2
BRANCH   1   5
ATOM      5  C   UNL     1       0.074   2.246   7.405  1.00  0.00     0.059 C 
BRANCH   5   6
ATOM      6  C   UNL     1       0.422   1.070   6.544  1.00  0.00     0.042 C 
ATOM      7  O   UNL     1       0.575   1.215   5.303  1.00  0.00    -0.550 OA
ATOM      8  O   UNL     1       0.616  -0.179   7.120  1.00  0.00    -0.550 OA
ENDBRANCH   5   6
ENDBRANCH   1   5
TORSDOF 3
ENDMDL
MODEL 3
REMARK VINA RESULT:    -2.893     12.269     12.995
REMARK INTER + INTRA:          -3.433
REMARK INTER:                  -3.271
REMARK INTRA:                  -0.163
REMARK UNBOUND:                -0.033
REMARK SMILES O=C([O-])CCC(=O)[O-]
REMARK SMILES IDX 4 1 2 2 1 3 3 4 5 5 6 6 7 7 8 8
REMARK H PARENT
REMARK Flexibility Score: inf
ROOT
ATOM      1  C   UNL     1       0.020   2.214   7.401  1.00  0.00     0.059 C 
ENDROOT
BRANCH   1   2
ATOM      2  C   UNL     1       0.371   1.051   6.526  1.00  0.00     0.042 C 
ATOM      3  O   UNL     1       0.567   1.222   5.294  1.00  0.00    -0.550 OA
ATOM      4  O   UNL     1       0.444  -0.228   7.062  1.00  0.00    -0.550 OA
ENDBRANCH   1   2
BRANCH   1   5
ATOM      5  C   UNL     1      -1.442   2.157   7.857  1.00  0.00     0.059 C 
BRANCH   5   6
ATOM      6  C   UNL     1      -2.386   2.256   6.698  1.00  0.00     0.042 C 
ATOM      7  O   UNL     1      -2.444   3.314   6.017  1.00  0.00    -0.550 OA
ATOM      8  O   UNL     1      -3.172   1.167   6.346  1.00  0.00    -0.550 OA
ENDBRANCH   5   6
ENDBRANCH   1   5
TORSDOF 3
ENDMDL
MODEL 4
REMARK VINA RESULT:    -2.886      0.958      4.196
REMARK INTER + INTRA:          -3.425
REMARK INTER:                  -3.368
REMARK INTRA:                  -0.058
REMARK UNBOUND:                -0.033
REMARK SMILES O=C([O-])CCC(=O)[O-]
REMARK SMILES IDX 4 1 2 2 1 3 3 4 5 5 6 6 7 7 8 8
REMARK H PARENT
REMARK Flexibility Score: inf
ROOT
ATOM      1  C   UNL     1      -6.945  -1.217  -4.671  1.00  0.00     0.059 C 
ENDROOT
BRANCH   1   2
ATOM      2  C   UNL     1      -6.346   0.122  -4.970  1.00  0.00     0.042 C 
ATOM      3  O   UNL     1      -6.268   0.530  -6.158  1.00  0.00    -0.550 OA
ATOM      4  O   UNL     1      -5.836   0.903  -3.940  1.00  0.00    -0.550 OA
ENDBRANCH   1   2
BRANCH   1   5
ATOM      5  C   UNL     1      -5.868  -2.269  -4.388  1.00  0.00     0.059 C 
BRANCH   5   6
ATOM      6  C   UNL     1      -5.949  -3.413  -5.352  1.00  0.00     0.042 C 
ATOM      7  O   UNL     1      -7.032  -3.674  -5.938  1.00  0.00    -0.550 OA
ATOM      8  O   UNL     1      -4.817  -4.167  -5.632  1.00  0.00    -0.550 OA
ENDBRANCH   5   6
ENDBRANCH   1   5
TORSDOF 3
ENDMDL
MODEL 5
REMARK VINA RESULT:    -2.786     12.589     12.884
REMARK INTER + INTRA:          -3.307
REMARK INTER:                  -3.216
REMARK INTRA:                  -0.091
REMARK UNBOUND:                -0.033
REMARK SMILES O=C([O-])CCC(=O)[O-]
REMARK SMILES IDX 4 1 2 2 1 3 3 4 5 5 6 6 7 7 8 8
REMARK H PARENT
REMARK Flexibility Score: inf
ROOT
ATOM      1  C   UNL     1       0.395  -0.656   7.376  1.00  0.00     0.059 C 
ENDROOT
BRANCH   1   2
ATOM      2  C   UNL     1      -0.456  -1.860   7.116  1.00  0.00     0.042 C 
ATOM      3  O   UNL     1       0.077  -2.986   6.934  1.00  0.00    -0.550 OA
ATOM      4  O   UNL     1      -1.837  -1.732   7.034  1.00  0.00    -0.550 OA
ENDBRANCH   1   2
BRANCH   1   5
ATOM      5  C   UNL     1      -0.454   0.597   7.613  1.00  0.00     0.059 C 
BRANCH   5   6
ATOM      6  C   UNL     1      -0.457   1.495   6.413  1.00  0.00     0.042 C 
ATOM      7  O   UNL     1       0.425   1.368   5.523  1.00  0.00    -0.550 OA
ATOM      8  O   UNL     1      -1.458   2.446   6.259  1.00  0.00    -0.550 OA
ENDBRANCH   5   6
ENDBRANCH   1   5
TORSDOF 3
ENDMDL
MODEL 6
REMARK VINA RESULT:    -2.774     12.451     13.254
REMARK INTER + INTRA:          -3.293
REMARK INTER:                  -3.232
REMARK INTRA:                  -0.062
REMARK UNBOUND:                -0.033
REMARK SMILES O=C([O-])CCC(=O)[O-]
REMARK SMILES IDX 4 1 2 2 1 3 3 4 5 5 6 6 7 7 8 8
REMARK H PARENT
REMARK Flexibility Score: inf
ROOT
ATOM      1  C   UNL     1      -0.884   0.221   7.176  1.00  0.00     0.059 C 
ENDROOT
BRANCH   1   2
ATOM      2  C   UNL     1      -0.578   1.353   6.244  1.00  0.00     0.042 C 
ATOM      3  O   UNL     1       0.437   1.305   5.501  1.00  0.00    -0.550 OA
ATOM      4  O   UNL     1      -1.391   2.479   6.224  1.00  0.00    -0.550 OA
ENDBRANCH   1   2
BRANCH   1   5
ATOM      5  C   UNL     1       0.183  -0.876   7.103  1.00  0.00     0.059 C 
BRANCH   5   6
ATOM      6  C   UNL     1      -0.431  -2.242   7.106  1.00  0.00     0.042 C 
ATOM      7  O   UNL     1      -1.665  -2.384   6.899  1.00  0.00    -0.550 OA
ATOM      8  O   UNL     1       0.367  -3.363   7.297  1.00  0.00    -0.550 OA
ENDBRANCH   5   6
ENDBRANCH   1   5
TORSDOF 3
ENDMDL
MODEL 7
REMARK VINA RESULT:    -2.738     12.828     14.041
REMARK INTER + INTRA:          -3.251
REMARK INTER:                  -3.134
REMARK INTRA:                  -0.118
REMARK UNBOUND:                -0.033
REMARK SMILES O=C([O-])CCC(=O)[O-]
REMARK SMILES IDX 4 1 2 2 1 3 3 4 5 5 6 6 7 7 8 8
REMARK H PARENT
REMARK Flexibility Score: inf
ROOT
ATOM      1  C   UNL     1      -0.228   1.209   7.934  1.00  0.00     0.059 C 
ENDROOT
BRANCH   1   2
ATOM      2  C   UNL     1      -0.462   1.769   6.565  1.00  0.00     0.042 C 
ATOM      3  O   UNL     1      -1.440   2.533   6.352  1.00  0.00    -0.550 OA
ATOM      4  O   UNL     1       0.375   1.415   5.515  1.00  0.00    -0.550 OA
ENDBRANCH   1   2
BRANCH   1   5
ATOM      5  C   UNL     1       1.024   0.326   7.978  1.00  0.00     0.059 C 
BRANCH   5   6
ATOM      6  C   UNL     1       0.670  -1.129   8.021  1.00  0.00     0.042 C 
ATOM      7  O   UNL     1       0.957  -1.822   9.033  1.00  0.00    -0.550 OA
ATOM      8  O   UNL     1      -0.012  -1.711   6.961  1.00  0.00    -0.550 OA
ENDBRANCH   5   6
ENDBRANCH   1   5
TORSDOF 3
ENDMDL
MODEL 8
REMARK VINA RESULT:    -2.738     12.624     13.750
REMARK INTER + INTRA:          -3.251
REMARK INTER:                  -3.170
REMARK INTRA:                  -0.081
REMARK UNBOUND:                -0.033
REMARK SMILES O=C([O-])CCC(=O)[O-]
REMARK SMILES IDX 4 1 2 2 1 3 3 4 5 5 6 6 7 7 8 8
REMARK H PARENT
REMARK Flexibility Score: inf
ROOT
ATOM      1  C   UNL     1       0.239  -0.916   7.030  1.00  0.00     0.059 C 
ENDROOT
BRANCH   1   2
ATOM      2  C   UNL     1       0.722  -1.242   8.409  1.00  0.00     0.042 C 
ATOM      3  O   UNL     1       0.756  -0.348   9.296  1.00  0.00    -0.550 OA
ATOM      4  O   UNL     1       1.172  -2.522   8.706  1.00  0.00    -0.550 OA
ENDBRANCH   1   2
BRANCH   1   5
ATOM      5  C   UNL     1      -0.898   0.110   7.056  1.00  0.00     0.059 C 
BRANCH   5   6
ATOM      6  C   UNL     1      -0.563   1.326   6.247  1.00  0.00     0.042 C 
ATOM      7  O   UNL     1       0.457   1.335   5.509  1.00  0.00    -0.550 OA
ATOM      8  O   UNL     1      -1.400   2.434   6.278  1.00  0.00    -0.550 OA
ENDBRANCH   5   6
ENDBRANCH   1   5
TORSDOF 3
ENDMDL
MODEL 9
REMARK VINA RESULT:    -2.686     12.600     13.339
REMARK INTER + INTRA:          -3.191
REMARK INTER:                  -3.028
REMARK INTRA:                  -0.162
REMARK UNBOUND:                -0.033
REMARK SMILES O=C([O-])CCC(=O)[O-]
REMARK SMILES IDX 4 1 2 2 1 3 3 4 5 5 6 6 7 7 8 8
REMARK H PARENT
REMARK Flexibility Score: inf
ROOT
ATOM      1  C   UNL     1       0.080  -1.124   7.076  1.00  0.00     0.059 C 
ENDROOT
BRANCH   1   2
ATOM      2  C   UNL     1      -1.364  -1.090   7.470  1.00  0.00     0.042 C 
ATOM      3  O   UNL     1      -2.255  -1.401   6.636  1.00  0.00    -0.550 OA
ATOM      4  O   UNL     1      -1.730  -0.676   8.744  1.00  0.00    -0.550 OA
ENDBRANCH   1   2
BRANCH   1   5
ATOM      5  C   UNL     1       0.829   0.120   7.565  1.00  0.00     0.059 C 
BRANCH   5   6
ATOM      6  C   UNL     1       0.415   1.346   6.808  1.00  0.00     0.042 C 
ATOM      7  O   UNL     1       0.029   2.373   7.425  1.00  0.00    -0.550 OA
ATOM      8  O   UNL     1       0.494   1.366   5.421  1.00  0.00    -0.550 OA
ENDBRANCH   5   6
ENDBRANCH   1   5
TORSDOF 3
ENDMDL
