MODEL 1
REMARK VINA RESULT:    -1.559      0.000      0.000
REMARK INTER + INTRA:          -3.049
REMARK INTER:                  -2.287
REMARK INTRA:                  -0.762
REMARK UNBOUND:                -0.762
REMARK SMILES O=C([O-])CCCCCCCC(=O)[O-]
REMARK SMILES IDX 7 1 6 2 5 3 4 4 2 5 1 6 3 7 8 8 9 9 10 10 11 11 12 12 13 13
REMARK H PARENT
REMARK Flexibility Score: inf
ROOT
ATOM      1  C   UNL     1     139.121  57.114 -11.187  1.00  0.00     0.000 C 
ENDROOT
BRANCH   1   2
ATOM      2  C   UNL     1     139.612  56.958 -12.641  1.00  0.00     0.000 C 
BRANCH   2   3
ATOM      3  C   UNL     1     140.357  55.642 -12.944  1.00  0.00     0.006 C 
BRANCH   3   4
ATOM      4  C   UNL     1     139.451  54.404 -13.017  1.00  0.00     0.053 C 
BRANCH   4   5
ATOM      5  C   UNL     1     139.784  53.402 -11.954  1.00  0.00     0.041 C 
ATOM      6  O   UNL     1     140.815  53.550 -11.246  1.00  0.00    -0.550 OA
ATOM      7  O   UNL     1     138.938  52.325 -11.721  1.00  0.00    -0.550 OA
ENDBRANCH   4   5
ENDBRANCH   3   4
ENDBRANCH   2   3
ENDBRANCH   1   2
BRANCH   1   8
ATOM      8  C   UNL     1     140.189  56.857 -10.107  1.00  0.00     0.000 C 
BRANCH   8   9
ATOM      9  C   UNL     1     139.601  56.273  -8.814  1.00  0.00     0.006 C 
BRANCH   9  10
ATOM     10  C   UNL     1     138.448  55.313  -9.122  1.00  0.00     0.053 C 
BRANCH  10  11
ATOM     11  C   UNL     1     137.217  55.716  -8.372  1.00  0.00     0.041 C 
ATOM     12  O   UNL     1     136.449  56.595  -8.842  1.00  0.00    -0.550 OA
ATOM     13  O   UNL     1     136.893  55.085  -7.177  1.00  0.00    -0.550 OA
ENDBRANCH  10  11
ENDBRANCH   9  10
ENDBRANCH   8   9
ENDBRANCH   1   8
TORSDOF 8
ENDMDL
MODEL 2
REMARK VINA RESULT:    -1.521      1.890      3.053
REMARK INTER + INTRA:          -2.994
REMARK INTER:                  -2.549
REMARK INTRA:                  -0.445
REMARK UNBOUND:                -0.762
REMARK SMILES O=C([O-])CCCCCCCC(=O)[O-]
REMARK SMILES IDX 7 1 6 2 5 3 4 4 2 5 1 6 3 7 8 8 9 9 10 10 11 11 12 12 13 13
REMARK H PARENT
REMARK Flexibility Score: inf
ROOT
ATOM      1  C   UNL     1     139.122  56.395  -8.515  1.00  0.00     0.000 C 
ENDROOT
BRANCH   1   2
ATOM      2  C   UNL     1     139.914  56.892  -9.742  1.00  0.00     0.000 C 
BRANCH   2   3
ATOM      3  C   UNL     1     139.099  57.003 -11.046  1.00  0.00     0.006 C 
BRANCH   3   4
ATOM      4  C   UNL     1     139.920  56.789 -12.327  1.00  0.00     0.053 C 
BRANCH   4   5
ATOM      5  C   UNL     1     140.137  55.336 -12.619  1.00  0.00     0.041 C 
ATOM      6  O   UNL     1     139.354  54.471 -12.142  1.00  0.00    -0.550 OA
ATOM      7  O   UNL     1     141.180  54.938 -13.445  1.00  0.00    -0.550 OA
ENDBRANCH   4   5
ENDBRANCH   3   4
ENDBRANCH   2   3
ENDBRANCH   1   2
BRANCH   1   8
ATOM      8  C   UNL     1     137.788  55.698  -8.838  1.00  0.00     0.000 C 
BRANCH   8   9
ATOM      9  C   UNL     1     136.594  56.323  -8.102  1.00  0.00     0.006 C 
BRANCH   9  10
ATOM     10  C   UNL     1     135.714  57.123  -9.068  1.00  0.00     0.053 C 
BRANCH  10  11
ATOM     11  C   UNL     1     134.274  56.759  -8.887  1.00  0.00     0.041 C 
ATOM     12  O   UNL     1     133.744  56.818  -7.747  1.00  0.00    -0.550 OA
ATOM     13  O   UNL     1     133.504  56.401  -9.987  1.00  0.00    -0.550 OA
ENDBRANCH  10  11
ENDBRANCH   9  10
ENDBRANCH   8   9
ENDBRANCH   1   8
TORSDOF 8
ENDMDL
MODEL 3
REMARK VINA RESULT:    -1.474      1.258      4.962
REMARK INTER + INTRA:          -2.925
REMARK INTER:                  -2.406
REMARK INTRA:                  -0.519
REMARK UNBOUND:                -0.762
REMARK SMILES O=C([O-])CCCCCCCC(=O)[O-]
REMARK SMILES IDX 7 1 6 2 5 3 4 4 2 5 1 6 3 7 8 8 9 9 10 10 11 11 12 12 13 13
REMARK H PARENT
REMARK Flexibility Score: inf
ROOT
ATOM      1  C   UNL     1     140.093  56.919 -10.225  1.00  0.00     0.000 C 
ENDROOT
BRANCH   1   2
ATOM      2  C   UNL     1     139.235  56.634  -8.975  1.00  0.00     0.000 C 
BRANCH   2   3
ATOM      3  C   UNL     1     137.782  56.206  -9.261  1.00  0.00     0.006 C 
BRANCH   3   4
ATOM      4  C   UNL     1     136.988  55.786  -8.015  1.00  0.00     0.053 C 
BRANCH   4   5
ATOM      5  C   UNL     1     135.509  55.908  -8.225  1.00  0.00     0.041 C 
ATOM      6  O   UNL     1     135.058  56.673  -9.118  1.00  0.00    -0.550 OA
ATOM      7  O   UNL     1     134.631  55.154  -7.458  1.00  0.00    -0.550 OA
ENDBRANCH   4   5
ENDBRANCH   3   4
ENDBRANCH   2   3
ENDBRANCH   1   2
BRANCH   1   8
ATOM      8  C   UNL     1     139.305  57.032 -11.544  1.00  0.00     0.000 C 
BRANCH   8   9
ATOM      9  C   UNL     1     140.072  56.463 -12.747  1.00  0.00     0.006 C 
BRANCH   9  10
ATOM     10  C   UNL     1     140.595  55.055 -12.448  1.00  0.00     0.053 C 
BRANCH  10  11
ATOM     11  C   UNL     1     139.476  54.062 -12.491  1.00  0.00     0.041 C 
ATOM     12  O   UNL     1     138.819  53.895 -13.551  1.00  0.00    -0.550 OA
ATOM     13  O   UNL     1     139.191  53.286 -11.375  1.00  0.00    -0.550 OA
ENDBRANCH  10  11
ENDBRANCH   9  10
ENDBRANCH   8   9
ENDBRANCH   1   8
TORSDOF 8
ENDMDL
MODEL 4
REMARK VINA RESULT:    -1.372      3.053      4.754
REMARK INTER + INTRA:          -2.775
REMARK INTER:                  -2.095
REMARK INTRA:                  -0.680
REMARK UNBOUND:                -0.762
REMARK SMILES O=C([O-])CCCCCCCC(=O)[O-]
REMARK SMILES IDX 7 1 6 2 5 3 4 4 2 5 1 6 3 7 8 8 9 9 10 10 11 11 12 12 13 13
REMARK H PARENT
REMARK Flexibility Score: inf
ROOT
ATOM      1  C   UNL     1     139.639  56.631 -11.166  1.00  0.00     0.000 C 
ENDROOT
BRANCH   1   2
ATOM      2  C   UNL     1     139.364  55.328 -10.388  1.00  0.00     0.000 C 
BRANCH   2   3
ATOM      3  C   UNL     1     140.206  54.113 -10.827  1.00  0.00     0.006 C 
BRANCH   3   4
ATOM      4  C   UNL     1     139.409  52.809 -10.975  1.00  0.00     0.053 C 
BRANCH   4   5
ATOM      5  C   UNL     1     139.148  52.470 -12.411  1.00  0.00     0.041 C 
ATOM      6  O   UNL     1     139.783  53.058 -13.325  1.00  0.00    -0.550 OA
ATOM      7  O   UNL     1     138.229  51.481 -12.738  1.00  0.00    -0.550 OA
ENDBRANCH   4   5
ENDBRANCH   3   4
ENDBRANCH   2   3
ENDBRANCH   1   2
BRANCH   1   8
ATOM      8  C   UNL     1     139.637  56.488 -12.699  1.00  0.00     0.000 C 
BRANCH   8   9
ATOM      9  C   UNL     1     140.869  57.125 -13.359  1.00  0.00     0.006 C 
BRANCH   9  10
ATOM     10  C   UNL     1     141.959  56.078 -13.607  1.00  0.00     0.053 C 
BRANCH  10  11
ATOM     11  C   UNL     1     143.121  56.306 -12.693  1.00  0.00     0.041 C 
ATOM     12  O   UNL     1     143.174  55.724 -11.578  1.00  0.00    -0.550 OA
ATOM     13  O   UNL     1     144.171  57.124 -13.092  1.00  0.00    -0.550 OA
ENDBRANCH  10  11
ENDBRANCH   9  10
ENDBRANCH   8   9
ENDBRANCH   1   8
TORSDOF 8
ENDMDL
MODEL 5
REMARK VINA RESULT:    -1.343      7.289      9.167
REMARK INTER + INTRA:          -2.733
REMARK INTER:                  -2.146
REMARK INTRA:                  -0.587
REMARK UNBOUND:                -0.762
REMARK SMILES O=C([O-])CCCCCCCC(=O)[O-]
REMARK SMILES IDX 7 1 6 2 5 3 4 4 2 5 1 6 3 7 8 8 9 9 10 10 11 11 12 12 13 13
REMARK H PARENT
REMARK Flexibility Score: inf
ROOT
ATOM      1  C   UNL     1     133.767  56.878  -9.626  1.00  0.00     0.000 C 
ENDROOT
BRANCH   1   2
ATOM      2  C   UNL     1     133.403  55.802  -8.582  1.00  0.00     0.000 C 
BRANCH   2   3
ATOM      3  C   UNL     1     132.562  56.303  -7.391  1.00  0.00     0.006 C 
BRANCH   3   4
ATOM      4  C   UNL     1     131.191  55.624  -7.252  1.00  0.00     0.053 C 
BRANCH   4   5
ATOM      5  C   UNL     1     130.064  56.598  -7.407  1.00  0.00     0.041 C 
ATOM      6  O   UNL     1     129.404  56.968  -6.400  1.00  0.00    -0.550 OA
ATOM      7  O   UNL     1     129.764  57.124  -8.657  1.00  0.00    -0.550 OA
ENDBRANCH   4   5
ENDBRANCH   3   4
ENDBRANCH   2   3
ENDBRANCH   1   2
BRANCH   1   8
ATOM      8  C   UNL     1     132.716  57.095 -10.731  1.00  0.00     0.000 C 
BRANCH   8   9
ATOM      9  C   UNL     1     131.958  55.809 -11.095  1.00  0.00     0.006 C 
BRANCH   9  10
ATOM     10  C   UNL     1     131.658  55.758 -12.596  1.00  0.00     0.053 C 
BRANCH  10  11
ATOM     11  C   UNL     1     130.368  56.454 -12.895  1.00  0.00     0.041 C 
ATOM     12  O   UNL     1     129.466  56.520 -12.020  1.00  0.00    -0.550 OA
ATOM     13  O   UNL     1     130.181  57.073 -14.125  1.00  0.00    -0.550 OA
ENDBRANCH  10  11
ENDBRANCH   9  10
ENDBRANCH   8   9
ENDBRANCH   1   8
TORSDOF 8
ENDMDL
MODEL 6
REMARK VINA RESULT:    -1.333      1.759      4.412
REMARK INTER + INTRA:          -2.718
REMARK INTER:                  -2.002
REMARK INTRA:                  -0.715
REMARK UNBOUND:                -0.762
REMARK SMILES O=C([O-])CCCCCCCC(=O)[O-]
REMARK SMILES IDX 7 1 6 2 5 3 4 4 2 5 1 6 3 7 8 8 9 9 10 10 11 11 12 12 13 13
REMARK H PARENT
REMARK Flexibility Score: inf
ROOT
ATOM      1  C   UNL     1     140.344  55.055 -12.997  1.00  0.00     0.000 C 
ENDROOT
BRANCH   1   2
ATOM      2  C   UNL     1     139.948  56.531 -12.789  1.00  0.00     0.000 C 
BRANCH   2   3
ATOM      3  C   UNL     1     139.421  56.876 -11.381  1.00  0.00     0.006 C 
BRANCH   3   4
ATOM      4  C   UNL     1     140.494  56.870 -10.282  1.00  0.00     0.053 C 
BRANCH   4   5
ATOM      5  C   UNL     1     139.931  56.477  -8.950  1.00  0.00     0.041 C 
ATOM      6  O   UNL     1     140.491  55.579  -8.268  1.00  0.00    -0.550 OA
ATOM      7  O   UNL     1     138.811  57.125  -8.448  1.00  0.00    -0.550 OA
ENDBRANCH   4   5
ENDBRANCH   3   4
ENDBRANCH   2   3
ENDBRANCH   1   2
BRANCH   1   8
ATOM      8  C   UNL     1     139.163  54.084 -13.180  1.00  0.00     0.000 C 
BRANCH   8   9
ATOM      9  C   UNL     1     139.278  52.833 -12.296  1.00  0.00     0.006 C 
BRANCH   9  10
ATOM     10  C   UNL     1     139.433  53.217 -10.821  1.00  0.00     0.053 C 
BRANCH  10  11
ATOM     11  C   UNL     1     140.655  52.579 -10.240  1.00  0.00     0.041 C 
ATOM     12  O   UNL     1     140.675  52.234  -9.030  1.00  0.00    -0.550 OA
ATOM     13  O   UNL     1     141.756  52.320 -11.047  1.00  0.00    -0.550 OA
ENDBRANCH  10  11
ENDBRANCH   9  10
ENDBRANCH   8   9
ENDBRANCH   1   8
TORSDOF 8
ENDMDL
MODEL 7
REMARK VINA RESULT:    -1.313      1.790      4.963
REMARK INTER + INTRA:          -2.688
REMARK INTER:                  -2.077
REMARK INTRA:                  -0.612
REMARK UNBOUND:                -0.762
REMARK SMILES O=C([O-])CCCCCCCC(=O)[O-]
REMARK SMILES IDX 7 1 6 2 5 3 4 4 2 5 1 6 3 7 8 8 9 9 10 10 11 11 12 12 13 13
REMARK H PARENT
REMARK Flexibility Score: inf
ROOT
ATOM      1  C   UNL     1     139.511  57.116 -12.483  1.00  0.00     0.000 C 
ENDROOT
BRANCH   1   2
ATOM      2  C   UNL     1     139.656  56.773 -10.986  1.00  0.00     0.000 C 
BRANCH   2   3
ATOM      3  C   UNL     1     139.123  55.385 -10.577  1.00  0.00     0.006 C 
BRANCH   3   4
ATOM      4  C   UNL     1     139.260  55.070  -9.079  1.00  0.00     0.053 C 
BRANCH   4   5
ATOM      5  C   UNL     1     137.950  55.186  -8.360  1.00  0.00     0.041 C 
ATOM      6  O   UNL     1     137.740  54.513  -7.317  1.00  0.00    -0.550 OA
ATOM      7  O   UNL     1     136.977  56.063  -8.821  1.00  0.00    -0.550 OA
ENDBRANCH   4   5
ENDBRANCH   3   4
ENDBRANCH   2   3
ENDBRANCH   1   2
BRANCH   1   8
ATOM      8  C   UNL     1     140.820  57.065 -13.293  1.00  0.00     0.000 C 
BRANCH   8   9
ATOM      9  C   UNL     1     142.073  57.125 -12.406  1.00  0.00     0.006 C 
BRANCH   9  10
ATOM     10  C   UNL     1     143.082  56.046 -12.812  1.00  0.00     0.053 C 
BRANCH  10  11
ATOM     11  C   UNL     1     142.582  54.690 -12.424  1.00  0.00     0.041 C 
ATOM     12  O   UNL     1     142.338  53.829 -13.309  1.00  0.00    -0.550 OA
ATOM     13  O   UNL     1     142.433  54.361 -11.083  1.00  0.00    -0.550 OA
ENDBRANCH  10  11
ENDBRANCH   9  10
ENDBRANCH   8   9
ENDBRANCH   1   8
TORSDOF 8
ENDMDL
MODEL 8
REMARK VINA RESULT:    -1.307      2.504      3.673
REMARK INTER + INTRA:          -2.681
REMARK INTER:                  -1.812
REMARK INTRA:                  -0.868
REMARK UNBOUND:                -0.762
REMARK SMILES O=C([O-])CCCCCCCC(=O)[O-]
REMARK SMILES IDX 7 1 6 2 5 3 4 4 2 5 1 6 3 7 8 8 9 9 10 10 11 11 12 12 13 13
REMARK H PARENT
REMARK Flexibility Score: inf
ROOT
ATOM      1  C   UNL     1     142.570  54.524 -12.585  1.00  0.00     0.000 C 
ENDROOT
BRANCH   1   2
ATOM      2  C   UNL     1     142.069  53.068 -12.663  1.00  0.00     0.000 C 
BRANCH   2   3
ATOM      3  C   UNL     1     141.144  52.629 -11.510  1.00  0.00     0.006 C 
BRANCH   3   4
ATOM      4  C   UNL     1     139.766  53.306 -11.509  1.00  0.00     0.053 C 
BRANCH   4   5
ATOM      5  C   UNL     1     139.043  53.108 -12.807  1.00  0.00     0.041 C 
ATOM      6  O   UNL     1     138.800  54.093 -13.553  1.00  0.00    -0.550 OA
ATOM      7  O   UNL     1     138.668  51.832 -13.208  1.00  0.00    -0.550 OA
ENDBRANCH   4   5
ENDBRANCH   3   4
ENDBRANCH   2   3
ENDBRANCH   1   2
BRANCH   1   8
ATOM      8  C   UNL     1     141.996  55.470 -13.655  1.00  0.00     0.000 C 
BRANCH   8   9
ATOM      9  C   UNL     1     141.380  56.744 -13.057  1.00  0.00     0.006 C 
BRANCH   9  10
ATOM     10  C   UNL     1     141.502  56.746 -11.530  1.00  0.00     0.053 C 
BRANCH  10  11
ATOM     11  C   UNL     1     140.148  56.806 -10.898  1.00  0.00     0.041 C 
ATOM     12  O   UNL     1     139.136  57.086 -11.592  1.00  0.00    -0.550 OA
ATOM     13  O   UNL     1     139.995  56.504  -9.550  1.00  0.00    -0.550 OA
ENDBRANCH  10  11
ENDBRANCH   9  10
ENDBRANCH   8   9
ENDBRANCH   1   8
TORSDOF 8
ENDMDL
MODEL 9
REMARK VINA RESULT:    -1.299      2.353      3.097
REMARK INTER + INTRA:          -2.668
REMARK INTER:                  -2.097
REMARK INTRA:                  -0.571
REMARK UNBOUND:                -0.762
REMARK SMILES O=C([O-])CCCCCCCC(=O)[O-]
REMARK SMILES IDX 7 1 6 2 5 3 4 4 2 5 1 6 3 7 8 8 9 9 10 10 11 11 12 12 13 13
REMARK H PARENT
REMARK Flexibility Score: inf
ROOT
ATOM      1  C   UNL     1     139.600  55.258 -11.743  1.00  0.00     0.000 C 
ENDROOT
BRANCH   1   2
ATOM      2  C   UNL     1     139.622  56.619 -12.468  1.00  0.00     0.000 C 
BRANCH   2   3
ATOM      3  C   UNL     1     141.007  57.068 -12.977  1.00  0.00     0.006 C 
BRANCH   3   4
ATOM      4  C   UNL     1     142.190  56.502 -12.177  1.00  0.00     0.053 C 
BRANCH   4   5
ATOM      5  C   UNL     1     143.129  55.719 -13.044  1.00  0.00     0.041 C 
ATOM      6  O   UNL     1     143.745  56.287 -13.984  1.00  0.00    -0.550 OA
ATOM      7  O   UNL     1     143.350  54.372 -12.791  1.00  0.00    -0.550 OA
ENDBRANCH   4   5
ENDBRANCH   3   4
ENDBRANCH   2   3
ENDBRANCH   1   2
BRANCH   1   8
ATOM      8  C   UNL     1     139.097  55.303 -10.288  1.00  0.00     0.000 C 
BRANCH   8   9
ATOM      9  C   UNL     1     138.927  56.736  -9.760  1.00  0.00     0.006 C 
BRANCH   9  10
ATOM     10  C   UNL     1     139.876  57.003  -8.588  1.00  0.00     0.053 C 
BRANCH  10  11
ATOM     11  C   UNL     1     139.201  56.701  -7.288  1.00  0.00     0.041 C 
ATOM     12  O   UNL     1     139.825  56.102  -6.374  1.00  0.00    -0.550 OA
ATOM     13  O   UNL     1     137.896  57.124  -7.067  1.00  0.00    -0.550 OA
ENDBRANCH  10  11
ENDBRANCH   9  10
ENDBRANCH   8   9
ENDBRANCH   1   8
TORSDOF 8
ENDMDL
