MODEL 1
REMARK VINA RESULT:    -3.486      0.000      0.000
REMARK INTER + INTRA:          -5.306
REMARK INTER:                  -4.913
REMARK INTRA:                  -0.393
REMARK UNBOUND:                -0.393
REMARK SMILES CCCCCCCCC(=O)[O-]
REMARK SMILES IDX 6 1 7 2 8 3 9 4 10 5 11 6 5 7 4 8 3 9 2 10 1 11
REMARK H PARENT
REMARK Flexibility Score: inf
ROOT
ATOM      1  C   UNL     1      18.040 -11.938 186.982  1.00  0.00     0.000 C 
ENDROOT
BRANCH   1   2
ATOM      2  C   UNL     1      19.452 -11.774 187.580  1.00  0.00     0.006 C 
BRANCH   2   3
ATOM      3  C   UNL     1      20.085 -10.394 187.322  1.00  0.00     0.053 C 
BRANCH   3   4
ATOM      4  C   UNL     1      19.528  -9.327 188.214  1.00  0.00     0.041 C 
ATOM      5  O   UNL     1      19.097  -8.250 187.723  1.00  0.00    -0.550 OA
ATOM      6  O   UNL     1      19.450  -9.535 189.585  1.00  0.00    -0.550 OA
ENDBRANCH   3   4
ENDBRANCH   2   3
ENDBRANCH   1   2
BRANCH   1   7
ATOM      7  C   UNL     1      17.669 -13.370 186.556  1.00  0.00     0.000 C 
BRANCH   7   8
ATOM      8  C   UNL     1      18.716 -14.449 186.901  1.00  0.00    -0.000 C 
BRANCH   8   9
ATOM      9  C   UNL     1      18.134 -15.820 187.301  1.00  0.00    -0.000 C 
BRANCH   9  10
ATOM     10  C   UNL     1      16.616 -15.830 187.551  1.00  0.00    -0.003 C 
ATOM     11  C   UNL     1      16.258 -15.900 189.035  1.00  0.00     0.004 C 
ENDBRANCH   9  10
ENDBRANCH   8   9
ENDBRANCH   7   8
ENDBRANCH   1   7
TORSDOF 7
ENDMDL
MODEL 2
REMARK VINA RESULT:    -3.451      1.354      2.243
REMARK INTER + INTRA:          -5.257
REMARK INTER:                  -4.987
REMARK INTRA:                  -0.270
REMARK UNBOUND:                -0.393
REMARK SMILES CCCCCCCCC(=O)[O-]
REMARK SMILES IDX 6 1 7 2 8 3 9 4 10 5 11 6 5 7 4 8 3 9 2 10 1 11
REMARK H PARENT
REMARK Flexibility Score: inf
ROOT
ATOM      1  C   UNL     1      19.679 -10.652 186.837  1.00  0.00     0.000 C 
ENDROOT
BRANCH   1   2
ATOM      2  C   UNL     1      19.990  -9.562 187.881  1.00  0.00     0.006 C 
BRANCH   2   3
ATOM      3  C   UNL     1      18.991  -9.514 189.052  1.00  0.00     0.053 C 
BRANCH   3   4
ATOM      4  C   UNL     1      19.340  -8.466 190.066  1.00  0.00     0.041 C 
ATOM      5  O   UNL     1      19.104  -7.251 189.831  1.00  0.00    -0.550 OA
ATOM      6  O   UNL     1      19.891  -8.833 191.287  1.00  0.00    -0.550 OA
ENDBRANCH   3   4
ENDBRANCH   2   3
ENDBRANCH   1   2
BRANCH   1   7
ATOM      7  C   UNL     1      19.126 -11.971 187.409  1.00  0.00     0.000 C 
BRANCH   7   8
ATOM      8  C   UNL     1      17.725 -12.370 186.902  1.00  0.00    -0.000 C 
BRANCH   8   9
ATOM      9  C   UNL     1      17.572 -13.850 186.502  1.00  0.00    -0.000 C 
BRANCH   9  10
ATOM     10  C   UNL     1      18.736 -14.760 186.930  1.00  0.00    -0.003 C 
ATOM     11  C   UNL     1      18.268 -16.113 187.467  1.00  0.00     0.004 C 
ENDBRANCH   9  10
ENDBRANCH   8   9
ENDBRANCH   7   8
ENDBRANCH   1   7
TORSDOF 7
ENDMDL
MODEL 3
REMARK VINA RESULT:    -3.384      1.459      2.001
REMARK INTER + INTRA:          -5.162
REMARK INTER:                  -4.768
REMARK INTRA:                  -0.394
REMARK UNBOUND:                -0.393
REMARK SMILES CCCCCCCCC(=O)[O-]
REMARK SMILES IDX 6 1 7 2 8 3 9 4 10 5 11 6 5 7 4 8 3 9 2 10 1 11
REMARK H PARENT
REMARK Flexibility Score: inf
ROOT
ATOM      1  C   UNL     1      19.220 -11.959 187.323  1.00  0.00     0.000 C 
ENDROOT
BRANCH   1   2
ATOM      2  C   UNL     1      20.063 -10.695 187.587  1.00  0.00     0.006 C 
BRANCH   2   3
ATOM      3  C   UNL     1      19.339  -9.623 188.421  1.00  0.00     0.053 C 
BRANCH   3   4
ATOM      4  C   UNL     1      19.129  -8.346 187.665  1.00  0.00     0.041 C 
ATOM      5  O   UNL     1      19.960  -7.981 186.792  1.00  0.00    -0.550 OA
ATOM      6  O   UNL     1      17.995  -7.578 187.896  1.00  0.00    -0.550 OA
ENDBRANCH   3   4
ENDBRANCH   2   3
ENDBRANCH   1   2
BRANCH   1   7
ATOM      7  C   UNL     1      17.877 -11.715 186.610  1.00  0.00     0.000 C 
BRANCH   7   8
ATOM      8  C   UNL     1      17.105 -12.990 186.214  1.00  0.00    -0.000 C 
BRANCH   8   9
ATOM      9  C   UNL     1      17.169 -14.139 187.240  1.00  0.00    -0.000 C 
BRANCH   9  10
ATOM     10  C   UNL     1      17.725 -15.465 186.692  1.00  0.00    -0.003 C 
ATOM     11  C   UNL     1      19.209 -15.661 187.002  1.00  0.00     0.004 C 
ENDBRANCH   9  10
ENDBRANCH   8   9
ENDBRANCH   7   8
ENDBRANCH   1   7
TORSDOF 7
ENDMDL
MODEL 4
REMARK VINA RESULT:    -3.371      3.193      5.620
REMARK INTER + INTRA:          -5.144
REMARK INTER:                  -4.476
REMARK INTRA:                  -0.667
REMARK UNBOUND:                -0.393
REMARK SMILES CCCCCCCCC(=O)[O-]
REMARK SMILES IDX 6 1 7 2 8 3 9 4 10 5 11 6 5 7 4 8 3 9 2 10 1 11
REMARK H PARENT
REMARK Flexibility Score: inf
ROOT
ATOM      1  C   UNL     1      18.888 -10.800 188.128  1.00  0.00     0.000 C 
ENDROOT
BRANCH   1   2
ATOM      2  C   UNL     1      19.253 -12.029 187.272  1.00  0.00     0.006 C 
BRANCH   2   3
ATOM      3  C   UNL     1      18.052 -12.671 186.553  1.00  0.00     0.053 C 
BRANCH   3   4
ATOM      4  C   UNL     1      17.897 -14.126 186.874  1.00  0.00     0.041 C 
ATOM      5  O   UNL     1      16.765 -14.594 187.169  1.00  0.00    -0.550 OA
ATOM      6  O   UNL     1      18.995 -14.974 186.810  1.00  0.00    -0.550 OA
ENDBRANCH   3   4
ENDBRANCH   2   3
ENDBRANCH   1   2
BRANCH   1   7
ATOM      7  C   UNL     1      19.827  -9.589 187.975  1.00  0.00     0.000 C 
BRANCH   7   8
ATOM      8  C   UNL     1      19.914  -9.003 186.552  1.00  0.00    -0.000 C 
BRANCH   8   9
ATOM      9  C   UNL     1      18.701  -8.154 186.120  1.00  0.00    -0.000 C 
BRANCH   9  10
ATOM     10  C   UNL     1      17.755  -8.839 185.120  1.00  0.00    -0.003 C 
ATOM     11  C   UNL     1      16.448  -9.306 185.760  1.00  0.00     0.004 C 
ENDBRANCH   9  10
ENDBRANCH   8   9
ENDBRANCH   7   8
ENDBRANCH   1   7
TORSDOF 7
ENDMDL
MODEL 5
REMARK VINA RESULT:    -3.338      1.252      1.936
REMARK INTER + INTRA:          -5.098
REMARK INTER:                  -4.455
REMARK INTRA:                  -0.642
REMARK UNBOUND:                -0.393
REMARK SMILES CCCCCCCCC(=O)[O-]
REMARK SMILES IDX 6 1 7 2 8 3 9 4 10 5 11 6 5 7 4 8 3 9 2 10 1 11
REMARK H PARENT
REMARK Flexibility Score: inf
ROOT
ATOM      1  C   UNL     1      17.224 -11.907 185.904  1.00  0.00     0.000 C 
ENDROOT
BRANCH   1   2
ATOM      2  C   UNL     1      17.912 -11.602 187.249  1.00  0.00     0.006 C 
BRANCH   2   3
ATOM      3  C   UNL     1      19.432 -11.379 187.139  1.00  0.00     0.053 C 
BRANCH   3   4
ATOM      4  C   UNL     1      19.813  -9.933 187.238  1.00  0.00     0.041 C 
ATOM      5  O   UNL     1      20.039  -9.263 186.196  1.00  0.00    -0.550 OA
ATOM      6  O   UNL     1      19.882  -9.315 188.480  1.00  0.00    -0.550 OA
ENDBRANCH   3   4
ENDBRANCH   2   3
ENDBRANCH   1   2
BRANCH   1   7
ATOM      7  C   UNL     1      16.263 -13.110 185.915  1.00  0.00     0.000 C 
BRANCH   7   8
ATOM      8  C   UNL     1      15.893 -13.641 187.315  1.00  0.00    -0.000 C 
BRANCH   8   9
ATOM      9  C   UNL     1      16.609 -14.941 187.731  1.00  0.00    -0.000 C 
BRANCH   9  10
ATOM     10  C   UNL     1      17.539 -15.539 186.661  1.00  0.00    -0.003 C 
ATOM     11  C   UNL     1      19.020 -15.366 186.995  1.00  0.00     0.004 C 
ENDBRANCH   9  10
ENDBRANCH   8   9
ENDBRANCH   7   8
ENDBRANCH   1   7
TORSDOF 7
ENDMDL
MODEL 6
REMARK VINA RESULT:    -3.324      3.333      6.034
REMARK INTER + INTRA:          -5.077
REMARK INTER:                  -4.722
REMARK INTRA:                  -0.355
REMARK UNBOUND:                -0.393
REMARK SMILES CCCCCCCCC(=O)[O-]
REMARK SMILES IDX 6 1 7 2 8 3 9 4 10 5 11 6 5 7 4 8 3 9 2 10 1 11
REMARK H PARENT
REMARK Flexibility Score: inf
ROOT
ATOM      1  C   UNL     1      18.095 -11.612 186.664  1.00  0.00     0.000 C 
ENDROOT
BRANCH   1   2
ATOM      2  C   UNL     1      17.540 -12.989 186.248  1.00  0.00     0.006 C 
BRANCH   2   3
ATOM      3  C   UNL     1      18.316 -14.181 186.840  1.00  0.00     0.053 C 
BRANCH   3   4
ATOM      4  C   UNL     1      17.469 -15.408 186.983  1.00  0.00     0.041 C 
ATOM      5  O   UNL     1      16.826 -15.855 185.996  1.00  0.00    -0.550 OA
ATOM      6  O   UNL     1      17.417 -16.082 188.197  1.00  0.00    -0.550 OA
ENDBRANCH   3   4
ENDBRANCH   2   3
ENDBRANCH   1   2
BRANCH   1   7
ATOM      7  C   UNL     1      19.460 -11.640 187.376  1.00  0.00     0.000 C 
BRANCH   7   8
ATOM      8  C   UNL     1      20.123 -10.263 187.577  1.00  0.00    -0.000 C 
BRANCH   8   9
ATOM      9  C   UNL     1      19.471  -9.375 188.656  1.00  0.00    -0.000 C 
BRANCH   9  10
ATOM     10  C   UNL     1      18.925  -8.031 188.144  1.00  0.00    -0.003 C 
ATOM     11  C   UNL     1      19.177  -7.815 186.652  1.00  0.00     0.004 C 
ENDBRANCH   9  10
ENDBRANCH   8   9
ENDBRANCH   7   8
ENDBRANCH   1   7
TORSDOF 7
ENDMDL
MODEL 7
REMARK VINA RESULT:    -3.322      3.598      6.075
REMARK INTER + INTRA:          -5.074
REMARK INTER:                  -4.717
REMARK INTRA:                  -0.358
REMARK UNBOUND:                -0.393
REMARK SMILES CCCCCCCCC(=O)[O-]
REMARK SMILES IDX 6 1 7 2 8 3 9 4 10 5 11 6 5 7 4 8 3 9 2 10 1 11
REMARK H PARENT
REMARK Flexibility Score: inf
ROOT
ATOM      1  C   UNL     1      18.259 -12.561 186.877  1.00  0.00     0.000 C 
ENDROOT
BRANCH   1   2
ATOM      2  C   UNL     1      18.311 -14.097 186.992  1.00  0.00     0.006 C 
BRANCH   2   3
ATOM      3  C   UNL     1      16.946 -14.751 187.275  1.00  0.00     0.053 C 
BRANCH   3   4
ATOM      4  C   UNL     1      16.159 -15.009 186.026  1.00  0.00     0.041 C 
ATOM      5  O   UNL     1      16.295 -16.094 185.402  1.00  0.00    -0.550 OA
ATOM      6  O   UNL     1      15.246 -14.066 185.571  1.00  0.00    -0.550 OA
ENDBRANCH   3   4
ENDBRANCH   2   3
ENDBRANCH   1   2
BRANCH   1   7
ATOM      7  C   UNL     1      19.486 -11.818 187.439  1.00  0.00     0.000 C 
BRANCH   7   8
ATOM      8  C   UNL     1      19.165 -10.574 188.292  1.00  0.00    -0.000 C 
BRANCH   8   9
ATOM      9  C   UNL     1      19.698  -9.241 187.730  1.00  0.00    -0.000 C 
BRANCH   9  10
ATOM     10  C   UNL     1      19.740  -9.157 186.194  1.00  0.00    -0.003 C 
ATOM     11  C   UNL     1      18.381  -8.827 185.578  1.00  0.00     0.004 C 
ENDBRANCH   9  10
ENDBRANCH   8   9
ENDBRANCH   7   8
ENDBRANCH   1   7
TORSDOF 7
ENDMDL
MODEL 8
REMARK VINA RESULT:    -3.182      1.886      3.115
REMARK INTER + INTRA:          -4.878
REMARK INTER:                  -4.361
REMARK INTRA:                  -0.517
REMARK UNBOUND:                -0.393
REMARK SMILES CCCCCCCCC(=O)[O-]
REMARK SMILES IDX 6 1 7 2 8 3 9 4 10 5 11 6 5 7 4 8 3 9 2 10 1 11
REMARK H PARENT
REMARK Flexibility Score: inf
ROOT
ATOM      1  C   UNL     1      18.549 -13.734 186.881  1.00  0.00     0.000 C 
ENDROOT
BRANCH   1   2
ATOM      2  C   UNL     1      18.577 -12.193 186.842  1.00  0.00     0.006 C 
BRANCH   2   3
ATOM      3  C   UNL     1      19.768 -11.570 187.593  1.00  0.00     0.053 C 
BRANCH   3   4
ATOM      4  C   UNL     1      19.795 -10.075 187.494  1.00  0.00     0.041 C 
ATOM      5  O   UNL     1      19.830  -9.370 188.537  1.00  0.00    -0.550 OA
ATOM      6  O   UNL     1      19.820  -9.460 186.249  1.00  0.00    -0.550 OA
ENDBRANCH   3   4
ENDBRANCH   2   3
ENDBRANCH   1   2
BRANCH   1   7
ATOM      7  C   UNL     1      17.194 -14.376 186.527  1.00  0.00     0.000 C 
BRANCH   7   8
ATOM      8  C   UNL     1      15.966 -13.727 187.199  1.00  0.00    -0.000 C 
BRANCH   8   9
ATOM      9  C   UNL     1      14.978 -13.043 186.234  1.00  0.00    -0.000 C 
BRANCH   9  10
ATOM     10  C   UNL     1      15.336 -13.172 184.743  1.00  0.00    -0.003 C 
ATOM     11  C   UNL     1      15.831 -11.861 184.134  1.00  0.00     0.004 C 
ENDBRANCH   9  10
ENDBRANCH   8   9
ENDBRANCH   7   8
ENDBRANCH   1   7
TORSDOF 7
ENDMDL
