MODEL 1
REMARK VINA RESULT:    -6.289      0.000      0.000
REMARK INTER + INTRA:          -7.252
REMARK INTER:                  -7.208
REMARK INTRA:                  -0.045
REMARK UNBOUND:                -0.045
REMARK SMILES O=C([O-])c1cc(O)c(O)c(O)c1
REMARK SMILES IDX 4 1 5 2 12 3 6 4 10 5 8 6 2 7 1 8 3 9 7 10 11 12 9 14
REMARK H PARENT 7 11 11 13 9 15
REMARK Flexibility Score: inf
ROOT
ATOM      1  C   UNL     1      13.817 -13.187  28.185  1.00  0.00     0.005 A 
ATOM      2  C   UNL     1      12.566 -13.452  27.604  1.00  0.00     0.060 A 
ATOM      3  C   UNL     1      13.897 -12.258  29.233  1.00  0.00     0.060 A 
ATOM      4  C   UNL     1      11.409 -12.806  28.056  1.00  0.00     0.162 A 
ATOM      5  C   UNL     1      12.747 -11.604  29.694  1.00  0.00     0.162 A 
ATOM      6  C   UNL     1      11.500 -11.870  29.113  1.00  0.00     0.200 A 
ENDROOT
BRANCH   1   7
ATOM      7  C   UNL     1      15.034 -13.875  27.701  1.00  0.00     0.072 C 
ATOM      8  O   UNL     1      15.731 -13.373  26.779  1.00  0.00    -0.545 OA
ATOM      9  O   UNL     1      15.428 -15.087  28.258  1.00  0.00    -0.545 OA
ENDBRANCH   1   7
BRANCH   4  10
ATOM     10  O   UNL     1      10.201 -13.122  27.430  1.00  0.00    -0.504 OA
ATOM     11  H   UNL     1       9.953 -12.828  26.497  1.00  0.00     0.293 HD
ENDBRANCH   4  10
BRANCH   5  12
ATOM     12  O   UNL     1      12.837 -10.682  30.737  1.00  0.00    -0.504 OA
ATOM     13  H   UNL     1      12.037 -10.456  31.317  1.00  0.00     0.293 HD
ENDBRANCH   5  12
BRANCH   6  14
ATOM     14  O   UNL     1      10.386 -11.190  29.612  1.00  0.00    -0.502 OA
ATOM     15  H   UNL     1      10.369 -10.705  30.498  1.00  0.00     0.293 HD
ENDBRANCH   6  14
TORSDOF 4
ENDMDL
MODEL 2
REMARK VINA RESULT:    -6.242      0.106      2.438
REMARK INTER + INTRA:          -7.199
REMARK INTER:                  -7.154
REMARK INTRA:                  -0.045
REMARK UNBOUND:                -0.045
REMARK SMILES O=C([O-])c1cc(O)c(O)c(O)c1
REMARK SMILES IDX 4 1 5 2 12 3 6 4 10 5 8 6 2 7 1 8 3 9 7 10 11 12 9 14
REMARK H PARENT 7 11 11 13 9 15
REMARK Flexibility Score: inf
ROOT
ATOM      1  C   UNL     1      13.789 -13.131  28.178  1.00  0.00     0.005 A 
ATOM      2  C   UNL     1      13.835 -12.176  29.206  1.00  0.00     0.060 A 
ATOM      3  C   UNL     1      12.553 -13.435  27.587  1.00  0.00     0.060 A 
ATOM      4  C   UNL     1      12.673 -11.530  29.645  1.00  0.00     0.162 A 
ATOM      5  C   UNL     1      11.382 -12.796  28.016  1.00  0.00     0.162 A 
ATOM      6  C   UNL     1      11.431 -11.843  29.043  1.00  0.00     0.200 A 
ENDROOT
BRANCH   1   7
ATOM      7  C   UNL     1      15.022 -13.809  27.721  1.00  0.00     0.072 C 
ATOM      8  O   UNL     1      15.717 -13.318  26.791  1.00  0.00    -0.545 OA
ATOM      9  O   UNL     1      15.432 -14.999  28.311  1.00  0.00    -0.545 OA
ENDBRANCH   1   7
BRANCH   4  10
ATOM     10  O   UNL     1      12.798 -10.592  30.671  1.00  0.00    -0.504 OA
ATOM     11  H   UNL     1      13.503  -9.869  30.697  1.00  0.00     0.293 HD
ENDBRANCH   4  10
BRANCH   5  12
ATOM     12  O   UNL     1      10.159 -13.104  27.422  1.00  0.00    -0.504 OA
ATOM     13  H   UNL     1       9.869 -14.064  27.271  1.00  0.00     0.293 HD
ENDBRANCH   5  12
BRANCH   6  14
ATOM     14  O   UNL     1      10.234 -11.236  29.431  1.00  0.00    -0.502 OA
ATOM     15  H   UNL     1      10.011 -10.982  30.383  1.00  0.00     0.293 HD
ENDBRANCH   6  14
TORSDOF 4
ENDMDL
MODEL 3
REMARK VINA RESULT:    -6.046      1.336      4.095
REMARK INTER + INTRA:          -6.974
REMARK INTER:                  -6.925
REMARK INTRA:                  -0.049
REMARK UNBOUND:                -0.045
REMARK SMILES O=C([O-])c1cc(O)c(O)c(O)c1
REMARK SMILES IDX 4 1 5 2 12 3 6 4 10 5 8 6 2 7 1 8 3 9 7 10 11 12 9 14
REMARK H PARENT 7 11 11 13 9 15
REMARK Flexibility Score: inf
ROOT
ATOM      1  C   UNL     1      12.302 -11.491  29.263  1.00  0.00     0.005 A 
ATOM      2  C   UNL     1      11.896 -12.173  28.105  1.00  0.00     0.060 A 
ATOM      3  C   UNL     1      13.480 -11.893  29.911  1.00  0.00     0.060 A 
ATOM      4  C   UNL     1      12.645 -13.239  27.594  1.00  0.00     0.162 A 
ATOM      5  C   UNL     1      14.240 -12.959  29.411  1.00  0.00     0.162 A 
ATOM      6  C   UNL     1      13.831 -13.638  28.255  1.00  0.00     0.200 A 
ENDROOT
BRANCH   1   7
ATOM      7  C   UNL     1      11.504 -10.365  29.797  1.00  0.00     0.072 C 
ATOM      8  O   UNL     1      12.071  -9.331  30.240  1.00  0.00    -0.545 OA
ATOM      9  O   UNL     1      10.115 -10.433  29.817  1.00  0.00    -0.545 OA
ENDBRANCH   1   7
BRANCH   4  10
ATOM     10  O   UNL     1      12.178 -13.868  26.438  1.00  0.00    -0.504 OA
ATOM     11  H   UNL     1      11.202 -13.959  26.198  1.00  0.00     0.293 HD
ENDBRANCH   4  10
BRANCH   5  12
ATOM     12  O   UNL     1      15.409 -13.351  30.061  1.00  0.00    -0.504 OA
ATOM     13  H   UNL     1      15.617 -14.327  30.238  1.00  0.00     0.293 HD
ENDBRANCH   5  12
BRANCH   6  14
ATOM     14  O   UNL     1      14.626 -14.693  27.799  1.00  0.00    -0.502 OA
ATOM     15  H   UNL     1      15.561 -14.580  27.433  1.00  0.00     0.293 HD
ENDBRANCH   6  14
TORSDOF 4
ENDMDL
MODEL 4
REMARK VINA RESULT:    -6.006      1.358      4.706
REMARK INTER + INTRA:          -6.929
REMARK INTER:                  -6.879
REMARK INTRA:                  -0.049
REMARK UNBOUND:                -0.045
REMARK SMILES O=C([O-])c1cc(O)c(O)c(O)c1
REMARK SMILES IDX 4 1 5 2 12 3 6 4 10 5 8 6 2 7 1 8 3 9 7 10 11 12 9 14
REMARK H PARENT 7 11 11 13 9 15
REMARK Flexibility Score: inf
ROOT
ATOM      1  C   UNL     1      12.295 -11.481  29.262  1.00  0.00     0.005 A 
ATOM      2  C   UNL     1      13.465 -11.911  29.909  1.00  0.00     0.060 A 
ATOM      3  C   UNL     1      11.876 -12.149  28.101  1.00  0.00     0.060 A 
ATOM      4  C   UNL     1      14.210 -12.988  29.415  1.00  0.00     0.162 A 
ATOM      5  C   UNL     1      12.612 -13.228  27.595  1.00  0.00     0.162 A 
ATOM      6  C   UNL     1      13.779 -13.655  28.243  1.00  0.00     0.200 A 
ENDROOT
BRANCH   1   7
ATOM      7  C   UNL     1      11.514 -10.342  29.792  1.00  0.00     0.072 C 
ATOM      8  O   UNL     1      12.096  -9.327  30.258  1.00  0.00    -0.545 OA
ATOM      9  O   UNL     1      10.124 -10.376  29.784  1.00  0.00    -0.545 OA
ENDBRANCH   1   7
BRANCH   4  10
ATOM     10  O   UNL     1      15.361 -13.358  30.113  1.00  0.00    -0.504 OA
ATOM     11  H   UNL     1      15.947 -14.142  29.864  1.00  0.00     0.293 HD
ENDBRANCH   4  10
BRANCH   5  12
ATOM     12  O   UNL     1      12.187 -13.885  26.441  1.00  0.00    -0.504 OA
ATOM     13  H   UNL     1      12.704 -14.666  26.053  1.00  0.00     0.293 HD
ENDBRANCH   5  12
BRANCH   6  14
ATOM     14  O   UNL     1      14.475 -14.736  27.696  1.00  0.00    -0.502 OA
ATOM     15  H   UNL     1      15.477 -14.760  27.572  1.00  0.00     0.293 HD
ENDBRANCH   6  14
TORSDOF 4
ENDMDL
MODEL 5
REMARK VINA RESULT:    -5.925      2.027      4.399
REMARK INTER + INTRA:          -6.836
REMARK INTER:                  -6.783
REMARK INTRA:                  -0.053
REMARK UNBOUND:                -0.045
REMARK SMILES O=C([O-])c1cc(O)c(O)c(O)c1
REMARK SMILES IDX 4 1 5 2 12 3 6 4 10 5 8 6 2 7 1 8 3 9 7 10 11 12 9 14
REMARK H PARENT 7 11 11 13 9 15
REMARK Flexibility Score: inf
ROOT
ATOM      1  C   UNL     1      13.759 -11.681  29.236  1.00  0.00     0.005 A 
ATOM      2  C   UNL     1      14.206 -12.125  27.981  1.00  0.00     0.060 A 
ATOM      3  C   UNL     1      13.996 -12.481  30.364  1.00  0.00     0.060 A 
ATOM      4  C   UNL     1      14.880 -13.344  27.844  1.00  0.00     0.162 A 
ATOM      5  C   UNL     1      14.669 -13.704  30.242  1.00  0.00     0.162 A 
ATOM      6  C   UNL     1      15.114 -14.144  28.988  1.00  0.00     0.200 A 
ENDROOT
BRANCH   1   7
ATOM      7  C   UNL     1      13.047 -10.391  29.371  1.00  0.00     0.072 C 
ATOM      8  O   UNL     1      12.673  -9.981  30.502  1.00  0.00    -0.545 OA
ATOM      9  O   UNL     1      12.779  -9.612  28.251  1.00  0.00    -0.545 OA
ENDBRANCH   1   7
BRANCH   4  10
ATOM     10  O   UNL     1      15.295 -13.718  26.564  1.00  0.00    -0.504 OA
ATOM     11  H   UNL     1      16.057 -14.354  26.379  1.00  0.00     0.293 HD
ENDBRANCH   4  10
BRANCH   5  12
ATOM     12  O   UNL     1      14.901 -14.491  31.369  1.00  0.00    -0.504 OA
ATOM     13  H   UNL     1      15.565 -14.215  32.082  1.00  0.00     0.293 HD
ENDBRANCH   5  12
BRANCH   6  14
ATOM     14  O   UNL     1      15.781 -15.370  28.922  1.00  0.00    -0.502 OA
ATOM     15  H   UNL     1      15.410 -16.236  29.286  1.00  0.00     0.293 HD
ENDBRANCH   6  14
TORSDOF 4
ENDMDL
MODEL 6
REMARK VINA RESULT:    -5.835     11.889     13.259
REMARK INTER + INTRA:          -6.733
REMARK INTER:                  -6.688
REMARK INTRA:                  -0.045
REMARK UNBOUND:                -0.045
REMARK SMILES O=C([O-])c1cc(O)c(O)c(O)c1
REMARK SMILES IDX 4 1 5 2 12 3 6 4 10 5 8 6 2 7 1 8 3 9 7 10 11 12 9 14
REMARK H PARENT 7 11 11 13 9 15
REMARK Flexibility Score: inf
ROOT
ATOM      1  C   UNL     1      16.457  -0.563  26.084  1.00  0.00     0.005 A 
ATOM      2  C   UNL     1      17.753  -0.275  25.629  1.00  0.00     0.060 A 
ATOM      3  C   UNL     1      16.257  -1.682  26.906  1.00  0.00     0.060 A 
ATOM      4  C   UNL     1      18.839  -1.085  25.982  1.00  0.00     0.162 A 
ATOM      5  C   UNL     1      17.335  -2.502  27.268  1.00  0.00     0.162 A 
ATOM      6  C   UNL     1      18.628  -2.212  26.811  1.00  0.00     0.200 A 
ENDROOT
BRANCH   1   7
ATOM      7  C   UNL     1      15.314   0.298  25.705  1.00  0.00     0.072 C 
ATOM      8  O   UNL     1      14.519  -0.056  24.795  1.00  0.00    -0.545 OA
ATOM      9  O   UNL     1      15.103   1.513  26.348  1.00  0.00    -0.545 OA
ENDBRANCH   1   7
BRANCH   4  10
ATOM     10  O   UNL     1      20.099  -0.735  25.492  1.00  0.00    -0.504 OA
ATOM     11  H   UNL     1      20.301   0.132  25.016  1.00  0.00     0.293 HD
ENDBRANCH   4  10
BRANCH   5  12
ATOM     12  O   UNL     1      17.127  -3.612  28.085  1.00  0.00    -0.504 OA
ATOM     13  H   UNL     1      17.663  -4.464  27.970  1.00  0.00     0.293 HD
ENDBRANCH   5  12
BRANCH   6  14
ATOM     14  O   UNL     1      19.667  -3.061  27.203  1.00  0.00    -0.502 OA
ATOM     15  H   UNL     1      19.726  -3.502  28.110  1.00  0.00     0.293 HD
ENDBRANCH   6  14
TORSDOF 4
ENDMDL
MODEL 7
REMARK VINA RESULT:    -5.765     11.935     13.240
REMARK INTER + INTRA:          -6.652
REMARK INTER:                  -6.608
REMARK INTRA:                  -0.045
REMARK UNBOUND:                -0.045
REMARK SMILES O=C([O-])c1cc(O)c(O)c(O)c1
REMARK SMILES IDX 4 1 5 2 12 3 6 4 10 5 8 6 2 7 1 8 3 9 7 10 11 12 9 14
REMARK H PARENT 7 11 11 13 9 15
REMARK Flexibility Score: inf
ROOT
ATOM      1  C   UNL     1      16.465  -0.558  26.039  1.00  0.00     0.005 A 
ATOM      2  C   UNL     1      16.294  -1.671  26.878  1.00  0.00     0.060 A 
ATOM      3  C   UNL     1      17.752  -0.249  25.574  1.00  0.00     0.060 A 
ATOM      4  C   UNL     1      17.383  -2.467  27.253  1.00  0.00     0.162 A 
ATOM      5  C   UNL     1      18.851  -1.037  25.941  1.00  0.00     0.162 A 
ATOM      6  C   UNL     1      18.677  -2.147  26.779  1.00  0.00     0.200 A 
ENDROOT
BRANCH   1   7
ATOM      7  C   UNL     1      15.309   0.278  25.648  1.00  0.00     0.072 C 
ATOM      8  O   UNL     1      14.532  -0.092  24.728  1.00  0.00    -0.545 OA
ATOM      9  O   UNL     1      15.063   1.486  26.291  1.00  0.00    -0.545 OA
ENDBRANCH   1   7
BRANCH   4  10
ATOM     10  O   UNL     1      17.135  -3.557  28.089  1.00  0.00    -0.504 OA
ATOM     11  H   UNL     1      16.790  -3.479  29.035  1.00  0.00     0.293 HD
ENDBRANCH   4  10
BRANCH   5  12
ATOM     12  O   UNL     1      20.126  -0.721  25.474  1.00  0.00    -0.504 OA
ATOM     13  H   UNL     1      20.710  -1.412  25.016  1.00  0.00     0.293 HD
ENDBRANCH   5  12
BRANCH   6  14
ATOM     14  O   UNL     1      19.806  -2.899  27.113  1.00  0.00    -0.502 OA
ATOM     15  H   UNL     1      19.967  -3.847  26.804  1.00  0.00     0.293 HD
ENDBRANCH   6  14
TORSDOF 4
ENDMDL
MODEL 8
REMARK VINA RESULT:    -5.745     12.045     13.262
REMARK INTER + INTRA:          -6.629
REMARK INTER:                  -6.578
REMARK INTRA:                  -0.051
REMARK UNBOUND:                -0.045
REMARK SMILES O=C([O-])c1cc(O)c(O)c(O)c1
REMARK SMILES IDX 4 1 5 2 12 3 6 4 10 5 8 6 2 7 1 8 3 9 7 10 11 12 9 14
REMARK H PARENT 7 11 11 13 9 15
REMARK Flexibility Score: inf
ROOT
ATOM      1  C   UNL     1      15.814  -1.068  27.493  1.00  0.00     0.005 A 
ATOM      2  C   UNL     1      15.839   0.154  28.184  1.00  0.00     0.060 A 
ATOM      3  C   UNL     1      15.385  -1.086  26.158  1.00  0.00     0.060 A 
ATOM      4  C   UNL     1      15.445   1.344  27.561  1.00  0.00     0.162 A 
ATOM      5  C   UNL     1      14.987   0.097  25.522  1.00  0.00     0.162 A 
ATOM      6  C   UNL     1      15.013   1.316  26.214  1.00  0.00     0.200 A 
ENDROOT
BRANCH   1   7
ATOM      7  C   UNL     1      16.232  -2.321  28.160  1.00  0.00     0.072 C 
ATOM      8  O   UNL     1      16.688  -3.284  27.487  1.00  0.00    -0.545 OA
ATOM      9  O   UNL     1      16.128  -2.455  29.540  1.00  0.00    -0.545 OA
ENDBRANCH   1   7
BRANCH   4  10
ATOM     10  O   UNL     1      15.497   2.520  28.312  1.00  0.00    -0.504 OA
ATOM     11  H   UNL     1      14.756   2.839  28.918  1.00  0.00     0.293 HD
ENDBRANCH   4  10
BRANCH   5  12
ATOM     12  O   UNL     1      14.562   0.070  24.194  1.00  0.00    -0.504 OA
ATOM     13  H   UNL     1      14.416   0.922  23.665  1.00  0.00     0.293 HD
ENDBRANCH   5  12
BRANCH   6  14
ATOM     14  O   UNL     1      14.607   2.466  25.532  1.00  0.00    -0.502 OA
ATOM     15  H   UNL     1      13.970   2.463  24.747  1.00  0.00     0.293 HD
ENDBRANCH   6  14
TORSDOF 4
ENDMDL
MODEL 9
REMARK VINA RESULT:    -5.741     12.138     13.152
REMARK INTER + INTRA:          -6.625
REMARK INTER:                  -6.574
REMARK INTRA:                  -0.051
REMARK UNBOUND:                -0.045
REMARK SMILES O=C([O-])c1cc(O)c(O)c(O)c1
REMARK SMILES IDX 4 1 5 2 12 3 6 4 10 5 8 6 2 7 1 8 3 9 7 10 11 12 9 14
REMARK H PARENT 7 11 11 13 9 15
REMARK Flexibility Score: inf
ROOT
ATOM      1  C   UNL     1      15.816  -0.959  27.478  1.00  0.00     0.005 A 
ATOM      2  C   UNL     1      15.402  -1.028  26.138  1.00  0.00     0.060 A 
ATOM      3  C   UNL     1      15.817   0.285  28.127  1.00  0.00     0.060 A 
ATOM      4  C   UNL     1      14.994   0.120  25.449  1.00  0.00     0.162 A 
ATOM      5  C   UNL     1      15.411   1.442  27.448  1.00  0.00     0.162 A 
ATOM      6  C   UNL     1      14.999   1.371  26.111  1.00  0.00     0.200 A 
ENDROOT
BRANCH   1   7
ATOM      7  C   UNL     1      16.246  -2.177  28.200  1.00  0.00     0.072 C 
ATOM      8  O   UNL     1      16.150  -2.247  29.454  1.00  0.00    -0.545 OA
ATOM      9  O   UNL     1      16.764  -3.263  27.503  1.00  0.00    -0.545 OA
ENDBRANCH   1   7
BRANCH   4  10
ATOM     10  O   UNL     1      14.596  -0.027  24.118  1.00  0.00    -0.504 OA
ATOM     11  H   UNL     1      14.599  -0.905  23.619  1.00  0.00     0.293 HD
ENDBRANCH   4  10
BRANCH   5  12
ATOM     12  O   UNL     1      15.415   2.674  28.101  1.00  0.00    -0.504 OA
ATOM     13  H   UNL     1      14.569   3.071  28.493  1.00  0.00     0.293 HD
ENDBRANCH   5  12
BRANCH   6  14
ATOM     14  O   UNL     1      14.604   2.554  25.482  1.00  0.00    -0.502 OA
ATOM     15  H   UNL     1      14.888   3.476  25.782  1.00  0.00     0.293 HD
ENDBRANCH   6  14
TORSDOF 4
ENDMDL
