MODEL 1
REMARK VINA RESULT:    -2.677      0.000      0.000
REMARK INTER + INTRA:          -4.870
REMARK INTER:                  -3.929
REMARK INTRA:                  -0.941
REMARK UNBOUND:                -0.941
REMARK SMILES CCCCCCCCCC=O
REMARK SMILES IDX 6 1 5 2 4 3 3 4 2 5 1 6 7 7 8 8 9 9 10 10 11 11
REMARK H PARENT
REMARK Flexibility Score: inf
ROOT
ATOM      1  C   UNL     1      10.749  -5.302  -3.487  1.00  0.00     0.000 C 
ENDROOT
BRANCH   1   2
ATOM      2  C   UNL     1       9.405  -4.872  -4.096  1.00  0.00     0.000 C 
BRANCH   2   3
ATOM      3  C   UNL     1       9.157  -3.359  -3.981  1.00  0.00    -0.000 C 
BRANCH   3   4
ATOM      4  C   UNL     1       8.234  -2.998  -2.805  1.00  0.00    -0.000 C 
BRANCH   4   5
ATOM      5  C   UNL     1       7.034  -3.951  -2.684  1.00  0.00    -0.003 C 
ATOM      6  C   UNL     1       6.916  -4.583  -1.298  1.00  0.00     0.004 C 
ENDBRANCH   4   5
ENDBRANCH   3   4
ENDBRANCH   2   3
ENDBRANCH   1   2
BRANCH   1   7
ATOM      7  C   UNL     1      10.538  -6.067  -2.176  1.00  0.00     0.000 C 
BRANCH   7   8
ATOM      8  C   UNL     1      10.622  -5.122  -0.968  1.00  0.00     0.008 C 
BRANCH   8   9
ATOM      9  C   UNL     1      11.754  -4.092  -1.098  1.00  0.00     0.072 C 
BRANCH   9  10
ATOM     10  C   UNL     1      13.058  -4.608  -0.560  1.00  0.00     0.224 C 
ATOM     11  O   UNL     1      13.409  -4.349   0.579  1.00  0.00    -0.303 OA
ENDBRANCH   9  10
ENDBRANCH   8   9
ENDBRANCH   7   8
ENDBRANCH   1   7
TORSDOF 8
ENDMDL
MODEL 2
REMARK VINA RESULT:    -2.624      1.775      2.600
REMARK INTER + INTRA:          -4.793
REMARK INTER:                  -4.017
REMARK INTRA:                  -0.776
REMARK UNBOUND:                -0.941
REMARK SMILES CCCCCCCCCC=O
REMARK SMILES IDX 6 1 5 2 4 3 3 4 2 5 1 6 7 7 8 8 9 9 10 10 11 11
REMARK H PARENT
REMARK Flexibility Score: inf
ROOT
ATOM      1  C   UNL     1       9.230  -5.373  -0.627  1.00  0.00     0.000 C 
ENDROOT
BRANCH   1   2
ATOM      2  C   UNL     1       8.317  -6.125  -1.609  1.00  0.00     0.000 C 
BRANCH   2   3
ATOM      3  C   UNL     1       7.595  -5.185  -2.588  1.00  0.00    -0.000 C 
BRANCH   3   4
ATOM      4  C   UNL     1       7.555  -3.730  -2.090  1.00  0.00    -0.000 C 
BRANCH   4   5
ATOM      5  C   UNL     1       8.314  -2.769  -3.019  1.00  0.00    -0.003 C 
ATOM      6  C   UNL     1       9.045  -3.492  -4.150  1.00  0.00     0.004 C 
ENDBRANCH   4   5
ENDBRANCH   3   4
ENDBRANCH   2   3
ENDBRANCH   1   2
BRANCH   1   7
ATOM      7  C   UNL     1      10.703  -5.513  -1.031  1.00  0.00     0.000 C 
BRANCH   7   8
ATOM      8  C   UNL     1      11.330  -4.139  -1.308  1.00  0.00     0.008 C 
BRANCH   8   9
ATOM      9  C   UNL     1      12.864  -4.193  -1.385  1.00  0.00     0.072 C 
BRANCH   9  10
ATOM     10  C   UNL     1      13.364  -4.177  -2.801  1.00  0.00     0.224 C 
ATOM     11  O   UNL     1      12.871  -3.427  -3.628  1.00  0.00    -0.303 OA
ENDBRANCH   9  10
ENDBRANCH   8   9
ENDBRANCH   7   8
ENDBRANCH   1   7
TORSDOF 8
ENDMDL
MODEL 3
REMARK VINA RESULT:    -2.581     10.810     13.590
REMARK INTER + INTRA:          -4.729
REMARK INTER:                  -3.801
REMARK INTRA:                  -0.928
REMARK UNBOUND:                -0.941
REMARK SMILES CCCCCCCCCC=O
REMARK SMILES IDX 6 1 5 2 4 3 3 4 2 5 1 6 7 7 8 8 9 9 10 10 11 11
REMARK H PARENT
REMARK Flexibility Score: inf
ROOT
ATOM      1  C   UNL     1      16.579   1.495   8.853  1.00  0.00     0.000 C 
ENDROOT
BRANCH   1   2
ATOM      2  C   UNL     1      16.467   2.538   7.731  1.00  0.00     0.000 C 
BRANCH   2   3
ATOM      3  C   UNL     1      17.688   3.470   7.662  1.00  0.00    -0.000 C 
BRANCH   3   4
ATOM      4  C   UNL     1      18.991   2.771   8.085  1.00  0.00    -0.000 C 
BRANCH   4   5
ATOM      5  C   UNL     1      19.664   2.026   6.921  1.00  0.00    -0.003 C 
ATOM      6  C   UNL     1      19.873   0.540   7.209  1.00  0.00     0.004 C 
ENDBRANCH   4   5
ENDBRANCH   3   4
ENDBRANCH   2   3
ENDBRANCH   1   2
BRANCH   1   7
ATOM      7  C   UNL     1      16.237   0.093   8.335  1.00  0.00     0.000 C 
BRANCH   7   8
ATOM      8  C   UNL     1      15.847   0.136   6.850  1.00  0.00     0.008 C 
BRANCH   8   9
ATOM      9  C   UNL     1      16.559  -0.942   6.018  1.00  0.00     0.072 C 
BRANCH   9  10
ATOM     10  C   UNL     1      16.056  -2.323   6.323  1.00  0.00     0.224 C 
ATOM     11  O   UNL     1      14.893  -2.625   6.108  1.00  0.00    -0.303 OA
ENDBRANCH   9  10
ENDBRANCH   8   9
ENDBRANCH   7   8
ENDBRANCH   1   7
TORSDOF 8
ENDMDL
MODEL 4
REMARK VINA RESULT:    -2.473      2.037      2.768
REMARK INTER + INTRA:          -4.571
REMARK INTER:                  -3.895
REMARK INTRA:                  -0.676
REMARK UNBOUND:                -0.941
REMARK SMILES CCCCCCCCCC=O
REMARK SMILES IDX 6 1 5 2 4 3 3 4 2 5 1 6 7 7 8 8 9 9 10 10 11 11
REMARK H PARENT
REMARK Flexibility Score: inf
ROOT
ATOM      1  C   UNL     1       8.837  -5.022  -1.935  1.00  0.00     0.000 C 
ENDROOT
BRANCH   1   2
ATOM      2  C   UNL     1       8.622  -3.617  -2.518  1.00  0.00     0.000 C 
BRANCH   2   3
ATOM      3  C   UNL     1       9.020  -3.521  -4.000  1.00  0.00    -0.000 C 
BRANCH   3   4
ATOM      4  C   UNL     1       9.149  -4.900  -4.669  1.00  0.00    -0.000 C 
BRANCH   4   5
ATOM      5  C   UNL     1       7.941  -5.240  -5.556  1.00  0.00    -0.003 C 
ATOM      6  C   UNL     1       7.298  -4.002  -6.181  1.00  0.00     0.004 C 
ENDBRANCH   4   5
ENDBRANCH   3   4
ENDBRANCH   2   3
ENDBRANCH   1   2
BRANCH   1   7
ATOM      7  C   UNL     1      10.009  -5.033  -0.946  1.00  0.00     0.000 C 
BRANCH   7   8
ATOM      8  C   UNL     1      11.341  -5.270  -1.674  1.00  0.00     0.008 C 
BRANCH   8   9
ATOM      9  C   UNL     1      12.277  -4.053  -1.608  1.00  0.00     0.072 C 
BRANCH   9  10
ATOM     10  C   UNL     1      13.172  -3.956  -2.810  1.00  0.00     0.224 C 
ATOM     11  O   UNL     1      12.828  -3.322  -3.794  1.00  0.00    -0.303 OA
ENDBRANCH   9  10
ENDBRANCH   8   9
ENDBRANCH   7   8
ENDBRANCH   1   7
TORSDOF 8
ENDMDL
MODEL 5
REMARK VINA RESULT:    -2.449     10.618     12.361
REMARK INTER + INTRA:          -4.536
REMARK INTER:                  -3.612
REMARK INTRA:                  -0.923
REMARK UNBOUND:                -0.941
REMARK SMILES CCCCCCCCCC=O
REMARK SMILES IDX 6 1 5 2 4 3 3 4 2 5 1 6 7 7 8 8 9 9 10 10 11 11
REMARK H PARENT
REMARK Flexibility Score: inf
ROOT
ATOM      1  C   UNL     1       8.384   4.985 -10.692  1.00  0.00     0.000 C 
ENDROOT
BRANCH   1   2
ATOM      2  C   UNL     1       8.623   3.485 -10.462  1.00  0.00     0.000 C 
BRANCH   2   3
ATOM      3  C   UNL     1       8.194   3.023  -9.059  1.00  0.00    -0.000 C 
BRANCH   3   4
ATOM      4  C   UNL     1       9.377   2.921  -8.082  1.00  0.00    -0.000 C 
BRANCH   4   5
ATOM      5  C   UNL     1       9.282   3.940  -6.935  1.00  0.00    -0.003 C 
ATOM      6  C   UNL     1       8.002   4.773  -6.986  1.00  0.00     0.004 C 
ENDBRANCH   4   5
ENDBRANCH   3   4
ENDBRANCH   2   3
ENDBRANCH   1   2
BRANCH   1   7
ATOM      7  C   UNL     1       9.702   5.711 -10.987  1.00  0.00     0.000 C 
BRANCH   7   8
ATOM      8  C   UNL     1      10.389   6.155  -9.687  1.00  0.00     0.008 C 
BRANCH   8   9
ATOM      9  C   UNL     1       9.740   7.405  -9.071  1.00  0.00     0.072 C 
BRANCH   9  10
ATOM     10  C   UNL     1      10.595   8.024  -8.003  1.00  0.00     0.224 C 
ATOM     11  O   UNL     1      10.125   8.310  -6.915  1.00  0.00    -0.303 OA
ENDBRANCH   9  10
ENDBRANCH   8   9
ENDBRANCH   7   8
ENDBRANCH   1   7
TORSDOF 8
ENDMDL
MODEL 6
REMARK VINA RESULT:    -2.434     11.907     14.068
REMARK INTER + INTRA:          -4.514
REMARK INTER:                  -3.695
REMARK INTRA:                  -0.819
REMARK UNBOUND:                -0.941
REMARK SMILES CCCCCCCCCC=O
REMARK SMILES IDX 6 1 5 2 4 3 3 4 2 5 1 6 7 7 8 8 9 9 10 10 11 11
REMARK H PARENT
REMARK Flexibility Score: inf
ROOT
ATOM      1  C   UNL     1      16.225   2.490   7.623  1.00  0.00     0.000 C 
ENDROOT
BRANCH   1   2
ATOM      2  C   UNL     1      16.468   0.990   7.851  1.00  0.00     0.000 C 
BRANCH   2   3
ATOM      3  C   UNL     1      15.759   0.108   6.809  1.00  0.00    -0.000 C 
BRANCH   3   4
ATOM      4  C   UNL     1      16.723  -0.855   6.095  1.00  0.00    -0.000 C 
BRANCH   4   5
ATOM      5  C   UNL     1      17.960  -1.187   6.945  1.00  0.00    -0.003 C 
ATOM      6  C   UNL     1      19.259  -1.153   6.140  1.00  0.00     0.004 C 
ENDBRANCH   4   5
ENDBRANCH   3   4
ENDBRANCH   2   3
ENDBRANCH   1   2
BRANCH   1   7
ATOM      7  C   UNL     1      17.548   3.264   7.613  1.00  0.00     0.000 C 
BRANCH   7   8
ATOM      8  C   UNL     1      18.734   2.332   7.905  1.00  0.00     0.008 C 
BRANCH   8   9
ATOM      9  C   UNL     1      19.875   2.488   6.889  1.00  0.00     0.072 C 
BRANCH   9  10
ATOM     10  C   UNL     1      20.858   3.548   7.294  1.00  0.00     0.224 C 
ATOM     11  O   UNL     1      20.836   4.651   6.773  1.00  0.00    -0.303 OA
ENDBRANCH   9  10
ENDBRANCH   8   9
ENDBRANCH   7   8
ENDBRANCH   1   7
TORSDOF 8
ENDMDL
MODEL 7
REMARK VINA RESULT:    -2.417     10.963     12.668
REMARK INTER + INTRA:          -4.490
REMARK INTER:                  -3.592
REMARK INTRA:                  -0.897
REMARK UNBOUND:                -0.941
REMARK SMILES CCCCCCCCCC=O
REMARK SMILES IDX 6 1 5 2 4 3 3 4 2 5 1 6 7 7 8 8 9 9 10 10 11 11
REMARK H PARENT
REMARK Flexibility Score: inf
ROOT
ATOM      1  C   UNL     1       9.493   6.121 -10.757  1.00  0.00     0.000 C 
ENDROOT
BRANCH   1   2
ATOM      2  C   UNL     1       8.731   4.787 -10.788  1.00  0.00     0.000 C 
BRANCH   2   3
ATOM      3  C   UNL     1       9.074   3.879  -9.596  1.00  0.00    -0.000 C 
BRANCH   3   4
ATOM      4  C   UNL     1       7.905   3.733  -8.607  1.00  0.00    -0.000 C 
BRANCH   4   5
ATOM      5  C   UNL     1       8.330   3.986  -7.152  1.00  0.00    -0.003 C 
ATOM      6  C   UNL     1       9.796   3.640  -6.893  1.00  0.00     0.004 C 
ENDBRANCH   4   5
ENDBRANCH   3   4
ENDBRANCH   2   3
ENDBRANCH   1   2
BRANCH   1   7
ATOM      7  C   UNL     1      10.469   6.168  -9.575  1.00  0.00     0.000 C 
BRANCH   7   8
ATOM      8  C   UNL     1      10.315   7.477  -8.786  1.00  0.00     0.008 C 
BRANCH   8   9
ATOM      9  C   UNL     1       9.022   7.521  -7.958  1.00  0.00     0.072 C 
BRANCH   9  10
ATOM     10  C   UNL     1       9.047   8.604  -6.918  1.00  0.00     0.224 C 
ATOM     11  O   UNL     1      10.104   9.083  -6.542  1.00  0.00    -0.303 OA
ENDBRANCH   9  10
ENDBRANCH   8   9
ENDBRANCH   7   8
ENDBRANCH   1   7
TORSDOF 8
ENDMDL
MODEL 8
REMARK VINA RESULT:    -2.400      2.027      4.810
REMARK INTER + INTRA:          -4.464
REMARK INTER:                  -3.672
REMARK INTRA:                  -0.793
REMARK UNBOUND:                -0.941
REMARK SMILES CCCCCCCCCC=O
REMARK SMILES IDX 6 1 5 2 4 3 3 4 2 5 1 6 7 7 8 8 9 9 10 10 11 11
REMARK H PARENT
REMARK Flexibility Score: inf
ROOT
ATOM      1  C   UNL     1      10.695  -5.052  -3.579  1.00  0.00     0.000 C 
ENDROOT
BRANCH   1   2
ATOM      2  C   UNL     1      10.614  -5.911  -2.308  1.00  0.00     0.000 C 
BRANCH   2   3
ATOM      3  C   UNL     1      10.685  -5.074  -1.020  1.00  0.00    -0.000 C 
BRANCH   3   4
ATOM      4  C   UNL     1      11.825  -4.042  -1.047  1.00  0.00    -0.000 C 
BRANCH   4   5
ATOM      5  C   UNL     1      13.058  -4.507  -0.256  1.00  0.00    -0.003 C 
ATOM      6  C   UNL     1      14.174  -5.038  -1.156  1.00  0.00     0.004 C 
ENDBRANCH   4   5
ENDBRANCH   3   4
ENDBRANCH   2   3
ENDBRANCH   1   2
BRANCH   1   7
ATOM      7  C   UNL     1       9.310  -4.880  -4.214  1.00  0.00     0.000 C 
BRANCH   7   8
ATOM      8  C   UNL     1       8.880  -3.405  -4.203  1.00  0.00     0.008 C 
BRANCH   8   9
ATOM      9  C   UNL     1       8.262  -2.978  -2.862  1.00  0.00     0.072 C 
BRANCH   9  10
ATOM     10  C   UNL     1       7.127  -3.869  -2.448  1.00  0.00     0.224 C 
ATOM     11  O   UNL     1       7.170  -4.486  -1.396  1.00  0.00    -0.303 OA
ENDBRANCH   9  10
ENDBRANCH   8   9
ENDBRANCH   7   8
ENDBRANCH   1   7
TORSDOF 8
ENDMDL
MODEL 9
REMARK VINA RESULT:    -2.387      2.088      3.050
REMARK INTER + INTRA:          -4.445
REMARK INTER:                  -3.698
REMARK INTRA:                  -0.748
REMARK UNBOUND:                -0.941
REMARK SMILES CCCCCCCCCC=O
REMARK SMILES IDX 6 1 5 2 4 3 3 4 2 5 1 6 7 7 8 8 9 9 10 10 11 11
REMARK H PARENT
REMARK Flexibility Score: inf
ROOT
ATOM      1  C   UNL     1       8.283  -3.522  -3.918  1.00  0.00     0.000 C 
ENDROOT
BRANCH   1   2
ATOM      2  C   UNL     1       7.028  -4.097  -3.243  1.00  0.00     0.000 C 
BRANCH   2   3
ATOM      3  C   UNL     1       6.907  -3.688  -1.766  1.00  0.00    -0.000 C 
BRANCH   3   4
ATOM      4  C   UNL     1       6.261  -4.783  -0.900  1.00  0.00    -0.000 C 
BRANCH   4   5
ATOM      5  C   UNL     1       7.180  -6.001  -0.710  1.00  0.00    -0.003 C 
ATOM      6  C   UNL     1       8.459  -5.666   0.057  1.00  0.00     0.004 C 
ENDBRANCH   4   5
ENDBRANCH   3   4
ENDBRANCH   2   3
ENDBRANCH   1   2
BRANCH   1   7
ATOM      7  C   UNL     1       9.518  -3.707  -3.029  1.00  0.00     0.000 C 
BRANCH   7   8
ATOM      8  C   UNL     1      10.125  -5.106  -3.216  1.00  0.00     0.008 C 
BRANCH   8   9
ATOM      9  C   UNL     1      11.506  -5.067  -3.887  1.00  0.00     0.072 C 
BRANCH   9  10
ATOM     10  C   UNL     1      12.411  -4.039  -3.271  1.00  0.00     0.224 C 
ATOM     11  O   UNL     1      12.975  -3.209  -3.964  1.00  0.00    -0.303 OA
ENDBRANCH   9  10
ENDBRANCH   8   9
ENDBRANCH   7   8
ENDBRANCH   1   7
TORSDOF 8
ENDMDL
