MODEL 1
REMARK VINA RESULT:     8.535      0.000      0.000
REMARK INTER + INTRA:           9.538
REMARK INTER:                   9.783
REMARK INTRA:                  -0.245
REMARK UNBOUND:                -0.245
REMARK SMILES COc1ccc(C(C)=O)c(O)c1
REMARK SMILES IDX 6 1 10 2 12 3 3 4 4 5 5 6 7 7 8 8 9 9 11 10 2 12 1 13
REMARK H PARENT 11 11
REMARK Flexibility Score: inf
ROOT
ATOM      1  C   UNL     1      12.037  13.730  27.716  1.00  0.00     0.059 A 
ATOM      2  C   UNL     1      13.107  13.739  28.644  1.00  0.00     0.130 A 
ATOM      3  C   UNL     1      13.019  12.974  29.815  1.00  0.00     0.093 A 
ATOM      4  C   UNL     1      11.867  12.221  30.098  1.00  0.00     0.122 A 
ATOM      5  C   UNL     1      10.803  12.238  29.194  1.00  0.00     0.047 A 
ATOM      6  C   UNL     1      10.884  12.983  28.016  1.00  0.00     0.019 A 
ENDROOT
BRANCH   1   7
ATOM      7  C   UNL     1      12.112  14.452  26.424  1.00  0.00     0.163 C 
ATOM      8  C   UNL     1      10.970  14.426  25.456  1.00  0.00     0.093 C 
ATOM      9  O   UNL     1      13.180  15.033  26.088  1.00  0.00    -0.294 OA
ENDBRANCH   1   7
BRANCH   2  10
ATOM     10  O   UNL     1      14.254  14.514  28.456  1.00  0.00    -0.507 OA
ATOM     11  H   UNL     1      15.116  14.149  28.074  1.00  0.00     0.293 HD
ENDBRANCH   2  10
BRANCH   4  12
ATOM     12  O   UNL     1      11.740  11.448  31.262  1.00  0.00    -0.497 OA
ATOM     13  C   UNL     1      10.569  10.723  31.622  1.00  0.00     0.278 C 
ENDBRANCH   4  12
TORSDOF 3
ENDMDL
MODEL 2
REMARK VINA RESULT:     9.048      1.504      2.121
REMARK INTER + INTRA:          10.126
REMARK INTER:                  10.464
REMARK INTRA:                  -0.338
REMARK UNBOUND:                -0.245
REMARK SMILES COc1ccc(C(C)=O)c(O)c1
REMARK SMILES IDX 6 1 10 2 12 3 3 4 4 5 5 6 7 7 8 8 9 9 11 10 2 12 1 13
REMARK H PARENT 11 11
REMARK Flexibility Score: inf
ROOT
ATOM      1  C   UNL     1      12.464  13.002  29.166  1.00  0.00     0.059 A 
ATOM      2  C   UNL     1      13.076  11.768  29.496  1.00  0.00     0.130 A 
ATOM      3  C   UNL     1      12.357  10.806  30.219  1.00  0.00     0.093 A 
ATOM      4  C   UNL     1      11.044  11.062  30.650  1.00  0.00     0.122 A 
ATOM      5  C   UNL     1      10.455  12.291  30.347  1.00  0.00     0.047 A 
ATOM      6  C   UNL     1      11.154  13.252  29.613  1.00  0.00     0.019 A 
ENDROOT
BRANCH   1   7
ATOM      7  C   UNL     1      13.147  14.019  28.333  1.00  0.00     0.163 C 
ATOM      8  C   UNL     1      12.610  14.407  26.990  1.00  0.00     0.093 C 
ATOM      9  O   UNL     1      14.243  14.512  28.714  1.00  0.00    -0.294 OA
ENDBRANCH   1   7
BRANCH   2  10
ATOM     10  O   UNL     1      14.398  11.473  29.155  1.00  0.00    -0.507 OA
ATOM     11  H   UNL     1      14.979  12.087  28.600  1.00  0.00     0.293 HD
ENDBRANCH   2  10
BRANCH   4  12
ATOM     12  O   UNL     1      10.296  10.127  31.380  1.00  0.00    -0.497 OA
ATOM     13  C   UNL     1       8.919  10.279  31.710  1.00  0.00     0.278 C 
ENDBRANCH   4  12
TORSDOF 3
ENDMDL
MODEL 3
REMARK VINA RESULT:     9.360      1.883      2.932
REMARK INTER + INTRA:          10.483
REMARK INTER:                  10.823
REMARK INTRA:                  -0.340
REMARK UNBOUND:                -0.245
REMARK SMILES COc1ccc(C(C)=O)c(O)c1
REMARK SMILES IDX 6 1 10 2 12 3 3 4 4 5 5 6 7 7 8 8 9 9 11 10 2 12 1 13
REMARK H PARENT 11 11
REMARK Flexibility Score: inf
ROOT
ATOM      1  C   UNL     1      12.778  12.687  29.361  1.00  0.00     0.059 A 
ATOM      2  C   UNL     1      11.489  12.958  28.840  1.00  0.00     0.130 A 
ATOM      3  C   UNL     1      10.361  12.378  29.436  1.00  0.00     0.093 A 
ATOM      4  C   UNL     1      10.494  11.502  30.528  1.00  0.00     0.122 A 
ATOM      5  C   UNL     1      11.770  11.215  31.020  1.00  0.00     0.047 A 
ATOM      6  C   UNL     1      12.900  11.799  30.445  1.00  0.00     0.019 A 
ENDROOT
BRANCH   1   7
ATOM      7  C   UNL     1      13.996  13.339  28.824  1.00  0.00     0.163 C 
ATOM      8  C   UNL     1      15.317  12.635  28.829  1.00  0.00     0.093 C 
ATOM      9  O   UNL     1      13.947  14.535  28.429  1.00  0.00    -0.294 OA
ENDBRANCH   1   7
BRANCH   2  10
ATOM     10  O   UNL     1      11.290  13.767  27.719  1.00  0.00    -0.507 OA
ATOM     11  H   UNL     1      10.377  14.065  27.403  1.00  0.00     0.293 HD
ENDBRANCH   2  10
BRANCH   4  12
ATOM     12  O   UNL     1       9.390  10.897  31.147  1.00  0.00    -0.497 OA
ATOM     13  C   UNL     1       9.408   9.602  31.737  1.00  0.00     0.278 C 
ENDBRANCH   4  12
TORSDOF 3
ENDMDL
