MODEL 1
REMARK VINA RESULT:    -3.433      0.000      0.000
REMARK INTER + INTRA:          -4.629
REMARK INTER:                  -4.838
REMARK INTRA:                   0.208
REMARK UNBOUND:                 0.208
REMARK SMILES CC1=CCC(=C(C)C)C(=O)CC(C)=CCC1
REMARK SMILES IDX 12 1 14 2 13 3 15 4 16 5 2 6 1 7 3 8 11 10 9 11 10 12 5 13
REMARK SMILES IDX 6 14 7 15 8 16 4 17
REMARK H PARENT
REMARK Flexibility Score: 60.00
ROOT
ATOM      1  C   UNL     1      -8.478  -5.270   3.416  1.00  0.00    -0.070 C 
ATOM      2  C   UNL     1      -9.092  -4.840   4.541  1.00  0.00    -0.027 C 
ATOM      3  C   UNL     1      -9.060  -6.467   2.707  1.00  0.00     0.039 C 
ENDROOT
BRANCH   2   4
ATOM      4  C   UNL     1      -8.606  -3.724   5.442  1.00  0.00     0.032 C 
BRANCH   4   5
ATOM      5  C   UNL     1      -7.767  -4.187   6.651  1.00  0.00     0.034 C 
BRANCH   5   6
ATOM      6  C   UNL     1      -6.529  -3.338   6.877  1.00  0.00    -0.077 C 
ATOM      7  C   UNL     1      -6.700  -2.024   7.596  1.00  0.00     0.039 C 
ATOM      8  C   UNL     1      -5.293  -3.651   6.416  1.00  0.00    -0.023 CG0
ATOM      9  G   UNL     1      -4.882  -4.917   5.689  1.00  0.00     0.000 G0
ENDBRANCH   5   6
ENDBRANCH   4   5
ENDBRANCH   2   4
BRANCH   1  10
ATOM     10  C   UNL     1      -7.190  -4.669   2.891  1.00  0.00     0.111 C 
BRANCH  10  11
ATOM     11  C   UNL     1      -5.982  -5.413   3.397  1.00  0.00     0.163 C 
ATOM     12  O   UNL     1      -5.928  -6.657   3.206  1.00  0.00    -0.294 OA
BRANCH  11  13
ATOM     13  C   UNL     1      -4.890  -4.741   4.163  1.00  0.00    -0.002 C 
ATOM     14  C   UNL     1      -3.891  -4.071   3.515  1.00  0.00    -0.069 C 
ATOM     15  C   UNL     1      -2.691  -3.517   4.250  1.00  0.00     0.039 C 
ATOM     16  C   UNL     1      -3.937  -3.852   2.018  1.00  0.00     0.039 C 
BRANCH  13  17
ATOM     17  C   UNL     1      -4.891  -4.916   5.674  1.00  0.00     0.066 CG0
ATOM     18  G   UNL     1      -5.288  -3.646   6.402  1.00  0.00     0.000 G0
ENDBRANCH  13  17
ENDBRANCH  11  13
ENDBRANCH  10  11
ENDBRANCH   1  10
TORSDOF 0
ENDMDL
MODEL 2
REMARK VINA RESULT:    -3.380     12.862     14.370
REMARK INTER + INTRA:          -4.555
REMARK INTER:                  -4.914
REMARK INTRA:                   0.359
REMARK UNBOUND:                 0.208
REMARK SMILES CC1=CCC(=C(C)C)C(=O)CC(C)=CCC1
REMARK SMILES IDX 12 1 14 2 13 3 15 4 16 5 2 6 1 7 3 8 11 10 9 11 10 12 5 13
REMARK SMILES IDX 6 14 7 15 8 16 4 17
REMARK H PARENT
REMARK Flexibility Score: 60.00
ROOT
ATOM      1  C   UNL     1       2.863  -4.278  -3.849  1.00  0.00    -0.070 C 
ATOM      2  C   UNL     1       4.011  -4.434  -3.154  1.00  0.00    -0.027 C 
ATOM      3  C   UNL     1       2.370  -2.874  -4.094  1.00  0.00     0.039 C 
ENDROOT
BRANCH   2   4
ATOM      4  C   UNL     1       4.613  -5.755  -2.726  1.00  0.00     0.032 C 
BRANCH   4   5
ATOM      5  C   UNL     1       5.369  -6.513  -3.837  1.00  0.00     0.034 C 
BRANCH   5   6
ATOM      6  C   UNL     1       4.804  -7.897  -4.106  1.00  0.00    -0.077 C 
ATOM      7  C   UNL     1       5.016  -8.958  -3.056  1.00  0.00     0.039 C 
ATOM      8  C   UNL     1       4.182  -8.257  -5.255  1.00  0.00    -0.023 CG0
ATOM      9  G   UNL     1       3.843  -7.364  -6.432  1.00  0.00     0.000 G0
ENDBRANCH   5   6
ENDBRANCH   4   5
ENDBRANCH   2   4
BRANCH   1  10
ATOM     10  C   UNL     1       2.006  -5.440  -4.310  1.00  0.00     0.111 C 
BRANCH  10  11
ATOM     11  C   UNL     1       2.068  -5.617  -5.805  1.00  0.00     0.163 C 
ATOM     12  O   UNL     1       1.791  -4.625  -6.533  1.00  0.00    -0.294 OA
BRANCH  11  13
ATOM     13  C   UNL     1       2.381  -6.930  -6.445  1.00  0.00    -0.002 C 
ATOM     14  C   UNL     1       1.382  -7.725  -6.931  1.00  0.00    -0.069 C 
ATOM     15  C   UNL     1       1.649  -9.125  -7.439  1.00  0.00     0.039 C 
ATOM     16  C   UNL     1      -0.051  -7.242  -6.982  1.00  0.00     0.039 C 
BRANCH  13  17
ATOM     17  C   UNL     1       3.835  -7.376  -6.443  1.00  0.00     0.066 CG0
ATOM     18  G   UNL     1       4.172  -8.236  -5.241  1.00  0.00     0.000 G0
ENDBRANCH  13  17
ENDBRANCH  11  13
ENDBRANCH  10  11
ENDBRANCH   1  10
TORSDOF 0
ENDMDL
MODEL 3
REMARK VINA RESULT:    -3.328      2.053      5.136
REMARK INTER + INTRA:          -4.481
REMARK INTER:                  -5.773
REMARK INTRA:                   1.292
REMARK UNBOUND:                 0.208
REMARK SMILES CC1=CCC(=C(C)C)C(=O)CC(C)=CCC1
REMARK SMILES IDX 12 1 14 2 13 3 15 4 16 5 2 6 1 7 3 8 11 10 9 11 10 12 5 13
REMARK SMILES IDX 6 14 7 15 8 16 4 17
REMARK H PARENT
REMARK Flexibility Score: 60.00
ROOT
ATOM      1  C   UNL     1      -4.165  -3.745   5.355  1.00  0.00    -0.070 C 
ATOM      2  C   UNL     1      -3.130  -3.541   4.509  1.00  0.00    -0.027 C 
ATOM      3  C   UNL     1      -4.442  -2.692   6.398  1.00  0.00     0.039 C 
ENDROOT
BRANCH   2   4
ATOM      4  C   UNL     1      -2.637  -4.519   3.465  1.00  0.00     0.032 C 
BRANCH   4   5
ATOM      5  C   UNL     1      -2.614  -3.971   2.023  1.00  0.00     0.034 C 
BRANCH   5   6
ATOM      6  C   UNL     1      -3.904  -3.272   1.630  1.00  0.00    -0.077 C 
ATOM      7  C   UNL     1      -3.802  -1.882   1.055  1.00  0.00     0.039 C 
ATOM      8  C   UNL     1      -5.142  -3.788   1.826  1.00  0.00    -0.023 CG0
ATOM      9  G   UNL     1      -5.486  -5.162   2.367  1.00  0.00     0.000 G0
ENDBRANCH   5   6
ENDBRANCH   4   5
ENDBRANCH   2   4
BRANCH   1  10
ATOM     10  C   UNL     1      -4.994  -5.013   5.363  1.00  0.00     0.111 C 
BRANCH  10  11
ATOM     11  C   UNL     1      -6.359  -4.788   4.767  1.00  0.00     0.163 C 
ATOM     12  O   UNL     1      -7.275  -4.366   5.522  1.00  0.00    -0.294 OA
BRANCH  11  13
ATOM     13  C   UNL     1      -6.674  -5.106   3.342  1.00  0.00    -0.002 C 
ATOM     14  C   UNL     1      -7.947  -5.427   2.962  1.00  0.00    -0.069 C 
ATOM     15  C   UNL     1      -8.268  -5.906   1.564  1.00  0.00     0.039 C 
ATOM     16  C   UNL     1      -9.104  -5.319   3.930  1.00  0.00     0.039 C 
BRANCH  13  17
ATOM     17  C   UNL     1      -5.509  -5.149   2.365  1.00  0.00     0.066 CG0
ATOM     18  G   UNL     1      -5.151  -3.775   1.834  1.00  0.00     0.000 G0
ENDBRANCH  13  17
ENDBRANCH  11  13
ENDBRANCH  10  11
ENDBRANCH   1  10
TORSDOF 0
ENDMDL
MODEL 4
REMARK VINA RESULT:    -2.597      1.666      3.648
REMARK INTER + INTRA:          -3.451
REMARK INTER:                  -3.615
REMARK INTRA:                   0.164
REMARK UNBOUND:                 0.208
REMARK SMILES CC1=CCC(=C(C)C)C(=O)CC(C)=CCC1
REMARK SMILES IDX 12 1 14 2 13 3 15 4 16 5 2 6 1 7 3 8 11 10 9 11 10 12 5 13
REMARK SMILES IDX 6 14 7 15 8 16 4 17
REMARK H PARENT
REMARK Flexibility Score: 60.00
ROOT
ATOM      1  C   UNL     1      -7.546  -3.069   7.198  1.00  0.00    -0.070 C 
ATOM      2  C   UNL     1      -8.743  -3.531   6.775  1.00  0.00    -0.027 C 
ATOM      3  C   UNL     1      -7.390  -2.749   8.664  1.00  0.00     0.039 C 
ENDROOT
BRANCH   2   4
ATOM      4  C   UNL     1      -9.124  -3.814   5.337  1.00  0.00     0.032 C 
BRANCH   4   5
ATOM      5  C   UNL     1      -8.676  -5.193   4.809  1.00  0.00     0.034 C 
BRANCH   5   6
ATOM      6  C   UNL     1      -7.897  -5.108   3.508  1.00  0.00    -0.077 C 
ATOM      7  C   UNL     1      -8.664  -4.785   2.251  1.00  0.00     0.039 C 
ATOM      8  C   UNL     1      -6.573  -5.372   3.392  1.00  0.00    -0.023 CG0
ATOM      9  G   UNL     1      -5.603  -5.697   4.512  1.00  0.00     0.000 G0
ENDBRANCH   5   6
ENDBRANCH   4   5
ENDBRANCH   2   4
BRANCH   1  10
ATOM     10  C   UNL     1      -6.391  -2.773   6.263  1.00  0.00     0.111 C 
BRANCH  10  11
ATOM     11  C   UNL     1      -5.358  -3.869   6.291  1.00  0.00     0.163 C 
ATOM     12  O   UNL     1      -4.890  -4.216   7.409  1.00  0.00    -0.294 OA
BRANCH  11  13
ATOM     13  C   UNL     1      -4.830  -4.506   5.047  1.00  0.00    -0.002 C 
ATOM     14  C   UNL     1      -3.768  -3.963   4.382  1.00  0.00    -0.069 C 
ATOM     15  C   UNL     1      -3.311  -4.490   3.039  1.00  0.00     0.039 C 
ATOM     16  C   UNL     1      -2.993  -2.798   4.958  1.00  0.00     0.039 C 
BRANCH  13  17
ATOM     17  C   UNL     1      -5.581  -5.715   4.512  1.00  0.00     0.066 CG0
ATOM     18  G   UNL     1      -6.551  -5.349   3.406  1.00  0.00     0.000 G0
ENDBRANCH  13  17
ENDBRANCH  11  13
ENDBRANCH  10  11
ENDBRANCH   1  10
TORSDOF 0
ENDMDL
MODEL 5
REMARK VINA RESULT:    -2.554      1.876      4.434
REMARK INTER + INTRA:          -3.391
REMARK INTER:                  -4.562
REMARK INTRA:                   1.171
REMARK UNBOUND:                 0.208
REMARK SMILES CC1=CCC(=C(C)C)C(=O)CC(C)=CCC1
REMARK SMILES IDX 12 1 14 2 13 3 15 4 16 5 2 6 1 7 3 8 11 10 9 11 10 12 5 13
REMARK SMILES IDX 6 14 7 15 8 16 4 17
REMARK H PARENT
REMARK Flexibility Score: 60.00
ROOT
ATOM      1  C   UNL     1      -3.880  -5.336   3.036  1.00  0.00    -0.070 C 
ATOM      2  C   UNL     1      -4.700  -6.216   2.420  1.00  0.00    -0.027 C 
ATOM      3  C   UNL     1      -3.045  -4.425   2.172  1.00  0.00     0.039 C 
ENDROOT
BRANCH   2   4
ATOM      4  C   UNL     1      -5.539  -7.272   3.107  1.00  0.00     0.032 C 
BRANCH   4   5
ATOM      5  C   UNL     1      -7.053  -6.977   3.140  1.00  0.00     0.034 C 
BRANCH   5   6
ATOM      6  C   UNL     1      -7.373  -5.494   3.071  1.00  0.00    -0.077 C 
ATOM      7  C   UNL     1      -7.904  -4.951   1.769  1.00  0.00     0.039 C 
ATOM      8  C   UNL     1      -7.148  -4.616   4.079  1.00  0.00    -0.023 CG0
ATOM      9  G   UNL     1      -6.641  -4.933   5.472  1.00  0.00     0.000 G0
ENDBRANCH   5   6
ENDBRANCH   4   5
ENDBRANCH   2   4
BRANCH   1  10
ATOM     10  C   UNL     1      -3.693  -5.286   4.539  1.00  0.00     0.111 C 
BRANCH  10  11
ATOM     11  C   UNL     1      -4.246  -4.013   5.126  1.00  0.00     0.163 C 
ATOM     12  O   UNL     1      -3.572  -2.956   4.994  1.00  0.00    -0.294 OA
BRANCH  11  13
ATOM     13  C   UNL     1      -5.520  -3.977   5.904  1.00  0.00    -0.002 C 
ATOM     14  C   UNL     1      -5.642  -3.181   7.008  1.00  0.00    -0.069 C 
ATOM     15  C   UNL     1      -6.859  -3.239   7.906  1.00  0.00     0.039 C 
ATOM     16  C   UNL     1      -4.558  -2.197   7.389  1.00  0.00     0.039 C 
BRANCH  13  17
ATOM     17  C   UNL     1      -6.627  -4.927   5.472  1.00  0.00     0.066 CG0
ATOM     18  G   UNL     1      -7.141  -4.618   4.079  1.00  0.00     0.000 G0
ENDBRANCH  13  17
ENDBRANCH  11  13
ENDBRANCH  10  11
ENDBRANCH   1  10
TORSDOF 0
ENDMDL
MODEL 6
REMARK VINA RESULT:    -2.533      1.954      4.334
REMARK INTER + INTRA:          -3.361
REMARK INTER:                  -4.054
REMARK INTRA:                   0.693
REMARK UNBOUND:                 0.208
REMARK SMILES CC1=CCC(=C(C)C)C(=O)CC(C)=CCC1
REMARK SMILES IDX 12 1 14 2 13 3 15 4 16 5 2 6 1 7 3 8 11 10 9 11 10 12 5 13
REMARK SMILES IDX 6 14 7 15 8 16 4 17
REMARK H PARENT
REMARK Flexibility Score: 60.00
ROOT
ATOM      1  C   UNL     1      -6.364  -5.110   3.905  1.00  0.00    -0.070 C 
ATOM      2  C   UNL     1      -5.723  -5.235   2.722  1.00  0.00    -0.027 C 
ATOM      3  C   UNL     1      -7.800  -4.649   3.885  1.00  0.00     0.039 C 
ENDROOT
BRANCH   2   4
ATOM      4  C   UNL     1      -4.262  -5.588   2.541  1.00  0.00     0.032 C 
BRANCH   4   5
ATOM      5  C   UNL     1      -3.296  -4.386   2.579  1.00  0.00     0.034 C 
BRANCH   5   6
ATOM      6  C   UNL     1      -2.391  -4.386   3.798  1.00  0.00    -0.077 C 
ATOM      7  C   UNL     1      -1.162  -5.259   3.759  1.00  0.00     0.039 C 
ATOM      8  C   UNL     1      -2.651  -3.708   4.942  1.00  0.00    -0.023 CG0
ATOM      9  G   UNL     1      -3.807  -2.761   5.202  1.00  0.00     0.000 G0
ENDBRANCH   5   6
ENDBRANCH   4   5
ENDBRANCH   2   4
BRANCH   1  10
ATOM     10  C   UNL     1      -5.686  -5.320   5.244  1.00  0.00     0.111 C 
BRANCH  10  11
ATOM     11  C   UNL     1      -5.811  -4.105   6.127  1.00  0.00     0.163 C 
ATOM     12  O   UNL     1      -6.947  -3.827   6.597  1.00  0.00    -0.294 OA
BRANCH  11  13
ATOM     13  C   UNL     1      -4.659  -3.197   6.407  1.00  0.00    -0.002 C 
ATOM     14  C   UNL     1      -4.439  -2.717   7.667  1.00  0.00    -0.069 C 
ATOM     15  C   UNL     1      -3.380  -1.674   7.953  1.00  0.00     0.039 C 
ATOM     16  C   UNL     1      -5.250  -3.207   8.846  1.00  0.00     0.039 C 
BRANCH  13  17
ATOM     17  C   UNL     1      -3.812  -2.761   5.221  1.00  0.00     0.066 CG0
ATOM     18  G   UNL     1      -2.656  -3.707   4.960  1.00  0.00     0.000 G0
ENDBRANCH  13  17
ENDBRANCH  11  13
ENDBRANCH  10  11
ENDBRANCH   1  10
TORSDOF 0
ENDMDL
MODEL 7
REMARK VINA RESULT:    -2.312      1.590      3.975
REMARK INTER + INTRA:          -3.051
REMARK INTER:                  -3.727
REMARK INTRA:                   0.676
REMARK UNBOUND:                 0.208
REMARK SMILES CC1=CCC(=C(C)C)C(=O)CC(C)=CCC1
REMARK SMILES IDX 12 1 14 2 13 3 15 4 16 5 2 6 1 7 3 8 11 10 9 11 10 12 5 13
REMARK SMILES IDX 6 14 7 15 8 16 4 17
REMARK H PARENT
REMARK Flexibility Score: 60.00
ROOT
ATOM      1  C   UNL     1      -7.904  -6.122   2.494  1.00  0.00    -0.070 C 
ATOM      2  C   UNL     1      -6.696  -6.633   2.167  1.00  0.00    -0.027 C 
ATOM      3  C   UNL     1      -8.763  -5.574   1.382  1.00  0.00     0.039 C 
ENDROOT
BRANCH   2   4
ATOM      4  C   UNL     1      -5.657  -7.138   3.145  1.00  0.00     0.032 C 
BRANCH   4   5
ATOM      5  C   UNL     1      -4.294  -6.419   3.070  1.00  0.00     0.034 C 
BRANCH   5   6
ATOM      6  C   UNL     1      -4.409  -4.909   3.186  1.00  0.00    -0.077 C 
ATOM      7  C   UNL     1      -3.734  -4.071   2.130  1.00  0.00     0.039 C 
ATOM      8  C   UNL     1      -5.019  -4.266   4.211  1.00  0.00    -0.023 CG0
ATOM      9  G   UNL     1      -5.775  -4.895   5.366  1.00  0.00     0.000 G0
ENDBRANCH   5   6
ENDBRANCH   4   5
ENDBRANCH   2   4
BRANCH   1  10
ATOM     10  C   UNL     1      -8.393  -5.992   3.922  1.00  0.00     0.111 C 
BRANCH  10  11
ATOM     11  C   UNL     1      -8.153  -4.608   4.467  1.00  0.00     0.163 C 
ATOM     12  O   UNL     1      -8.768  -3.644   3.934  1.00  0.00    -0.294 OA
BRANCH  11  13
ATOM     13  C   UNL     1      -7.176  -4.336   5.563  1.00  0.00    -0.002 C 
ATOM     14  C   UNL     1      -7.521  -3.555   6.630  1.00  0.00    -0.069 C 
ATOM     15  C   UNL     1      -6.510  -3.133   7.673  1.00  0.00     0.039 C 
ATOM     16  C   UNL     1      -8.942  -3.070   6.819  1.00  0.00     0.039 C 
BRANCH  13  17
ATOM     17  C   UNL     1      -5.767  -4.883   5.391  1.00  0.00     0.066 CG0
ATOM     18  G   UNL     1      -5.045  -4.256   4.215  1.00  0.00     0.000 G0
ENDBRANCH  13  17
ENDBRANCH  11  13
ENDBRANCH  10  11
ENDBRANCH   1  10
TORSDOF 0
ENDMDL
MODEL 8
REMARK VINA RESULT:    -2.247      1.310      3.861
REMARK INTER + INTRA:          -2.959
REMARK INTER:                  -3.240
REMARK INTRA:                   0.281
REMARK UNBOUND:                 0.208
REMARK SMILES CC1=CCC(=C(C)C)C(=O)CC(C)=CCC1
REMARK SMILES IDX 12 1 14 2 13 3 15 4 16 5 2 6 1 7 3 8 11 10 9 11 10 12 5 13
REMARK SMILES IDX 6 14 7 15 8 16 4 17
REMARK H PARENT
REMARK Flexibility Score: 60.00
ROOT
ATOM      1  C   UNL     1      -3.158  -4.021   2.998  1.00  0.00    -0.070 C 
ATOM      2  C   UNL     1      -2.837  -3.548   4.223  1.00  0.00    -0.027 C 
ATOM      3  C   UNL     1      -2.036  -4.484   2.103  1.00  0.00     0.039 C 
ENDROOT
BRANCH   2   4
ATOM      4  C   UNL     1      -3.806  -2.951   5.221  1.00  0.00     0.032 C 
BRANCH   4   5
ATOM      5  C   UNL     1      -4.515  -3.978   6.129  1.00  0.00     0.034 C 
BRANCH   5   6
ATOM      6  C   UNL     1      -6.005  -3.721   6.269  1.00  0.00    -0.077 C 
ATOM      7  C   UNL     1      -6.439  -2.553   7.118  1.00  0.00     0.039 C 
ATOM      8  C   UNL     1      -6.970  -4.511   5.737  1.00  0.00    -0.023 CG0
ATOM      9  G   UNL     1      -6.773  -5.718   4.841  1.00  0.00     0.000 G0
ENDBRANCH   5   6
ENDBRANCH   4   5
ENDBRANCH   2   4
BRANCH   1  10
ATOM     10  C   UNL     1      -4.571  -4.023   2.452  1.00  0.00     0.111 C 
BRANCH  10  11
ATOM     11  C   UNL     1      -5.287  -5.311   2.767  1.00  0.00     0.163 C 
ATOM     12  O   UNL     1      -4.720  -6.395   2.464  1.00  0.00    -0.294 OA
BRANCH  11  13
ATOM     13  C   UNL     1      -6.657  -5.342   3.360  1.00  0.00    -0.002 C 
ATOM     14  C   UNL     1      -7.745  -4.959   2.626  1.00  0.00    -0.069 C 
ATOM     15  C   UNL     1      -9.120  -4.828   3.243  1.00  0.00     0.039 C 
ATOM     16  C   UNL     1      -7.625  -4.642   1.151  1.00  0.00     0.039 C 
BRANCH  13  17
ATOM     17  C   UNL     1      -6.772  -5.723   4.828  1.00  0.00     0.066 CG0
ATOM     18  G   UNL     1      -6.953  -4.514   5.725  1.00  0.00     0.000 G0
ENDBRANCH  13  17
ENDBRANCH  11  13
ENDBRANCH  10  11
ENDBRANCH   1  10
TORSDOF 0
ENDMDL
MODEL 9
REMARK VINA RESULT:    -2.221     12.872     14.327
REMARK INTER + INTRA:          -2.922
REMARK INTER:                  -4.589
REMARK INTRA:                   1.666
REMARK UNBOUND:                 0.208
REMARK SMILES CC1=CCC(=C(C)C)C(=O)CC(C)=CCC1
REMARK SMILES IDX 12 1 14 2 13 3 15 4 16 5 2 6 1 7 3 8 11 10 9 11 10 12 5 13
REMARK SMILES IDX 6 14 7 15 8 16 4 17
REMARK H PARENT
REMARK Flexibility Score: 60.00
ROOT
ATOM      1  C   UNL     1       5.688  -8.020  -2.632  1.00  0.00    -0.070 C 
ATOM      2  C   UNL     1       6.004  -6.719  -2.812  1.00  0.00    -0.027 C 
ATOM      3  C   UNL     1       6.686  -8.898  -1.921  1.00  0.00     0.039 C 
ENDROOT
BRANCH   2   4
ATOM      4  C   UNL     1       5.182  -5.707  -3.582  1.00  0.00     0.032 C 
BRANCH   4   5
ATOM      5  C   UNL     1       3.801  -5.394  -2.970  1.00  0.00     0.034 C 
BRANCH   5   6
ATOM      6  C   UNL     1       2.757  -5.026  -4.010  1.00  0.00    -0.077 C 
ATOM      7  C   UNL     1       2.523  -3.562  -4.282  1.00  0.00     0.039 C 
ATOM      8  C   UNL     1       1.976  -5.925  -4.658  1.00  0.00    -0.023 CG0
ATOM      9  G   UNL     1       2.043  -7.436  -4.559  1.00  0.00     0.000 G0
ENDBRANCH   5   6
ENDBRANCH   4   5
ENDBRANCH   2   4
BRANCH   1  10
ATOM     10  C   UNL     1       4.429  -8.654  -3.189  1.00  0.00     0.111 C 
BRANCH  10  11
ATOM     11  C   UNL     1       4.361  -8.531  -4.689  1.00  0.00     0.163 C 
ATOM     12  O   UNL     1       5.400  -8.790  -5.354  1.00  0.00    -0.294 OA
BRANCH  11  13
ATOM     13  C   UNL     1       3.136  -8.056  -5.400  1.00  0.00    -0.002 C 
ATOM     14  C   UNL     1       3.060  -8.099  -6.763  1.00  0.00    -0.069 C 
ATOM     15  C   UNL     1       1.903  -7.482  -7.519  1.00  0.00     0.039 C 
ATOM     16  C   UNL     1       4.137  -8.768  -7.589  1.00  0.00     0.039 C 
BRANCH  13  17
ATOM     17  C   UNL     1       2.033  -7.443  -4.551  1.00  0.00     0.066 CG0
ATOM     18  G   UNL     1       1.981  -5.933  -4.676  1.00  0.00     0.000 G0
ENDBRANCH  13  17
ENDBRANCH  11  13
ENDBRANCH  10  11
ENDBRANCH   1  10
TORSDOF 0
ENDMDL
