MODEL 1
REMARK VINA RESULT:    -3.544      0.000      0.000
REMARK INTER + INTRA:          -6.300
REMARK INTER:                  -5.409
REMARK INTRA:                  -0.891
REMARK UNBOUND:                -0.891
REMARK SMILES CCCCCCCCCCC(=O)[O-]
REMARK SMILES IDX 7 1 8 2 9 3 10 4 11 5 12 6 13 7 6 8 5 9 4 10 3 11 2 12 1 13
REMARK H PARENT
REMARK Flexibility Score: inf
ROOT
ATOM      1  C   UNL     1      -5.127  16.037  22.559  1.00  0.00     0.000 C 
ENDROOT
BRANCH   1   2
ATOM      2  C   UNL     1      -4.506  17.398  22.227  1.00  0.00     0.000 C 
BRANCH   2   3
ATOM      3  C   UNL     1      -3.078  17.502  22.780  1.00  0.00     0.006 C 
BRANCH   3   4
ATOM      4  C   UNL     1      -2.027  17.575  21.664  1.00  0.00     0.053 C 
BRANCH   4   5
ATOM      5  C   UNL     1      -1.309  16.272  21.491  1.00  0.00     0.041 C 
ATOM      6  O   UNL     1      -1.862  15.320  20.880  1.00  0.00    -0.550 OA
ATOM      7  O   UNL     1      -0.015  16.121  21.974  1.00  0.00    -0.550 OA
ENDBRANCH   4   5
ENDBRANCH   3   4
ENDBRANCH   2   3
ENDBRANCH   1   2
BRANCH   1   8
ATOM      8  C   UNL     1      -5.433  15.244  21.282  1.00  0.00     0.000 C 
BRANCH   8   9
ATOM      9  C   UNL     1      -6.907  14.816  21.239  1.00  0.00    -0.000 C 
BRANCH   9  10
ATOM     10  C   UNL     1      -7.755  15.470  22.346  1.00  0.00    -0.000 C 
BRANCH  10  11
ATOM     11  C   UNL     1      -8.841  16.438  21.845  1.00  0.00    -0.000 C 
BRANCH  11  12
ATOM     12  C   UNL     1      -8.268  17.764  21.325  1.00  0.00    -0.003 C 
ATOM     13  C   UNL     1      -8.351  17.840  19.803  1.00  0.00     0.004 C 
ENDBRANCH  11  12
ENDBRANCH  10  11
ENDBRANCH   9  10
ENDBRANCH   8   9
ENDBRANCH   1   8
TORSDOF 9
ENDMDL
MODEL 2
REMARK VINA RESULT:    -3.493      1.247      1.963
REMARK INTER + INTRA:          -6.222
REMARK INTER:                  -5.215
REMARK INTRA:                  -1.006
REMARK UNBOUND:                -0.891
REMARK SMILES CCCCCCCCCCC(=O)[O-]
REMARK SMILES IDX 7 1 8 2 9 3 10 4 11 5 12 6 13 7 6 8 5 9 4 10 3 11 2 12 1 13
REMARK H PARENT
REMARK Flexibility Score: inf
ROOT
ATOM      1  C   UNL     1      -5.621  15.189  21.341  1.00  0.00     0.000 C 
ENDROOT
BRANCH   1   2
ATOM      2  C   UNL     1      -5.305  15.979  22.616  1.00  0.00     0.000 C 
BRANCH   2   3
ATOM      3  C   UNL     1      -4.224  17.037  22.355  1.00  0.00     0.006 C 
BRANCH   3   4
ATOM      4  C   UNL     1      -2.828  16.555  22.772  1.00  0.00     0.053 C 
BRANCH   4   5
ATOM      5  C   UNL     1      -1.869  16.565  21.621  1.00  0.00     0.041 C 
ATOM      6  O   UNL     1      -1.407  15.484  21.171  1.00  0.00    -0.550 OA
ATOM      7  O   UNL     1      -1.512  17.768  21.024  1.00  0.00    -0.550 OA
ENDBRANCH   4   5
ENDBRANCH   3   4
ENDBRANCH   2   3
ENDBRANCH   1   2
BRANCH   1   8
ATOM      8  C   UNL     1      -7.084  14.730  21.324  1.00  0.00     0.000 C 
BRANCH   8   9
ATOM      9  C   UNL     1      -8.031  15.898  21.641  1.00  0.00    -0.000 C 
BRANCH   9  10
ATOM     10  C   UNL     1      -8.120  16.926  20.499  1.00  0.00    -0.000 C 
BRANCH  10  11
ATOM     11  C   UNL     1      -7.887  18.387  20.921  1.00  0.00    -0.000 C 
BRANCH  11  12
ATOM     12  C   UNL     1      -8.050  18.607  22.432  1.00  0.00    -0.003 C 
ATOM     13  C   UNL     1      -6.930  19.485  22.984  1.00  0.00     0.004 C 
ENDBRANCH  11  12
ENDBRANCH  10  11
ENDBRANCH   9  10
ENDBRANCH   8   9
ENDBRANCH   1   8
TORSDOF 9
ENDMDL
MODEL 3
REMARK VINA RESULT:    -3.459      3.039      5.869
REMARK INTER + INTRA:          -6.170
REMARK INTER:                  -5.278
REMARK INTRA:                  -0.893
REMARK UNBOUND:                -0.891
REMARK SMILES CCCCCCCCCCC(=O)[O-]
REMARK SMILES IDX 7 1 8 2 9 3 10 4 11 5 12 6 13 7 6 8 5 9 4 10 3 11 2 12 1 13
REMARK H PARENT
REMARK Flexibility Score: inf
ROOT
ATOM      1  C   UNL     1      -5.461  15.253  21.283  1.00  0.00     0.000 C 
ENDROOT
BRANCH   1   2
ATOM      2  C   UNL     1      -6.863  14.668  21.482  1.00  0.00     0.000 C 
BRANCH   2   3
ATOM      3  C   UNL     1      -7.729  15.596  22.346  1.00  0.00     0.006 C 
BRANCH   3   4
ATOM      4  C   UNL     1      -8.813  16.308  21.526  1.00  0.00     0.053 C 
BRANCH   4   5
ATOM      5  C   UNL     1      -8.298  17.565  20.896  1.00  0.00     0.041 C 
ATOM      6  O   UNL     1      -8.228  17.664  19.642  1.00  0.00    -0.550 OA
ATOM      7  O   UNL     1      -7.925  18.641  21.692  1.00  0.00    -0.550 OA
ENDBRANCH   4   5
ENDBRANCH   3   4
ENDBRANCH   2   3
ENDBRANCH   1   2
BRANCH   1   8
ATOM      8  C   UNL     1      -5.011  16.041  22.519  1.00  0.00     0.000 C 
BRANCH   8   9
ATOM      9  C   UNL     1      -4.593  17.470  22.139  1.00  0.00    -0.000 C 
BRANCH   9  10
ATOM     10  C   UNL     1      -3.254  17.892  22.771  1.00  0.00    -0.000 C 
BRANCH  10  11
ATOM     11  C   UNL     1      -2.221  16.761  22.919  1.00  0.00    -0.000 C 
BRANCH  11  12
ATOM     12  C   UNL     1      -1.286  16.641  21.707  1.00  0.00    -0.003 C 
ATOM     13  C   UNL     1      -1.526  15.334  20.956  1.00  0.00     0.004 C 
ENDBRANCH  11  12
ENDBRANCH  10  11
ENDBRANCH   9  10
ENDBRANCH   8   9
ENDBRANCH   1   8
TORSDOF 9
ENDMDL
MODEL 4
REMARK VINA RESULT:    -3.411      3.536      6.100
REMARK INTER + INTRA:          -6.097
REMARK INTER:                  -5.486
REMARK INTRA:                  -0.612
REMARK UNBOUND:                -0.891
REMARK SMILES CCCCCCCCCCC(=O)[O-]
REMARK SMILES IDX 7 1 8 2 9 3 10 4 11 5 12 6 13 7 6 8 5 9 4 10 3 11 2 12 1 13
REMARK H PARENT
REMARK Flexibility Score: inf
ROOT
ATOM      1  C   UNL     1      -6.528  15.600  20.869  1.00  0.00     0.000 C 
ENDROOT
BRANCH   1   2
ATOM      2  C   UNL     1      -7.872  15.513  21.601  1.00  0.00     0.000 C 
BRANCH   2   3
ATOM      3  C   UNL     1      -8.718  16.769  21.350  1.00  0.00     0.006 C 
BRANCH   3   4
ATOM      4  C   UNL     1      -8.321  17.488  20.054  1.00  0.00     0.053 C 
BRANCH   4   5
ATOM      5  C   UNL     1      -8.625  18.953  20.115  1.00  0.00     0.041 C 
ATOM      6  O   UNL     1      -8.812  19.516  21.226  1.00  0.00    -0.550 OA
ATOM      7  O   UNL     1      -8.670  19.704  18.948  1.00  0.00    -0.550 OA
ENDBRANCH   4   5
ENDBRANCH   3   4
ENDBRANCH   2   3
ENDBRANCH   1   2
BRANCH   1   8
ATOM      8  C   UNL     1      -5.377  15.142  21.773  1.00  0.00     0.000 C 
BRANCH   8   9
ATOM      9  C   UNL     1      -5.011  16.229  22.794  1.00  0.00    -0.000 C 
BRANCH   9  10
ATOM     10  C   UNL     1      -3.495  16.341  23.036  1.00  0.00    -0.000 C 
BRANCH  10  11
ATOM     11  C   UNL     1      -2.808  17.518  22.322  1.00  0.00    -0.000 C 
BRANCH  11  12
ATOM     12  C   UNL     1      -1.605  17.084  21.472  1.00  0.00    -0.003 C 
ATOM     13  C   UNL     1      -1.694  15.604  21.109  1.00  0.00     0.004 C 
ENDBRANCH  11  12
ENDBRANCH  10  11
ENDBRANCH   9  10
ENDBRANCH   8   9
ENDBRANCH   1   8
TORSDOF 9
ENDMDL
MODEL 5
REMARK VINA RESULT:    -3.237      8.921     13.364
REMARK INTER + INTRA:          -5.831
REMARK INTER:                  -5.123
REMARK INTRA:                  -0.708
REMARK UNBOUND:                -0.891
REMARK SMILES CCCCCCCCCCC(=O)[O-]
REMARK SMILES IDX 7 1 8 2 9 3 10 4 11 5 12 6 13 7 6 8 5 9 4 10 3 11 2 12 1 13
REMARK H PARENT
REMARK Flexibility Score: inf
ROOT
ATOM      1  C   UNL     1       7.085  15.654  22.754  1.00  0.00     0.000 C 
ENDROOT
BRANCH   1   2
ATOM      2  C   UNL     1       6.440  14.563  21.892  1.00  0.00     0.000 C 
BRANCH   2   3
ATOM      3  C   UNL     1       5.015  14.253  22.370  1.00  0.00     0.006 C 
BRANCH   3   4
ATOM      4  C   UNL     1       4.333  15.477  22.996  1.00  0.00     0.053 C 
BRANCH   4   5
ATOM      5  C   UNL     1       3.539  16.248  21.986  1.00  0.00     0.041 C 
ATOM      6  O   UNL     1       2.286  16.128  21.939  1.00  0.00    -0.550 OA
ATOM      7  O   UNL     1       4.179  17.124  21.119  1.00  0.00    -0.550 OA
ENDBRANCH   4   5
ENDBRANCH   3   4
ENDBRANCH   2   3
ENDBRANCH   1   2
BRANCH   1   8
ATOM      8  C   UNL     1       8.471  16.034  22.218  1.00  0.00     0.000 C 
BRANCH   8   9
ATOM      9  C   UNL     1       8.367  17.136  21.153  1.00  0.00    -0.000 C 
BRANCH   9  10
ATOM     10  C   UNL     1       9.467  17.040  20.080  1.00  0.00    -0.000 C 
BRANCH  10  11
ATOM     11  C   UNL     1      10.664  16.150  20.456  1.00  0.00    -0.000 C 
BRANCH  11  12
ATOM     12  C   UNL     1      10.888  14.998  19.465  1.00  0.00    -0.003 C 
ATOM     13  C   UNL     1      10.208  13.719  19.946  1.00  0.00     0.004 C 
ENDBRANCH  11  12
ENDBRANCH  10  11
ENDBRANCH   9  10
ENDBRANCH   8   9
ENDBRANCH   1   8
TORSDOF 9
ENDMDL
MODEL 6
REMARK VINA RESULT:    -3.215     12.196     15.027
REMARK INTER + INTRA:          -5.798
REMARK INTER:                  -5.175
REMARK INTRA:                  -0.623
REMARK UNBOUND:                -0.891
REMARK SMILES CCCCCCCCCCC(=O)[O-]
REMARK SMILES IDX 7 1 8 2 9 3 10 4 11 5 12 6 13 7 6 8 5 9 4 10 3 11 2 12 1 13
REMARK H PARENT
REMARK Flexibility Score: inf
ROOT
ATOM      1  C   UNL     1       9.181  17.052  20.109  1.00  0.00     0.000 C 
ENDROOT
BRANCH   1   2
ATOM      2  C   UNL     1       8.481  17.105  21.471  1.00  0.00     0.000 C 
BRANCH   2   3
ATOM      3  C   UNL     1       7.348  16.072  21.549  1.00  0.00     0.006 C 
BRANCH   3   4
ATOM      4  C   UNL     1       7.841  14.704  22.036  1.00  0.00     0.053 C 
BRANCH   4   5
ATOM      5  C   UNL     1       6.705  13.760  22.287  1.00  0.00     0.041 C 
ATOM      6  O   UNL     1       6.932  12.580  22.663  1.00  0.00    -0.550 OA
ATOM      7  O   UNL     1       5.394  14.195  22.137  1.00  0.00    -0.550 OA
ENDBRANCH   4   5
ENDBRANCH   3   4
ENDBRANCH   2   3
ENDBRANCH   1   2
BRANCH   1   8
ATOM      8  C   UNL     1      10.700  16.917  20.274  1.00  0.00     0.000 C 
BRANCH   8   9
ATOM      9  C   UNL     1      11.107  15.445  20.444  1.00  0.00    -0.000 C 
BRANCH   9  10
ATOM     10  C   UNL     1      11.058  14.652  19.125  1.00  0.00    -0.000 C 
BRANCH  10  11
ATOM     11  C   UNL     1      10.527  13.213  19.252  1.00  0.00    -0.000 C 
BRANCH  11  12
ATOM     12  C   UNL     1      11.068  12.277  18.161  1.00  0.00    -0.003 C 
ATOM     13  C   UNL     1       9.986  11.319  17.672  1.00  0.00     0.004 C 
ENDBRANCH  11  12
ENDBRANCH  10  11
ENDBRANCH   9  10
ENDBRANCH   8   9
ENDBRANCH   1   8
TORSDOF 9
ENDMDL
MODEL 7
REMARK VINA RESULT:    -3.148      3.078      6.642
REMARK INTER + INTRA:          -5.695
REMARK INTER:                  -5.183
REMARK INTRA:                  -0.512
REMARK UNBOUND:                -0.891
REMARK SMILES CCCCCCCCCCC(=O)[O-]
REMARK SMILES IDX 7 1 8 2 9 3 10 4 11 5 12 6 13 7 6 8 5 9 4 10 3 11 2 12 1 13
REMARK H PARENT
REMARK Flexibility Score: inf
ROOT
ATOM      1  C   UNL     1      -4.759  17.398  22.284  1.00  0.00     0.000 C 
ENDROOT
BRANCH   1   2
ATOM      2  C   UNL     1      -4.930  15.883  22.440  1.00  0.00     0.000 C 
BRANCH   2   3
ATOM      3  C   UNL     1      -5.573  15.269  21.188  1.00  0.00     0.006 C 
BRANCH   3   4
ATOM      4  C   UNL     1      -6.905  14.575  21.500  1.00  0.00     0.053 C 
BRANCH   4   5
ATOM      5  C   UNL     1      -8.052  15.537  21.476  1.00  0.00     0.041 C 
ATOM      6  O   UNL     1      -9.051  15.353  22.221  1.00  0.00    -0.550 OA
ATOM      7  O   UNL     1      -8.004  16.656  20.653  1.00  0.00    -0.550 OA
ENDBRANCH   4   5
ENDBRANCH   3   4
ENDBRANCH   2   3
ENDBRANCH   1   2
BRANCH   1   8
ATOM      8  C   UNL     1      -3.330  17.831  22.633  1.00  0.00     0.000 C 
BRANCH   8   9
ATOM      9  C   UNL     1      -2.379  16.625  22.657  1.00  0.00    -0.000 C 
BRANCH   9  10
ATOM     10  C   UNL     1      -1.520  16.512  21.385  1.00  0.00    -0.000 C 
BRANCH  10  11
ATOM     11  C   UNL     1      -0.258  15.643  21.528  1.00  0.00    -0.000 C 
BRANCH  11  12
ATOM     12  C   UNL     1       0.705  16.158  22.607  1.00  0.00    -0.003 C 
ATOM     13  C   UNL     1       2.144  16.175  22.098  1.00  0.00     0.004 C 
ENDBRANCH  11  12
ENDBRANCH  10  11
ENDBRANCH   9  10
ENDBRANCH   8   9
ENDBRANCH   1   8
TORSDOF 9
ENDMDL
MODEL 8
REMARK VINA RESULT:    -3.040     12.477     14.995
REMARK INTER + INTRA:          -5.530
REMARK INTER:                  -4.902
REMARK INTRA:                  -0.628
REMARK UNBOUND:                -0.891
REMARK SMILES CCCCCCCCCCC(=O)[O-]
REMARK SMILES IDX 7 1 8 2 9 3 10 4 11 5 12 6 13 7 6 8 5 9 4 10 3 11 2 12 1 13
REMARK H PARENT
REMARK Flexibility Score: inf
ROOT
ATOM      1  C   UNL     1      10.037  15.838  19.463  1.00  0.00     0.000 C 
ENDROOT
BRANCH   1   2
ATOM      2  C   UNL     1      11.125  14.808  19.783  1.00  0.00     0.000 C 
BRANCH   2   3
ATOM      3  C   UNL     1      11.092  13.643  18.782  1.00  0.00     0.006 C 
BRANCH   3   4
ATOM      4  C   UNL     1      11.032  12.279  19.481  1.00  0.00     0.053 C 
BRANCH   4   5
ATOM      5  C   UNL     1      10.592  11.194  18.546  1.00  0.00     0.041 C 
ATOM      6  O   UNL     1       9.898  11.474  17.533  1.00  0.00    -0.550 OA
ATOM      7  O   UNL     1      10.977   9.880  18.776  1.00  0.00    -0.550 OA
ENDBRANCH   4   5
ENDBRANCH   3   4
ENDBRANCH   2   3
ENDBRANCH   1   2
BRANCH   1   8
ATOM      8  C   UNL     1       9.987  16.938  20.530  1.00  0.00     0.000 C 
BRANCH   8   9
ATOM      9  C   UNL     1       8.536  17.272  20.909  1.00  0.00    -0.000 C 
BRANCH   9  10
ATOM     10  C   UNL     1       8.039  16.485  22.136  1.00  0.00    -0.000 C 
BRANCH  10  11
ATOM     11  C   UNL     1       6.588  15.982  22.039  1.00  0.00    -0.000 C 
BRANCH  11  12
ATOM     12  C   UNL     1       6.490  14.521  21.577  1.00  0.00    -0.003 C 
ATOM     13  C   UNL     1       7.625  13.683  22.160  1.00  0.00     0.004 C 
ENDBRANCH  11  12
ENDBRANCH  10  11
ENDBRANCH   9  10
ENDBRANCH   8   9
ENDBRANCH   1   8
TORSDOF 9
ENDMDL
MODEL 9
REMARK VINA RESULT:    -2.906     10.506     14.289
REMARK INTER + INTRA:          -5.326
REMARK INTER:                  -4.343
REMARK INTRA:                  -0.983
REMARK UNBOUND:                -0.891
REMARK SMILES CCCCCCCCCCC(=O)[O-]
REMARK SMILES IDX 7 1 8 2 9 3 10 4 11 5 12 6 13 7 6 8 5 9 4 10 3 11 2 12 1 13
REMARK H PARENT
REMARK Flexibility Score: inf
ROOT
ATOM      1  C   UNL     1       8.585  13.543  22.020  1.00  0.00     0.000 C 
ENDROOT
BRANCH   1   2
ATOM      2  C   UNL     1       8.677  14.732  22.983  1.00  0.00     0.000 C 
BRANCH   2   3
ATOM      3  C   UNL     1       7.407  15.594  22.917  1.00  0.00     0.006 C 
BRANCH   3   4
ATOM      4  C   UNL     1       6.394  15.057  21.898  1.00  0.00     0.053 C 
BRANCH   4   5
ATOM      5  C   UNL     1       5.208  15.963  21.764  1.00  0.00     0.041 C 
ATOM      6  O   UNL     1       5.192  16.862  20.883  1.00  0.00    -0.550 OA
ATOM      7  O   UNL     1       4.106  15.792  22.592  1.00  0.00    -0.550 OA
ENDBRANCH   4   5
ENDBRANCH   3   4
ENDBRANCH   2   3
ENDBRANCH   1   2
BRANCH   1   8
ATOM      8  C   UNL     1       9.977  12.991  21.691  1.00  0.00     0.000 C 
BRANCH   8   9
ATOM      9  C   UNL     1      10.190  12.903  20.173  1.00  0.00    -0.000 C 
BRANCH   9  10
ATOM     10  C   UNL     1      11.122  14.003  19.632  1.00  0.00    -0.000 C 
BRANCH  10  11
ATOM     11  C   UNL     1      10.442  15.357  19.367  1.00  0.00    -0.000 C 
BRANCH  11  12
ATOM     12  C   UNL     1      10.737  16.399  20.455  1.00  0.00    -0.003 C 
ATOM     13  C   UNL     1       9.701  17.521  20.438  1.00  0.00     0.004 C 
ENDBRANCH  11  12
ENDBRANCH  10  11
ENDBRANCH   9  10
ENDBRANCH   8   9
ENDBRANCH   1   8
TORSDOF 9
ENDMDL
