MODEL 1
REMARK VINA RESULT:    -4.822      0.000      0.000
REMARK INTER + INTRA:          -5.337
REMARK INTER:                  -5.245
REMARK INTRA:                  -0.092
REMARK UNBOUND:                -0.092
REMARK SMILES C=C(C)[C@H]1CC=C(C)[C@H](O)C1
REMARK SMILES IDX 8 1 7 2 6 3 5 4 4 5 11 6 9 7 10 8 2 10 1 11 3 12
REMARK H PARENT 10 9
REMARK Flexibility Score: inf
ROOT
ATOM      1  C   UNL     1     179.386 181.921 185.591  1.00  0.00     0.042 C 
ATOM      2  C   UNL     1     179.917 180.710 184.872  1.00  0.00    -0.049 C 
ATOM      3  C   UNL     1     180.226 179.609 185.591  1.00  0.00    -0.025 C 
ATOM      4  C   UNL     1     180.829 178.367 184.981  1.00  0.00     0.035 C 
ATOM      5  C   UNL     1     180.543 178.263 183.472  1.00  0.00     0.021 C 
ATOM      6  C   UNL     1     180.863 179.602 182.789  1.00  0.00     0.044 C 
ATOM      7  C   UNL     1     179.972 180.724 183.355  1.00  0.00     0.140 C 
ENDROOT
BRANCH   7   8
ATOM      8  O   UNL     1     178.666 180.599 182.858  1.00  0.00    -0.389 OA
ATOM      9  H   UNL     1     178.294 179.758 183.230  1.00  0.00     0.211 HD
ENDBRANCH   7   8
BRANCH   5  10
ATOM     10  C   UNL     1     181.307 177.108 182.836  1.00  0.00    -0.077 C 
ATOM     11  C   UNL     1     181.549 175.972 183.513  1.00  0.00     0.008 C 
ATOM     12  C   UNL     1     181.813 177.226 181.422  1.00  0.00     0.039 C 
ENDBRANCH   5  10
TORSDOF 2
ENDMDL
MODEL 2
REMARK VINA RESULT:    -4.746      1.560      2.946
REMARK INTER + INTRA:          -5.254
REMARK INTER:                  -5.160
REMARK INTRA:                  -0.095
REMARK UNBOUND:                -0.092
REMARK SMILES C=C(C)[C@H]1CC=C(C)[C@H](O)C1
REMARK SMILES IDX 8 1 7 2 6 3 5 4 4 5 11 6 9 7 10 8 2 10 1 11 3 12
REMARK H PARENT 10 9
REMARK Flexibility Score: inf
ROOT
ATOM      1  C   UNL     1     178.238 184.292 183.475  1.00  0.00     0.042 C 
ATOM      2  C   UNL     1     178.939 183.027 183.891  1.00  0.00    -0.049 C 
ATOM      3  C   UNL     1     179.105 182.777 185.208  1.00  0.00    -0.025 C 
ATOM      4  C   UNL     1     179.853 181.575 185.732  1.00  0.00     0.035 C 
ATOM      5  C   UNL     1     179.909 180.431 184.704  1.00  0.00     0.021 C 
ATOM      6  C   UNL     1     180.343 180.982 183.336  1.00  0.00     0.044 C 
ATOM      7  C   UNL     1     179.327 182.019 182.824  1.00  0.00     0.140 C 
ENDROOT
BRANCH   7   8
ATOM      8  O   UNL     1     178.165 181.373 182.373  1.00  0.00    -0.389 OA
ATOM      9  H   UNL     1     177.877 180.759 183.097  1.00  0.00     0.211 HD
ENDBRANCH   7   8
BRANCH   5  10
ATOM     10  C   UNL     1     180.818 179.302 185.172  1.00  0.00    -0.077 C 
ATOM     11  C   UNL     1     181.683 179.473 186.187  1.00  0.00     0.008 C 
ATOM     12  C   UNL     1     180.764 177.958 184.492  1.00  0.00     0.039 C 
ENDBRANCH   5  10
TORSDOF 2
ENDMDL
MODEL 3
REMARK VINA RESULT:    -4.628      1.993      3.383
REMARK INTER + INTRA:          -5.126
REMARK INTER:                  -5.030
REMARK INTRA:                  -0.096
REMARK UNBOUND:                -0.092
REMARK SMILES C=C(C)[C@H]1CC=C(C)[C@H](O)C1
REMARK SMILES IDX 8 1 7 2 6 3 5 4 4 5 11 6 9 7 10 8 2 10 1 11 3 12
REMARK H PARENT 10 9
REMARK Flexibility Score: inf
ROOT
ATOM      1  C   UNL     1     178.024 183.674 182.637  1.00  0.00     0.042 C 
ATOM      2  C   UNL     1     178.777 182.569 183.328  1.00  0.00    -0.049 C 
ATOM      3  C   UNL     1     179.003 181.417 182.660  1.00  0.00    -0.025 C 
ATOM      4  C   UNL     1     179.686 180.223 183.281  1.00  0.00     0.035 C 
ATOM      5  C   UNL     1     180.559 180.615 184.486  1.00  0.00     0.021 C 
ATOM      6  C   UNL     1     179.765 181.532 185.429  1.00  0.00     0.044 C 
ATOM      7  C   UNL     1     179.361 182.830 184.705  1.00  0.00     0.140 C 
ENDROOT
BRANCH   7   8
ATOM      8  O   UNL     1     180.476 183.672 184.567  1.00  0.00    -0.389 OA
ATOM      9  H   UNL     1     180.211 184.405 183.953  1.00  0.00     0.211 HD
ENDBRANCH   7   8
BRANCH   5  10
ATOM     10  C   UNL     1     181.094 179.386 185.212  1.00  0.00    -0.077 C 
ATOM     11  C   UNL     1     181.782 179.497 186.362  1.00  0.00     0.008 C 
ATOM     12  C   UNL     1     180.860 178.011 184.643  1.00  0.00     0.039 C 
ENDBRANCH   5  10
TORSDOF 2
ENDMDL
MODEL 4
REMARK VINA RESULT:    -4.627      2.242      4.792
REMARK INTER + INTRA:          -5.125
REMARK INTER:                  -5.037
REMARK INTRA:                  -0.088
REMARK UNBOUND:                -0.092
REMARK SMILES C=C(C)[C@H]1CC=C(C)[C@H](O)C1
REMARK SMILES IDX 8 1 7 2 6 3 5 4 4 5 11 6 9 7 10 8 2 10 1 11 3 12
REMARK H PARENT 10 9
REMARK Flexibility Score: inf
ROOT
ATOM      1  C   UNL     1     180.786 178.292 184.900  1.00  0.00     0.042 C 
ATOM      2  C   UNL     1     180.308 179.595 184.318  1.00  0.00    -0.049 C 
ATOM      3  C   UNL     1     179.992 179.646 183.006  1.00  0.00    -0.025 C 
ATOM      4  C   UNL     1     179.570 180.915 182.307  1.00  0.00     0.035 C 
ATOM      5  C   UNL     1     179.013 181.962 183.288  1.00  0.00     0.021 C 
ATOM      6  C   UNL     1     179.963 182.108 184.488  1.00  0.00     0.044 C 
ATOM      7  C   UNL     1     180.083 180.774 185.248  1.00  0.00     0.140 C 
ENDROOT
BRANCH   7   8
ATOM      8  O   UNL     1     178.918 180.539 185.995  1.00  0.00    -0.389 OA
ATOM      9  H   UNL     1     178.636 181.413 186.372  1.00  0.00     0.211 HD
ENDBRANCH   7   8
BRANCH   5  10
ATOM     10  C   UNL     1     178.763 183.298 182.600  1.00  0.00    -0.077 C 
ATOM     11  C   UNL     1     177.560 183.896 182.648  1.00  0.00     0.008 C 
ATOM     12  C   UNL     1     179.874 183.975 181.840  1.00  0.00     0.039 C 
ENDBRANCH   5  10
TORSDOF 2
ENDMDL
MODEL 5
REMARK VINA RESULT:    -4.503      1.851      2.969
REMARK INTER + INTRA:          -4.990
REMARK INTER:                  -4.899
REMARK INTRA:                  -0.091
REMARK UNBOUND:                -0.092
REMARK SMILES C=C(C)[C@H]1CC=C(C)[C@H](O)C1
REMARK SMILES IDX 8 1 7 2 6 3 5 4 4 5 11 6 9 7 10 8 2 10 1 11 3 12
REMARK H PARENT 10 9
REMARK Flexibility Score: inf
ROOT
ATOM      1  C   UNL     1     179.754 184.301 181.900  1.00  0.00     0.042 C 
ATOM      2  C   UNL     1     180.008 182.961 182.535  1.00  0.00    -0.049 C 
ATOM      3  C   UNL     1     180.729 182.906 183.677  1.00  0.00    -0.025 C 
ATOM      4  C   UNL     1     181.099 181.611 184.357  1.00  0.00     0.035 C 
ATOM      5  C   UNL     1     180.153 180.460 183.971  1.00  0.00     0.021 C 
ATOM      6  C   UNL     1     179.976 180.420 182.445  1.00  0.00     0.044 C 
ATOM      7  C   UNL     1     179.345 181.731 181.941  1.00  0.00     0.140 C 
ENDROOT
BRANCH   7   8
ATOM      8  O   UNL     1     177.978 181.761 182.258  1.00  0.00    -0.389 OA
ATOM      9  H   UNL     1     177.481 181.653 181.406  1.00  0.00     0.211 HD
ENDBRANCH   7   8
BRANCH   5  10
ATOM     10  C   UNL     1     180.644 179.125 184.518  1.00  0.00    -0.077 C 
ATOM     11  C   UNL     1     181.151 179.020 185.758  1.00  0.00     0.008 C 
ATOM     12  C   UNL     1     180.572 177.887 183.662  1.00  0.00     0.039 C 
ENDBRANCH   5  10
TORSDOF 2
ENDMDL
MODEL 6
REMARK VINA RESULT:    -4.445      1.622      4.373
REMARK INTER + INTRA:          -4.926
REMARK INTER:                  -4.834
REMARK INTRA:                  -0.093
REMARK UNBOUND:                -0.092
REMARK SMILES C=C(C)[C@H]1CC=C(C)[C@H](O)C1
REMARK SMILES IDX 8 1 7 2 6 3 5 4 4 5 11 6 9 7 10 8 2 10 1 11 3 12
REMARK H PARENT 10 9
REMARK Flexibility Score: inf
ROOT
ATOM      1  C   UNL     1     181.698 176.392 183.369  1.00  0.00     0.042 C 
ATOM      2  C   UNL     1     181.069 177.758 183.412  1.00  0.00    -0.049 C 
ATOM      3  C   UNL     1     180.479 178.168 184.556  1.00  0.00    -0.025 C 
ATOM      4  C   UNL     1     179.760 179.489 184.686  1.00  0.00     0.035 C 
ATOM      5  C   UNL     1     180.225 180.511 183.634  1.00  0.00     0.021 C 
ATOM      6  C   UNL     1     180.238 179.857 182.243  1.00  0.00     0.044 C 
ATOM      7  C   UNL     1     181.224 178.674 182.212  1.00  0.00     0.140 C 
ENDROOT
BRANCH   7   8
ATOM      8  O   UNL     1     182.545 179.148 182.177  1.00  0.00    -0.389 OA
ATOM      9  H   UNL     1     183.135 178.371 182.356  1.00  0.00     0.211 HD
ENDBRANCH   7   8
BRANCH   5  10
ATOM     10  C   UNL     1     179.368 181.769 183.659  1.00  0.00    -0.077 C 
ATOM     11  C   UNL     1     178.638 182.141 182.592  1.00  0.00     0.008 C 
ATOM     12  C   UNL     1     179.328 182.632 184.894  1.00  0.00     0.039 C 
ENDBRANCH   5  10
TORSDOF 2
ENDMDL
MODEL 7
REMARK VINA RESULT:    -4.440      3.981      4.958
REMARK INTER + INTRA:          -4.921
REMARK INTER:                  -4.827
REMARK INTRA:                  -0.094
REMARK UNBOUND:                -0.092
REMARK SMILES C=C(C)[C@H]1CC=C(C)[C@H](O)C1
REMARK SMILES IDX 8 1 7 2 6 3 5 4 4 5 11 6 9 7 10 8 2 10 1 11 3 12
REMARK H PARENT 10 9
REMARK Flexibility Score: inf
ROOT
ATOM      1  C   UNL     1     185.422 181.704 188.269  1.00  0.00     0.042 C 
ATOM      2  C   UNL     1     184.224 181.110 187.579  1.00  0.00    -0.049 C 
ATOM      3  C   UNL     1     184.420 180.278 186.533  1.00  0.00    -0.025 C 
ATOM      4  C   UNL     1     183.290 179.683 185.729  1.00  0.00     0.035 C 
ATOM      5  C   UNL     1     181.968 179.656 186.515  1.00  0.00     0.021 C 
ATOM      6  C   UNL     1     181.718 181.027 187.162  1.00  0.00     0.044 C 
ATOM      7  C   UNL     1     182.844 181.369 188.156  1.00  0.00     0.140 C 
ENDROOT
BRANCH   7   8
ATOM      8  O   UNL     1     182.698 180.612 189.328  1.00  0.00    -0.389 OA
ATOM      9  H   UNL     1     182.158 181.156 189.958  1.00  0.00     0.211 HD
ENDBRANCH   7   8
BRANCH   5  10
ATOM     10  C   UNL     1     180.802 179.225 185.635  1.00  0.00    -0.077 C 
ATOM     11  C   UNL     1     179.630 179.885 185.652  1.00  0.00     0.008 C 
ATOM     12  C   UNL     1     180.944 178.035 184.722  1.00  0.00     0.039 C 
ENDBRANCH   5  10
TORSDOF 2
ENDMDL
MODEL 8
REMARK VINA RESULT:    -4.397      1.605      2.202
REMARK INTER + INTRA:          -4.875
REMARK INTER:                  -4.780
REMARK INTRA:                  -0.095
REMARK UNBOUND:                -0.092
REMARK SMILES C=C(C)[C@H]1CC=C(C)[C@H](O)C1
REMARK SMILES IDX 8 1 7 2 6 3 5 4 4 5 11 6 9 7 10 8 2 10 1 11 3 12
REMARK H PARENT 10 9
REMARK Flexibility Score: inf
ROOT
ATOM      1  C   UNL     1     179.755 181.416 185.356  1.00  0.00     0.042 C 
ATOM      2  C   UNL     1     180.230 180.159 184.679  1.00  0.00    -0.049 C 
ATOM      3  C   UNL     1     180.536 180.202 183.363  1.00  0.00    -0.025 C 
ATOM      4  C   UNL     1     180.955 178.987 182.573  1.00  0.00     0.035 C 
ATOM      5  C   UNL     1     181.522 177.875 183.473  1.00  0.00     0.021 C 
ATOM      6  C   UNL     1     180.583 177.641 184.666  1.00  0.00     0.044 C 
ATOM      7  C   UNL     1     180.467 178.918 185.520  1.00  0.00     0.140 C 
ENDROOT
BRANCH   7   8
ATOM      8  O   UNL     1     181.637 179.102 186.273  1.00  0.00    -0.389 OA
ATOM      9  H   UNL     1     181.914 180.047 186.150  1.00  0.00     0.211 HD
ENDBRANCH   7   8
BRANCH   5  10
ATOM     10  C   UNL     1     181.770 176.592 182.689  1.00  0.00    -0.077 C 
ATOM     11  C   UNL     1     181.766 175.391 183.292  1.00  0.00     0.008 C 
ATOM     12  C   UNL     1     182.030 176.652 181.206  1.00  0.00     0.039 C 
ENDBRANCH   5  10
TORSDOF 2
ENDMDL
MODEL 9
REMARK VINA RESULT:    -4.316      1.913      4.797
REMARK INTER + INTRA:          -4.787
REMARK INTER:                  -4.695
REMARK INTRA:                  -0.092
REMARK UNBOUND:                -0.092
REMARK SMILES C=C(C)[C@H]1CC=C(C)[C@H](O)C1
REMARK SMILES IDX 8 1 7 2 6 3 5 4 4 5 11 6 9 7 10 8 2 10 1 11 3 12
REMARK H PARENT 10 9
REMARK Flexibility Score: inf
ROOT
ATOM      1  C   UNL     1     180.820 178.130 184.793  1.00  0.00     0.042 C 
ATOM      2  C   UNL     1     180.219 179.487 184.546  1.00  0.00    -0.049 C 
ATOM      3  C   UNL     1     180.102 180.347 185.582  1.00  0.00    -0.025 C 
ATOM      4  C   UNL     1     179.453 181.704 185.459  1.00  0.00     0.035 C 
ATOM      5  C   UNL     1     179.451 182.219 184.008  1.00  0.00     0.021 C 
ATOM      6  C   UNL     1     178.947 181.115 183.065  1.00  0.00     0.044 C 
ATOM      7  C   UNL     1     179.876 179.889 183.123  1.00  0.00     0.140 C 
ENDROOT
BRANCH   7   8
ATOM      8  O   UNL     1     181.069 180.155 182.432  1.00  0.00    -0.389 OA
ATOM      9  H   UNL     1     180.906 180.958 181.873  1.00  0.00     0.211 HD
ENDBRANCH   7   8
BRANCH   5  10
ATOM     10  C   UNL     1     178.635 183.497 183.869  1.00  0.00    -0.077 C 
ATOM     11  C   UNL     1     178.570 184.399 184.864  1.00  0.00     0.008 C 
ATOM     12  C   UNL     1     177.874 183.773 182.598  1.00  0.00     0.039 C 
ENDBRANCH   5  10
TORSDOF 2
ENDMDL
