MODEL 1
REMARK VINA RESULT:    -4.338      0.000      0.000
REMARK INTER + INTRA:          -4.338
REMARK INTER:                  -4.338
REMARK INTRA:                   0.000
REMARK UNBOUND:                 0.000
REMARK SMILES CC(C)=C1CC[C@H](C)CC1=O
REMARK SMILES IDX 8 1 7 2 6 3 5 4 4 5 2 6 1 7 3 8 10 9 11 10 9 11
REMARK H PARENT
REMARK Flexibility Score: inf
ROOT
ATOM      1  C   UNL     1       3.511 -10.916 -41.878  1.00  0.00     0.008 C 
ATOM      2  C   UNL     1       2.054 -10.515 -41.612  1.00  0.00    -0.006 C 
ATOM      3  C   UNL     1       1.535  -9.592 -42.727  1.00  0.00     0.008 C 
ATOM      4  C   UNL     1       0.114  -9.099 -42.427  1.00  0.00     0.039 C 
ATOM      5  C   UNL     1      -0.846 -10.240 -42.117  1.00  0.00    -0.006 C 
ATOM      6  C   UNL     1      -2.169 -10.160 -42.443  1.00  0.00    -0.070 C 
ATOM      7  C   UNL     1      -3.121 -11.307 -42.192  1.00  0.00     0.039 C 
ATOM      8  C   UNL     1      -2.741  -8.929 -43.108  1.00  0.00     0.039 C 
ATOM      9  C   UNL     1      -0.278 -11.382 -41.341  1.00  0.00     0.159 C 
ATOM     10  O   UNL     1      -0.988 -12.042 -40.534  1.00  0.00    -0.295 OA
ATOM     11  C   UNL     1       1.164 -11.762 -41.507  1.00  0.00     0.084 C 
ENDROOT
TORSDOF 0
ENDMDL
MODEL 2
REMARK VINA RESULT:    -4.187     14.424     15.733
REMARK INTER + INTRA:          -4.187
REMARK INTER:                  -4.187
REMARK INTRA:                   0.000
REMARK UNBOUND:                 0.000
REMARK SMILES CC(C)=C1CC[C@H](C)CC1=O
REMARK SMILES IDX 8 1 7 2 6 3 5 4 4 5 2 6 1 7 3 8 10 9 11 10 9 11
REMARK H PARENT
REMARK Flexibility Score: inf
ROOT
ATOM      1  C   UNL     1      -2.928 -27.125 -47.660  1.00  0.00     0.008 C 
ATOM      2  C   UNL     1      -1.860 -26.068 -47.351  1.00  0.00    -0.006 C 
ATOM      3  C   UNL     1      -2.258 -25.241 -46.117  1.00  0.00     0.008 C 
ATOM      4  C   UNL     1      -1.251 -24.114 -45.853  1.00  0.00     0.039 C 
ATOM      5  C   UNL     1       0.184 -24.617 -45.783  1.00  0.00    -0.006 C 
ATOM      6  C   UNL     1       1.108 -24.013 -44.979  1.00  0.00    -0.070 C 
ATOM      7  C   UNL     1       2.520 -24.537 -44.857  1.00  0.00     0.039 C 
ATOM      8  C   UNL     1       0.749 -22.808 -44.140  1.00  0.00     0.039 C 
ATOM      9  C   UNL     1       0.538 -25.722 -46.723  1.00  0.00     0.159 C 
ATOM     10  O   UNL     1       1.699 -25.825 -47.204  1.00  0.00    -0.295 OA
ATOM     11  C   UNL     1      -0.496 -26.734 -47.118  1.00  0.00     0.084 C 
ENDROOT
TORSDOF 0
ENDMDL
MODEL 3
REMARK VINA RESULT:    -4.109      2.106      3.005
REMARK INTER + INTRA:          -4.109
REMARK INTER:                  -4.109
REMARK INTRA:                   0.000
REMARK UNBOUND:                 0.000
REMARK SMILES CC(C)=C1CC[C@H](C)CC1=O
REMARK SMILES IDX 8 1 7 2 6 3 5 4 4 5 2 6 1 7 3 8 10 9 11 10 9 11
REMARK H PARENT
REMARK Flexibility Score: inf
ROOT
ATOM      1  C   UNL     1       2.799 -11.347 -43.921  1.00  0.00     0.008 C 
ATOM      2  C   UNL     1       1.511 -11.196 -43.101  1.00  0.00    -0.006 C 
ATOM      3  C   UNL     1       1.733 -11.669 -41.655  1.00  0.00     0.008 C 
ATOM      4  C   UNL     1       0.430 -11.620 -40.846  1.00  0.00     0.039 C 
ATOM      5  C   UNL     1      -0.252 -10.261 -40.920  1.00  0.00    -0.006 C 
ATOM      6  C   UNL     1      -0.983  -9.778 -39.873  1.00  0.00    -0.070 C 
ATOM      7  C   UNL     1      -1.618  -8.406 -39.912  1.00  0.00     0.039 C 
ATOM      8  C   UNL     1      -1.162 -10.580 -38.604  1.00  0.00     0.039 C 
ATOM      9  C   UNL     1      -0.168  -9.555 -42.233  1.00  0.00     0.159 C 
ATOM     10  O   UNL     1      -1.099  -8.805 -42.634  1.00  0.00    -0.295 OA
ATOM     11  C   UNL     1       1.037  -9.736 -43.109  1.00  0.00     0.084 C 
ENDROOT
TORSDOF 0
ENDMDL
MODEL 4
REMARK VINA RESULT:    -4.095     14.971     16.350
REMARK INTER + INTRA:          -4.095
REMARK INTER:                  -4.095
REMARK INTRA:                   0.000
REMARK UNBOUND:                 0.000
REMARK SMILES CC(C)=C1CC[C@H](C)CC1=O
REMARK SMILES IDX 8 1 7 2 6 3 5 4 4 5 2 6 1 7 3 8 10 9 11 10 9 11
REMARK H PARENT
REMARK Flexibility Score: inf
ROOT
ATOM      1  C   UNL     1      -4.823 -26.344 -45.487  1.00  0.00     0.008 C 
ATOM      2  C   UNL     1      -3.511 -25.833 -46.096  1.00  0.00    -0.006 C 
ATOM      3  C   UNL     1      -2.784 -24.903 -45.112  1.00  0.00     0.008 C 
ATOM      4  C   UNL     1      -1.521 -24.301 -45.742  1.00  0.00     0.039 C 
ATOM      5  C   UNL     1      -0.603 -25.362 -46.334  1.00  0.00    -0.006 C 
ATOM      6  C   UNL     1       0.753 -25.195 -46.352  1.00  0.00    -0.070 C 
ATOM      7  C   UNL     1       1.679 -26.265 -46.884  1.00  0.00     0.039 C 
ATOM      8  C   UNL     1       1.397 -23.943 -45.803  1.00  0.00     0.039 C 
ATOM      9  C   UNL     1      -1.277 -26.523 -46.988  1.00  0.00     0.159 C 
ATOM     10  O   UNL     1      -0.758 -27.110 -47.975  1.00  0.00    -0.295 OA
ATOM     11  C   UNL     1      -2.601 -27.009 -46.477  1.00  0.00     0.084 C 
ENDROOT
TORSDOF 0
ENDMDL
MODEL 5
REMARK VINA RESULT:    -4.004      2.020      4.509
REMARK INTER + INTRA:          -4.004
REMARK INTER:                  -4.004
REMARK INTRA:                   0.000
REMARK UNBOUND:                 0.000
REMARK SMILES CC(C)=C1CC[C@H](C)CC1=O
REMARK SMILES IDX 8 1 7 2 6 3 5 4 4 5 2 6 1 7 3 8 10 9 11 10 9 11
REMARK H PARENT
REMARK Flexibility Score: inf
ROOT
ATOM      1  C   UNL     1      -3.004  -8.772 -40.918  1.00  0.00     0.008 C 
ATOM      2  C   UNL     1      -1.533  -9.202 -40.988  1.00  0.00    -0.006 C 
ATOM      3  C   UNL     1      -1.379 -10.672 -40.566  1.00  0.00     0.008 C 
ATOM      4  C   UNL     1       0.096 -11.092 -40.532  1.00  0.00     0.039 C 
ATOM      5  C   UNL     1       0.822 -10.777 -41.832  1.00  0.00    -0.006 C 
ATOM      6  C   UNL     1       1.845 -11.563 -42.281  1.00  0.00    -0.070 C 
ATOM      7  C   UNL     1       2.536 -11.294 -43.598  1.00  0.00     0.039 C 
ATOM      8  C   UNL     1       2.311 -12.767 -41.496  1.00  0.00     0.039 C 
ATOM      9  C   UNL     1       0.428  -9.508 -42.513  1.00  0.00     0.159 C 
ATOM     10  O   UNL     1       1.261  -8.837 -43.180  1.00  0.00    -0.295 OA
ATOM     11  C   UNL     1      -0.981  -9.003 -42.406  1.00  0.00     0.084 C 
ENDROOT
TORSDOF 0
ENDMDL
MODEL 6
REMARK VINA RESULT:    -3.966      1.422      3.959
REMARK INTER + INTRA:          -3.966
REMARK INTER:                  -3.966
REMARK INTRA:                   0.000
REMARK UNBOUND:                 0.000
REMARK SMILES CC(C)=C1CC[C@H](C)CC1=O
REMARK SMILES IDX 8 1 7 2 6 3 5 4 4 5 2 6 1 7 3 8 10 9 11 10 9 11
REMARK H PARENT
REMARK Flexibility Score: inf
ROOT
ATOM      1  C   UNL     1      -3.594 -10.842 -39.573  1.00  0.00     0.008 C 
ATOM      2  C   UNL     1      -2.453 -10.903 -40.595  1.00  0.00    -0.006 C 
ATOM      3  C   UNL     1      -2.251  -9.532 -41.262  1.00  0.00     0.008 C 
ATOM      4  C   UNL     1      -1.181  -9.598 -42.360  1.00  0.00     0.039 C 
ATOM      5  C   UNL     1       0.124 -10.208 -41.867  1.00  0.00    -0.006 C 
ATOM      6  C   UNL     1       1.328  -9.815 -42.379  1.00  0.00    -0.070 C 
ATOM      7  C   UNL     1       2.633 -10.371 -41.858  1.00  0.00     0.039 C 
ATOM      8  C   UNL     1       1.413  -8.772 -43.469  1.00  0.00     0.039 C 
ATOM      9  C   UNL     1      -0.004 -11.328 -40.888  1.00  0.00     0.159 C 
ATOM     10  O   UNL     1       0.835 -12.269 -40.856  1.00  0.00    -0.295 OA
ATOM     11  C   UNL     1      -1.150 -11.355 -39.920  1.00  0.00     0.084 C 
ENDROOT
TORSDOF 0
ENDMDL
MODEL 7
REMARK VINA RESULT:    -3.954      4.113      4.792
REMARK INTER + INTRA:          -3.954
REMARK INTER:                  -3.954
REMARK INTRA:                   0.000
REMARK UNBOUND:                 0.000
REMARK SMILES CC(C)=C1CC[C@H](C)CC1=O
REMARK SMILES IDX 8 1 7 2 6 3 5 4 4 5 2 6 1 7 3 8 10 9 11 10 9 11
REMARK H PARENT
REMARK Flexibility Score: inf
ROOT
ATOM      1  C   UNL     1      -0.917  -6.895 -35.608  1.00  0.00     0.008 C 
ATOM      2  C   UNL     1      -1.311  -7.736 -36.828  1.00  0.00    -0.006 C 
ATOM      3  C   UNL     1      -0.770  -7.102 -38.120  1.00  0.00     0.008 C 
ATOM      4  C   UNL     1      -1.240  -7.874 -39.359  1.00  0.00     0.039 C 
ATOM      5  C   UNL     1      -0.939  -9.364 -39.268  1.00  0.00    -0.006 C 
ATOM      6  C   UNL     1      -0.663 -10.101 -40.383  1.00  0.00    -0.070 C 
ATOM      7  C   UNL     1      -0.307 -11.568 -40.300  1.00  0.00     0.039 C 
ATOM      8  C   UNL     1      -0.664  -9.473 -41.759  1.00  0.00     0.039 C 
ATOM      9  C   UNL     1      -1.078  -9.979 -37.914  1.00  0.00     0.159 C 
ATOM     10  O   UNL     1      -1.450 -11.176 -37.774  1.00  0.00    -0.295 OA
ATOM     11  C   UNL     1      -0.781  -9.170 -36.686  1.00  0.00     0.084 C 
ENDROOT
TORSDOF 0
ENDMDL
MODEL 8
REMARK VINA RESULT:    -3.943     14.355     15.715
REMARK INTER + INTRA:          -3.943
REMARK INTER:                  -3.943
REMARK INTRA:                   0.000
REMARK UNBOUND:                 0.000
REMARK SMILES CC(C)=C1CC[C@H](C)CC1=O
REMARK SMILES IDX 8 1 7 2 6 3 5 4 4 5 2 6 1 7 3 8 10 9 11 10 9 11
REMARK H PARENT
REMARK Flexibility Score: inf
ROOT
ATOM      1  C   UNL     1      -3.500 -27.124 -47.475  1.00  0.00     0.008 C 
ATOM      2  C   UNL     1      -2.269 -26.654 -46.689  1.00  0.00    -0.006 C 
ATOM      3  C   UNL     1      -1.070 -26.457 -47.631  1.00  0.00     0.008 C 
ATOM      4  C   UNL     1       0.197 -26.085 -46.850  1.00  0.00     0.039 C 
ATOM      5  C   UNL     1      -0.018 -24.899 -45.920  1.00  0.00    -0.006 C 
ATOM      6  C   UNL     1       0.993 -24.024 -45.642  1.00  0.00    -0.070 C 
ATOM      7  C   UNL     1       0.777 -22.811 -44.766  1.00  0.00     0.039 C 
ATOM      8  C   UNL     1       2.373 -24.206 -46.232  1.00  0.00     0.039 C 
ATOM      9  C   UNL     1      -1.350 -24.825 -45.250  1.00  0.00     0.159 C 
ATOM     10  O   UNL     1      -1.476 -24.333 -44.095  1.00  0.00    -0.295 OA
ATOM     11  C   UNL     1      -2.573 -25.346 -45.946  1.00  0.00     0.084 C 
ENDROOT
TORSDOF 0
ENDMDL
