MODEL 1
REMARK VINA RESULT:    -4.252      0.000      0.000
REMARK INTER + INTRA:          -6.416
REMARK INTER:                  -5.993
REMARK INTRA:                  -0.423
REMARK UNBOUND:                -0.423
REMARK SMILES CCCCCCCCC(=O)[O-]
REMARK SMILES IDX 6 1 7 2 8 3 9 4 10 5 11 6 5 7 4 8 3 9 2 10 1 11
REMARK H PARENT
REMARK Flexibility Score: inf
ROOT
ATOM      1  C   UNL     1     -10.328  -6.535  -5.565  1.00  0.00     0.000 C 
ENDROOT
BRANCH   1   2
ATOM      2  C   UNL     1     -11.604  -7.270  -6.017  1.00  0.00     0.006 C 
BRANCH   2   3
ATOM      3  C   UNL     1     -12.801  -7.013  -5.092  1.00  0.00     0.053 C 
BRANCH   3   4
ATOM      4  C   UNL     1     -12.917  -5.553  -4.783  1.00  0.00     0.041 C 
ATOM      5  O   UNL     1     -12.955  -5.160  -3.587  1.00  0.00    -0.550 OA
ATOM      6  O   UNL     1     -13.033  -4.631  -5.815  1.00  0.00    -0.550 OA
ENDBRANCH   3   4
ENDBRANCH   2   3
ENDBRANCH   1   2
BRANCH   1   7
ATOM      7  C   UNL     1      -9.535  -5.854  -6.695  1.00  0.00     0.000 C 
BRANCH   7   8
ATOM      8  C   UNL     1     -10.379  -5.608  -7.955  1.00  0.00    -0.000 C 
BRANCH   8   9
ATOM      9  C   UNL     1     -10.686  -4.116  -8.128  1.00  0.00    -0.000 C 
BRANCH   9  10
ATOM     10  C   UNL     1     -11.176  -3.816  -9.549  1.00  0.00    -0.003 C 
ATOM     11  C   UNL     1     -11.267  -5.091 -10.382  1.00  0.00     0.004 C 
ENDBRANCH   9  10
ENDBRANCH   8   9
ENDBRANCH   7   8
ENDBRANCH   1   7
TORSDOF 7
ENDMDL
MODEL 2
REMARK VINA RESULT:    -4.227      2.344      2.967
REMARK INTER + INTRA:          -6.380
REMARK INTER:                  -5.939
REMARK INTRA:                  -0.442
REMARK UNBOUND:                -0.423
REMARK SMILES CCCCCCCCC(=O)[O-]
REMARK SMILES IDX 6 1 7 2 8 3 9 4 10 5 11 6 5 7 4 8 3 9 2 10 1 11
REMARK H PARENT
REMARK Flexibility Score: inf
ROOT
ATOM      1  C   UNL     1     -12.624  -4.880  -5.608  1.00  0.00     0.000 C 
ENDROOT
BRANCH   1   2
ATOM      2  C   UNL     1     -11.266  -5.398  -5.100  1.00  0.00     0.006 C 
BRANCH   2   3
ATOM      3  C   UNL     1     -11.013  -6.866  -5.464  1.00  0.00     0.053 C 
BRANCH   3   4
ATOM      4  C   UNL     1      -9.552  -7.106  -5.680  1.00  0.00     0.041 C 
ATOM      5  O   UNL     1      -8.909  -7.850  -4.894  1.00  0.00    -0.550 OA
ATOM      6  O   UNL     1      -8.889  -6.467  -6.721  1.00  0.00    -0.550 OA
ENDBRANCH   3   4
ENDBRANCH   2   3
ENDBRANCH   1   2
BRANCH   1   7
ATOM      7  C   UNL     1     -12.554  -4.005  -6.873  1.00  0.00     0.000 C 
BRANCH   7   8
ATOM      8  C   UNL     1     -11.120  -3.809  -7.388  1.00  0.00    -0.000 C 
BRANCH   8   9
ATOM      9  C   UNL     1     -11.096  -3.690  -8.916  1.00  0.00    -0.000 C 
BRANCH   9  10
ATOM     10  C   UNL     1     -11.078  -5.074  -9.575  1.00  0.00    -0.003 C 
ATOM     11  C   UNL     1     -11.207  -4.965 -11.091  1.00  0.00     0.004 C 
ENDBRANCH   9  10
ENDBRANCH   8   9
ENDBRANCH   7   8
ENDBRANCH   1   7
TORSDOF 7
ENDMDL
MODEL 3
REMARK VINA RESULT:    -4.211      3.193      4.186
REMARK INTER + INTRA:          -6.357
REMARK INTER:                  -5.845
REMARK INTRA:                  -0.513
REMARK UNBOUND:                -0.423
REMARK SMILES CCCCCCCCC(=O)[O-]
REMARK SMILES IDX 6 1 7 2 8 3 9 4 10 5 11 6 5 7 4 8 3 9 2 10 1 11
REMARK H PARENT
REMARK Flexibility Score: inf
ROOT
ATOM      1  C   UNL     1      -9.449  -6.208  -6.771  1.00  0.00     0.000 C 
ENDROOT
BRANCH   1   2
ATOM      2  C   UNL     1      -9.983  -7.177  -5.699  1.00  0.00     0.006 C 
BRANCH   2   3
ATOM      3  C   UNL     1      -8.884  -7.699  -4.765  1.00  0.00     0.053 C 
BRANCH   3   4
ATOM      4  C   UNL     1      -8.659  -9.161  -4.991  1.00  0.00     0.041 C 
ATOM      5  O   UNL     1      -9.640  -9.946  -5.083  1.00  0.00    -0.550 OA
ATOM      6  O   UNL     1      -7.367  -9.665  -5.051  1.00  0.00    -0.550 OA
ENDBRANCH   3   4
ENDBRANCH   2   3
ENDBRANCH   1   2
BRANCH   1   7
ATOM      7  C   UNL     1     -10.402  -5.957  -7.953  1.00  0.00     0.000 C 
BRANCH   7   8
ATOM      8  C   UNL     1     -10.718  -4.468  -8.163  1.00  0.00    -0.000 C 
BRANCH   8   9
ATOM      9  C   UNL     1     -11.269  -3.838  -6.879  1.00  0.00    -0.000 C 
BRANCH   9  10
ATOM     10  C   UNL     1     -12.687  -4.340  -6.583  1.00  0.00    -0.003 C 
ATOM     11  C   UNL     1     -12.777  -4.951  -5.189  1.00  0.00     0.004 C 
ENDBRANCH   9  10
ENDBRANCH   8   9
ENDBRANCH   7   8
ENDBRANCH   1   7
TORSDOF 7
ENDMDL
MODEL 4
REMARK VINA RESULT:    -4.176      1.417      3.023
REMARK INTER + INTRA:          -6.307
REMARK INTER:                  -5.770
REMARK INTRA:                  -0.537
REMARK UNBOUND:                -0.423
REMARK SMILES CCCCCCCCC(=O)[O-]
REMARK SMILES IDX 6 1 7 2 8 3 9 4 10 5 11 6 5 7 4 8 3 9 2 10 1 11
REMARK H PARENT
REMARK Flexibility Score: inf
ROOT
ATOM      1  C   UNL     1     -11.608  -3.642  -7.100  1.00  0.00     0.000 C 
ENDROOT
BRANCH   1   2
ATOM      2  C   UNL     1     -12.715  -4.259  -6.224  1.00  0.00     0.006 C 
BRANCH   2   3
ATOM      3  C   UNL     1     -12.191  -4.782  -4.881  1.00  0.00     0.053 C 
BRANCH   3   4
ATOM      4  C   UNL     1     -13.121  -5.813  -4.324  1.00  0.00     0.041 C 
ATOM      5  O   UNL     1     -13.730  -5.599  -3.242  1.00  0.00    -0.550 OA
ATOM      6  O   UNL     1     -13.278  -7.031  -4.972  1.00  0.00    -0.550 OA
ENDBRANCH   3   4
ENDBRANCH   2   3
ENDBRANCH   1   2
BRANCH   1   7
ATOM      7  C   UNL     1     -11.500  -4.228  -8.519  1.00  0.00     0.000 C 
BRANCH   7   8
ATOM      8  C   UNL     1     -10.269  -5.129  -8.704  1.00  0.00    -0.000 C 
BRANCH   8   9
ATOM      9  C   UNL     1     -10.330  -6.340  -7.766  1.00  0.00    -0.000 C 
BRANCH   9  10
ATOM     10  C   UNL     1      -9.253  -6.248  -6.678  1.00  0.00    -0.003 C 
ATOM     11  C   UNL     1      -9.567  -7.179  -5.511  1.00  0.00     0.004 C 
ENDBRANCH   9  10
ENDBRANCH   8   9
ENDBRANCH   7   8
ENDBRANCH   1   7
TORSDOF 7
ENDMDL
MODEL 5
REMARK VINA RESULT:    -4.153      2.557      4.642
REMARK INTER + INTRA:          -6.275
REMARK INTER:                  -5.767
REMARK INTRA:                  -0.509
REMARK UNBOUND:                -0.423
REMARK SMILES CCCCCCCCC(=O)[O-]
REMARK SMILES IDX 6 1 7 2 8 3 9 4 10 5 11 6 5 7 4 8 3 9 2 10 1 11
REMARK H PARENT
REMARK Flexibility Score: inf
ROOT
ATOM      1  C   UNL     1      -9.394  -6.030  -6.564  1.00  0.00     0.000 C 
ENDROOT
BRANCH   1   2
ATOM      2  C   UNL     1     -10.197  -5.871  -7.869  1.00  0.00     0.006 C 
BRANCH   2   3
ATOM      3  C   UNL     1     -10.789  -4.466  -8.038  1.00  0.00     0.053 C 
BRANCH   3   4
ATOM      4  C   UNL     1     -11.164  -4.227  -9.467  1.00  0.00     0.041 C 
ATOM      5  O   UNL     1     -11.306  -3.051  -9.896  1.00  0.00    -0.550 OA
ATOM      6  O   UNL     1     -11.405  -5.302 -10.312  1.00  0.00    -0.550 OA
ENDBRANCH   3   4
ENDBRANCH   2   3
ENDBRANCH   1   2
BRANCH   1   7
ATOM      7  C   UNL     1     -10.099  -6.840  -5.461  1.00  0.00     0.000 C 
BRANCH   7   8
ATOM      8  C   UNL     1     -11.302  -7.641  -5.981  1.00  0.00    -0.000 C 
BRANCH   8   9
ATOM      9  C   UNL     1     -12.596  -7.201  -5.285  1.00  0.00    -0.000 C 
BRANCH   9  10
ATOM     10  C   UNL     1     -12.504  -5.743  -4.823  1.00  0.00    -0.003 C 
ATOM     11  C   UNL     1     -13.402  -5.489  -3.617  1.00  0.00     0.004 C 
ENDBRANCH   9  10
ENDBRANCH   8   9
ENDBRANCH   7   8
ENDBRANCH   1   7
TORSDOF 7
ENDMDL
MODEL 6
REMARK VINA RESULT:    -4.152      2.957      3.632
REMARK INTER + INTRA:          -6.274
REMARK INTER:                  -5.682
REMARK INTRA:                  -0.592
REMARK UNBOUND:                -0.423
REMARK SMILES CCCCCCCCC(=O)[O-]
REMARK SMILES IDX 6 1 7 2 8 3 9 4 10 5 11 6 5 7 4 8 3 9 2 10 1 11
REMARK H PARENT
REMARK Flexibility Score: inf
ROOT
ATOM      1  C   UNL     1     -11.193  -5.688  -5.167  1.00  0.00     0.000 C 
ENDROOT
BRANCH   1   2
ATOM      2  C   UNL     1     -10.789  -7.120  -5.567  1.00  0.00     0.006 C 
BRANCH   2   3
ATOM      3  C   UNL     1      -9.287  -7.384  -5.407  1.00  0.00     0.053 C 
BRANCH   3   4
ATOM      4  C   UNL     1      -9.039  -8.831  -5.120  1.00  0.00     0.041 C 
ATOM      5  O   UNL     1      -7.883  -9.227  -4.814  1.00  0.00    -0.550 OA
ATOM      6  O   UNL     1     -10.073  -9.751  -5.239  1.00  0.00    -0.550 OA
ENDBRANCH   3   4
ENDBRANCH   2   3
ENDBRANCH   1   2
BRANCH   1   7
ATOM      7  C   UNL     1     -12.612  -5.270  -5.591  1.00  0.00     0.000 C 
BRANCH   7   8
ATOM      8  C   UNL     1     -12.617  -4.189  -6.683  1.00  0.00    -0.000 C 
BRANCH   8   9
ATOM      9  C   UNL     1     -11.188  -3.771  -7.049  1.00  0.00    -0.000 C 
BRANCH   9  10
ATOM     10  C   UNL     1     -10.932  -3.943  -8.550  1.00  0.00    -0.003 C 
ATOM     11  C   UNL     1     -10.577  -5.388  -8.888  1.00  0.00     0.004 C 
ENDBRANCH   9  10
ENDBRANCH   8   9
ENDBRANCH   7   8
ENDBRANCH   1   7
TORSDOF 7
ENDMDL
MODEL 7
REMARK VINA RESULT:    -4.138      2.788      4.844
REMARK INTER + INTRA:          -6.255
REMARK INTER:                  -5.533
REMARK INTRA:                  -0.722
REMARK UNBOUND:                -0.423
REMARK SMILES CCCCCCCCC(=O)[O-]
REMARK SMILES IDX 6 1 7 2 8 3 9 4 10 5 11 6 5 7 4 8 3 9 2 10 1 11
REMARK H PARENT
REMARK Flexibility Score: inf
ROOT
ATOM      1  C   UNL     1     -11.798  -3.605  -6.641  1.00  0.00     0.000 C 
ENDROOT
BRANCH   1   2
ATOM      2  C   UNL     1     -10.749  -3.923  -7.723  1.00  0.00     0.006 C 
BRANCH   2   3
ATOM      3  C   UNL     1     -11.106  -5.161  -8.555  1.00  0.00     0.053 C 
BRANCH   3   4
ATOM      4  C   UNL     1     -11.218  -4.801 -10.003  1.00  0.00     0.041 C 
ATOM      5  O   UNL     1     -11.085  -3.603 -10.371  1.00  0.00    -0.550 OA
ATOM      6  O   UNL     1     -11.517  -5.779 -10.942  1.00  0.00    -0.550 OA
ENDBRANCH   3   4
ENDBRANCH   2   3
ENDBRANCH   1   2
BRANCH   1   7
ATOM      7  C   UNL     1     -12.731  -4.774  -6.276  1.00  0.00     0.000 C 
BRANCH   7   8
ATOM      8  C   UNL     1     -12.202  -5.621  -5.109  1.00  0.00    -0.000 C 
BRANCH   8   9
ATOM      9  C   UNL     1     -12.026  -7.085  -5.529  1.00  0.00    -0.000 C 
BRANCH   9  10
ATOM     10  C   UNL     1     -10.542  -7.434  -5.697  1.00  0.00    -0.003 C 
ATOM     11  C   UNL     1      -9.650  -6.338  -5.125  1.00  0.00     0.004 C 
ENDBRANCH   9  10
ENDBRANCH   8   9
ENDBRANCH   7   8
ENDBRANCH   1   7
TORSDOF 7
ENDMDL
MODEL 8
REMARK VINA RESULT:    -4.075      3.335      5.451
REMARK INTER + INTRA:          -6.166
REMARK INTER:                  -5.852
REMARK INTRA:                  -0.314
REMARK UNBOUND:                -0.423
REMARK SMILES CCCCCCCCC(=O)[O-]
REMARK SMILES IDX 6 1 7 2 8 3 9 4 10 5 11 6 5 7 4 8 3 9 2 10 1 11
REMARK H PARENT
REMARK Flexibility Score: inf
ROOT
ATOM      1  C   UNL     1      -9.754  -6.991  -5.398  1.00  0.00     0.000 C 
ENDROOT
BRANCH   1   2
ATOM      2  C   UNL     1      -9.290  -6.138  -6.594  1.00  0.00     0.006 C 
BRANCH   2   3
ATOM      3  C   UNL     1     -10.255  -6.204  -7.784  1.00  0.00     0.053 C 
BRANCH   3   4
ATOM      4  C   UNL     1     -10.487  -4.836  -8.344  1.00  0.00     0.041 C 
ATOM      5  O   UNL     1     -10.465  -4.648  -9.589  1.00  0.00    -0.550 OA
ATOM      6  O   UNL     1     -10.679  -3.758  -7.489  1.00  0.00    -0.550 OA
ENDBRANCH   3   4
ENDBRANCH   2   3
ENDBRANCH   1   2
BRANCH   1   7
ATOM      7  C   UNL     1      -8.799  -8.132  -5.003  1.00  0.00     0.000 C 
BRANCH   7   8
ATOM      8  C   UNL     1      -9.463  -9.516  -5.058  1.00  0.00    -0.000 C 
BRANCH   8   9
ATOM      9  C   UNL     1      -8.444 -10.600  -5.424  1.00  0.00    -0.000 C 
BRANCH   9  10
ATOM     10  C   UNL     1      -7.015 -10.142  -5.108  1.00  0.00    -0.003 C 
ATOM     11  C   UNL     1      -6.113 -10.266  -6.331  1.00  0.00     0.004 C 
ENDBRANCH   9  10
ENDBRANCH   8   9
ENDBRANCH   7   8
ENDBRANCH   1   7
TORSDOF 7
ENDMDL
MODEL 9
REMARK VINA RESULT:    -4.071      2.343      4.179
REMARK INTER + INTRA:          -6.159
REMARK INTER:                  -5.562
REMARK INTRA:                  -0.597
REMARK UNBOUND:                -0.423
REMARK SMILES CCCCCCCCC(=O)[O-]
REMARK SMILES IDX 6 1 7 2 8 3 9 4 10 5 11 6 5 7 4 8 3 9 2 10 1 11
REMARK H PARENT
REMARK Flexibility Score: inf
ROOT
ATOM      1  C   UNL     1     -10.766  -5.548  -7.667  1.00  0.00     0.000 C 
ENDROOT
BRANCH   1   2
ATOM      2  C   UNL     1      -9.433  -5.987  -7.034  1.00  0.00     0.006 C 
BRANCH   2   3
ATOM      3  C   UNL     1      -9.567  -6.354  -5.551  1.00  0.00     0.053 C 
BRANCH   3   4
ATOM      4  C   UNL     1      -9.828  -7.819  -5.398  1.00  0.00     0.041 C 
ATOM      5  O   UNL     1     -10.940  -8.304  -5.739  1.00  0.00    -0.550 OA
ATOM      6  O   UNL     1      -8.862  -8.642  -4.833  1.00  0.00    -0.550 OA
ENDBRANCH   3   4
ENDBRANCH   2   3
ENDBRANCH   1   2
BRANCH   1   7
ATOM      7  C   UNL     1     -11.066  -4.041  -7.573  1.00  0.00     0.000 C 
BRANCH   7   8
ATOM      8  C   UNL     1     -11.927  -3.676  -6.354  1.00  0.00    -0.000 C 
BRANCH   8   9
ATOM      9  C   UNL     1     -12.887  -4.817  -5.998  1.00  0.00    -0.000 C 
BRANCH   9  10
ATOM     10  C   UNL     1     -12.760  -5.202  -4.520  1.00  0.00    -0.003 C 
ATOM     11  C   UNL     1     -13.561  -6.462  -4.207  1.00  0.00     0.004 C 
ENDBRANCH   9  10
ENDBRANCH   8   9
ENDBRANCH   7   8
ENDBRANCH   1   7
TORSDOF 7
ENDMDL
