MODEL 1
REMARK VINA RESULT:    -5.739      0.000      0.000
REMARK INTER + INTRA:          -5.739
REMARK INTER:                  -5.739
REMARK INTRA:                   0.000
REMARK UNBOUND:                 0.000
REMARK SMILES CC1=CC(=O)[C@H]2C[C@@H]1C2(C)C
REMARK SMILES IDX 1 1 2 2 3 3 4 4 5 5 6 6 7 7 8 8 9 9 10 10 11 11
REMARK H PARENT
REMARK Flexibility Score: inf
ROOT
ATOM      1  C   UNL     1      24.296  55.746   8.875  1.00  0.00     0.040 C 
ATOM      2  C   UNL     1      24.143  54.272   8.668  1.00  0.00    -0.066 C 
ATOM      3  C   UNL     1      23.040  53.591   9.088  1.00  0.00     0.047 C 
ATOM      4  C   UNL     1      23.028  52.118   8.812  1.00  0.00     0.159 C 
ATOM      5  O   UNL     1      22.086  51.371   9.187  1.00  0.00    -0.295 OA
ATOM      6  C   UNL     1      24.239  51.586   8.044  1.00  0.00     0.067 C 
ATOM      7  C   UNL     1      24.434  52.601   6.898  1.00  0.00     0.021 C 
ATOM      8  C   UNL     1      25.216  53.464   7.913  1.00  0.00     0.022 C 
ATOM      9  C   UNL     1      25.529  52.158   8.697  1.00  0.00    -0.019 C 
ATOM     10  C   UNL     1      25.602  52.232  10.249  1.00  0.00     0.012 C 
ATOM     11  C   UNL     1      26.811  51.455   8.184  1.00  0.00     0.012 C 
ENDROOT
TORSDOF 0
ENDMDL
MODEL 2
REMARK VINA RESULT:    -5.701      9.246     10.864
REMARK INTER + INTRA:          -5.701
REMARK INTER:                  -5.701
REMARK INTRA:                   0.000
REMARK UNBOUND:                 0.000
REMARK SMILES CC1=CC(=O)[C@H]2C[C@@H]1C2(C)C
REMARK SMILES IDX 1 1 2 2 3 3 4 4 5 5 6 6 7 7 8 8 9 9 10 10 11 11
REMARK H PARENT
REMARK Flexibility Score: inf
ROOT
ATOM      1  C   UNL     1      24.265  50.398  18.552  1.00  0.00     0.040 C 
ATOM      2  C   UNL     1      24.129  51.858  18.850  1.00  0.00    -0.066 C 
ATOM      3  C   UNL     1      23.036  52.579  18.471  1.00  0.00     0.047 C 
ATOM      4  C   UNL     1      23.042  54.032  18.838  1.00  0.00     0.159 C 
ATOM      5  O   UNL     1      22.111  54.812  18.508  1.00  0.00    -0.295 OA
ATOM      6  C   UNL     1      24.257  54.499  19.641  1.00  0.00     0.067 C 
ATOM      7  C   UNL     1      24.435  53.411  20.722  1.00  0.00     0.021 C 
ATOM      8  C   UNL     1      25.210  52.604  19.658  1.00  0.00     0.022 C 
ATOM      9  C   UNL     1      25.542  53.952  18.957  1.00  0.00    -0.019 C 
ATOM     10  C   UNL     1      25.619  53.974  17.404  1.00  0.00     0.012 C 
ATOM     11  C   UNL     1      26.831  54.606  19.516  1.00  0.00     0.012 C 
ENDROOT
TORSDOF 0
ENDMDL
MODEL 3
REMARK VINA RESULT:    -5.308      5.823      7.090
REMARK INTER + INTRA:          -5.308
REMARK INTER:                  -5.308
REMARK INTRA:                   0.000
REMARK UNBOUND:                 0.000
REMARK SMILES CC1=CC(=O)[C@H]2C[C@@H]1C2(C)C
REMARK SMILES IDX 1 1 2 2 3 3 4 4 5 5 6 6 7 7 8 8 9 9 10 10 11 11
REMARK H PARENT
REMARK Flexibility Score: inf
ROOT
ATOM      1  C   UNL     1      26.284  55.901  10.182  1.00  0.00     0.040 C 
ATOM      2  C   UNL     1      27.582  55.981  10.922  1.00  0.00    -0.066 C 
ATOM      3  C   UNL     1      28.008  54.988  11.751  1.00  0.00     0.047 C 
ATOM      4  C   UNL     1      29.328  55.209  12.426  1.00  0.00     0.159 C 
ATOM      5  O   UNL     1      29.810  54.386  13.247  1.00  0.00    -0.295 OA
ATOM      6  C   UNL     1      30.047  56.505  12.047  1.00  0.00     0.067 C 
ATOM      7  C   UNL     1      29.927  56.566  10.508  1.00  0.00     0.021 C 
ATOM      8  C   UNL     1      28.528  57.184  10.730  1.00  0.00     0.022 C 
ATOM      9  C   UNL     1      29.027  57.677  12.118  1.00  0.00    -0.019 C 
ATOM     10  C   UNL     1      28.013  57.702  13.298  1.00  0.00     0.012 C 
ATOM     11  C   UNL     1      29.715  59.063  12.040  1.00  0.00     0.012 C 
ENDROOT
TORSDOF 0
ENDMDL
MODEL 4
REMARK VINA RESULT:    -5.154      1.143      2.177
REMARK INTER + INTRA:          -5.154
REMARK INTER:                  -5.154
REMARK INTRA:                   0.000
REMARK UNBOUND:                 0.000
REMARK SMILES CC1=CC(=O)[C@H]2C[C@@H]1C2(C)C
REMARK SMILES IDX 1 1 2 2 3 3 4 4 5 5 6 6 7 7 8 8 9 9 10 10 11 11
REMARK H PARENT
REMARK Flexibility Score: inf
ROOT
ATOM      1  C   UNL     1      25.763  53.704  11.496  1.00  0.00     0.040 C 
ATOM      2  C   UNL     1      24.849  53.325  10.373  1.00  0.00    -0.066 C 
ATOM      3  C   UNL     1      23.925  52.331  10.492  1.00  0.00     0.047 C 
ATOM      4  C   UNL     1      23.082  52.063   9.282  1.00  0.00     0.159 C 
ATOM      5  O   UNL     1      22.223  51.144   9.251  1.00  0.00    -0.295 OA
ATOM      6  C   UNL     1      23.338  52.985   8.089  1.00  0.00     0.067 C 
ATOM      7  C   UNL     1      23.400  54.397   8.711  1.00  0.00     0.021 C 
ATOM      8  C   UNL     1      24.879  54.093   9.036  1.00  0.00     0.022 C 
ATOM      9  C   UNL     1      24.872  53.080   7.856  1.00  0.00    -0.019 C 
ATOM     10  C   UNL     1      25.721  51.784   7.995  1.00  0.00     0.012 C 
ATOM     11  C   UNL     1      25.224  53.748   6.503  1.00  0.00     0.012 C 
ENDROOT
TORSDOF 0
ENDMDL
MODEL 5
REMARK VINA RESULT:    -5.137      8.906     10.478
REMARK INTER + INTRA:          -5.137
REMARK INTER:                  -5.137
REMARK INTRA:                   0.000
REMARK UNBOUND:                 0.000
REMARK SMILES CC1=CC(=O)[C@H]2C[C@@H]1C2(C)C
REMARK SMILES IDX 1 1 2 2 3 3 4 4 5 5 6 6 7 7 8 8 9 9 10 10 11 11
REMARK H PARENT
REMARK Flexibility Score: inf
ROOT
ATOM      1  C   UNL     1      25.704  52.279  16.211  1.00  0.00     0.040 C 
ATOM      2  C   UNL     1      24.832  52.704  17.350  1.00  0.00    -0.066 C 
ATOM      3  C   UNL     1      23.902  53.692  17.224  1.00  0.00     0.047 C 
ATOM      4  C   UNL     1      23.103  54.010  18.451  1.00  0.00     0.159 C 
ATOM      5  O   UNL     1      22.244  54.930  18.475  1.00  0.00    -0.295 OA
ATOM      6  C   UNL     1      23.404  53.139  19.672  1.00  0.00     0.067 C 
ATOM      7  C   UNL     1      23.446  51.702  19.108  1.00  0.00     0.021 C 
ATOM      8  C   UNL     1      24.912  51.993  18.716  1.00  0.00     0.022 C 
ATOM      9  C   UNL     1      24.946  53.055  19.852  1.00  0.00    -0.019 C 
ATOM     10  C   UNL     1      25.788  54.344  19.627  1.00  0.00     0.012 C 
ATOM     11  C   UNL     1      25.349  52.444  21.218  1.00  0.00     0.012 C 
ENDROOT
TORSDOF 0
ENDMDL
MODEL 6
REMARK VINA RESULT:    -5.104      1.208      2.506
REMARK INTER + INTRA:          -5.104
REMARK INTER:                  -5.104
REMARK INTRA:                   0.000
REMARK UNBOUND:                 0.000
REMARK SMILES CC1=CC(=O)[C@H]2C[C@@H]1C2(C)C
REMARK SMILES IDX 1 1 2 2 3 3 4 4 5 5 6 6 7 7 8 8 9 9 10 10 11 11
REMARK H PARENT
REMARK Flexibility Score: inf
ROOT
ATOM      1  C   UNL     1      25.324  53.989   6.029  1.00  0.00     0.040 C 
ATOM      2  C   UNL     1      24.973  53.234   7.272  1.00  0.00    -0.066 C 
ATOM      3  C   UNL     1      24.042  52.239   7.280  1.00  0.00     0.047 C 
ATOM      4  C   UNL     1      23.796  51.573   8.599  1.00  0.00     0.159 C 
ATOM      5  O   UNL     1      22.931  50.669   8.746  1.00  0.00    -0.295 OA
ATOM      6  C   UNL     1      24.668  52.067   9.755  1.00  0.00     0.067 C 
ATOM      7  C   UNL     1      26.089  52.128   9.154  1.00  0.00     0.021 C 
ATOM      8  C   UNL     1      25.701  53.517   8.601  1.00  0.00     0.022 C 
ATOM      9  C   UNL     1      24.659  53.622   9.751  1.00  0.00    -0.019 C 
ATOM     10  C   UNL     1      23.317  54.353   9.462  1.00  0.00     0.012 C 
ATOM     11  C   UNL     1      25.267  54.218  11.046  1.00  0.00     0.012 C 
ENDROOT
TORSDOF 0
ENDMDL
MODEL 7
REMARK VINA RESULT:    -5.066      8.956     10.491
REMARK INTER + INTRA:          -5.066
REMARK INTER:                  -5.066
REMARK INTRA:                   0.000
REMARK UNBOUND:                 0.000
REMARK SMILES CC1=CC(=O)[C@H]2C[C@@H]1C2(C)C
REMARK SMILES IDX 1 1 2 2 3 3 4 4 5 5 6 6 7 7 8 8 9 9 10 10 11 11
REMARK H PARENT
REMARK Flexibility Score: inf
ROOT
ATOM      1  C   UNL     1      25.484  52.578  21.545  1.00  0.00     0.040 C 
ATOM      2  C   UNL     1      24.948  53.051  20.230  1.00  0.00    -0.066 C 
ATOM      3  C   UNL     1      23.825  53.817  20.136  1.00  0.00     0.047 C 
ATOM      4  C   UNL     1      23.408  54.214  18.752  1.00  0.00     0.159 C 
ATOM      5  O   UNL     1      22.366  54.884  18.529  1.00  0.00    -0.295 OA
ATOM      6  C   UNL     1      24.337  53.747  17.630  1.00  0.00     0.067 C 
ATOM      7  C   UNL     1      25.753  54.075  18.153  1.00  0.00     0.021 C 
ATOM      8  C   UNL     1      25.687  52.733  18.915  1.00  0.00     0.022 C 
ATOM      9  C   UNL     1      24.664  52.243  17.850  1.00  0.00    -0.019 C 
ATOM     10  C   UNL     1      23.518  51.299  18.313  1.00  0.00     0.012 C 
ATOM     11  C   UNL     1      25.353  51.602  16.620  1.00  0.00     0.012 C 
ENDROOT
TORSDOF 0
ENDMDL
MODEL 8
REMARK VINA RESULT:    -5.064      1.806      3.135
REMARK INTER + INTRA:          -5.064
REMARK INTER:                  -5.064
REMARK INTRA:                   0.000
REMARK UNBOUND:                 0.000
REMARK SMILES CC1=CC(=O)[C@H]2C[C@@H]1C2(C)C
REMARK SMILES IDX 1 1 2 2 3 3 4 4 5 5 6 6 7 7 8 8 9 9 10 10 11 11
REMARK H PARENT
REMARK Flexibility Score: inf
ROOT
ATOM      1  C   UNL     1      22.184  51.498   9.480  1.00  0.00     0.040 C 
ATOM      2  C   UNL     1      23.574  52.016   9.283  1.00  0.00    -0.066 C 
ATOM      3  C   UNL     1      24.377  52.357  10.329  1.00  0.00     0.047 C 
ATOM      4  C   UNL     1      25.744  52.862   9.978  1.00  0.00     0.159 C 
ATOM      5  O   UNL     1      26.563  53.248  10.851  1.00  0.00    -0.295 OA
ATOM      6  C   UNL     1      26.072  52.874   8.484  1.00  0.00     0.067 C 
ATOM      7  C   UNL     1      25.585  51.499   7.980  1.00  0.00     0.021 C 
ATOM      8  C   UNL     1      24.181  52.134   7.870  1.00  0.00     0.022 C 
ATOM      9  C   UNL     1      24.879  53.515   7.719  1.00  0.00    -0.019 C 
ATOM     10  C   UNL     1      24.186  54.760   8.343  1.00  0.00     0.012 C 
ATOM     11  C   UNL     1      25.229  53.842   6.246  1.00  0.00     0.012 C 
ENDROOT
TORSDOF 0
ENDMDL
MODEL 9
REMARK VINA RESULT:    -5.050      1.745      3.036
REMARK INTER + INTRA:          -5.050
REMARK INTER:                  -5.050
REMARK INTRA:                   0.000
REMARK UNBOUND:                 0.000
REMARK SMILES CC1=CC(=O)[C@H]2C[C@@H]1C2(C)C
REMARK SMILES IDX 1 1 2 2 3 3 4 4 5 5 6 6 7 7 8 8 9 9 10 10 11 11
REMARK H PARENT
REMARK Flexibility Score: inf
ROOT
ATOM      1  C   UNL     1      22.104  51.534   9.484  1.00  0.00     0.040 C 
ATOM      2  C   UNL     1      23.303  52.428   9.430  1.00  0.00    -0.066 C 
ATOM      3  C   UNL     1      23.195  53.781   9.314  1.00  0.00     0.047 C 
ATOM      4  C   UNL     1      24.483  54.547   9.271  1.00  0.00     0.159 C 
ATOM      5  O   UNL     1      24.519  55.796   9.124  1.00  0.00    -0.295 OA
ATOM      6  C   UNL     1      25.751  53.703   9.420  1.00  0.00     0.067 C 
ATOM      7  C   UNL     1      25.435  52.753  10.596  1.00  0.00     0.021 C 
ATOM      8  C   UNL     1      24.727  51.850   9.562  1.00  0.00     0.022 C 
ATOM      9  C   UNL     1      25.643  52.476   8.471  1.00  0.00    -0.019 C 
ATOM     10  C   UNL     1      25.050  52.691   7.049  1.00  0.00     0.012 C 
ATOM     11  C   UNL     1      26.988  51.721   8.327  1.00  0.00     0.012 C 
ENDROOT
TORSDOF 0
ENDMDL
