MODEL 1
REMARK VINA RESULT:    -3.690      0.000      0.000
REMARK INTER + INTRA:          -6.626
REMARK INTER:                  -5.632
REMARK INTRA:                  -0.994
REMARK UNBOUND:                -0.994
REMARK SMILES CCCCCCCCCCC(=O)[O-]
REMARK SMILES IDX 7 1 8 2 9 3 10 4 11 5 12 6 13 7 6 8 5 9 4 10 3 11 2 12 1 13
REMARK H PARENT
REMARK Flexibility Score: inf
ROOT
ATOM      1  C   UNL     1     183.486 180.939 201.157  1.00  0.00     0.000 C 
ENDROOT
BRANCH   1   2
ATOM      2  C   UNL     1     184.514 180.087 201.911  1.00  0.00     0.000 C 
BRANCH   2   3
ATOM      3  C   UNL     1     185.936 180.379 201.418  1.00  0.00     0.006 C 
BRANCH   3   4
ATOM      4  C   UNL     1     185.993 180.405 199.888  1.00  0.00     0.053 C 
BRANCH   4   5
ATOM      5  C   UNL     1     186.883 181.510 199.415  1.00  0.00     0.041 C 
ATOM      6  O   UNL     1     186.772 181.955 198.243  1.00  0.00    -0.550 OA
ATOM      7  O   UNL     1     187.868 182.016 200.253  1.00  0.00    -0.550 OA
ENDBRANCH   4   5
ENDBRANCH   3   4
ENDBRANCH   2   3
ENDBRANCH   1   2
BRANCH   1   8
ATOM      8  C   UNL     1     182.688 181.823 202.125  1.00  0.00     0.000 C 
BRANCH   8   9
ATOM      9  C   UNL     1     181.573 182.578 201.391  1.00  0.00    -0.000 C 
BRANCH   9  10
ATOM     10  C   UNL     1     182.020 184.000 201.023  1.00  0.00    -0.000 C 
BRANCH  10  11
ATOM     11  C   UNL     1     182.280 184.157 199.509  1.00  0.00    -0.000 C 
BRANCH  11  12
ATOM     12  C   UNL     1     183.765 184.040 199.126  1.00  0.00    -0.003 C 
ATOM     13  C   UNL     1     184.709 184.384 200.276  1.00  0.00     0.004 C 
ENDBRANCH  11  12
ENDBRANCH  10  11
ENDBRANCH   9  10
ENDBRANCH   8   9
ENDBRANCH   1   8
TORSDOF 9
ENDMDL
MODEL 2
REMARK VINA RESULT:    -3.676     15.967     18.133
REMARK INTER + INTRA:          -6.604
REMARK INTER:                  -5.402
REMARK INTRA:                  -1.202
REMARK UNBOUND:                -0.994
REMARK SMILES CCCCCCCCCCC(=O)[O-]
REMARK SMILES IDX 7 1 8 2 9 3 10 4 11 5 12 6 13 7 6 8 5 9 4 10 3 11 2 12 1 13
REMARK H PARENT
REMARK Flexibility Score: inf
ROOT
ATOM      1  C   UNL     1     195.955 196.941 202.125  1.00  0.00     0.000 C 
ENDROOT
BRANCH   1   2
ATOM      2  C   UNL     1     195.058 198.143 201.805  1.00  0.00     0.000 C 
BRANCH   2   3
ATOM      3  C   UNL     1     193.675 197.684 201.326  1.00  0.00     0.006 C 
BRANCH   3   4
ATOM      4  C   UNL     1     193.486 197.976 199.834  1.00  0.00     0.053 C 
BRANCH   4   5
ATOM      5  C   UNL     1     192.192 197.406 199.348  1.00  0.00     0.041 C 
ATOM      6  O   UNL     1     192.013 197.198 198.120  1.00  0.00    -0.550 OA
ATOM      7  O   UNL     1     191.165 197.149 200.247  1.00  0.00    -0.550 OA
ENDBRANCH   4   5
ENDBRANCH   3   4
ENDBRANCH   2   3
ENDBRANCH   1   2
BRANCH   1   8
ATOM      8  C   UNL     1     197.319 197.075 201.436  1.00  0.00     0.000 C 
BRANCH   8   9
ATOM      9  C   UNL     1     197.752 195.745 200.808  1.00  0.00    -0.000 C 
BRANCH   9  10
ATOM     10  C   UNL     1     196.548 194.813 200.606  1.00  0.00    -0.000 C 
BRANCH  10  11
ATOM     11  C   UNL     1     196.136 194.704 199.121  1.00  0.00    -0.000 C 
BRANCH  11  12
ATOM     12  C   UNL     1     194.641 194.409 198.918  1.00  0.00    -0.003 C 
ATOM     13  C   UNL     1     193.898 194.155 200.228  1.00  0.00     0.004 C 
ENDBRANCH  11  12
ENDBRANCH  10  11
ENDBRANCH   9  10
ENDBRANCH   8   9
ENDBRANCH   1   8
TORSDOF 9
ENDMDL
MODEL 3
REMARK VINA RESULT:    -3.534      2.406      4.335
REMARK INTER + INTRA:          -6.388
REMARK INTER:                  -5.219
REMARK INTRA:                  -1.169
REMARK UNBOUND:                -0.994
REMARK SMILES CCCCCCCCCCC(=O)[O-]
REMARK SMILES IDX 7 1 8 2 9 3 10 4 11 5 12 6 13 7 6 8 5 9 4 10 3 11 2 12 1 13
REMARK H PARENT
REMARK Flexibility Score: inf
ROOT
ATOM      1  C   UNL     1     182.689 182.332 201.126  1.00  0.00     0.000 C 
ENDROOT
BRANCH   1   2
ATOM      2  C   UNL     1     183.827 183.190 201.689  1.00  0.00     0.000 C 
BRANCH   2   3
ATOM      3  C   UNL     1     184.510 183.995 200.577  1.00  0.00     0.006 C 
BRANCH   3   4
ATOM      4  C   UNL     1     183.759 183.847 199.250  1.00  0.00     0.053 C 
BRANCH   4   5
ATOM      5  C   UNL     1     183.303 185.182 198.755  1.00  0.00     0.041 C 
ATOM      6  O   UNL     1     182.426 185.258 197.855  1.00  0.00    -0.550 OA
ATOM      7  O   UNL     1     183.882 186.342 199.252  1.00  0.00    -0.550 OA
ENDBRANCH   4   5
ENDBRANCH   3   4
ENDBRANCH   2   3
ENDBRANCH   1   2
BRANCH   1   8
ATOM      8  C   UNL     1     183.082 180.849 201.091  1.00  0.00     0.000 C 
BRANCH   8   9
ATOM      9  C   UNL     1     184.248 180.565 202.045  1.00  0.00    -0.000 C 
BRANCH   9  10
ATOM     10  C   UNL     1     185.235 179.564 201.426  1.00  0.00    -0.000 C 
BRANCH  10  11
ATOM     11  C   UNL     1     185.618 179.940 199.978  1.00  0.00    -0.000 C 
BRANCH  11  12
ATOM     12  C   UNL     1     186.676 181.051 199.891  1.00  0.00    -0.003 C 
ATOM     13  C   UNL     1     186.807 181.645 198.489  1.00  0.00     0.004 C 
ENDBRANCH  11  12
ENDBRANCH  10  11
ENDBRANCH   9  10
ENDBRANCH   8   9
ENDBRANCH   1   8
TORSDOF 9
ENDMDL
MODEL 4
REMARK VINA RESULT:    -3.519      2.700      4.508
REMARK INTER + INTRA:          -6.365
REMARK INTER:                  -5.165
REMARK INTRA:                  -1.200
REMARK UNBOUND:                -0.994
REMARK SMILES CCCCCCCCCCC(=O)[O-]
REMARK SMILES IDX 7 1 8 2 9 3 10 4 11 5 12 6 13 7 6 8 5 9 4 10 3 11 2 12 1 13
REMARK H PARENT
REMARK Flexibility Score: inf
ROOT
ATOM      1  C   UNL     1     183.931 179.962 200.666  1.00  0.00     0.000 C 
ENDROOT
BRANCH   1   2
ATOM      2  C   UNL     1     183.598 180.933 201.805  1.00  0.00     0.000 C 
BRANCH   2   3
ATOM      3  C   UNL     1     183.095 182.273 201.255  1.00  0.00     0.006 C 
BRANCH   3   4
ATOM      4  C   UNL     1     183.577 183.439 202.124  1.00  0.00     0.053 C 
BRANCH   4   5
ATOM      5  C   UNL     1     183.153 184.744 201.531  1.00  0.00     0.041 C 
ATOM      6  O   UNL     1     182.025 185.230 201.808  1.00  0.00    -0.550 OA
ATOM      7  O   UNL     1     183.984 185.401 200.632  1.00  0.00    -0.550 OA
ENDBRANCH   4   5
ENDBRANCH   3   4
ENDBRANCH   2   3
ENDBRANCH   1   2
BRANCH   1   8
ATOM      8  C   UNL     1     185.440 179.701 200.589  1.00  0.00     0.000 C 
BRANCH   8   9
ATOM      9  C   UNL     1     185.988 180.039 199.197  1.00  0.00    -0.000 C 
BRANCH   9  10
ATOM     10  C   UNL     1     187.021 181.173 199.271  1.00  0.00    -0.000 C 
BRANCH  10  11
ATOM     11  C   UNL     1     186.361 182.550 199.496  1.00  0.00    -0.000 C 
BRANCH  11  12
ATOM     12  C   UNL     1     186.955 183.331 200.679  1.00  0.00    -0.003 C 
ATOM     13  C   UNL     1     187.635 182.432 201.710  1.00  0.00     0.004 C 
ENDBRANCH  11  12
ENDBRANCH  10  11
ENDBRANCH   9  10
ENDBRANCH   8   9
ENDBRANCH   1   8
TORSDOF 9
ENDMDL
MODEL 5
REMARK VINA RESULT:    -3.490      2.260      4.231
REMARK INTER + INTRA:          -6.321
REMARK INTER:                  -5.064
REMARK INTRA:                  -1.256
REMARK UNBOUND:                -0.994
REMARK SMILES CCCCCCCCCCC(=O)[O-]
REMARK SMILES IDX 7 1 8 2 9 3 10 4 11 5 12 6 13 7 6 8 5 9 4 10 3 11 2 12 1 13
REMARK H PARENT
REMARK Flexibility Score: inf
ROOT
ATOM      1  C   UNL     1     183.684 183.081 201.490  1.00  0.00     0.000 C 
ENDROOT
BRANCH   1   2
ATOM      2  C   UNL     1     184.482 184.063 200.624  1.00  0.00     0.000 C 
BRANCH   2   3
ATOM      3  C   UNL     1     184.371 183.699 199.138  1.00  0.00     0.006 C 
BRANCH   3   4
ATOM      4  C   UNL     1     185.633 184.115 198.375  1.00  0.00     0.053 C 
BRANCH   4   5
ATOM      5  C   UNL     1     185.599 185.578 198.067  1.00  0.00     0.041 C 
ATOM      6  O   UNL     1     184.539 186.113 197.646  1.00  0.00    -0.550 OA
ATOM      7  O   UNL     1     186.751 186.343 198.197  1.00  0.00    -0.550 OA
ENDBRANCH   4   5
ENDBRANCH   3   4
ENDBRANCH   2   3
ENDBRANCH   1   2
BRANCH   1   8
ATOM      8  C   UNL     1     183.873 181.639 201.004  1.00  0.00     0.000 C 
BRANCH   8   9
ATOM      9  C   UNL     1     184.443 180.752 202.117  1.00  0.00    -0.000 C 
BRANCH   9  10
ATOM     10  C   UNL     1     185.911 180.395 201.840  1.00  0.00    -0.000 C 
BRANCH  10  11
ATOM     11  C   UNL     1     186.335 180.746 200.397  1.00  0.00    -0.000 C 
BRANCH  11  12
ATOM     12  C   UNL     1     187.496 181.751 200.326  1.00  0.00    -0.003 C 
ATOM     13  C   UNL     1     187.837 182.371 201.679  1.00  0.00     0.004 C 
ENDBRANCH  11  12
ENDBRANCH  10  11
ENDBRANCH   9  10
ENDBRANCH   8   9
ENDBRANCH   1   8
TORSDOF 9
ENDMDL
MODEL 6
REMARK VINA RESULT:    -3.454     15.405     17.316
REMARK INTER + INTRA:          -6.266
REMARK INTER:                  -5.803
REMARK INTRA:                  -0.462
REMARK UNBOUND:                -0.994
REMARK SMILES CCCCCCCCCCC(=O)[O-]
REMARK SMILES IDX 7 1 8 2 9 3 10 4 11 5 12 6 13 7 6 8 5 9 4 10 3 11 2 12 1 13
REMARK H PARENT
REMARK Flexibility Score: inf
ROOT
ATOM      1  C   UNL     1     193.987 197.633 200.322  1.00  0.00     0.000 C 
ENDROOT
BRANCH   1   2
ATOM      2  C   UNL     1     195.125 198.248 201.144  1.00  0.00     0.000 C 
BRANCH   2   3
ATOM      3  C   UNL     1     195.824 197.184 201.998  1.00  0.00     0.006 C 
BRANCH   3   4
ATOM      4  C   UNL     1     197.258 196.948 201.517  1.00  0.00     0.053 C 
BRANCH   4   5
ATOM      5  C   UNL     1     197.388 195.589 200.905  1.00  0.00     0.041 C 
ATOM      6  O   UNL     1     196.655 195.257 199.937  1.00  0.00    -0.550 OA
ATOM      7  O   UNL     1     198.286 194.671 201.435  1.00  0.00    -0.550 OA
ENDBRANCH   4   5
ENDBRANCH   3   4
ENDBRANCH   2   3
ENDBRANCH   1   2
BRANCH   1   8
ATOM      8  C   UNL     1     193.365 196.436 201.053  1.00  0.00     0.000 C 
BRANCH   8   9
ATOM      9  C   UNL     1     192.146 196.866 201.877  1.00  0.00    -0.000 C 
BRANCH   9  10
ATOM     10  C   UNL     1     190.840 196.592 201.116  1.00  0.00    -0.000 C 
BRANCH  10  11
ATOM     11  C   UNL     1     189.636 196.415 202.067  1.00  0.00    -0.000 C 
BRANCH  11  12
ATOM     12  C   UNL     1     188.321 196.090 201.340  1.00  0.00    -0.003 C 
ATOM     13  C   UNL     1     187.094 196.684 202.028  1.00  0.00     0.004 C 
ENDBRANCH  11  12
ENDBRANCH  10  11
ENDBRANCH   9  10
ENDBRANCH   8   9
ENDBRANCH   1   8
TORSDOF 9
ENDMDL
MODEL 7
REMARK VINA RESULT:    -3.421     14.891     16.853
REMARK INTER + INTRA:          -6.216
REMARK INTER:                  -5.081
REMARK INTRA:                  -1.134
REMARK UNBOUND:                -0.994
REMARK SMILES CCCCCCCCCCC(=O)[O-]
REMARK SMILES IDX 7 1 8 2 9 3 10 4 11 5 12 6 13 7 6 8 5 9 4 10 3 11 2 12 1 13
REMARK H PARENT
REMARK Flexibility Score: inf
ROOT
ATOM      1  C   UNL     1     196.236 195.120 200.870  1.00  0.00     0.000 C 
ENDROOT
BRANCH   1   2
ATOM      2  C   UNL     1     195.554 194.933 199.510  1.00  0.00     0.000 C 
BRANCH   2   3
ATOM      3  C   UNL     1     194.142 194.359 199.677  1.00  0.00     0.006 C 
BRANCH   3   4
ATOM      4  C   UNL     1     193.252 194.733 198.488  1.00  0.00     0.053 C 
BRANCH   4   5
ATOM      5  C   UNL     1     192.910 193.517 197.687  1.00  0.00     0.041 C 
ATOM      6  O   UNL     1     193.507 193.284 196.603  1.00  0.00    -0.550 OA
ATOM      7  O   UNL     1     191.897 192.667 198.113  1.00  0.00    -0.550 OA
ENDBRANCH   4   5
ENDBRANCH   3   4
ENDBRANCH   2   3
ENDBRANCH   1   2
BRANCH   1   8
ATOM      8  C   UNL     1     195.453 196.104 201.748  1.00  0.00     0.000 C 
BRANCH   8   9
ATOM      9  C   UNL     1     195.724 197.554 201.329  1.00  0.00    -0.000 C 
BRANCH   9  10
ATOM     10  C   UNL     1     194.454 198.214 200.772  1.00  0.00    -0.000 C 
BRANCH  10  11
ATOM     11  C   UNL     1     193.168 197.600 201.367  1.00  0.00    -0.000 C 
BRANCH  11  12
ATOM     12  C   UNL     1     191.968 197.638 200.406  1.00  0.00    -0.003 C 
ATOM     13  C   UNL     1     192.234 198.459 199.146  1.00  0.00     0.004 C 
ENDBRANCH  11  12
ENDBRANCH  10  11
ENDBRANCH   9  10
ENDBRANCH   8   9
ENDBRANCH   1   8
TORSDOF 9
ENDMDL
