MODEL 1
REMARK VINA RESULT:    -5.794      0.000      0.000
REMARK INTER + INTRA:          -6.456
REMARK INTER:                  -6.132
REMARK INTRA:                  -0.324
REMARK UNBOUND:                -0.324
REMARK SMILES CC1=CC[C@@]23[C@@H]([C@@H](C(C)C)CC[C@@H]2C)[C@H]13
REMARK SMILES IDX 14 1 13 2 12 3 11 4 7 5 6 6 5 7 15 8 2 9 3 10 4 11 1 12 8 13
REMARK SMILES IDX 9 14 10 15
REMARK H PARENT
REMARK Flexibility Score: inf
ROOT
ATOM      1  C   UNL     1      31.867  23.019  10.562  1.00  0.00     0.008 C 
ATOM      2  C   UNL     1      31.842  24.459  11.096  1.00  0.00    -0.007 C 
ATOM      3  C   UNL     1      32.040  25.451   9.939  1.00  0.00     0.004 C 
ATOM      4  C   UNL     1      31.759  26.888  10.375  1.00  0.00     0.004 C 
ATOM      5  C   UNL     1      30.261  27.072  10.695  1.00  0.00    -0.004 C 
ATOM      6  C   UNL     1      29.820  26.067  11.795  1.00  0.00     0.007 C 
ATOM      7  C   UNL     1      30.570  24.735  11.943  1.00  0.00    -0.013 C 
ATOM      8  C   UNL     1      29.219  24.771  11.235  1.00  0.00     0.025 C 
ATOM      9  C   UNL     1      28.319  24.015  12.154  1.00  0.00    -0.073 C 
ATOM     10  C   UNL     1      28.936  23.582  13.246  1.00  0.00    -0.027 C 
ATOM     11  C   UNL     1      30.368  23.994  13.276  1.00  0.00     0.035 C 
ATOM     12  C   UNL     1      26.866  23.780  11.880  1.00  0.00     0.039 C 
ENDROOT
BRANCH   5  13
ATOM     13  C   UNL     1      29.914  28.531  11.136  1.00  0.00    -0.014 C 
ATOM     14  C   UNL     1      29.545  28.635  12.628  1.00  0.00     0.007 C 
ATOM     15  C   UNL     1      31.093  29.484  10.856  1.00  0.00     0.007 C 
ENDBRANCH   5  13
TORSDOF 1
ENDMDL
MODEL 2
REMARK VINA RESULT:    -5.114      2.464      5.459
REMARK INTER + INTRA:          -5.737
REMARK INTER:                  -5.494
REMARK INTRA:                  -0.243
REMARK UNBOUND:                -0.324
REMARK SMILES CC1=CC[C@@]23[C@@H]([C@@H](C(C)C)CC[C@@H]2C)[C@H]13
REMARK SMILES IDX 14 1 13 2 12 3 11 4 7 5 6 6 5 7 15 8 2 9 3 10 4 11 1 12 8 13
REMARK SMILES IDX 9 14 10 15
REMARK H PARENT
REMARK Flexibility Score: inf
ROOT
ATOM      1  C   UNL     1      31.725  25.741  13.274  1.00  0.00     0.008 C 
ATOM      2  C   UNL     1      31.883  24.225  13.082  1.00  0.00    -0.007 C 
ATOM      3  C   UNL     1      32.124  23.547  14.440  1.00  0.00     0.004 C 
ATOM      4  C   UNL     1      32.023  22.027  14.336  1.00  0.00     0.004 C 
ATOM      5  C   UNL     1      30.572  21.603  14.025  1.00  0.00    -0.004 C 
ATOM      6  C   UNL     1      30.085  22.277  12.712  1.00  0.00     0.007 C 
ATOM      7  C   UNL     1      30.695  23.621  12.285  1.00  0.00    -0.013 C 
ATOM      8  C   UNL     1      29.320  23.588  12.946  1.00  0.00     0.025 C 
ATOM      9  C   UNL     1      28.395  24.008  11.854  1.00  0.00    -0.073 C 
ATOM     10  C   UNL     1      29.020  24.256  10.709  1.00  0.00    -0.027 C 
ATOM     11  C   UNL     1      30.487  24.016  10.814  1.00  0.00     0.035 C 
ATOM     12  C   UNL     1      26.913  24.128  12.026  1.00  0.00     0.039 C 
ENDROOT
BRANCH   5  13
ATOM     13  C   UNL     1      30.407  20.052  13.918  1.00  0.00    -0.014 C 
ATOM     14  C   UNL     1      31.306  19.425  12.836  1.00  0.00     0.007 C 
ATOM     15  C   UNL     1      30.720  19.373  15.267  1.00  0.00     0.007 C 
ENDBRANCH   5  13
TORSDOF 1
ENDMDL
MODEL 3
REMARK VINA RESULT:    -4.998      1.353      3.145
REMARK INTER + INTRA:          -5.614
REMARK INTER:                  -5.312
REMARK INTRA:                  -0.302
REMARK UNBOUND:                -0.324
REMARK SMILES CC1=CC[C@@]23[C@@H]([C@@H](C(C)C)CC[C@@H]2C)[C@H]13
REMARK SMILES IDX 14 1 13 2 12 3 11 4 7 5 6 6 5 7 15 8 2 9 3 10 4 11 1 12 8 13
REMARK SMILES IDX 9 14 10 15
REMARK H PARENT
REMARK Flexibility Score: inf
ROOT
ATOM      1  C   UNL     1      27.397  23.830  11.947  1.00  0.00     0.008 C 
ATOM      2  C   UNL     1      28.206  24.981  11.329  1.00  0.00    -0.007 C 
ATOM      3  C   UNL     1      27.711  26.326  11.883  1.00  0.00     0.004 C 
ATOM      4  C   UNL     1      28.651  27.469  11.506  1.00  0.00     0.004 C 
ATOM      5  C   UNL     1      30.008  27.312  12.223  1.00  0.00    -0.004 C 
ATOM      6  C   UNL     1      30.645  25.940  11.872  1.00  0.00     0.007 C 
ATOM      7  C   UNL     1      29.735  24.761  11.494  1.00  0.00    -0.013 C 
ATOM      8  C   UNL     1      30.331  24.840  12.896  1.00  0.00     0.025 C 
ATOM      9  C   UNL     1      31.285  23.693  12.938  1.00  0.00    -0.073 C 
ATOM     10  C   UNL     1      31.323  23.007  11.802  1.00  0.00    -0.027 C 
ATOM     11  C   UNL     1      30.418  23.589  10.771  1.00  0.00     0.035 C 
ATOM     12  C   UNL     1      32.122  23.357  14.132  1.00  0.00     0.039 C 
ENDROOT
BRANCH   5  13
ATOM     13  C   UNL     1      31.007  28.465  11.882  1.00  0.00    -0.014 C 
ATOM     14  C   UNL     1      31.969  28.106  10.735  1.00  0.00     0.007 C 
ATOM     15  C   UNL     1      30.249  29.753  11.500  1.00  0.00     0.007 C 
ENDBRANCH   5  13
TORSDOF 1
ENDMDL
MODEL 4
REMARK VINA RESULT:    -4.809      0.957      1.415
REMARK INTER + INTRA:          -5.414
REMARK INTER:                  -5.169
REMARK INTRA:                  -0.245
REMARK UNBOUND:                -0.324
REMARK SMILES CC1=CC[C@@]23[C@@H]([C@@H](C(C)C)CC[C@@H]2C)[C@H]13
REMARK SMILES IDX 14 1 13 2 12 3 11 4 7 5 6 6 5 7 15 8 2 9 3 10 4 11 1 12 8 13
REMARK SMILES IDX 9 14 10 15
REMARK H PARENT
REMARK Flexibility Score: inf
ROOT
ATOM      1  C   UNL     1      31.394  21.938  11.591  1.00  0.00     0.008 C 
ATOM      2  C   UNL     1      31.574  23.430  11.911  1.00  0.00    -0.007 C 
ATOM      3  C   UNL     1      32.125  24.168  10.679  1.00  0.00     0.004 C 
ATOM      4  C   UNL     1      32.070  25.683  10.860  1.00  0.00     0.004 C 
ATOM      5  C   UNL     1      30.606  26.170  10.890  1.00  0.00    -0.004 C 
ATOM      6  C   UNL     1      29.825  25.453  12.026  1.00  0.00     0.007 C 
ATOM      7  C   UNL     1      30.272  24.055  12.482  1.00  0.00    -0.013 C 
ATOM      8  C   UNL     1      29.070  24.202  11.554  1.00  0.00     0.025 C 
ATOM      9  C   UNL     1      27.918  23.775  12.400  1.00  0.00    -0.073 C 
ATOM     10  C   UNL     1      28.277  23.431  13.631  1.00  0.00    -0.027 C 
ATOM     11  C   UNL     1      29.742  23.592  13.849  1.00  0.00     0.035 C 
ATOM     12  C   UNL     1      26.502  23.749  11.917  1.00  0.00     0.039 C 
ENDROOT
BRANCH   5  13
ATOM     13  C   UNL     1      30.490  27.719  11.061  1.00  0.00    -0.014 C 
ATOM     14  C   UNL     1      31.075  28.500   9.870  1.00  0.00     0.007 C 
ATOM     15  C   UNL     1      29.020  28.142  11.250  1.00  0.00     0.007 C 
ENDBRANCH   5  13
TORSDOF 1
ENDMDL
MODEL 5
REMARK VINA RESULT:    -4.432      1.828      5.268
REMARK INTER + INTRA:          -5.014
REMARK INTER:                  -4.700
REMARK INTRA:                  -0.314
REMARK UNBOUND:                -0.324
REMARK SMILES CC1=CC[C@@]23[C@@H]([C@@H](C(C)C)CC[C@@H]2C)[C@H]13
REMARK SMILES IDX 14 1 13 2 12 3 11 4 7 5 6 6 5 7 15 8 2 9 3 10 4 11 1 12 8 13
REMARK SMILES IDX 9 14 10 15
REMARK H PARENT
REMARK Flexibility Score: inf
ROOT
ATOM      1  C   UNL     1      28.229  26.257  11.381  1.00  0.00     0.008 C 
ATOM      2  C   UNL     1      28.813  25.427  12.534  1.00  0.00    -0.007 C 
ATOM      3  C   UNL     1      27.827  24.317  12.934  1.00  0.00     0.004 C 
ATOM      4  C   UNL     1      28.470  23.310  13.885  1.00  0.00     0.004 C 
ATOM      5  C   UNL     1      29.571  22.509  13.161  1.00  0.00    -0.004 C 
ATOM      6  C   UNL     1      30.641  23.472  12.577  1.00  0.00     0.007 C 
ATOM      7  C   UNL     1      30.238  24.906  12.201  1.00  0.00    -0.013 C 
ATOM      8  C   UNL     1      30.388  23.850  11.111  1.00  0.00     0.025 C 
ATOM      9  C   UNL     1      31.580  24.309  10.339  1.00  0.00    -0.073 C 
ATOM     10  C   UNL     1      32.115  25.424  10.822  1.00  0.00    -0.027 C 
ATOM     11  C   UNL     1      31.394  25.907  12.033  1.00  0.00     0.035 C 
ATOM     12  C   UNL     1      32.125  23.581   9.150  1.00  0.00     0.039 C 
ENDROOT
BRANCH   5  13
ATOM     13  C   UNL     1      30.255  21.452  14.087  1.00  0.00    -0.014 C 
ATOM     14  C   UNL     1      30.662  20.170  13.338  1.00  0.00     0.007 C 
ATOM     15  C   UNL     1      31.509  22.043  14.761  1.00  0.00     0.007 C 
ENDBRANCH   5  13
TORSDOF 1
ENDMDL
MODEL 6
REMARK VINA RESULT:    -3.921      1.823      4.649
REMARK INTER + INTRA:          -4.474
REMARK INTER:                  -4.154
REMARK INTRA:                  -0.320
REMARK UNBOUND:                -0.324
REMARK SMILES CC1=CC[C@@]23[C@@H]([C@@H](C(C)C)CC[C@@H]2C)[C@H]13
REMARK SMILES IDX 14 1 13 2 12 3 11 4 7 5 6 6 5 7 15 8 2 9 3 10 4 11 1 12 8 13
REMARK SMILES IDX 9 14 10 15
REMARK H PARENT
REMARK Flexibility Score: inf
ROOT
ATOM      1  C   UNL     1      29.843  26.807  12.157  1.00  0.00     0.008 C 
ATOM      2  C   UNL     1      30.509  25.431  12.010  1.00  0.00    -0.007 C 
ATOM      3  C   UNL     1      31.616  25.269  13.064  1.00  0.00     0.004 C 
ATOM      4  C   UNL     1      32.123  23.830  13.131  1.00  0.00     0.004 C 
ATOM      5  C   UNL     1      31.025  22.896  13.681  1.00  0.00    -0.004 C 
ATOM      6  C   UNL     1      29.750  22.988  12.799  1.00  0.00     0.007 C 
ATOM      7  C   UNL     1      29.463  24.283  12.023  1.00  0.00    -0.013 C 
ATOM      8  C   UNL     1      28.716  23.996  13.322  1.00  0.00     0.025 C 
ATOM      9  C   UNL     1      27.308  23.779  12.878  1.00  0.00    -0.073 C 
ATOM     10  C   UNL     1      27.155  23.886  11.564  1.00  0.00    -0.027 C 
ATOM     11  C   UNL     1      28.446  24.167  10.875  1.00  0.00     0.035 C 
ATOM     12  C   UNL     1      26.185  23.462  13.816  1.00  0.00     0.039 C 
ENDROOT
BRANCH   5  13
ATOM     13  C   UNL     1      31.495  21.409  13.783  1.00  0.00    -0.014 C 
ATOM     14  C   UNL     1      30.356  20.444  14.164  1.00  0.00     0.007 C 
ATOM     15  C   UNL     1      32.112  20.935  12.452  1.00  0.00     0.007 C 
ENDBRANCH   5  13
TORSDOF 1
ENDMDL
MODEL 7
REMARK VINA RESULT:    -3.279      2.125      5.207
REMARK INTER + INTRA:          -3.794
REMARK INTER:                  -3.558
REMARK INTRA:                  -0.236
REMARK UNBOUND:                -0.324
REMARK SMILES CC1=CC[C@@]23[C@@H]([C@@H](C(C)C)CC[C@@H]2C)[C@H]13
REMARK SMILES IDX 14 1 13 2 12 3 11 4 7 5 6 6 5 7 15 8 2 9 3 10 4 11 1 12 8 13
REMARK SMILES IDX 9 14 10 15
REMARK H PARENT
REMARK Flexibility Score: inf
ROOT
ATOM      1  C   UNL     1      31.959  23.559   9.243  1.00  0.00     0.008 C 
ATOM      2  C   UNL     1      31.236  22.797  10.364  1.00  0.00    -0.007 C 
ATOM      3  C   UNL     1      32.124  21.653  10.880  1.00  0.00     0.004 C 
ATOM      4  C   UNL     1      31.565  21.041  12.162  1.00  0.00     0.004 C 
ATOM      5  C   UNL     1      31.647  22.053  13.324  1.00  0.00    -0.004 C 
ATOM      6  C   UNL     1      30.882  23.355  12.958  1.00  0.00     0.007 C 
ATOM      7  C   UNL     1      30.742  23.756  11.482  1.00  0.00    -0.013 C 
ATOM      8  C   UNL     1      31.782  24.445  12.360  1.00  0.00     0.025 C 
ATOM      9  C   UNL     1      31.277  25.845  12.472  1.00  0.00    -0.073 C 
ATOM     10  C   UNL     1      30.138  26.040  11.819  1.00  0.00    -0.027 C 
ATOM     11  C   UNL     1      29.649  24.791  11.168  1.00  0.00     0.035 C 
ATOM     12  C   UNL     1      31.976  26.916  13.249  1.00  0.00     0.039 C 
ENDROOT
BRANCH   5  13
ATOM     13  C   UNL     1      31.098  21.473  14.668  1.00  0.00    -0.014 C 
ATOM     14  C   UNL     1      29.672  20.905  14.539  1.00  0.00     0.007 C 
ATOM     15  C   UNL     1      32.021  20.360  15.203  1.00  0.00     0.007 C 
ENDBRANCH   5  13
TORSDOF 1
ENDMDL
MODEL 8
REMARK VINA RESULT:    -3.089      1.446      4.849
REMARK INTER + INTRA:          -3.594
REMARK INTER:                  -3.290
REMARK INTRA:                  -0.304
REMARK UNBOUND:                -0.324
REMARK SMILES CC1=CC[C@@]23[C@@H]([C@@H](C(C)C)CC[C@@H]2C)[C@H]13
REMARK SMILES IDX 14 1 13 2 12 3 11 4 7 5 6 6 5 7 15 8 2 9 3 10 4 11 1 12 8 13
REMARK SMILES IDX 9 14 10 15
REMARK H PARENT
REMARK Flexibility Score: inf
ROOT
ATOM      1  C   UNL     1      29.394  29.610  11.008  1.00  0.00     0.008 C 
ATOM      2  C   UNL     1      28.858  28.511  11.938  1.00  0.00    -0.007 C 
ATOM      3  C   UNL     1      27.422  28.137  11.535  1.00  0.00     0.004 C 
ATOM      4  C   UNL     1      26.947  26.876  12.254  1.00  0.00     0.004 C 
ATOM      5  C   UNL     1      27.741  25.646  11.768  1.00  0.00    -0.004 C 
ATOM      6  C   UNL     1      29.263  25.866  11.994  1.00  0.00     0.007 C 
ATOM      7  C   UNL     1      29.823  27.297  12.007  1.00  0.00    -0.013 C 
ATOM      8  C   UNL     1      29.988  26.429  10.764  1.00  0.00     0.025 C 
ATOM      9  C   UNL     1      31.458  26.181  10.700  1.00  0.00    -0.073 C 
ATOM     10  C   UNL     1      32.125  26.751  11.697  1.00  0.00    -0.027 C 
ATOM     11  C   UNL     1      31.216  27.467  12.636  1.00  0.00     0.035 C 
ATOM     12  C   UNL     1      32.114  25.364   9.631  1.00  0.00     0.039 C 
ENDROOT
BRANCH   5  13
ATOM     13  C   UNL     1      27.286  24.322  12.463  1.00  0.00    -0.014 C 
ATOM     14  C   UNL     1      26.509  23.385  11.521  1.00  0.00     0.007 C 
ATOM     15  C   UNL     1      28.498  23.553  13.026  1.00  0.00     0.007 C 
ENDBRANCH   5  13
TORSDOF 1
ENDMDL
MODEL 9
REMARK VINA RESULT:    -2.870      1.363      5.040
REMARK INTER + INTRA:          -3.361
REMARK INTER:                  -3.024
REMARK INTRA:                  -0.337
REMARK UNBOUND:                -0.324
REMARK SMILES CC1=CC[C@@]23[C@@H]([C@@H](C(C)C)CC[C@@H]2C)[C@H]13
REMARK SMILES IDX 14 1 13 2 12 3 11 4 7 5 6 6 5 7 15 8 2 9 3 10 4 11 1 12 8 13
REMARK SMILES IDX 9 14 10 15
REMARK H PARENT
REMARK Flexibility Score: inf
ROOT
ATOM      1  C   UNL     1      27.530  28.211  11.549  1.00  0.00     0.008 C 
ATOM      2  C   UNL     1      28.259  27.049  12.243  1.00  0.00    -0.007 C 
ATOM      3  C   UNL     1      27.597  25.714  11.864  1.00  0.00     0.004 C 
ATOM      4  C   UNL     1      28.440  24.522  12.311  1.00  0.00     0.004 C 
ATOM      5  C   UNL     1      29.756  24.461  11.508  1.00  0.00    -0.004 C 
ATOM      6  C   UNL     1      30.549  25.787  11.674  1.00  0.00     0.007 C 
ATOM      7  C   UNL     1      29.787  27.087  11.971  1.00  0.00    -0.013 C 
ATOM      8  C   UNL     1      30.280  26.804  10.556  1.00  0.00     0.025 C 
ATOM      9  C   UNL     1      31.339  27.833  10.338  1.00  0.00    -0.073 C 
ATOM     10  C   UNL     1      31.519  28.622  11.390  1.00  0.00    -0.027 C 
ATOM     11  C   UNL     1      30.630  28.248  12.526  1.00  0.00     0.035 C 
ATOM     12  C   UNL     1      32.125  27.955   9.071  1.00  0.00     0.039 C 
ENDROOT
BRANCH   5  13
ATOM     13  C   UNL     1      30.655  23.249  11.917  1.00  0.00    -0.014 C 
ATOM     14  C   UNL     1      32.121  23.647  12.169  1.00  0.00     0.007 C 
ATOM     15  C   UNL     1      30.110  22.564  13.185  1.00  0.00     0.007 C 
ENDBRANCH   5  13
TORSDOF 1
ENDMDL
