MODEL 1
REMARK VINA RESULT:    -4.237      0.000      0.000
REMARK INTER + INTRA:         -16.871
REMARK INTER:                 -11.173
REMARK INTRA:                  -5.698
REMARK UNBOUND:                -5.698
REMARK SMILES CCCCCCCCCCCCCCCCCCCCCCCCCCCCCC(=O)[O-]
REMARK SMILES IDX 16 1 17 2 18 3 19 4 20 5 21 6 22 7 23 8 24 9 25 10 26 11
REMARK SMILES IDX 27 12 28 13 29 14 30 15 31 16 32 17 15 18 14 19 13 20 12 21
REMARK SMILES IDX 11 22 10 23 9 24 8 25 7 26 6 27 5 28 4 29 3 30 2 31 1 32
REMARK H PARENT
REMARK Flexibility Score: inf
ROOT
ATOM      1  C   UNL     1     -19.126   9.241  17.653  1.00  0.00     0.000 C 
ENDROOT
BRANCH   1   2
ATOM      2  C   UNL     1     -20.045   8.075  18.056  1.00  0.00     0.000 C 
BRANCH   2   3
ATOM      3  C   UNL     1     -20.681   7.374  16.841  1.00  0.00     0.000 C 
BRANCH   3   4
ATOM      4  C   UNL     1     -22.187   7.069  16.996  1.00  0.00     0.000 C 
BRANCH   4   5
ATOM      5  C   UNL     1     -22.755   7.419  18.384  1.00  0.00     0.000 C 
BRANCH   5   6
ATOM      6  C   UNL     1     -24.221   6.974  18.553  1.00  0.00     0.000 C 
BRANCH   6   7
ATOM      7  C   UNL     1     -24.342   5.504  18.995  1.00  0.00     0.000 C 
BRANCH   7   8
ATOM      8  C   UNL     1     -24.049   5.287  20.492  1.00  0.00     0.000 C 
BRANCH   8   9
ATOM      9  C   UNL     1     -22.867   4.333  20.735  1.00  0.00     0.000 C 
BRANCH   9  10
ATOM     10  C   UNL     1     -22.261   3.797  19.425  1.00  0.00     0.000 C 
BRANCH  10  11
ATOM     11  C   UNL     1     -20.862   4.347  19.089  1.00  0.00     0.000 C 
BRANCH  11  12
ATOM     12  C   UNL     1     -19.866   4.356  20.264  1.00  0.00     0.000 C 
BRANCH  12  13
ATOM     13  C   UNL     1     -18.911   5.565  20.300  1.00  0.00     0.006 C 
BRANCH  13  14
ATOM     14  C   UNL     1     -17.452   5.180  20.022  1.00  0.00     0.053 C 
BRANCH  14  15
ATOM     15  C   UNL     1     -17.049   5.614  18.648  1.00  0.00     0.041 C 
ATOM     16  O   UNL     1     -17.074   4.796  17.691  1.00  0.00    -0.550 OA
ATOM     17  O   UNL     1     -16.620   6.917  18.428  1.00  0.00    -0.550 OA
ENDBRANCH  14  15
ENDBRANCH  13  14
ENDBRANCH  12  13
ENDBRANCH  11  12
ENDBRANCH  10  11
ENDBRANCH   9  10
ENDBRANCH   8   9
ENDBRANCH   7   8
ENDBRANCH   6   7
ENDBRANCH   5   6
ENDBRANCH   4   5
ENDBRANCH   3   4
ENDBRANCH   2   3
ENDBRANCH   1   2
BRANCH   1  18
ATOM     18  C   UNL     1     -19.544  10.576  18.294  1.00  0.00     0.000 C 
BRANCH  18  19
ATOM     19  C   UNL     1     -21.044  10.620  18.646  1.00  0.00     0.000 C 
BRANCH  19  20
ATOM     20  C   UNL     1     -21.820  11.662  17.821  1.00  0.00     0.000 C 
BRANCH  20  21
ATOM     21  C   UNL     1     -22.892  11.084  16.874  1.00  0.00     0.000 C 
BRANCH  21  22
ATOM     22  C   UNL     1     -22.353  10.458  15.575  1.00  0.00     0.000 C 
BRANCH  22  23
ATOM     23  C   UNL     1     -21.246  11.301  14.916  1.00  0.00     0.000 C 
BRANCH  23  24
ATOM     24  C   UNL     1     -20.104  10.429  14.368  1.00  0.00    -0.000 C 
BRANCH  24  25
ATOM     25  C   UNL     1     -18.728  11.087  14.570  1.00  0.00    -0.000 C 
BRANCH  25  26
ATOM     26  C   UNL     1     -18.797  12.622  14.532  1.00  0.00    -0.000 C 
BRANCH  26  27
ATOM     27  C   UNL     1     -18.121  13.319  15.734  1.00  0.00    -0.000 C 
BRANCH  27  28
ATOM     28  C   UNL     1     -19.097  13.750  16.851  1.00  0.00    -0.000 C 
BRANCH  28  29
ATOM     29  C   UNL     1     -19.851  15.054  16.528  1.00  0.00    -0.000 C 
BRANCH  29  30
ATOM     30  C   UNL     1     -21.330  14.810  16.190  1.00  0.00    -0.000 C 
BRANCH  30  31
ATOM     31  C   UNL     1     -22.275  15.631  17.077  1.00  0.00    -0.003 C 
ATOM     32  C   UNL     1     -23.604  14.908  17.277  1.00  0.00     0.004 C 
ENDBRANCH  30  31
ENDBRANCH  29  30
ENDBRANCH  28  29
ENDBRANCH  27  28
ENDBRANCH  26  27
ENDBRANCH  25  26
ENDBRANCH  24  25
ENDBRANCH  23  24
ENDBRANCH  22  23
ENDBRANCH  21  22
ENDBRANCH  20  21
ENDBRANCH  19  20
ENDBRANCH  18  19
ENDBRANCH   1  18
TORSDOF 28
ENDMDL
MODEL 2
REMARK VINA RESULT:    -4.141      1.444      3.770
REMARK INTER + INTRA:         -16.618
REMARK INTER:                 -11.136
REMARK INTRA:                  -5.483
REMARK UNBOUND:                -5.698
REMARK SMILES CCCCCCCCCCCCCCCCCCCCCCCCCCCCCC(=O)[O-]
REMARK SMILES IDX 16 1 17 2 18 3 19 4 20 5 21 6 22 7 23 8 24 9 25 10 26 11
REMARK SMILES IDX 27 12 28 13 29 14 30 15 31 16 32 17 15 18 14 19 13 20 12 21
REMARK SMILES IDX 11 22 10 23 9 24 8 25 7 26 6 27 5 28 4 29 3 30 2 31 1 32
REMARK H PARENT
REMARK Flexibility Score: inf
ROOT
ATOM      1  C   UNL     1     -20.476  10.164  18.046  1.00  0.00     0.000 C 
ENDROOT
BRANCH   1   2
ATOM      2  C   UNL     1     -19.088   9.641  17.640  1.00  0.00     0.000 C 
BRANCH   2   3
ATOM      3  C   UNL     1     -18.807   8.224  18.176  1.00  0.00     0.000 C 
BRANCH   3   4
ATOM      4  C   UNL     1     -20.073   7.401  18.500  1.00  0.00     0.000 C 
BRANCH   4   5
ATOM      5  C   UNL     1     -20.606   6.582  17.311  1.00  0.00     0.000 C 
BRANCH   5   6
ATOM      6  C   UNL     1     -22.147   6.560  17.250  1.00  0.00     0.000 C 
BRANCH   6   7
ATOM      7  C   UNL     1     -22.793   7.273  18.453  1.00  0.00     0.000 C 
BRANCH   7   8
ATOM      8  C   UNL     1     -23.711   6.358  19.287  1.00  0.00     0.000 C 
BRANCH   8   9
ATOM      9  C   UNL     1     -23.279   4.882  19.241  1.00  0.00     0.000 C 
BRANCH   9  10
ATOM     10  C   UNL     1     -22.479   4.461  20.488  1.00  0.00     0.000 C 
BRANCH  10  11
ATOM     11  C   UNL     1     -20.955   4.654  20.372  1.00  0.00     0.000 C 
BRANCH  11  12
ATOM     12  C   UNL     1     -20.162   3.380  20.021  1.00  0.00     0.000 C 
BRANCH  12  13
ATOM     13  C   UNL     1     -18.700   3.619  19.600  1.00  0.00     0.006 C 
BRANCH  13  14
ATOM     14  C   UNL     1     -18.119   4.919  20.173  1.00  0.00     0.053 C 
BRANCH  14  15
ATOM     15  C   UNL     1     -16.644   4.983  19.936  1.00  0.00     0.041 C 
ATOM     16  O   UNL     1     -16.186   4.942  18.764  1.00  0.00    -0.550 OA
ATOM     17  O   UNL     1     -15.770   5.061  21.013  1.00  0.00    -0.550 OA
ENDBRANCH  14  15
ENDBRANCH  13  14
ENDBRANCH  12  13
ENDBRANCH  11  12
ENDBRANCH  10  11
ENDBRANCH   9  10
ENDBRANCH   8   9
ENDBRANCH   7   8
ENDBRANCH   6   7
ENDBRANCH   5   6
ENDBRANCH   4   5
ENDBRANCH   3   4
ENDBRANCH   2   3
ENDBRANCH   1   2
BRANCH   1  18
ATOM     18  C   UNL     1     -20.406  11.474  18.851  1.00  0.00     0.000 C 
BRANCH  18  19
ATOM     19  C   UNL     1     -19.066  12.211  18.665  1.00  0.00     0.000 C 
BRANCH  19  20
ATOM     20  C   UNL     1     -19.161  13.379  17.667  1.00  0.00     0.000 C 
BRANCH  20  21
ATOM     21  C   UNL     1     -18.687  13.058  16.234  1.00  0.00     0.000 C 
BRANCH  21  22
ATOM     22  C   UNL     1     -19.799  12.990  15.173  1.00  0.00     0.000 C 
BRANCH  22  23
ATOM     23  C   UNL     1     -21.213  13.050  15.780  1.00  0.00     0.000 C 
BRANCH  23  24
ATOM     24  C   UNL     1     -22.250  12.329  14.901  1.00  0.00    -0.000 C 
BRANCH  24  25
ATOM     25  C   UNL     1     -23.231  11.489  15.738  1.00  0.00    -0.000 C 
BRANCH  25  26
ATOM     26  C   UNL     1     -23.022   9.978  15.549  1.00  0.00    -0.000 C 
BRANCH  26  27
ATOM     27  C   UNL     1     -22.232   9.600  14.276  1.00  0.00    -0.000 C 
BRANCH  27  28
ATOM     28  C   UNL     1     -20.987   8.724  14.537  1.00  0.00    -0.000 C 
BRANCH  28  29
ATOM     29  C   UNL     1     -19.664   9.426  14.174  1.00  0.00    -0.000 C 
BRANCH  29  30
ATOM     30  C   UNL     1     -19.711  10.084  12.786  1.00  0.00    -0.000 C 
BRANCH  30  31
ATOM     31  C   UNL     1     -18.332  10.572  12.323  1.00  0.00    -0.003 C 
ATOM     32  C   UNL     1     -17.407  10.810  13.512  1.00  0.00     0.004 C 
ENDBRANCH  30  31
ENDBRANCH  29  30
ENDBRANCH  28  29
ENDBRANCH  27  28
ENDBRANCH  26  27
ENDBRANCH  25  26
ENDBRANCH  24  25
ENDBRANCH  23  24
ENDBRANCH  22  23
ENDBRANCH  21  22
ENDBRANCH  20  21
ENDBRANCH  19  20
ENDBRANCH  18  19
ENDBRANCH   1  18
TORSDOF 28
ENDMDL
MODEL 3
REMARK VINA RESULT:    -4.044      4.289      8.511
REMARK INTER + INTRA:         -16.363
REMARK INTER:                 -10.553
REMARK INTRA:                  -5.810
REMARK UNBOUND:                -5.698
REMARK SMILES CCCCCCCCCCCCCCCCCCCCCCCCCCCCCC(=O)[O-]
REMARK SMILES IDX 16 1 17 2 18 3 19 4 20 5 21 6 22 7 23 8 24 9 25 10 26 11
REMARK SMILES IDX 27 12 28 13 29 14 30 15 31 16 32 17 15 18 14 19 13 20 12 21
REMARK SMILES IDX 11 22 10 23 9 24 8 25 7 26 6 27 5 28 4 29 3 30 2 31 1 32
REMARK H PARENT
REMARK Flexibility Score: inf
ROOT
ATOM      1  C   UNL     1     -22.558   9.136  17.555  1.00  0.00     0.000 C 
ENDROOT
BRANCH   1   2
ATOM      2  C   UNL     1     -22.637  10.085  18.763  1.00  0.00     0.000 C 
BRANCH   2   3
ATOM      3  C   UNL     1     -23.119  11.497  18.379  1.00  0.00     0.000 C 
BRANCH   3   4
ATOM      4  C   UNL     1     -24.465  11.528  17.623  1.00  0.00     0.000 C 
BRANCH   4   5
ATOM      5  C   UNL     1     -25.270  12.824  17.834  1.00  0.00     0.000 C 
BRANCH   5   6
ATOM      6  C   UNL     1     -24.916  13.916  16.805  1.00  0.00     0.000 C 
BRANCH   6   7
ATOM      7  C   UNL     1     -24.006  15.008  17.396  1.00  0.00     0.000 C 
BRANCH   7   8
ATOM      8  C   UNL     1     -23.592  16.082  16.371  1.00  0.00     0.000 C 
BRANCH   8   9
ATOM      9  C   UNL     1     -22.876  17.280  17.021  1.00  0.00     0.000 C 
BRANCH   9  10
ATOM     10  C   UNL     1     -21.788  16.847  18.021  1.00  0.00     0.000 C 
BRANCH  10  11
ATOM     11  C   UNL     1     -20.342  17.037  17.523  1.00  0.00     0.000 C 
BRANCH  11  12
ATOM     12  C   UNL     1     -20.137  18.219  16.557  1.00  0.00     0.000 C 
BRANCH  12  13
ATOM     13  C   UNL     1     -19.979  17.829  15.075  1.00  0.00     0.006 C 
BRANCH  13  14
ATOM     14  C   UNL     1     -18.511  17.715  14.642  1.00  0.00     0.053 C 
BRANCH  14  15
ATOM     15  C   UNL     1     -18.416  17.503  13.164  1.00  0.00     0.041 C 
ATOM     16  O   UNL     1     -18.742  16.397  12.658  1.00  0.00    -0.550 OA
ATOM     17  O   UNL     1     -17.941  18.520  12.345  1.00  0.00    -0.550 OA
ENDBRANCH  14  15
ENDBRANCH  13  14
ENDBRANCH  12  13
ENDBRANCH  11  12
ENDBRANCH  10  11
ENDBRANCH   9  10
ENDBRANCH   8   9
ENDBRANCH   7   8
ENDBRANCH   6   7
ENDBRANCH   5   6
ENDBRANCH   4   5
ENDBRANCH   3   4
ENDBRANCH   2   3
ENDBRANCH   1   2
BRANCH   1  18
ATOM     18  C   UNL     1     -21.138   9.033  16.972  1.00  0.00     0.000 C 
BRANCH  18  19
ATOM     19  C   UNL     1     -20.071   9.637  17.905  1.00  0.00     0.000 C 
BRANCH  19  20
ATOM     20  C   UNL     1     -19.403  10.892  17.313  1.00  0.00     0.000 C 
BRANCH  20  21
ATOM     21  C   UNL     1     -19.360  12.116  18.251  1.00  0.00     0.000 C 
BRANCH  21  22
ATOM     22  C   UNL     1     -19.233  13.480  17.549  1.00  0.00     0.000 C 
BRANCH  22  23
ATOM     23  C   UNL     1     -18.391  13.416  16.261  1.00  0.00     0.000 C 
BRANCH  23  24
ATOM     24  C   UNL     1     -19.184  13.883  15.029  1.00  0.00    -0.000 C 
BRANCH  24  25
ATOM     25  C   UNL     1     -20.636  14.252  15.382  1.00  0.00    -0.000 C 
BRANCH  25  26
ATOM     26  C   UNL     1     -21.662  13.493  14.525  1.00  0.00    -0.000 C 
BRANCH  26  27
ATOM     27  C   UNL     1     -21.929  12.043  14.990  1.00  0.00    -0.000 C 
BRANCH  27  28
ATOM     28  C   UNL     1     -22.410  11.095  13.869  1.00  0.00    -0.000 C 
BRANCH  28  29
ATOM     29  C   UNL     1     -21.335  10.084  13.428  1.00  0.00    -0.000 C 
BRANCH  29  30
ATOM     30  C   UNL     1     -20.001  10.761  13.077  1.00  0.00    -0.000 C 
BRANCH  30  31
ATOM     31  C   UNL     1     -18.835  10.230  13.923  1.00  0.00    -0.003 C 
ATOM     32  C   UNL     1     -17.525  10.910  13.537  1.00  0.00     0.004 C 
ENDBRANCH  30  31
ENDBRANCH  29  30
ENDBRANCH  28  29
ENDBRANCH  27  28
ENDBRANCH  26  27
ENDBRANCH  25  26
ENDBRANCH  24  25
ENDBRANCH  23  24
ENDBRANCH  22  23
ENDBRANCH  21  22
ENDBRANCH  20  21
ENDBRANCH  19  20
ENDBRANCH  18  19
ENDBRANCH   1  18
TORSDOF 28
ENDMDL
MODEL 4
REMARK VINA RESULT:    -4.038      4.989      7.943
REMARK INTER + INTRA:         -16.346
REMARK INTER:                 -11.310
REMARK INTRA:                  -5.036
REMARK UNBOUND:                -5.698
REMARK SMILES CCCCCCCCCCCCCCCCCCCCCCCCCCCCCC(=O)[O-]
REMARK SMILES IDX 16 1 17 2 18 3 19 4 20 5 21 6 22 7 23 8 24 9 25 10 26 11
REMARK SMILES IDX 27 12 28 13 29 14 30 15 31 16 32 17 15 18 14 19 13 20 12 21
REMARK SMILES IDX 11 22 10 23 9 24 8 25 7 26 6 27 5 28 4 29 3 30 2 31 1 32
REMARK H PARENT
REMARK Flexibility Score: inf
ROOT
ATOM      1  C   UNL     1     -19.199  13.550  17.577  1.00  0.00     0.000 C 
ENDROOT
BRANCH   1   2
ATOM      2  C   UNL     1     -18.659  12.511  18.575  1.00  0.00     0.000 C 
BRANCH   2   3
ATOM      3  C   UNL     1     -19.757  11.568  19.103  1.00  0.00     0.000 C 
BRANCH   3   4
ATOM      4  C   UNL     1     -19.984  10.307  18.242  1.00  0.00     0.000 C 
BRANCH   4   5
ATOM      5  C   UNL     1     -21.452  10.089  17.829  1.00  0.00     0.000 C 
BRANCH   5   6
ATOM      6  C   UNL     1     -22.446  10.722  18.823  1.00  0.00     0.000 C 
BRANCH   6   7
ATOM      7  C   UNL     1     -23.403  11.719  18.143  1.00  0.00     0.000 C 
BRANCH   7   8
ATOM      8  C   UNL     1     -22.738  12.538  17.020  1.00  0.00     0.000 C 
BRANCH   8   9
ATOM      9  C   UNL     1     -23.641  13.669  16.495  1.00  0.00     0.000 C 
BRANCH   9  10
ATOM     10  C   UNL     1     -23.743  14.849  17.479  1.00  0.00     0.000 C 
BRANCH  10  11
ATOM     11  C   UNL     1     -23.038  16.138  17.016  1.00  0.00     0.000 C 
BRANCH  11  12
ATOM     12  C   UNL     1     -21.530  16.202  17.324  1.00  0.00     0.000 C 
BRANCH  12  13
ATOM     13  C   UNL     1     -20.882  17.585  17.120  1.00  0.00     0.006 C 
BRANCH  13  14
ATOM     14  C   UNL     1     -20.531  18.280  18.442  1.00  0.00     0.053 C 
BRANCH  14  15
ATOM     15  C   UNL     1     -21.751  18.892  19.053  1.00  0.00     0.041 C 
ATOM     16  O   UNL     1     -22.509  19.623  18.363  1.00  0.00    -0.550 OA
ATOM     17  O   UNL     1     -22.039  18.677  20.396  1.00  0.00    -0.550 OA
ENDBRANCH  14  15
ENDBRANCH  13  14
ENDBRANCH  12  13
ENDBRANCH  11  12
ENDBRANCH  10  11
ENDBRANCH   9  10
ENDBRANCH   8   9
ENDBRANCH   7   8
ENDBRANCH   6   7
ENDBRANCH   5   6
ENDBRANCH   4   5
ENDBRANCH   3   4
ENDBRANCH   2   3
ENDBRANCH   1   2
BRANCH   1  18
ATOM     18  C   UNL     1     -19.319  12.993  16.147  1.00  0.00     0.000 C 
BRANCH  18  19
ATOM     19  C   UNL     1     -17.958  12.903  15.431  1.00  0.00     0.000 C 
BRANCH  19  20
ATOM     20  C   UNL     1     -17.921  11.801  14.357  1.00  0.00     0.000 C 
BRANCH  20  21
ATOM     21  C   UNL     1     -18.754  10.543  14.677  1.00  0.00     0.000 C 
BRANCH  21  22
ATOM     22  C   UNL     1     -19.635  10.026  13.526  1.00  0.00     0.000 C 
BRANCH  22  23
ATOM     23  C   UNL     1     -20.212  11.158  12.656  1.00  0.00     0.000 C 
BRANCH  23  24
ATOM     24  C   UNL     1     -21.364  11.897  13.358  1.00  0.00    -0.000 C 
BRANCH  24  25
ATOM     25  C   UNL     1     -22.276  12.628  12.356  1.00  0.00    -0.000 C 
BRANCH  25  26
ATOM     26  C   UNL     1     -21.910  14.113  12.202  1.00  0.00    -0.000 C 
BRANCH  26  27
ATOM     27  C   UNL     1     -22.202  14.972  13.453  1.00  0.00    -0.000 C 
BRANCH  27  28
ATOM     28  C   UNL     1     -21.163  16.085  13.716  1.00  0.00    -0.000 C 
BRANCH  28  29
ATOM     29  C   UNL     1     -19.732  15.547  13.904  1.00  0.00    -0.000 C 
BRANCH  29  30
ATOM     30  C   UNL     1     -18.662  16.609  13.607  1.00  0.00    -0.000 C 
BRANCH  30  31
ATOM     31  C   UNL     1     -19.273  17.970  13.245  1.00  0.00    -0.003 C 
ATOM     32  C   UNL     1     -18.281  18.825  12.463  1.00  0.00     0.004 C 
ENDBRANCH  30  31
ENDBRANCH  29  30
ENDBRANCH  28  29
ENDBRANCH  27  28
ENDBRANCH  26  27
ENDBRANCH  25  26
ENDBRANCH  24  25
ENDBRANCH  23  24
ENDBRANCH  22  23
ENDBRANCH  21  22
ENDBRANCH  20  21
ENDBRANCH  19  20
ENDBRANCH  18  19
ENDBRANCH   1  18
TORSDOF 28
ENDMDL
MODEL 5
REMARK VINA RESULT:    -4.033      2.639      7.848
REMARK INTER + INTRA:         -16.333
REMARK INTER:                 -10.616
REMARK INTRA:                  -5.717
REMARK UNBOUND:                -5.698
REMARK SMILES CCCCCCCCCCCCCCCCCCCCCCCCCCCCCC(=O)[O-]
REMARK SMILES IDX 16 1 17 2 18 3 19 4 20 5 21 6 22 7 23 8 24 9 25 10 26 11
REMARK SMILES IDX 27 12 28 13 29 14 30 15 31 16 32 17 15 18 14 19 13 20 12 21
REMARK SMILES IDX 11 22 10 23 9 24 8 25 7 26 6 27 5 28 4 29 3 30 2 31 1 32
REMARK H PARENT
REMARK Flexibility Score: inf
ROOT
ATOM      1  C   UNL     1     -21.441   8.513  15.659  1.00  0.00     0.000 C 
ENDROOT
BRANCH   1   2
ATOM      2  C   UNL     1     -19.994   8.997  15.461  1.00  0.00     0.000 C 
BRANCH   2   3
ATOM      3  C   UNL     1     -19.287   9.314  16.792  1.00  0.00     0.000 C 
BRANCH   3   4
ATOM      4  C   UNL     1     -20.240   9.503  17.993  1.00  0.00     0.000 C 
BRANCH   4   5
ATOM      5  C   UNL     1     -20.164  10.899  18.636  1.00  0.00     0.000 C 
BRANCH   5   6
ATOM      6  C   UNL     1     -20.235  12.035  17.596  1.00  0.00     0.000 C 
BRANCH   6   7
ATOM      7  C   UNL     1     -19.029  12.989  17.683  1.00  0.00     0.000 C 
BRANCH   7   8
ATOM      8  C   UNL     1     -18.566  13.518  16.312  1.00  0.00     0.000 C 
BRANCH   8   9
ATOM      9  C   UNL     1     -18.795  12.506  15.175  1.00  0.00     0.000 C 
BRANCH   9  10
ATOM     10  C   UNL     1     -17.506  12.193  14.393  1.00  0.00     0.000 C 
BRANCH  10  11
ATOM     11  C   UNL     1     -17.448  10.778  13.786  1.00  0.00     0.000 C 
BRANCH  11  12
ATOM     12  C   UNL     1     -18.017  10.657  12.359  1.00  0.00     0.000 C 
BRANCH  12  13
ATOM     13  C   UNL     1     -19.548  10.510  12.279  1.00  0.00     0.006 C 
BRANCH  13  14
ATOM     14  C   UNL     1     -20.008   9.729  11.041  1.00  0.00     0.053 C 
BRANCH  14  15
ATOM     15  C   UNL     1     -21.035   8.709  11.417  1.00  0.00     0.041 C 
ATOM     16  O   UNL     1     -20.702   7.680  12.061  1.00  0.00    -0.550 OA
ATOM     17  O   UNL     1     -22.359   8.881  11.032  1.00  0.00    -0.550 OA
ENDBRANCH  14  15
ENDBRANCH  13  14
ENDBRANCH  12  13
ENDBRANCH  11  12
ENDBRANCH  10  11
ENDBRANCH   9  10
ENDBRANCH   8   9
ENDBRANCH   7   8
ENDBRANCH   6   7
ENDBRANCH   5   6
ENDBRANCH   4   5
ENDBRANCH   3   4
ENDBRANCH   2   3
ENDBRANCH   1   2
BRANCH   1  18
ATOM     18  C   UNL     1     -22.456   9.320  14.830  1.00  0.00     0.000 C 
BRANCH  18  19
ATOM     19  C   UNL     1     -22.067  10.806  14.701  1.00  0.00     0.000 C 
BRANCH  19  20
ATOM     20  C   UNL     1     -23.113  11.752  15.318  1.00  0.00     0.000 C 
BRANCH  20  21
ATOM     21  C   UNL     1     -24.152  11.074  16.234  1.00  0.00     0.000 C 
BRANCH  21  22
ATOM     22  C   UNL     1     -23.841  11.135  17.740  1.00  0.00     0.000 C 
BRANCH  22  23
ATOM     23  C   UNL     1     -23.747   9.742  18.391  1.00  0.00     0.000 C 
BRANCH  23  24
ATOM     24  C   UNL     1     -24.613   8.703  17.658  1.00  0.00    -0.000 C 
BRANCH  24  25
ATOM     25  C   UNL     1     -24.596   7.336  18.366  1.00  0.00    -0.000 C 
BRANCH  25  26
ATOM     26  C   UNL     1     -23.213   6.984  18.936  1.00  0.00    -0.000 C 
BRANCH  26  27
ATOM     27  C   UNL     1     -22.406   5.988  18.074  1.00  0.00    -0.000 C 
BRANCH  27  28
ATOM     28  C   UNL     1     -20.896   5.947  18.395  1.00  0.00    -0.000 C 
BRANCH  28  29
ATOM     29  C   UNL     1     -20.557   5.055  19.605  1.00  0.00    -0.000 C 
BRANCH  29  30
ATOM     30  C   UNL     1     -19.302   5.531  20.352  1.00  0.00    -0.000 C 
BRANCH  30  31
ATOM     31  C   UNL     1     -18.048   5.502  19.468  1.00  0.00    -0.003 C 
ATOM     32  C   UNL     1     -17.616   6.914  19.083  1.00  0.00     0.004 C 
ENDBRANCH  30  31
ENDBRANCH  29  30
ENDBRANCH  28  29
ENDBRANCH  27  28
ENDBRANCH  26  27
ENDBRANCH  25  26
ENDBRANCH  24  25
ENDBRANCH  23  24
ENDBRANCH  22  23
ENDBRANCH  21  22
ENDBRANCH  20  21
ENDBRANCH  19  20
ENDBRANCH  18  19
ENDBRANCH   1  18
TORSDOF 28
ENDMDL
MODEL 6
REMARK VINA RESULT:    -4.020      1.229      2.101
REMARK INTER + INTRA:         -16.297
REMARK INTER:                 -11.261
REMARK INTRA:                  -5.037
REMARK UNBOUND:                -5.698
REMARK SMILES CCCCCCCCCCCCCCCCCCCCCCCCCCCCCC(=O)[O-]
REMARK SMILES IDX 16 1 17 2 18 3 19 4 20 5 21 6 22 7 23 8 24 9 25 10 26 11
REMARK SMILES IDX 27 12 28 13 29 14 30 15 31 16 32 17 15 18 14 19 13 20 12 21
REMARK SMILES IDX 11 22 10 23 9 24 8 25 7 26 6 27 5 28 4 29 3 30 2 31 1 32
REMARK H PARENT
REMARK Flexibility Score: inf
ROOT
ATOM      1  C   UNL     1     -20.707  10.815  18.745  1.00  0.00     0.000 C 
ENDROOT
BRANCH   1   2
ATOM      2  C   UNL     1     -19.749   9.993  17.866  1.00  0.00     0.000 C 
BRANCH   2   3
ATOM      3  C   UNL     1     -19.903   8.475  18.080  1.00  0.00     0.000 C 
BRANCH   3   4
ATOM      4  C   UNL     1     -20.375   7.698  16.831  1.00  0.00     0.000 C 
BRANCH   4   5
ATOM      5  C   UNL     1     -21.771   7.066  16.980  1.00  0.00     0.000 C 
BRANCH   5   6
ATOM      6  C   UNL     1     -22.290   7.112  18.430  1.00  0.00     0.000 C 
BRANCH   6   7
ATOM      7  C   UNL     1     -22.780   5.739  18.925  1.00  0.00     0.000 C 
BRANCH   7   8
ATOM      8  C   UNL     1     -22.387   4.576  17.993  1.00  0.00     0.000 C 
BRANCH   8   9
ATOM      9  C   UNL     1     -21.355   3.627  18.628  1.00  0.00     0.000 C 
BRANCH   9  10
ATOM     10  C   UNL     1     -20.926   4.078  20.037  1.00  0.00     0.000 C 
BRANCH  10  11
ATOM     11  C   UNL     1     -19.413   4.316  20.206  1.00  0.00     0.000 C 
BRANCH  11  12
ATOM     12  C   UNL     1     -18.984   5.795  20.217  1.00  0.00     0.000 C 
BRANCH  12  13
ATOM     13  C   UNL     1     -17.652   6.092  19.502  1.00  0.00     0.006 C 
BRANCH  13  14
ATOM     14  C   UNL     1     -16.541   5.102  19.878  1.00  0.00     0.053 C 
BRANCH  14  15
ATOM     15  C   UNL     1     -15.997   4.436  18.654  1.00  0.00     0.041 C 
ATOM     16  O   UNL     1     -15.780   3.196  18.649  1.00  0.00    -0.550 OA
ATOM     17  O   UNL     1     -15.701   5.190  17.525  1.00  0.00    -0.550 OA
ENDBRANCH  14  15
ENDBRANCH  13  14
ENDBRANCH  12  13
ENDBRANCH  11  12
ENDBRANCH  10  11
ENDBRANCH   9  10
ENDBRANCH   8   9
ENDBRANCH   7   8
ENDBRANCH   6   7
ENDBRANCH   5   6
ENDBRANCH   4   5
ENDBRANCH   3   4
ENDBRANCH   2   3
ENDBRANCH   1   2
BRANCH   1  18
ATOM     18  C   UNL     1     -22.137  10.864  18.181  1.00  0.00     0.000 C 
BRANCH  18  19
ATOM     19  C   UNL     1     -22.191  11.440  16.752  1.00  0.00     0.000 C 
BRANCH  19  20
ATOM     20  C   UNL     1     -22.946  10.527  15.769  1.00  0.00     0.000 C 
BRANCH  20  21
ATOM     21  C   UNL     1     -22.102   9.981  14.600  1.00  0.00     0.000 C 
BRANCH  21  22
ATOM     22  C   UNL     1     -20.903  10.855  14.189  1.00  0.00     0.000 C 
BRANCH  22  23
ATOM     23  C   UNL     1     -19.571  10.084  14.188  1.00  0.00     0.000 C 
BRANCH  23  24
ATOM     24  C   UNL     1     -18.375  10.995  14.515  1.00  0.00    -0.000 C 
BRANCH  24  25
ATOM     25  C   UNL     1     -18.601  12.439  14.032  1.00  0.00    -0.000 C 
BRANCH  25  26
ATOM     26  C   UNL     1     -18.359  13.476  15.139  1.00  0.00    -0.000 C 
BRANCH  26  27
ATOM     27  C   UNL     1     -18.790  13.012  16.549  1.00  0.00    -0.000 C 
BRANCH  27  28
ATOM     28  C   UNL     1     -19.390  14.130  17.430  1.00  0.00    -0.000 C 
BRANCH  28  29
ATOM     29  C   UNL     1     -20.566  14.866  16.760  1.00  0.00    -0.000 C 
BRANCH  29  30
ATOM     30  C   UNL     1     -20.273  16.358  16.536  1.00  0.00    -0.000 C 
BRANCH  30  31
ATOM     31  C   UNL     1     -19.826  17.066  17.823  1.00  0.00    -0.003 C 
ATOM     32  C   UNL     1     -20.941  17.947  18.379  1.00  0.00     0.004 C 
ENDBRANCH  30  31
ENDBRANCH  29  30
ENDBRANCH  28  29
ENDBRANCH  27  28
ENDBRANCH  26  27
ENDBRANCH  25  26
ENDBRANCH  24  25
ENDBRANCH  23  24
ENDBRANCH  22  23
ENDBRANCH  21  22
ENDBRANCH  20  21
ENDBRANCH  19  20
ENDBRANCH  18  19
ENDBRANCH   1  18
TORSDOF 28
ENDMDL
MODEL 7
REMARK VINA RESULT:    -3.943      1.591      3.993
REMARK INTER + INTRA:         -16.096
REMARK INTER:                 -10.433
REMARK INTRA:                  -5.664
REMARK UNBOUND:                -5.698
REMARK SMILES CCCCCCCCCCCCCCCCCCCCCCCCCCCCCC(=O)[O-]
REMARK SMILES IDX 16 1 17 2 18 3 19 4 20 5 21 6 22 7 23 8 24 9 25 10 26 11
REMARK SMILES IDX 27 12 28 13 29 14 30 15 31 16 32 17 15 18 14 19 13 20 12 21
REMARK SMILES IDX 11 22 10 23 9 24 8 25 7 26 6 27 5 28 4 29 3 30 2 31 1 32
REMARK H PARENT
REMARK Flexibility Score: inf
ROOT
ATOM      1  C   UNL     1     -20.167  10.373  12.022  1.00  0.00     0.000 C 
ENDROOT
BRANCH   1   2
ATOM      2  C   UNL     1     -20.569   8.935  11.653  1.00  0.00     0.000 C 
BRANCH   2   3
ATOM      3  C   UNL     1     -21.891   8.500  12.313  1.00  0.00     0.000 C 
BRANCH   3   4
ATOM      4  C   UNL     1     -22.045   8.940  13.785  1.00  0.00     0.000 C 
BRANCH   4   5
ATOM      5  C   UNL     1     -22.423   7.795  14.743  1.00  0.00     0.000 C 
BRANCH   5   6
ATOM      6  C   UNL     1     -21.194   7.013  15.246  1.00  0.00     0.000 C 
BRANCH   6   7
ATOM      7  C   UNL     1     -21.311   6.623  16.731  1.00  0.00     0.000 C 
BRANCH   7   8
ATOM      8  C   UNL     1     -22.757   6.323  17.174  1.00  0.00     0.000 C 
BRANCH   8   9
ATOM      9  C   UNL     1     -22.867   5.037  18.012  1.00  0.00     0.000 C 
BRANCH   9  10
ATOM     10  C   UNL     1     -22.722   5.301  19.522  1.00  0.00     0.000 C 
BRANCH  10  11
ATOM     11  C   UNL     1     -21.799   4.315  20.263  1.00  0.00     0.000 C 
BRANCH  11  12
ATOM     12  C   UNL     1     -20.354   4.250  19.732  1.00  0.00     0.000 C 
BRANCH  12  13
ATOM     13  C   UNL     1     -19.399   5.311  20.311  1.00  0.00     0.006 C 
BRANCH  13  14
ATOM     14  C   UNL     1     -18.853   6.268  19.243  1.00  0.00     0.053 C 
BRANCH  14  15
ATOM     15  C   UNL     1     -17.361   6.336  19.314  1.00  0.00     0.041 C 
ATOM     16  O   UNL     1     -16.715   7.022  18.479  1.00  0.00    -0.550 OA
ATOM     17  O   UNL     1     -16.678   5.620  20.290  1.00  0.00    -0.550 OA
ENDBRANCH  14  15
ENDBRANCH  13  14
ENDBRANCH  12  13
ENDBRANCH  11  12
ENDBRANCH  10  11
ENDBRANCH   9  10
ENDBRANCH   8   9
ENDBRANCH   7   8
ENDBRANCH   6   7
ENDBRANCH   5   6
ENDBRANCH   4   5
ENDBRANCH   3   4
ENDBRANCH   2   3
ENDBRANCH   1   2
BRANCH   1  18
ATOM     18  C   UNL     1     -18.662  10.514  12.313  1.00  0.00     0.000 C 
BRANCH  18  19
ATOM     19  C   UNL     1     -18.381  11.085  13.716  1.00  0.00     0.000 C 
BRANCH  19  20
ATOM     20  C   UNL     1     -18.381  10.003  14.811  1.00  0.00     0.000 C 
BRANCH  20  21
ATOM     21  C   UNL     1     -19.312  10.282  16.009  1.00  0.00     0.000 C 
BRANCH  21  22
ATOM     22  C   UNL     1     -19.109   9.364  17.228  1.00  0.00     0.000 C 
BRANCH  22  23
ATOM     23  C   UNL     1     -19.642   9.977  18.536  1.00  0.00     0.000 C 
BRANCH  23  24
ATOM     24  C   UNL     1     -20.925  10.795  18.311  1.00  0.00    -0.000 C 
BRANCH  24  25
ATOM     25  C   UNL     1     -22.177   9.900  18.254  1.00  0.00    -0.000 C 
BRANCH  25  26
ATOM     26  C   UNL     1     -23.193  10.374  17.203  1.00  0.00    -0.000 C 
BRANCH  26  27
ATOM     27  C   UNL     1     -23.105  11.881  16.868  1.00  0.00    -0.000 C 
BRANCH  27  28
ATOM     28  C   UNL     1     -22.975  12.191  15.361  1.00  0.00    -0.000 C 
BRANCH  28  29
ATOM     29  C   UNL     1     -21.560  12.644  14.955  1.00  0.00    -0.000 C 
BRANCH  29  30
ATOM     30  C   UNL     1     -21.132  13.938  15.666  1.00  0.00    -0.000 C 
BRANCH  30  31
ATOM     31  C   UNL     1     -19.609  14.039  15.829  1.00  0.00    -0.003 C 
ATOM     32  C   UNL     1     -19.186  13.684  17.251  1.00  0.00     0.004 C 
ENDBRANCH  30  31
ENDBRANCH  29  30
ENDBRANCH  28  29
ENDBRANCH  27  28
ENDBRANCH  26  27
ENDBRANCH  25  26
ENDBRANCH  24  25
ENDBRANCH  23  24
ENDBRANCH  22  23
ENDBRANCH  21  22
ENDBRANCH  20  21
ENDBRANCH  19  20
ENDBRANCH  18  19
ENDBRANCH   1  18
TORSDOF 28
ENDMDL
MODEL 8
REMARK VINA RESULT:    -3.919      4.735      8.618
REMARK INTER + INTRA:         -16.031
REMARK INTER:                  -9.764
REMARK INTRA:                  -6.267
REMARK UNBOUND:                -5.698
REMARK SMILES CCCCCCCCCCCCCCCCCCCCCCCCCCCCCC(=O)[O-]
REMARK SMILES IDX 16 1 17 2 18 3 19 4 20 5 21 6 22 7 23 8 24 9 25 10 26 11
REMARK SMILES IDX 27 12 28 13 29 14 30 15 31 16 32 17 15 18 14 19 13 20 12 21
REMARK SMILES IDX 11 22 10 23 9 24 8 25 7 26 6 27 5 28 4 29 3 30 2 31 1 32
REMARK H PARENT
REMARK Flexibility Score: inf
ROOT
ATOM      1  C   UNL     1     -20.584  11.790  12.922  1.00  0.00     0.000 C 
ENDROOT
BRANCH   1   2
ATOM      2  C   UNL     1     -22.025  11.398  13.288  1.00  0.00     0.000 C 
BRANCH   2   3
ATOM      3  C   UNL     1     -22.282  11.432  14.807  1.00  0.00     0.000 C 
BRANCH   3   4
ATOM      4  C   UNL     1     -23.537  10.654  15.260  1.00  0.00     0.000 C 
BRANCH   4   5
ATOM      5  C   UNL     1     -23.715  10.593  16.788  1.00  0.00     0.000 C 
BRANCH   5   6
ATOM      6  C   UNL     1     -23.258  11.887  17.490  1.00  0.00     0.000 C 
BRANCH   6   7
ATOM      7  C   UNL     1     -24.400  12.908  17.643  1.00  0.00     0.000 C 
BRANCH   7   8
ATOM      8  C   UNL     1     -23.944  14.369  17.465  1.00  0.00     0.000 C 
BRANCH   8   9
ATOM      9  C   UNL     1     -22.510  14.482  16.915  1.00  0.00     0.000 C 
BRANCH   9  10
ATOM     10  C   UNL     1     -22.470  15.040  15.481  1.00  0.00     0.000 C 
BRANCH  10  11
ATOM     11  C   UNL     1     -21.137  15.704  15.085  1.00  0.00     0.000 C 
BRANCH  11  12
ATOM     12  C   UNL     1     -20.646  15.381  13.661  1.00  0.00     0.000 C 
BRANCH  12  13
ATOM     13  C   UNL     1     -19.754  16.461  13.019  1.00  0.00     0.006 C 
BRANCH  13  14
ATOM     14  C   UNL     1     -19.836  17.810  13.746  1.00  0.00     0.053 C 
BRANCH  14  15
ATOM     15  C   UNL     1     -18.546  18.555  13.614  1.00  0.00     0.041 C 
ATOM     16  O   UNL     1     -17.776  18.327  12.644  1.00  0.00    -0.550 OA
ATOM     17  O   UNL     1     -18.178  19.486  14.578  1.00  0.00    -0.550 OA
ENDBRANCH  14  15
ENDBRANCH  13  14
ENDBRANCH  12  13
ENDBRANCH  11  12
ENDBRANCH  10  11
ENDBRANCH   9  10
ENDBRANCH   8   9
ENDBRANCH   7   8
ENDBRANCH   6   7
ENDBRANCH   5   6
ENDBRANCH   4   5
ENDBRANCH   3   4
ENDBRANCH   2   3
ENDBRANCH   1   2
BRANCH   1  18
ATOM     18  C   UNL     1     -19.707  10.575  12.574  1.00  0.00     0.000 C 
BRANCH  18  19
ATOM     19  C   UNL     1     -18.235  10.770  12.983  1.00  0.00     0.000 C 
BRANCH  19  20
ATOM     20  C   UNL     1     -18.076  11.208  14.450  1.00  0.00     0.000 C 
BRANCH  20  21
ATOM     21  C   UNL     1     -17.507  12.628  14.653  1.00  0.00     0.000 C 
BRANCH  21  22
ATOM     22  C   UNL     1     -18.192  13.461  15.751  1.00  0.00     0.000 C 
BRANCH  22  23
ATOM     23  C   UNL     1     -19.349  12.713  16.438  1.00  0.00     0.000 C 
BRANCH  23  24
ATOM     24  C   UNL     1     -19.207  12.709  17.970  1.00  0.00    -0.000 C 
BRANCH  24  25
ATOM     25  C   UNL     1     -19.883  11.483  18.609  1.00  0.00    -0.000 C 
BRANCH  25  26
ATOM     26  C   UNL     1     -19.375  10.157  18.023  1.00  0.00    -0.000 C 
BRANCH  26  27
ATOM     27  C   UNL     1     -20.467   9.306  17.337  1.00  0.00    -0.000 C 
BRANCH  27  28
ATOM     28  C   UNL     1     -20.032   8.673  15.997  1.00  0.00    -0.000 C 
BRANCH  28  29
ATOM     29  C   UNL     1     -21.100   7.742  15.391  1.00  0.00    -0.000 C 
BRANCH  29  30
ATOM     30  C   UNL     1     -20.957   7.599  13.867  1.00  0.00    -0.000 C 
BRANCH  30  31
ATOM     31  C   UNL     1     -22.300   7.739  13.138  1.00  0.00    -0.003 C 
ATOM     32  C   UNL     1     -22.097   7.813  11.627  1.00  0.00     0.004 C 
ENDBRANCH  30  31
ENDBRANCH  29  30
ENDBRANCH  28  29
ENDBRANCH  27  28
ENDBRANCH  26  27
ENDBRANCH  25  26
ENDBRANCH  24  25
ENDBRANCH  23  24
ENDBRANCH  22  23
ENDBRANCH  21  22
ENDBRANCH  20  21
ENDBRANCH  19  20
ENDBRANCH  18  19
ENDBRANCH   1  18
TORSDOF 28
ENDMDL
MODEL 9
REMARK VINA RESULT:    -3.905      1.288      3.224
REMARK INTER + INTRA:         -15.996
REMARK INTER:                 -10.629
REMARK INTRA:                  -5.367
REMARK UNBOUND:                -5.698
REMARK SMILES CCCCCCCCCCCCCCCCCCCCCCCCCCCCCC(=O)[O-]
REMARK SMILES IDX 16 1 17 2 18 3 19 4 20 5 21 6 22 7 23 8 24 9 25 10 26 11
REMARK SMILES IDX 27 12 28 13 29 14 30 15 31 16 32 17 15 18 14 19 13 20 12 21
REMARK SMILES IDX 11 22 10 23 9 24 8 25 7 26 6 27 5 28 4 29 3 30 2 31 1 32
REMARK H PARENT
REMARK Flexibility Score: inf
ROOT
ATOM      1  C   UNL     1     -22.965  11.087  17.772  1.00  0.00     0.000 C 
ENDROOT
BRANCH   1   2
ATOM      2  C   UNL     1     -21.978  10.593  18.843  1.00  0.00     0.000 C 
BRANCH   2   3
ATOM      3  C   UNL     1     -20.549  11.127  18.626  1.00  0.00     0.000 C 
BRANCH   3   4
ATOM      4  C   UNL     1     -19.523  10.053  18.204  1.00  0.00     0.000 C 
BRANCH   4   5
ATOM      5  C   UNL     1     -20.029   8.608  18.367  1.00  0.00     0.000 C 
BRANCH   5   6
ATOM      6  C   UNL     1     -20.251   7.902  17.015  1.00  0.00     0.000 C 
BRANCH   6   7
ATOM      7  C   UNL     1     -21.320   6.797  17.096  1.00  0.00     0.000 C 
BRANCH   7   8
ATOM      8  C   UNL     1     -22.186   6.873  18.369  1.00  0.00     0.000 C 
BRANCH   8   9
ATOM      9  C   UNL     1     -23.375   5.896  18.339  1.00  0.00     0.000 C 
BRANCH   9  10
ATOM     10  C   UNL     1     -23.530   5.113  19.655  1.00  0.00     0.000 C 
BRANCH  10  11
ATOM     11  C   UNL     1     -22.204   4.754  20.352  1.00  0.00     0.000 C 
BRANCH  11  12
ATOM     12  C   UNL     1     -21.409   3.611  19.691  1.00  0.00     0.000 C 
BRANCH  12  13
ATOM     13  C   UNL     1     -19.878   3.721  19.826  1.00  0.00     0.006 C 
BRANCH  13  14
ATOM     14  C   UNL     1     -19.416   5.121  20.252  1.00  0.00     0.053 C 
BRANCH  14  15
ATOM     15  C   UNL     1     -18.280   5.581  19.395  1.00  0.00     0.041 C 
ATOM     16  O   UNL     1     -17.380   6.319  19.874  1.00  0.00    -0.550 OA
ATOM     17  O   UNL     1     -18.228   5.216  18.055  1.00  0.00    -0.550 OA
ENDBRANCH  14  15
ENDBRANCH  13  14
ENDBRANCH  12  13
ENDBRANCH  11  12
ENDBRANCH  10  11
ENDBRANCH   9  10
ENDBRANCH   8   9
ENDBRANCH   7   8
ENDBRANCH   6   7
ENDBRANCH   5   6
ENDBRANCH   4   5
ENDBRANCH   3   4
ENDBRANCH   2   3
ENDBRANCH   1   2
BRANCH   1  18
ATOM     18  C   UNL     1     -23.397   9.972  16.803  1.00  0.00     0.000 C 
BRANCH  18  19
ATOM     19  C   UNL     1     -22.993  10.265  15.346  1.00  0.00     0.000 C 
BRANCH  19  20
ATOM     20  C   UNL     1     -21.605  10.922  15.231  1.00  0.00     0.000 C 
BRANCH  20  21
ATOM     21  C   UNL     1     -20.769  10.481  14.012  1.00  0.00     0.000 C 
BRANCH  21  22
ATOM     22  C   UNL     1     -19.292  10.163  14.307  1.00  0.00     0.000 C 
BRANCH  22  23
ATOM     23  C   UNL     1     -18.557  11.320  15.008  1.00  0.00     0.000 C 
BRANCH  23  24
ATOM     24  C   UNL     1     -18.520  12.590  14.142  1.00  0.00    -0.000 C 
BRANCH  24  25
ATOM     25  C   UNL     1     -18.541  13.871  14.995  1.00  0.00    -0.000 C 
BRANCH  25  26
ATOM     26  C   UNL     1     -19.124  13.636  16.397  1.00  0.00    -0.000 C 
BRANCH  26  27
ATOM     27  C   UNL     1     -20.616  14.011  16.537  1.00  0.00    -0.000 C 
BRANCH  27  28
ATOM     28  C   UNL     1     -20.902  15.527  16.447  1.00  0.00    -0.000 C 
BRANCH  28  29
ATOM     29  C   UNL     1     -20.120  16.354  17.485  1.00  0.00    -0.000 C 
BRANCH  29  30
ATOM     30  C   UNL     1     -19.500  17.623  16.877  1.00  0.00    -0.000 C 
BRANCH  30  31
ATOM     31  C   UNL     1     -19.696  17.699  15.357  1.00  0.00    -0.003 C 
ATOM     32  C   UNL     1     -18.371  17.513  14.624  1.00  0.00     0.004 C 
ENDBRANCH  30  31
ENDBRANCH  29  30
ENDBRANCH  28  29
ENDBRANCH  27  28
ENDBRANCH  26  27
ENDBRANCH  25  26
ENDBRANCH  24  25
ENDBRANCH  23  24
ENDBRANCH  22  23
ENDBRANCH  21  22
ENDBRANCH  20  21
ENDBRANCH  19  20
ENDBRANCH  18  19
ENDBRANCH   1  18
TORSDOF 28
ENDMDL
