MODEL 1
REMARK VINA RESULT:    -3.225      0.000      0.000
REMARK INTER + INTRA:         -10.190
REMARK INTER:                  -6.995
REMARK INTRA:                  -3.195
REMARK UNBOUND:                -3.195
REMARK SMILES CCCCCCCCCCCCCCCCCCCCCC(=O)[O-]
REMARK SMILES IDX 12 1 11 2 10 3 9 4 8 5 7 6 6 7 5 8 4 9 3 10 2 11 1 12 13 13
REMARK SMILES IDX 14 14 15 15 16 16 17 17 18 18 19 19 20 20 21 21 22 22 23 23
REMARK SMILES IDX 24 24
REMARK H PARENT
REMARK Flexibility Score: inf
ROOT
ATOM      1  C   UNL     1       2.943  -2.334  -7.547  1.00  0.00     0.000 C 
ENDROOT
BRANCH   1   2
ATOM      2  C   UNL     1       2.383  -2.184  -6.121  1.00  0.00     0.000 C 
BRANCH   2   3
ATOM      3  C   UNL     1       3.269  -2.858  -5.062  1.00  0.00     0.000 C 
BRANCH   3   4
ATOM      4  C   UNL     1       3.113  -2.227  -3.671  1.00  0.00    -0.000 C 
BRANCH   4   5
ATOM      5  C   UNL     1       4.332  -1.363  -3.323  1.00  0.00    -0.000 C 
BRANCH   5   6
ATOM      6  C   UNL     1       5.575  -1.823  -4.099  1.00  0.00    -0.000 C 
BRANCH   6   7
ATOM      7  C   UNL     1       6.517  -0.660  -4.453  1.00  0.00    -0.000 C 
BRANCH   7   8
ATOM      8  C   UNL     1       5.813   0.707  -4.400  1.00  0.00    -0.000 C 
BRANCH   8   9
ATOM      9  C   UNL     1       6.691   1.853  -4.931  1.00  0.00    -0.000 C 
BRANCH   9  10
ATOM     10  C   UNL     1       7.434   1.556  -6.249  1.00  0.00    -0.000 C 
BRANCH  10  11
ATOM     11  C   UNL     1       7.832   2.797  -7.065  1.00  0.00    -0.003 C 
ATOM     12  C   UNL     1       6.628   3.564  -7.607  1.00  0.00     0.004 C 
ENDBRANCH  10  11
ENDBRANCH   9  10
ENDBRANCH   8   9
ENDBRANCH   7   8
ENDBRANCH   6   7
ENDBRANCH   5   6
ENDBRANCH   4   5
ENDBRANCH   3   4
ENDBRANCH   2   3
ENDBRANCH   1   2
BRANCH   1  13
ATOM     13  C   UNL     1       4.332  -1.699  -7.706  1.00  0.00     0.000 C 
BRANCH  13  14
ATOM     14  C   UNL     1       4.317  -0.176  -7.503  1.00  0.00     0.000 C 
BRANCH  14  15
ATOM     15  C   UNL     1       4.869   0.544  -8.740  1.00  0.00     0.000 C 
BRANCH  15  16
ATOM     16  C   UNL     1       3.735   1.146  -9.583  1.00  0.00     0.000 C 
BRANCH  16  17
ATOM     17  C   UNL     1       3.492   2.631  -9.270  1.00  0.00     0.000 C 
BRANCH  17  18
ATOM     18  C   UNL     1       2.008   3.022  -9.378  1.00  0.00     0.000 C 
BRANCH  18  19
ATOM     19  C   UNL     1       1.119   1.855  -9.836  1.00  0.00     0.000 C 
BRANCH  19  20
ATOM     20  C   UNL     1       0.039   1.496  -8.805  1.00  0.00     0.006 C 
BRANCH  20  21
ATOM     21  C   UNL     1       0.308   0.122  -8.184  1.00  0.00     0.053 C 
BRANCH  21  22
ATOM     22  C   UNL     1      -0.920  -0.400  -7.509  1.00  0.00     0.041 C 
ATOM     23  O   UNL     1      -2.014  -0.447  -8.132  1.00  0.00    -0.550 OA
ATOM     24  O   UNL     1      -0.870  -0.790  -6.177  1.00  0.00    -0.550 OA
ENDBRANCH  21  22
ENDBRANCH  20  21
ENDBRANCH  19  20
ENDBRANCH  18  19
ENDBRANCH  17  18
ENDBRANCH  16  17
ENDBRANCH  15  16
ENDBRANCH  14  15
ENDBRANCH  13  14
ENDBRANCH   1  13
TORSDOF 20
ENDMDL
MODEL 2
REMARK VINA RESULT:    -3.124      1.389      3.618
REMARK INTER + INTRA:          -9.972
REMARK INTER:                  -7.151
REMARK INTRA:                  -2.821
REMARK UNBOUND:                -3.195
REMARK SMILES CCCCCCCCCCCCCCCCCCCCCC(=O)[O-]
REMARK SMILES IDX 12 1 11 2 10 3 9 4 8 5 7 6 6 7 5 8 4 9 3 10 2 11 1 12 13 13
REMARK SMILES IDX 14 14 15 15 16 16 17 17 18 18 19 19 20 20 21 21 22 22 23 23
REMARK SMILES IDX 24 24
REMARK H PARENT
REMARK Flexibility Score: inf
ROOT
ATOM      1  C   UNL     1       5.474   1.822  -8.151  1.00  0.00     0.000 C 
ENDROOT
BRANCH   1   2
ATOM      2  C   UNL     1       5.453   0.368  -7.646  1.00  0.00     0.000 C 
BRANCH   2   3
ATOM      3  C   UNL     1       4.225  -0.412  -8.140  1.00  0.00     0.000 C 
BRANCH   3   4
ATOM      4  C   UNL     1       4.143  -1.825  -7.545  1.00  0.00    -0.000 C 
BRANCH   4   5
ATOM      5  C   UNL     1       3.007  -1.922  -6.519  1.00  0.00    -0.000 C 
BRANCH   5   6
ATOM      6  C   UNL     1       3.340  -2.941  -5.420  1.00  0.00    -0.000 C 
BRANCH   6   7
ATOM      7  C   UNL     1       3.030  -2.413  -4.009  1.00  0.00    -0.000 C 
BRANCH   7   8
ATOM      8  C   UNL     1       4.303  -2.090  -3.207  1.00  0.00    -0.000 C 
BRANCH   8   9
ATOM      9  C   UNL     1       4.873  -0.696  -3.527  1.00  0.00    -0.000 C 
BRANCH   9  10
ATOM     10  C   UNL     1       6.155  -0.692  -4.385  1.00  0.00    -0.000 C 
BRANCH  10  11
ATOM     11  C   UNL     1       7.020  -1.959  -4.267  1.00  0.00    -0.003 C 
ATOM     12  C   UNL     1       7.140  -2.721  -5.584  1.00  0.00     0.004 C 
ENDBRANCH  10  11
ENDBRANCH   9  10
ENDBRANCH   8   9
ENDBRANCH   7   8
ENDBRANCH   6   7
ENDBRANCH   5   6
ENDBRANCH   4   5
ENDBRANCH   3   4
ENDBRANCH   2   3
ENDBRANCH   1   2
BRANCH   1  13
ATOM     13  C   UNL     1       4.437   2.081  -9.253  1.00  0.00     0.000 C 
BRANCH  13  14
ATOM     14  C   UNL     1       4.107   3.572  -9.421  1.00  0.00     0.000 C 
BRANCH  14  15
ATOM     15  C   UNL     1       2.591   3.796  -9.447  1.00  0.00     0.000 C 
BRANCH  15  16
ATOM     16  C   UNL     1       1.834   2.460  -9.508  1.00  0.00     0.000 C 
BRANCH  16  17
ATOM     17  C   UNL     1       0.361   2.597  -9.088  1.00  0.00     0.000 C 
BRANCH  17  18
ATOM     18  C   UNL     1      -0.409   1.269  -9.195  1.00  0.00     0.000 C 
BRANCH  18  19
ATOM     19  C   UNL     1       0.521   0.047  -9.251  1.00  0.00     0.000 C 
BRANCH  19  20
ATOM     20  C   UNL     1       0.167  -1.012  -8.195  1.00  0.00     0.006 C 
BRANCH  20  21
ATOM     21  C   UNL     1      -0.732  -0.420  -7.105  1.00  0.00     0.053 C 
BRANCH  21  22
ATOM     22  C   UNL     1      -2.039  -1.146  -7.051  1.00  0.00     0.041 C 
ATOM     23  O   UNL     1      -2.621  -1.483  -8.116  1.00  0.00    -0.550 OA
ATOM     24  O   UNL     1      -2.639  -1.408  -5.826  1.00  0.00    -0.550 OA
ENDBRANCH  21  22
ENDBRANCH  20  21
ENDBRANCH  19  20
ENDBRANCH  18  19
ENDBRANCH  17  18
ENDBRANCH  16  17
ENDBRANCH  15  16
ENDBRANCH  14  15
ENDBRANCH  13  14
ENDBRANCH   1  13
TORSDOF 20
ENDMDL
MODEL 3
REMARK VINA RESULT:    -3.020      5.935      8.691
REMARK INTER + INTRA:          -9.746
REMARK INTER:                  -7.407
REMARK INTRA:                  -2.339
REMARK UNBOUND:                -3.195
REMARK SMILES CCCCCCCCCCCCCCCCCCCCCC(=O)[O-]
REMARK SMILES IDX 12 1 11 2 10 3 9 4 8 5 7 6 6 7 5 8 4 9 3 10 2 11 1 12 13 13
REMARK SMILES IDX 14 14 15 15 16 16 17 17 18 18 19 19 20 20 21 21 22 22 23 23
REMARK SMILES IDX 24 24
REMARK H PARENT
REMARK Flexibility Score: inf
ROOT
ATOM      1  C   UNL     1       5.659   5.637  -1.839  1.00  0.00     0.000 C 
ENDROOT
BRANCH   1   2
ATOM      2  C   UNL     1       6.009   6.384  -0.540  1.00  0.00     0.000 C 
BRANCH   2   3
ATOM      3  C   UNL     1       7.095   5.669   0.281  1.00  0.00     0.000 C 
BRANCH   3   4
ATOM      4  C   UNL     1       8.401   6.472   0.359  1.00  0.00    -0.000 C 
BRANCH   4   5
ATOM      5  C   UNL     1       9.583   5.644  -0.164  1.00  0.00    -0.000 C 
BRANCH   5   6
ATOM      6  C   UNL     1       9.383   4.150   0.129  1.00  0.00    -0.000 C 
BRANCH   6   7
ATOM      7  C   UNL     1       9.949   3.734   1.497  1.00  0.00    -0.000 C 
BRANCH   7   8
ATOM      8  C   UNL     1       8.901   3.036   2.382  1.00  0.00    -0.000 C 
BRANCH   8   9
ATOM      9  C   UNL     1       8.810   3.644   3.793  1.00  0.00    -0.000 C 
BRANCH   9  10
ATOM     10  C   UNL     1       8.935   5.180   3.856  1.00  0.00    -0.000 C 
BRANCH  10  11
ATOM     11  C   UNL     1       7.782   5.896   4.581  1.00  0.00    -0.003 C 
ATOM     12  C   UNL     1       7.196   7.049   3.769  1.00  0.00     0.004 C 
ENDBRANCH  10  11
ENDBRANCH   9  10
ENDBRANCH   8   9
ENDBRANCH   7   8
ENDBRANCH   6   7
ENDBRANCH   5   6
ENDBRANCH   4   5
ENDBRANCH   3   4
ENDBRANCH   2   3
ENDBRANCH   1   2
BRANCH   1  13
ATOM     13  C   UNL     1       6.487   6.118  -3.040  1.00  0.00     0.000 C 
BRANCH  13  14
ATOM     14  C   UNL     1       6.944   4.965  -3.947  1.00  0.00     0.000 C 
BRANCH  14  15
ATOM     15  C   UNL     1       8.042   4.138  -3.267  1.00  0.00     0.000 C 
BRANCH  15  16
ATOM     16  C   UNL     1       8.075   2.703  -3.815  1.00  0.00     0.000 C 
BRANCH  16  17
ATOM     17  C   UNL     1       6.982   2.448  -4.866  1.00  0.00     0.000 C 
BRANCH  17  18
ATOM     18  C   UNL     1       6.703   0.950  -5.076  1.00  0.00     0.000 C 
BRANCH  18  19
ATOM     19  C   UNL     1       5.516   0.444  -4.242  1.00  0.00     0.000 C 
BRANCH  19  20
ATOM     20  C   UNL     1       5.457  -1.089  -4.167  1.00  0.00     0.006 C 
BRANCH  20  21
ATOM     21  C   UNL     1       4.379  -1.550  -3.183  1.00  0.00     0.053 C 
BRANCH  21  22
ATOM     22  C   UNL     1       3.467  -2.544  -3.829  1.00  0.00     0.041 C 
ATOM     23  O   UNL     1       3.936  -3.599  -4.335  1.00  0.00    -0.550 OA
ATOM     24  O   UNL     1       2.105  -2.285  -3.918  1.00  0.00    -0.550 OA
ENDBRANCH  21  22
ENDBRANCH  20  21
ENDBRANCH  19  20
ENDBRANCH  18  19
ENDBRANCH  17  18
ENDBRANCH  16  17
ENDBRANCH  15  16
ENDBRANCH  14  15
ENDBRANCH  13  14
ENDBRANCH   1  13
TORSDOF 20
ENDMDL
MODEL 4
REMARK VINA RESULT:    -3.014      1.132      3.616
REMARK INTER + INTRA:          -9.733
REMARK INTER:                  -7.094
REMARK INTRA:                  -2.638
REMARK UNBOUND:                -3.195
REMARK SMILES CCCCCCCCCCCCCCCCCCCCCC(=O)[O-]
REMARK SMILES IDX 12 1 11 2 10 3 9 4 8 5 7 6 6 7 5 8 4 9 3 10 2 11 1 12 13 13
REMARK SMILES IDX 14 14 15 15 16 16 17 17 18 18 19 19 20 20 21 21 22 22 23 23
REMARK SMILES IDX 24 24
REMARK H PARENT
REMARK Flexibility Score: inf
ROOT
ATOM      1  C   UNL     1       5.473   0.645  -6.405  1.00  0.00     0.000 C 
ENDROOT
BRANCH   1   2
ATOM      2  C   UNL     1       5.960   0.622  -4.945  1.00  0.00     0.000 C 
BRANCH   2   3
ATOM      3  C   UNL     1       7.466   0.339  -4.827  1.00  0.00     0.000 C 
BRANCH   3   4
ATOM      4  C   UNL     1       7.775  -1.153  -4.639  1.00  0.00    -0.000 C 
BRANCH   4   5
ATOM      5  C   UNL     1       7.168  -1.677  -3.331  1.00  0.00    -0.000 C 
BRANCH   5   6
ATOM      6  C   UNL     1       6.718  -3.138  -3.477  1.00  0.00    -0.000 C 
BRANCH   6   7
ATOM      7  C   UNL     1       5.310  -3.384  -2.909  1.00  0.00    -0.000 C 
BRANCH   7   8
ATOM      8  C   UNL     1       4.381  -2.171  -3.087  1.00  0.00    -0.000 C 
BRANCH   8   9
ATOM      9  C   UNL     1       3.258  -2.423  -4.109  1.00  0.00    -0.000 C 
BRANCH   9  10
ATOM     10  C   UNL     1       3.712  -2.484  -5.582  1.00  0.00    -0.000 C 
BRANCH  10  11
ATOM     11  C   UNL     1       2.742  -1.841  -6.588  1.00  0.00    -0.003 C 
ATOM     12  C   UNL     1       2.868  -2.427  -7.992  1.00  0.00     0.004 C 
ENDBRANCH  10  11
ENDBRANCH   9  10
ENDBRANCH   8   9
ENDBRANCH   7   8
ENDBRANCH   6   7
ENDBRANCH   5   6
ENDBRANCH   4   5
ENDBRANCH   3   4
ENDBRANCH   2   3
ENDBRANCH   1   2
BRANCH   1  13
ATOM     13  C   UNL     1       6.271   1.625  -7.279  1.00  0.00     0.000 C 
BRANCH  13  14
ATOM     14  C   UNL     1       5.524   2.020  -8.562  1.00  0.00     0.000 C 
BRANCH  14  15
ATOM     15  C   UNL     1       4.178   1.291  -8.656  1.00  0.00     0.000 C 
BRANCH  15  16
ATOM     16  C   UNL     1       3.325   1.849  -9.805  1.00  0.00     0.000 C 
BRANCH  16  17
ATOM     17  C   UNL     1       2.553   3.117  -9.406  1.00  0.00     0.000 C 
BRANCH  17  18
ATOM     18  C   UNL     1       1.152   3.180 -10.038  1.00  0.00     0.000 C 
BRANCH  18  19
ATOM     19  C   UNL     1       0.059   2.619  -9.115  1.00  0.00     0.000 C 
BRANCH  19  20
ATOM     20  C   UNL     1      -0.279   1.153  -9.425  1.00  0.00     0.006 C 
BRANCH  20  21
ATOM     21  C   UNL     1       0.241   0.226  -8.323  1.00  0.00     0.053 C 
BRANCH  21  22
ATOM     22  C   UNL     1      -0.896  -0.355  -7.544  1.00  0.00     0.041 C 
ATOM     23  O   UNL     1      -2.020  -0.521  -8.091  1.00  0.00    -0.550 OA
ATOM     24  O   UNL     1      -0.733  -0.668  -6.201  1.00  0.00    -0.550 OA
ENDBRANCH  21  22
ENDBRANCH  20  21
ENDBRANCH  19  20
ENDBRANCH  18  19
ENDBRANCH  17  18
ENDBRANCH  16  17
ENDBRANCH  15  16
ENDBRANCH  14  15
ENDBRANCH  13  14
ENDBRANCH   1  13
TORSDOF 20
ENDMDL
MODEL 5
REMARK VINA RESULT:    -2.998      1.203      2.493
REMARK INTER + INTRA:          -9.699
REMARK INTER:                  -7.128
REMARK INTRA:                  -2.571
REMARK UNBOUND:                -3.195
REMARK SMILES CCCCCCCCCCCCCCCCCCCCCC(=O)[O-]
REMARK SMILES IDX 12 1 11 2 10 3 9 4 8 5 7 6 6 7 5 8 4 9 3 10 2 11 1 12 13 13
REMARK SMILES IDX 14 14 15 15 16 16 17 17 18 18 19 19 20 20 21 21 22 22 23 23
REMARK SMILES IDX 24 24
REMARK H PARENT
REMARK Flexibility Score: inf
ROOT
ATOM      1  C   UNL     1       4.835  -0.348  -8.026  1.00  0.00     0.000 C 
ENDROOT
BRANCH   1   2
ATOM      2  C   UNL     1       3.429  -0.975  -8.039  1.00  0.00     0.000 C 
BRANCH   2   3
ATOM      3  C   UNL     1       3.360  -2.291  -7.248  1.00  0.00     0.000 C 
BRANCH   3   4
ATOM      4  C   UNL     1       2.469  -2.186  -6.002  1.00  0.00    -0.000 C 
BRANCH   4   5
ATOM      5  C   UNL     1       2.607  -3.436  -5.124  1.00  0.00    -0.000 C 
BRANCH   5   6
ATOM      6  C   UNL     1       4.056  -3.619  -4.648  1.00  0.00    -0.000 C 
BRANCH   6   7
ATOM      7  C   UNL     1       4.395  -2.743  -3.430  1.00  0.00    -0.000 C 
BRANCH   7   8
ATOM      8  C   UNL     1       5.642  -1.871  -3.659  1.00  0.00    -0.000 C 
BRANCH   8   9
ATOM      9  C   UNL     1       5.313  -0.518  -4.316  1.00  0.00    -0.000 C 
BRANCH   9  10
ATOM     10  C   UNL     1       6.492   0.472  -4.408  1.00  0.00    -0.000 C 
BRANCH  10  11
ATOM     11  C   UNL     1       6.213   1.739  -5.235  1.00  0.00    -0.003 C 
ATOM     12  C   UNL     1       7.163   2.887  -4.901  1.00  0.00     0.004 C 
ENDBRANCH  10  11
ENDBRANCH   9  10
ENDBRANCH   8   9
ENDBRANCH   7   8
ENDBRANCH   6   7
ENDBRANCH   5   6
ENDBRANCH   4   5
ENDBRANCH   3   4
ENDBRANCH   2   3
ENDBRANCH   1   2
BRANCH   1  13
ATOM     13  C   UNL     1       4.837   1.109  -8.514  1.00  0.00     0.000 C 
BRANCH  13  14
ATOM     14  C   UNL     1       3.484   1.542  -9.097  1.00  0.00     0.000 C 
BRANCH  14  15
ATOM     15  C   UNL     1       3.451   3.057  -9.332  1.00  0.00     0.000 C 
BRANCH  15  16
ATOM     16  C   UNL     1       2.025   3.542  -9.635  1.00  0.00     0.000 C 
BRANCH  16  17
ATOM     17  C   UNL     1       1.067   2.385  -9.963  1.00  0.00     0.000 C 
BRANCH  17  18
ATOM     18  C   UNL     1      -0.158   2.350  -9.033  1.00  0.00     0.000 C 
BRANCH  18  19
ATOM     19  C   UNL     1      -1.004   1.080  -9.214  1.00  0.00     0.000 C 
BRANCH  19  20
ATOM     20  C   UNL     1      -0.268  -0.189  -8.758  1.00  0.00     0.006 C 
BRANCH  20  21
ATOM     21  C   UNL     1      -0.339  -0.347  -7.237  1.00  0.00     0.053 C 
BRANCH  21  22
ATOM     22  C   UNL     1      -1.442  -1.284  -6.857  1.00  0.00     0.041 C 
ATOM     23  O   UNL     1      -2.582  -0.834  -6.564  1.00  0.00    -0.550 OA
ATOM     24  O   UNL     1      -1.199  -2.649  -6.776  1.00  0.00    -0.550 OA
ENDBRANCH  21  22
ENDBRANCH  20  21
ENDBRANCH  19  20
ENDBRANCH  18  19
ENDBRANCH  17  18
ENDBRANCH  16  17
ENDBRANCH  15  16
ENDBRANCH  14  15
ENDBRANCH  13  14
ENDBRANCH   1  13
TORSDOF 20
ENDMDL
MODEL 6
REMARK VINA RESULT:    -2.995      5.548      8.294
REMARK INTER + INTRA:          -9.692
REMARK INTER:                  -7.796
REMARK INTRA:                  -1.896
REMARK UNBOUND:                -3.195
REMARK SMILES CCCCCCCCCCCCCCCCCCCCCC(=O)[O-]
REMARK SMILES IDX 12 1 11 2 10 3 9 4 8 5 7 6 6 7 5 8 4 9 3 10 2 11 1 12 13 13
REMARK SMILES IDX 14 14 15 15 16 16 17 17 18 18 19 19 20 20 21 21 22 22 23 23
REMARK SMILES IDX 24 24
REMARK H PARENT
REMARK Flexibility Score: inf
ROOT
ATOM      1  C   UNL     1       6.755   5.985  -3.318  1.00  0.00     0.000 C 
ENDROOT
BRANCH   1   2
ATOM      2  C   UNL     1       5.545   5.348  -2.609  1.00  0.00     0.000 C 
BRANCH   2   3
ATOM      3  C   UNL     1       4.313   6.266  -2.601  1.00  0.00     0.000 C 
BRANCH   3   4
ATOM      4  C   UNL     1       4.530   7.540  -1.772  1.00  0.00    -0.000 C 
BRANCH   4   5
ATOM      5  C   UNL     1       3.268   7.895  -0.975  1.00  0.00    -0.000 C 
BRANCH   5   6
ATOM      6  C   UNL     1       3.602   8.151   0.502  1.00  0.00    -0.000 C 
BRANCH   6   7
ATOM      7  C   UNL     1       5.059   8.596   0.712  1.00  0.00    -0.000 C 
BRANCH   7   8
ATOM      8  C   UNL     1       5.622   8.151   2.073  1.00  0.00    -0.000 C 
BRANCH   8   9
ATOM      9  C   UNL     1       7.041   7.563   1.970  1.00  0.00    -0.000 C 
BRANCH   9  10
ATOM     10  C   UNL     1       7.452   7.081   0.564  1.00  0.00    -0.000 C 
BRANCH  10  11
ATOM     11  C   UNL     1       7.522   5.553   0.396  1.00  0.00    -0.003 C 
ATOM     12  C   UNL     1       8.333   4.871   1.495  1.00  0.00     0.004 C 
ENDBRANCH  10  11
ENDBRANCH   9  10
ENDBRANCH   8   9
ENDBRANCH   7   8
ENDBRANCH   6   7
ENDBRANCH   5   6
ENDBRANCH   4   5
ENDBRANCH   3   4
ENDBRANCH   2   3
ENDBRANCH   1   2
BRANCH   1  13
ATOM     13  C   UNL     1       7.529   4.980  -4.183  1.00  0.00     0.000 C 
BRANCH  13  14
ATOM     14  C   UNL     1       6.995   3.546  -4.052  1.00  0.00     0.000 C 
BRANCH  14  15
ATOM     15  C   UNL     1       8.147   2.534  -4.036  1.00  0.00     0.000 C 
BRANCH  15  16
ATOM     16  C   UNL     1       7.647   1.119  -4.365  1.00  0.00     0.000 C 
BRANCH  16  17
ATOM     17  C   UNL     1       6.152   1.090  -4.721  1.00  0.00     0.000 C 
BRANCH  17  18
ATOM     18  C   UNL     1       5.771  -0.133  -5.573  1.00  0.00     0.000 C 
BRANCH  18  19
ATOM     19  C   UNL     1       6.446  -1.426  -5.089  1.00  0.00     0.000 C 
BRANCH  19  20
ATOM     20  C   UNL     1       5.813  -1.976  -3.802  1.00  0.00     0.006 C 
BRANCH  20  21
ATOM     21  C   UNL     1       4.539  -2.766  -4.110  1.00  0.00     0.053 C 
BRANCH  21  22
ATOM     22  C   UNL     1       3.359  -2.146  -3.431  1.00  0.00     0.041 C 
ATOM     23  O   UNL     1       3.513  -1.488  -2.368  1.00  0.00    -0.550 OA
ATOM     24  O   UNL     1       2.081  -2.336  -3.943  1.00  0.00    -0.550 OA
ENDBRANCH  21  22
ENDBRANCH  20  21
ENDBRANCH  19  20
ENDBRANCH  18  19
ENDBRANCH  17  18
ENDBRANCH  16  17
ENDBRANCH  15  16
ENDBRANCH  14  15
ENDBRANCH  13  14
ENDBRANCH   1  13
TORSDOF 20
ENDMDL
MODEL 7
REMARK VINA RESULT:    -2.946      5.175      8.091
REMARK INTER + INTRA:          -9.586
REMARK INTER:                  -7.460
REMARK INTRA:                  -2.126
REMARK UNBOUND:                -3.195
REMARK SMILES CCCCCCCCCCCCCCCCCCCCCC(=O)[O-]
REMARK SMILES IDX 12 1 11 2 10 3 9 4 8 5 7 6 6 7 5 8 4 9 3 10 2 11 1 12 13 13
REMARK SMILES IDX 14 14 15 15 16 16 17 17 18 18 19 19 20 20 21 21 22 22 23 23
REMARK SMILES IDX 24 24
REMARK H PARENT
REMARK Flexibility Score: inf
ROOT
ATOM      1  C   UNL     1       5.432   5.713  -2.937  1.00  0.00     0.000 C 
ENDROOT
BRANCH   1   2
ATOM      2  C   UNL     1       4.256   6.593  -2.478  1.00  0.00     0.000 C 
BRANCH   2   3
ATOM      3  C   UNL     1       4.694   7.718  -1.527  1.00  0.00     0.000 C 
BRANCH   3   4
ATOM      4  C   UNL     1       4.805   7.250  -0.069  1.00  0.00    -0.000 C 
BRANCH   4   5
ATOM      5  C   UNL     1       6.264   7.279   0.405  1.00  0.00    -0.000 C 
BRANCH   5   6
ATOM      6  C   UNL     1       6.922   5.900   0.253  1.00  0.00    -0.000 C 
BRANCH   6   7
ATOM      7  C   UNL     1       8.457   5.977   0.205  1.00  0.00    -0.000 C 
BRANCH   7   8
ATOM      8  C   UNL     1       9.077   4.863  -0.655  1.00  0.00    -0.000 C 
BRANCH   8   9
ATOM      9  C   UNL     1       9.666   3.716   0.185  1.00  0.00    -0.000 C 
BRANCH   9  10
ATOM     10  C   UNL     1       9.523   3.879   1.712  1.00  0.00    -0.000 C 
BRANCH  10  11
ATOM     11  C   UNL     1       8.994   2.639   2.451  1.00  0.00    -0.003 C 
ATOM     12  C   UNL     1       9.355   1.330   1.752  1.00  0.00     0.004 C 
ENDBRANCH  10  11
ENDBRANCH   9  10
ENDBRANCH   8   9
ENDBRANCH   7   8
ENDBRANCH   6   7
ENDBRANCH   5   6
ENDBRANCH   4   5
ENDBRANCH   3   4
ENDBRANCH   2   3
ENDBRANCH   1   2
BRANCH   1  13
ATOM     13  C   UNL     1       6.646   6.537  -3.393  1.00  0.00     0.000 C 
BRANCH  13  14
ATOM     14  C   UNL     1       7.765   5.668  -3.987  1.00  0.00     0.000 C 
BRANCH  14  15
ATOM     15  C   UNL     1       7.279   4.231  -4.211  1.00  0.00     0.000 C 
BRANCH  15  16
ATOM     16  C   UNL     1       8.423   3.223  -4.023  1.00  0.00     0.000 C 
BRANCH  16  17
ATOM     17  C   UNL     1       7.957   1.766  -4.180  1.00  0.00     0.000 C 
BRANCH  17  18
ATOM     18  C   UNL     1       6.429   1.646  -4.314  1.00  0.00     0.000 C 
BRANCH  18  19
ATOM     19  C   UNL     1       5.985   0.259  -4.806  1.00  0.00     0.000 C 
BRANCH  19  20
ATOM     20  C   UNL     1       4.965  -0.401  -3.865  1.00  0.00     0.006 C 
BRANCH  20  21
ATOM     21  C   UNL     1       4.750  -1.872  -4.236  1.00  0.00     0.053 C 
BRANCH  21  22
ATOM     22  C   UNL     1       3.333  -2.107  -4.653  1.00  0.00     0.041 C 
ATOM     23  O   UNL     1       3.027  -2.124  -5.876  1.00  0.00    -0.550 OA
ATOM     24  O   UNL     1       2.340  -2.258  -3.694  1.00  0.00    -0.550 OA
ENDBRANCH  21  22
ENDBRANCH  20  21
ENDBRANCH  19  20
ENDBRANCH  18  19
ENDBRANCH  17  18
ENDBRANCH  16  17
ENDBRANCH  15  16
ENDBRANCH  14  15
ENDBRANCH  13  14
ENDBRANCH   1  13
TORSDOF 20
ENDMDL
MODEL 8
REMARK VINA RESULT:    -2.931      1.962      2.789
REMARK INTER + INTRA:          -9.554
REMARK INTER:                  -7.309
REMARK INTRA:                  -2.246
REMARK UNBOUND:                -3.195
REMARK SMILES CCCCCCCCCCCCCCCCCCCCCC(=O)[O-]
REMARK SMILES IDX 12 1 11 2 10 3 9 4 8 5 7 6 6 7 5 8 4 9 3 10 2 11 1 12 13 13
REMARK SMILES IDX 14 14 15 15 16 16 17 17 18 18 19 19 20 20 21 21 22 22 23 23
REMARK SMILES IDX 24 24
REMARK H PARENT
REMARK Flexibility Score: inf
ROOT
ATOM      1  C   UNL     1       4.022  -3.237  -5.706  1.00  0.00     0.000 C 
ENDROOT
BRANCH   1   2
ATOM      2  C   UNL     1       3.461  -2.746  -4.360  1.00  0.00     0.000 C 
BRANCH   2   3
ATOM      3  C   UNL     1       4.563  -2.299  -3.387  1.00  0.00     0.000 C 
BRANCH   3   4
ATOM      4  C   UNL     1       4.782  -0.779  -3.399  1.00  0.00    -0.000 C 
BRANCH   4   5
ATOM      5  C   UNL     1       5.973  -0.405  -4.292  1.00  0.00    -0.000 C 
BRANCH   5   6
ATOM      6  C   UNL     1       5.698   0.895  -5.062  1.00  0.00    -0.000 C 
BRANCH   6   7
ATOM      7  C   UNL     1       6.980   1.695  -5.349  1.00  0.00    -0.000 C 
BRANCH   7   8
ATOM      8  C   UNL     1       7.385   2.602  -4.174  1.00  0.00    -0.000 C 
BRANCH   8   9
ATOM      9  C   UNL     1       6.855   4.040  -4.318  1.00  0.00    -0.000 C 
BRANCH   9  10
ATOM     10  C   UNL     1       6.892   4.886  -3.029  1.00  0.00    -0.000 C 
BRANCH  10  11
ATOM     11  C   UNL     1       5.604   5.672  -2.729  1.00  0.00    -0.003 C 
ATOM     12  C   UNL     1       5.514   6.134  -1.277  1.00  0.00     0.004 C 
ENDBRANCH  10  11
ENDBRANCH   9  10
ENDBRANCH   8   9
ENDBRANCH   7   8
ENDBRANCH   6   7
ENDBRANCH   5   6
ENDBRANCH   4   5
ENDBRANCH   3   4
ENDBRANCH   2   3
ENDBRANCH   1   2
BRANCH   1  13
ATOM     13  C   UNL     1       3.845  -2.208  -6.832  1.00  0.00     0.000 C 
BRANCH  13  14
ATOM     14  C   UNL     1       5.166  -1.861  -7.534  1.00  0.00     0.000 C 
BRANCH  14  15
ATOM     15  C   UNL     1       4.905  -1.156  -8.871  1.00  0.00     0.000 C 
BRANCH  15  16
ATOM     16  C   UNL     1       5.207   0.347  -8.773  1.00  0.00     0.000 C 
BRANCH  16  17
ATOM     17  C   UNL     1       3.931   1.202  -8.708  1.00  0.00     0.000 C 
BRANCH  17  18
ATOM     18  C   UNL     1       2.695   0.463  -9.250  1.00  0.00     0.000 C 
BRANCH  18  19
ATOM     19  C   UNL     1       1.426   1.328  -9.221  1.00  0.00     0.000 C 
BRANCH  19  20
ATOM     20  C   UNL     1       0.265   0.648  -8.480  1.00  0.00     0.006 C 
BRANCH  20  21
ATOM     21  C   UNL     1       0.570  -0.830  -8.222  1.00  0.00     0.053 C 
BRANCH  21  22
ATOM     22  C   UNL     1      -0.180  -1.321  -7.024  1.00  0.00     0.041 C 
ATOM     23  O   UNL     1      -0.721  -0.500  -6.235  1.00  0.00    -0.550 OA
ATOM     24  O   UNL     1      -0.240  -2.681  -6.749  1.00  0.00    -0.550 OA
ENDBRANCH  21  22
ENDBRANCH  20  21
ENDBRANCH  19  20
ENDBRANCH  18  19
ENDBRANCH  17  18
ENDBRANCH  16  17
ENDBRANCH  15  16
ENDBRANCH  14  15
ENDBRANCH  13  14
ENDBRANCH   1  13
TORSDOF 20
ENDMDL
MODEL 9
REMARK VINA RESULT:    -2.928      3.239      6.389
REMARK INTER + INTRA:          -9.546
REMARK INTER:                  -6.365
REMARK INTRA:                  -3.181
REMARK UNBOUND:                -3.195
REMARK SMILES CCCCCCCCCCCCCCCCCCCCCC(=O)[O-]
REMARK SMILES IDX 12 1 11 2 10 3 9 4 8 5 7 6 6 7 5 8 4 9 3 10 2 11 1 12 13 13
REMARK SMILES IDX 14 14 15 15 16 16 17 17 18 18 19 19 20 20 21 21 22 22 23 23
REMARK SMILES IDX 24 24
REMARK H PARENT
REMARK Flexibility Score: inf
ROOT
ATOM      1  C   UNL     1       5.005  -0.448  -6.030  1.00  0.00     0.000 C 
ENDROOT
BRANCH   1   2
ATOM      2  C   UNL     1       5.376  -0.160  -7.496  1.00  0.00     0.000 C 
BRANCH   2   3
ATOM      3  C   UNL     1       5.628   1.332  -7.762  1.00  0.00     0.000 C 
BRANCH   3   4
ATOM      4  C   UNL     1       6.949   1.587  -8.503  1.00  0.00    -0.000 C 
BRANCH   4   5
ATOM      5  C   UNL     1       7.919   2.393  -7.630  1.00  0.00    -0.000 C 
BRANCH   5   6
ATOM      6  C   UNL     1       7.168   3.432  -6.785  1.00  0.00    -0.000 C 
BRANCH   6   7
ATOM      7  C   UNL     1       7.859   3.714  -5.440  1.00  0.00    -0.000 C 
BRANCH   7   8
ATOM      8  C   UNL     1       6.856   3.904  -4.289  1.00  0.00    -0.000 C 
BRANCH   8   9
ATOM      9  C   UNL     1       7.477   4.592  -3.061  1.00  0.00    -0.000 C 
BRANCH   9  10
ATOM     10  C   UNL     1       6.532   5.533  -2.286  1.00  0.00    -0.000 C 
BRANCH  10  11
ATOM     11  C   UNL     1       5.582   6.366  -3.164  1.00  0.00    -0.003 C 
ATOM     12  C   UNL     1       4.235   6.632  -2.494  1.00  0.00     0.004 C 
ENDBRANCH  10  11
ENDBRANCH   9  10
ENDBRANCH   8   9
ENDBRANCH   7   8
ENDBRANCH   6   7
ENDBRANCH   5   6
ENDBRANCH   4   5
ENDBRANCH   3   4
ENDBRANCH   2   3
ENDBRANCH   1   2
BRANCH   1  13
ATOM     13  C   UNL     1       5.619   0.567  -5.055  1.00  0.00     0.000 C 
BRANCH  13  14
ATOM     14  C   UNL     1       6.722  -0.045  -4.177  1.00  0.00     0.000 C 
BRANCH  14  15
ATOM     15  C   UNL     1       8.075  -0.009  -4.898  1.00  0.00     0.000 C 
BRANCH  15  16
ATOM     16  C   UNL     1       8.385  -1.360  -5.562  1.00  0.00     0.000 C 
BRANCH  16  17
ATOM     17  C   UNL     1       8.480  -2.508  -4.544  1.00  0.00     0.000 C 
BRANCH  17  18
ATOM     18  C   UNL     1       7.221  -3.392  -4.531  1.00  0.00     0.000 C 
BRANCH  18  19
ATOM     19  C   UNL     1       6.852  -3.878  -3.120  1.00  0.00     0.000 C 
BRANCH  19  20
ATOM     20  C   UNL     1       5.555  -3.242  -2.597  1.00  0.00     0.006 C 
BRANCH  20  21
ATOM     21  C   UNL     1       4.475  -3.227  -3.682  1.00  0.00     0.053 C 
BRANCH  21  22
ATOM     22  C   UNL     1       3.402  -2.242  -3.343  1.00  0.00     0.041 C 
ATOM     23  O   UNL     1       3.596  -1.377  -2.447  1.00  0.00    -0.550 OA
ATOM     24  O   UNL     1       2.169  -2.308  -3.980  1.00  0.00    -0.550 OA
ENDBRANCH  21  22
ENDBRANCH  20  21
ENDBRANCH  19  20
ENDBRANCH  18  19
ENDBRANCH  17  18
ENDBRANCH  16  17
ENDBRANCH  15  16
ENDBRANCH  14  15
ENDBRANCH  13  14
ENDBRANCH   1  13
TORSDOF 20
ENDMDL
