MODEL 1
REMARK VINA RESULT:    -4.212      0.000      0.000
REMARK INTER + INTRA:          -5.721
REMARK INTER:                  -5.443
REMARK INTRA:                  -0.279
REMARK UNBOUND:                -0.279
REMARK SMILES CCCCCCC(=O)[O-]
REMARK SMILES IDX 5 1 6 2 7 3 8 4 9 5 4 6 3 7 2 8 1 9
REMARK H PARENT
REMARK Flexibility Score: inf
ROOT
ATOM      1  C   UNL     1      18.007  -8.265  23.190  1.00  0.00     0.006 C 
ENDROOT
BRANCH   1   2
ATOM      2  C   UNL     1      19.194  -7.912  24.096  1.00  0.00     0.053 C 
BRANCH   2   3
ATOM      3  C   UNL     1      20.481  -8.317  23.450  1.00  0.00     0.041 C 
ATOM      4  O   UNL     1      21.576  -8.110  24.036  1.00  0.00    -0.550 OA
ATOM      5  O   UNL     1      20.469  -8.970  22.224  1.00  0.00    -0.550 OA
ENDBRANCH   2   3
ENDBRANCH   1   2
BRANCH   1   6
ATOM      6  C   UNL     1      17.617  -7.115  22.247  1.00  0.00     0.000 C 
BRANCH   6   7
ATOM      7  C   UNL     1      17.862  -7.456  20.767  1.00  0.00    -0.000 C 
BRANCH   7   8
ATOM      8  C   UNL     1      18.790  -6.444  20.076  1.00  0.00    -0.003 C 
ATOM      9  C   UNL     1      19.754  -5.764  21.048  1.00  0.00     0.004 C 
ENDBRANCH   7   8
ENDBRANCH   6   7
ENDBRANCH   1   6
TORSDOF 5
ENDMDL
MODEL 2
REMARK VINA RESULT:    -3.664      2.340      3.685
REMARK INTER + INTRA:          -5.013
REMARK INTER:                  -4.831
REMARK INTRA:                  -0.182
REMARK UNBOUND:                -0.279
REMARK SMILES CCCCCCC(=O)[O-]
REMARK SMILES IDX 5 1 6 2 7 3 8 4 9 5 4 6 3 7 2 8 1 9
REMARK H PARENT
REMARK Flexibility Score: inf
ROOT
ATOM      1  C   UNL     1      17.596  -7.664  22.924  1.00  0.00     0.006 C 
ENDROOT
BRANCH   1   2
ATOM      2  C   UNL     1      18.155  -8.220  21.608  1.00  0.00     0.053 C 
BRANCH   2   3
ATOM      3  C   UNL     1      17.910  -7.257  20.489  1.00  0.00     0.041 C 
ATOM      4  O   UNL     1      16.987  -7.473  19.660  1.00  0.00    -0.550 OA
ATOM      5  O   UNL     1      18.667  -6.097  20.391  1.00  0.00    -0.550 OA
ENDBRANCH   2   3
ENDBRANCH   1   2
BRANCH   1   6
ATOM      6  C   UNL     1      18.623  -7.703  24.069  1.00  0.00     0.000 C 
BRANCH   6   7
ATOM      7  C   UNL     1      19.923  -8.423  23.671  1.00  0.00    -0.000 C 
BRANCH   7   8
ATOM      8  C   UNL     1      21.132  -7.475  23.630  1.00  0.00    -0.003 C 
ATOM      9  C   UNL     1      21.263  -6.739  22.297  1.00  0.00     0.004 C 
ENDBRANCH   7   8
ENDBRANCH   6   7
ENDBRANCH   1   6
TORSDOF 5
ENDMDL
MODEL 3
REMARK VINA RESULT:    -2.745     14.856     16.665
REMARK INTER + INTRA:          -3.825
REMARK INTER:                  -3.577
REMARK INTRA:                  -0.248
REMARK UNBOUND:                -0.279
REMARK SMILES CCCCCCC(=O)[O-]
REMARK SMILES IDX 5 1 6 2 7 3 8 4 9 5 4 6 3 7 2 8 1 9
REMARK H PARENT
REMARK Flexibility Score: inf
ROOT
ATOM      1  C   UNL     1      18.308  -7.846   5.117  1.00  0.00     0.006 C 
ENDROOT
BRANCH   1   2
ATOM      2  C   UNL     1      17.734  -7.366   6.456  1.00  0.00     0.053 C 
BRANCH   2   3
ATOM      3  C   UNL     1      18.742  -7.541   7.549  1.00  0.00     0.041 C 
ATOM      4  O   UNL     1      19.467  -8.570   7.582  1.00  0.00    -0.550 OA
ATOM      5  O   UNL     1      18.916  -6.545   8.501  1.00  0.00    -0.550 OA
ENDBRANCH   2   3
ENDBRANCH   1   2
BRANCH   1   6
ATOM      6  C   UNL     1      18.858  -6.695   4.260  1.00  0.00     0.000 C 
BRANCH   6   7
ATOM      7  C   UNL     1      20.391  -6.588   4.327  1.00  0.00    -0.000 C 
BRANCH   7   8
ATOM      8  C   UNL     1      20.862  -5.280   4.983  1.00  0.00    -0.003 C 
ATOM      9  C   UNL     1      20.901  -4.106   4.005  1.00  0.00     0.004 C 
ENDBRANCH   7   8
ENDBRANCH   6   7
ENDBRANCH   1   6
TORSDOF 5
ENDMDL
MODEL 4
REMARK VINA RESULT:    -2.744     14.728     16.118
REMARK INTER + INTRA:          -3.824
REMARK INTER:                  -3.569
REMARK INTRA:                  -0.256
REMARK UNBOUND:                -0.279
REMARK SMILES CCCCCCC(=O)[O-]
REMARK SMILES IDX 5 1 6 2 7 3 8 4 9 5 4 6 3 7 2 8 1 9
REMARK H PARENT
REMARK Flexibility Score: inf
ROOT
ATOM      1  C   UNL     1      18.024  -7.799   5.373  1.00  0.00     0.006 C 
ENDROOT
BRANCH   1   2
ATOM      2  C   UNL     1      19.147  -7.137   6.181  1.00  0.00     0.053 C 
BRANCH   2   3
ATOM      3  C   UNL     1      19.043  -7.514   7.625  1.00  0.00     0.041 C 
ATOM      4  O   UNL     1      18.474  -6.742   8.441  1.00  0.00    -0.550 OA
ATOM      5  O   UNL     1      19.530  -8.740   8.061  1.00  0.00    -0.550 OA
ENDBRANCH   2   3
ENDBRANCH   1   2
BRANCH   1   6
ATOM      6  C   UNL     1      17.066  -6.777   4.740  1.00  0.00     0.000 C 
BRANCH   6   7
ATOM      7  C   UNL     1      15.604  -6.994   5.167  1.00  0.00    -0.000 C 
BRANCH   7   8
ATOM      8  C   UNL     1      15.485  -7.553   6.594  1.00  0.00    -0.003 C 
ATOM      9  C   UNL     1      14.199  -8.349   6.813  1.00  0.00     0.004 C 
ENDBRANCH   7   8
ENDBRANCH   6   7
ENDBRANCH   1   6
TORSDOF 5
ENDMDL
MODEL 5
REMARK VINA RESULT:    -2.741     15.084     16.900
REMARK INTER + INTRA:          -3.821
REMARK INTER:                  -3.545
REMARK INTRA:                  -0.276
REMARK UNBOUND:                -0.279
REMARK SMILES CCCCCCC(=O)[O-]
REMARK SMILES IDX 5 1 6 2 7 3 8 4 9 5 4 6 3 7 2 8 1 9
REMARK H PARENT
REMARK Flexibility Score: inf
ROOT
ATOM      1  C   UNL     1      18.820  -7.085   4.825  1.00  0.00     0.006 C 
ENDROOT
BRANCH   1   2
ATOM      2  C   UNL     1      19.402  -7.432   6.201  1.00  0.00     0.053 C 
BRANCH   2   3
ATOM      3  C   UNL     1      18.395  -7.167   7.276  1.00  0.00     0.041 C 
ATOM      4  O   UNL     1      18.774  -6.871   8.440  1.00  0.00    -0.550 OA
ATOM      5  O   UNL     1      17.038  -7.199   6.981  1.00  0.00    -0.550 OA
ENDBRANCH   2   3
ENDBRANCH   1   2
BRANCH   1   6
ATOM      6  C   UNL     1      19.642  -6.019   4.083  1.00  0.00     0.000 C 
BRANCH   6   7
ATOM      7  C   UNL     1      20.863  -5.547   4.893  1.00  0.00    -0.000 C 
BRANCH   7   8
ATOM      8  C   UNL     1      22.185  -5.747   4.134  1.00  0.00    -0.003 C 
ATOM      9  C   UNL     1      23.066  -6.831   4.754  1.00  0.00     0.004 C 
ENDBRANCH   7   8
ENDBRANCH   6   7
ENDBRANCH   1   6
TORSDOF 5
ENDMDL
MODEL 6
REMARK VINA RESULT:    -2.693     14.943     16.483
REMARK INTER + INTRA:          -3.758
REMARK INTER:                  -3.525
REMARK INTRA:                  -0.233
REMARK UNBOUND:                -0.279
REMARK SMILES CCCCCCC(=O)[O-]
REMARK SMILES IDX 5 1 6 2 7 3 8 4 9 5 4 6 3 7 2 8 1 9
REMARK H PARENT
REMARK Flexibility Score: inf
ROOT
ATOM      1  C   UNL     1      16.091  -6.766   5.673  1.00  0.00     0.006 C 
ENDROOT
BRANCH   1   2
ATOM      2  C   UNL     1      16.434  -6.869   7.164  1.00  0.00     0.053 C 
BRANCH   2   3
ATOM      3  C   UNL     1      17.890  -7.163   7.346  1.00  0.00     0.041 C 
ATOM      4  O   UNL     1      18.544  -7.715   6.423  1.00  0.00    -0.550 OA
ATOM      5  O   UNL     1      18.536  -6.781   8.515  1.00  0.00    -0.550 OA
ENDBRANCH   2   3
ENDBRANCH   1   2
BRANCH   1   6
ATOM      6  C   UNL     1      14.800  -7.516   5.306  1.00  0.00     0.000 C 
BRANCH   6   7
ATOM      7  C   UNL     1      14.148  -8.197   6.522  1.00  0.00    -0.000 C 
BRANCH   7   8
ATOM      8  C   UNL     1      12.613  -8.189   6.449  1.00  0.00    -0.003 C 
ATOM      9  C   UNL     1      12.085  -7.550   5.165  1.00  0.00     0.004 C 
ENDBRANCH   7   8
ENDBRANCH   6   7
ENDBRANCH   1   6
TORSDOF 5
ENDMDL
MODEL 7
REMARK VINA RESULT:    -2.683     16.346     17.576
REMARK INTER + INTRA:          -3.746
REMARK INTER:                  -3.529
REMARK INTRA:                  -0.216
REMARK UNBOUND:                -0.279
REMARK SMILES CCCCCCC(=O)[O-]
REMARK SMILES IDX 5 1 6 2 7 3 8 4 9 5 4 6 3 7 2 8 1 9
REMARK H PARENT
REMARK Flexibility Score: inf
ROOT
ATOM      1  C   UNL     1      19.676  -6.734   5.723  1.00  0.00     0.006 C 
ENDROOT
BRANCH   1   2
ATOM      2  C   UNL     1      19.872  -6.060   4.358  1.00  0.00     0.053 C 
BRANCH   2   3
ATOM      3  C   UNL     1      21.140  -5.267   4.345  1.00  0.00     0.041 C 
ATOM      4  O   UNL     1      21.105  -4.021   4.164  1.00  0.00    -0.550 OA
ATOM      5  O   UNL     1      22.356  -5.894   4.581  1.00  0.00    -0.550 OA
ENDBRANCH   2   3
ENDBRANCH   1   2
BRANCH   1   6
ATOM      6  C   UNL     1      18.430  -7.633   5.768  1.00  0.00     0.000 C 
BRANCH   6   7
ATOM      7  C   UNL     1      17.357  -7.206   4.752  1.00  0.00    -0.000 C 
BRANCH   7   8
ATOM      8  C   UNL     1      16.075  -6.697   5.429  1.00  0.00    -0.003 C 
ATOM      9  C   UNL     1      16.048  -6.975   6.932  1.00  0.00     0.004 C 
ENDBRANCH   7   8
ENDBRANCH   6   7
ENDBRANCH   1   6
TORSDOF 5
ENDMDL
MODEL 8
REMARK VINA RESULT:    -2.662     15.290     16.812
REMARK INTER + INTRA:          -3.719
REMARK INTER:                  -3.548
REMARK INTRA:                  -0.171
REMARK UNBOUND:                -0.279
REMARK SMILES CCCCCCC(=O)[O-]
REMARK SMILES IDX 5 1 6 2 7 3 8 4 9 5 4 6 3 7 2 8 1 9
REMARK H PARENT
REMARK Flexibility Score: inf
ROOT
ATOM      1  C   UNL     1      15.520  -8.396   6.399  1.00  0.00     0.006 C 
ENDROOT
BRANCH   1   2
ATOM      2  C   UNL     1      14.097  -8.301   6.964  1.00  0.00     0.053 C 
BRANCH   2   3
ATOM      3  C   UNL     1      13.124  -7.976   5.874  1.00  0.00     0.041 C 
ATOM      4  O   UNL     1      11.897  -7.865   6.134  1.00  0.00    -0.550 OA
ATOM      5  O   UNL     1      13.578  -7.745   4.582  1.00  0.00    -0.550 OA
ENDBRANCH   2   3
ENDBRANCH   1   2
BRANCH   1   6
ATOM      6  C   UNL     1      16.353  -7.133   6.674  1.00  0.00     0.000 C 
BRANCH   6   7
ATOM      7  C   UNL     1      17.734  -7.177   5.995  1.00  0.00    -0.000 C 
BRANCH   7   8
ATOM      8  C   UNL     1      18.868  -7.477   6.988  1.00  0.00    -0.003 C 
ATOM      9  C   UNL     1      18.651  -6.821   8.352  1.00  0.00     0.004 C 
ENDBRANCH   7   8
ENDBRANCH   6   7
ENDBRANCH   1   6
TORSDOF 5
ENDMDL
MODEL 9
REMARK VINA RESULT:    -2.647     14.769     16.606
REMARK INTER + INTRA:          -3.699
REMARK INTER:                  -3.416
REMARK INTRA:                  -0.283
REMARK UNBOUND:                -0.279
REMARK SMILES CCCCCCC(=O)[O-]
REMARK SMILES IDX 5 1 6 2 7 3 8 4 9 5 4 6 3 7 2 8 1 9
REMARK H PARENT
REMARK Flexibility Score: inf
ROOT
ATOM      1  C   UNL     1      16.049  -6.750   5.698  1.00  0.00     0.006 C 
ENDROOT
BRANCH   1   2
ATOM      2  C   UNL     1      14.835  -7.639   5.396  1.00  0.00     0.053 C 
BRANCH   2   3
ATOM      3  C   UNL     1      14.657  -8.661   6.474  1.00  0.00     0.041 C 
ATOM      4  O   UNL     1      15.227  -9.780   6.385  1.00  0.00    -0.550 OA
ATOM      5  O   UNL     1      13.902  -8.359   7.600  1.00  0.00    -0.550 OA
ENDBRANCH   2   3
ENDBRANCH   1   2
BRANCH   1   6
ATOM      6  C   UNL     1      17.289  -7.139   4.876  1.00  0.00     0.000 C 
BRANCH   6   7
ATOM      7  C   UNL     1      18.585  -7.090   5.705  1.00  0.00    -0.000 C 
BRANCH   7   8
ATOM      8  C   UNL     1      18.441  -7.794   7.063  1.00  0.00    -0.003 C 
ATOM      9  C   UNL     1      18.763  -6.878   8.243  1.00  0.00     0.004 C 
ENDBRANCH   7   8
ENDBRANCH   6   7
ENDBRANCH   1   6
TORSDOF 5
ENDMDL
