MODEL 1
REMARK VINA RESULT:    -3.811      0.000      0.000
REMARK INTER + INTRA:          -4.443
REMARK INTER:                  -4.368
REMARK INTRA:                  -0.075
REMARK UNBOUND:                -0.075
REMARK SMILES COc1cc(C(=O)[O-])ccc1O
REMARK SMILES IDX 5 1 9 2 4 3 10 4 3 5 11 6 6 7 7 8 8 9 2 10 1 11 12 12
REMARK H PARENT 12 13
REMARK Flexibility Score: inf
ROOT
ATOM      1  C   UNL     1     -13.676 -23.253 178.574  1.00  0.00     0.001 A 
ATOM      2  C   UNL     1     -14.021 -23.670 179.870  1.00  0.00     0.014 A 
ATOM      3  C   UNL     1     -14.085 -24.028 177.473  1.00  0.00     0.060 A 
ATOM      4  C   UNL     1     -14.760 -24.839 180.062  1.00  0.00     0.051 A 
ATOM      5  C   UNL     1     -14.832 -25.209 177.664  1.00  0.00     0.161 A 
ATOM      6  C   UNL     1     -15.167 -25.608 178.965  1.00  0.00     0.157 A 
ENDROOT
BRANCH   1   7
ATOM      7  C   UNL     1     -12.892 -22.014 178.375  1.00  0.00     0.072 C 
ATOM      8  O   UNL     1     -11.636 -22.026 178.472  1.00  0.00    -0.545 OA
ATOM      9  O   UNL     1     -13.532 -20.815 178.078  1.00  0.00    -0.545 OA
ENDBRANCH   1   7
BRANCH   5  10
ATOM     10  O   UNL     1     -15.258 -26.007 176.590  1.00  0.00    -0.493 OA
ATOM     11  C   UNL     1     -15.008 -25.716 175.220  1.00  0.00     0.278 C 
ENDBRANCH   5  10
BRANCH   6  12
ATOM     12  O   UNL     1     -15.904 -26.774 179.160  1.00  0.00    -0.504 OA
ATOM     13  H   UNL     1     -16.918 -26.773 179.127  1.00  0.00     0.293 HD
ENDBRANCH   6  12
TORSDOF 3
ENDMDL
MODEL 2
REMARK VINA RESULT:    -3.442      1.046      2.702
REMARK INTER + INTRA:          -4.020
REMARK INTER:                  -3.925
REMARK INTRA:                  -0.095
REMARK UNBOUND:                -0.075
REMARK SMILES COc1cc(C(=O)[O-])ccc1O
REMARK SMILES IDX 5 1 9 2 4 3 10 4 3 5 11 6 6 7 7 8 8 9 2 10 1 11 12 12
REMARK H PARENT 12 13
REMARK Flexibility Score: inf
ROOT
ATOM      1  C   UNL     1     -13.595 -22.930 178.265  1.00  0.00     0.001 A 
ATOM      2  C   UNL     1     -13.919 -23.363 176.968  1.00  0.00     0.014 A 
ATOM      3  C   UNL     1     -13.938 -23.741 179.362  1.00  0.00     0.060 A 
ATOM      4  C   UNL     1     -14.572 -24.582 176.773  1.00  0.00     0.051 A 
ATOM      5  C   UNL     1     -14.597 -24.972 179.168  1.00  0.00     0.161 A 
ATOM      6  C   UNL     1     -14.911 -25.386 177.866  1.00  0.00     0.157 A 
ENDROOT
BRANCH   1   7
ATOM      7  C   UNL     1     -12.903 -21.638 178.467  1.00  0.00     0.072 C 
ATOM      8  O   UNL     1     -13.442 -20.558 178.107  1.00  0.00    -0.545 OA
ATOM      9  O   UNL     1     -11.644 -21.598 179.058  1.00  0.00    -0.545 OA
ENDBRANCH   1   7
BRANCH   5  10
ATOM     10  O   UNL     1     -14.954 -25.807 180.239  1.00  0.00    -0.493 OA
ATOM     11  C   UNL     1     -14.068 -26.716 180.884  1.00  0.00     0.278 C 
ENDBRANCH   5  10
BRANCH   6  12
ATOM     12  O   UNL     1     -15.563 -26.602 177.669  1.00  0.00    -0.504 OA
ATOM     13  H   UNL     1     -15.056 -27.439 177.402  1.00  0.00     0.293 HD
ENDBRANCH   6  12
TORSDOF 3
ENDMDL
MODEL 3
REMARK VINA RESULT:    -3.436      1.604      4.100
REMARK INTER + INTRA:          -4.013
REMARK INTER:                  -3.914
REMARK INTRA:                  -0.098
REMARK UNBOUND:                -0.075
REMARK SMILES COc1cc(C(=O)[O-])ccc1O
REMARK SMILES IDX 5 1 9 2 4 3 10 4 3 5 11 6 6 7 7 8 8 9 2 10 1 11 12 12
REMARK H PARENT 12 13
REMARK Flexibility Score: inf
ROOT
ATOM      1  C   UNL     1     -14.645 -24.908 178.408  1.00  0.00     0.001 A 
ATOM      2  C   UNL     1     -14.037 -23.950 179.235  1.00  0.00     0.014 A 
ATOM      3  C   UNL     1     -14.642 -24.711 177.015  1.00  0.00     0.060 A 
ATOM      4  C   UNL     1     -13.437 -22.817 178.680  1.00  0.00     0.051 A 
ATOM      5  C   UNL     1     -14.038 -23.568 176.452  1.00  0.00     0.161 A 
ATOM      6  C   UNL     1     -13.436 -22.624 177.294  1.00  0.00     0.157 A 
ENDROOT
BRANCH   1   7
ATOM      7  C   UNL     1     -15.279 -26.107 179.000  1.00  0.00     0.072 C 
ATOM      8  O   UNL     1     -16.191 -25.992 179.860  1.00  0.00    -0.545 OA
ATOM      9  O   UNL     1     -14.874 -27.381 178.614  1.00  0.00    -0.545 OA
ENDBRANCH   1   7
BRANCH   5  10
ATOM     10  O   UNL     1     -14.015 -23.338 175.067  1.00  0.00    -0.493 OA
ATOM     11  C   UNL     1     -15.135 -22.902 174.304  1.00  0.00     0.278 C 
ENDBRANCH   5  10
BRANCH   6  12
ATOM     12  O   UNL     1     -12.838 -21.492 176.744  1.00  0.00    -0.504 OA
ATOM     13  H   UNL     1     -12.560 -21.459 175.769  1.00  0.00     0.293 HD
ENDBRANCH   6  12
TORSDOF 3
ENDMDL
MODEL 4
REMARK VINA RESULT:    -3.425      1.459      4.185
REMARK INTER + INTRA:          -4.000
REMARK INTER:                  -3.905
REMARK INTRA:                  -0.095
REMARK UNBOUND:                -0.075
REMARK SMILES COc1cc(C(=O)[O-])ccc1O
REMARK SMILES IDX 5 1 9 2 4 3 10 4 3 5 11 6 6 7 7 8 8 9 2 10 1 11 12 12
REMARK H PARENT 12 13
REMARK Flexibility Score: inf
ROOT
ATOM      1  C   UNL     1     -14.704 -24.802 176.862  1.00  0.00     0.001 A 
ATOM      2  C   UNL     1     -15.050 -25.509 178.025  1.00  0.00     0.014 A 
ATOM      3  C   UNL     1     -14.000 -23.590 176.981  1.00  0.00     0.060 A 
ATOM      4  C   UNL     1     -14.699 -25.013 179.282  1.00  0.00     0.051 A 
ATOM      5  C   UNL     1     -13.644 -23.087 178.249  1.00  0.00     0.161 A 
ATOM      6  C   UNL     1     -13.998 -23.808 179.398  1.00  0.00     0.157 A 
ENDROOT
BRANCH   1   7
ATOM      7  C   UNL     1     -15.078 -25.331 175.531  1.00  0.00     0.072 C 
ATOM      8  O   UNL     1     -15.091 -24.577 174.522  1.00  0.00    -0.545 OA
ATOM      9  O   UNL     1     -15.422 -26.669 175.375  1.00  0.00    -0.545 OA
ENDBRANCH   1   7
BRANCH   5  10
ATOM     10  O   UNL     1     -12.941 -21.882 178.407  1.00  0.00    -0.493 OA
ATOM     11  C   UNL     1     -13.370 -20.625 177.894  1.00  0.00     0.278 C 
ENDBRANCH   5  10
BRANCH   6  12
ATOM     12  O   UNL     1     -13.649 -23.316 180.654  1.00  0.00    -0.504 OA
ATOM     13  H   UNL     1     -13.701 -22.326 180.870  1.00  0.00     0.293 HD
ENDBRANCH   6  12
TORSDOF 3
ENDMDL
MODEL 5
REMARK VINA RESULT:    -3.291      1.447      4.660
REMARK INTER + INTRA:          -3.847
REMARK INTER:                  -3.752
REMARK INTRA:                  -0.095
REMARK UNBOUND:                -0.075
REMARK SMILES COc1cc(C(=O)[O-])ccc1O
REMARK SMILES IDX 5 1 9 2 4 3 10 4 3 5 11 6 6 7 7 8 8 9 2 10 1 11 12 12
REMARK H PARENT 12 13
REMARK Flexibility Score: inf
ROOT
ATOM      1  C   UNL     1     -14.413 -24.647 178.825  1.00  0.00     0.001 A 
ATOM      2  C   UNL     1     -14.627 -24.850 177.451  1.00  0.00     0.014 A 
ATOM      3  C   UNL     1     -13.740 -23.486 179.248  1.00  0.00     0.060 A 
ATOM      4  C   UNL     1     -14.176 -23.913 176.520  1.00  0.00     0.051 A 
ATOM      5  C   UNL     1     -13.283 -22.538 178.310  1.00  0.00     0.161 A 
ATOM      6  C   UNL     1     -13.506 -22.760 176.944  1.00  0.00     0.157 A 
ENDROOT
BRANCH   1   7
ATOM      7  C   UNL     1     -14.893 -25.643 179.808  1.00  0.00     0.072 C 
ATOM      8  O   UNL     1     -14.103 -26.144 180.651  1.00  0.00    -0.545 OA
ATOM      9  O   UNL     1     -16.226 -26.041 179.816  1.00  0.00    -0.545 OA
ENDBRANCH   1   7
BRANCH   5  10
ATOM     10  O   UNL     1     -12.607 -21.369 178.695  1.00  0.00    -0.493 OA
ATOM     11  C   UNL     1     -11.218 -21.303 178.999  1.00  0.00     0.278 C 
ENDBRANCH   5  10
BRANCH   6  12
ATOM     12  O   UNL     1     -13.057 -21.826 176.013  1.00  0.00    -0.504 OA
ATOM     13  H   UNL     1     -12.859 -22.086 175.053  1.00  0.00     0.293 HD
ENDBRANCH   6  12
TORSDOF 3
ENDMDL
MODEL 6
REMARK VINA RESULT:    -3.283      3.539      5.247
REMARK INTER + INTRA:          -3.837
REMARK INTER:                  -3.740
REMARK INTRA:                  -0.098
REMARK UNBOUND:                -0.075
REMARK SMILES COc1cc(C(=O)[O-])ccc1O
REMARK SMILES IDX 5 1 9 2 4 3 10 4 3 5 11 6 6 7 7 8 8 9 2 10 1 11 12 12
REMARK H PARENT 12 13
REMARK Flexibility Score: inf
ROOT
ATOM      1  C   UNL     1     -13.488 -20.895 177.122  1.00  0.00     0.001 A 
ATOM      2  C   UNL     1     -13.849 -19.543 177.246  1.00  0.00     0.014 A 
ATOM      3  C   UNL     1     -13.643 -21.532 175.877  1.00  0.00     0.060 A 
ATOM      4  C   UNL     1     -14.355 -18.843 176.149  1.00  0.00     0.051 A 
ATOM      5  C   UNL     1     -14.153 -20.829 174.768  1.00  0.00     0.161 A 
ATOM      6  C   UNL     1     -14.508 -19.481 174.912  1.00  0.00     0.157 A 
ENDROOT
BRANCH   1   7
ATOM      7  C   UNL     1     -12.952 -21.632 178.287  1.00  0.00     0.072 C 
ATOM      8  O   UNL     1     -11.876 -21.272 178.834  1.00  0.00    -0.545 OA
ATOM      9  O   UNL     1     -13.629 -22.735 178.796  1.00  0.00    -0.545 OA
ENDBRANCH   1   7
BRANCH   5  10
ATOM     10  O   UNL     1     -14.322 -21.432 173.511  1.00  0.00    -0.493 OA
ATOM     11  C   UNL     1     -13.266 -21.684 172.589  1.00  0.00     0.278 C 
ENDBRANCH   5  10
BRANCH   6  12
ATOM     12  O   UNL     1     -15.013 -18.780 173.819  1.00  0.00    -0.504 OA
ATOM     13  H   UNL     1     -16.007 -18.749 173.622  1.00  0.00     0.293 HD
ENDBRANCH   6  12
TORSDOF 3
ENDMDL
MODEL 7
REMARK VINA RESULT:    -3.267      1.692      4.013
REMARK INTER + INTRA:          -3.819
REMARK INTER:                  -3.726
REMARK INTRA:                  -0.093
REMARK UNBOUND:                -0.075
REMARK SMILES COc1cc(C(=O)[O-])ccc1O
REMARK SMILES IDX 5 1 9 2 4 3 10 4 3 5 11 6 6 7 7 8 8 9 2 10 1 11 12 12
REMARK H PARENT 12 13
REMARK Flexibility Score: inf
ROOT
ATOM      1  C   UNL     1     -14.644 -24.697 176.821  1.00  0.00     0.001 A 
ATOM      2  C   UNL     1     -13.957 -23.485 177.004  1.00  0.00     0.014 A 
ATOM      3  C   UNL     1     -14.909 -25.509 177.939  1.00  0.00     0.060 A 
ATOM      4  C   UNL     1     -13.543 -23.094 178.279  1.00  0.00     0.051 A 
ATOM      5  C   UNL     1     -14.493 -25.117 179.227  1.00  0.00     0.161 A 
ATOM      6  C   UNL     1     -13.808 -23.904 179.389  1.00  0.00     0.157 A 
ENDROOT
BRANCH   1   7
ATOM      7  C   UNL     1     -15.081 -25.107 175.468  1.00  0.00     0.072 C 
ATOM      8  O   UNL     1     -15.411 -26.300 175.235  1.00  0.00    -0.545 OA
ATOM      9  O   UNL     1     -15.134 -24.180 174.433  1.00  0.00    -0.545 OA
ENDBRANCH   1   7
BRANCH   5  10
ATOM     10  O   UNL     1     -14.740 -25.901 180.365  1.00  0.00    -0.493 OA
ATOM     11  C   UNL     1     -13.908 -26.971 180.803  1.00  0.00     0.278 C 
ENDBRANCH   5  10
BRANCH   6  12
ATOM     12  O   UNL     1     -13.394 -23.512 180.660  1.00  0.00    -0.504 OA
ATOM     13  H   UNL     1     -13.967 -23.677 181.480  1.00  0.00     0.293 HD
ENDBRANCH   6  12
TORSDOF 3
ENDMDL
MODEL 8
REMARK VINA RESULT:    -3.247      5.243      7.688
REMARK INTER + INTRA:          -3.796
REMARK INTER:                  -3.701
REMARK INTRA:                  -0.094
REMARK UNBOUND:                -0.075
REMARK SMILES COc1cc(C(=O)[O-])ccc1O
REMARK SMILES IDX 5 1 9 2 4 3 10 4 3 5 11 6 6 7 7 8 8 9 2 10 1 11 12 12
REMARK H PARENT 12 13
REMARK Flexibility Score: inf
ROOT
ATOM      1  C   UNL     1     -14.627 -21.056 173.859  1.00  0.00     0.001 A 
ATOM      2  C   UNL     1     -14.908 -20.752 172.517  1.00  0.00     0.014 A 
ATOM      3  C   UNL     1     -14.079 -20.059 174.686  1.00  0.00     0.060 A 
ATOM      4  C   UNL     1     -14.646 -19.477 172.012  1.00  0.00     0.051 A 
ATOM      5  C   UNL     1     -13.813 -18.770 174.180  1.00  0.00     0.161 A 
ATOM      6  C   UNL     1     -14.101 -18.487 172.838  1.00  0.00     0.157 A 
ENDROOT
BRANCH   1   7
ATOM      7  C   UNL     1     -14.907 -22.409 174.390  1.00  0.00     0.072 C 
ATOM      8  O   UNL     1     -14.060 -23.004 175.107  1.00  0.00    -0.545 OA
ATOM      9  O   UNL     1     -16.111 -23.043 174.104  1.00  0.00    -0.545 OA
ENDBRANCH   1   7
BRANCH   5  10
ATOM     10  O   UNL     1     -13.267 -17.750 174.975  1.00  0.00    -0.493 OA
ATOM     11  C   UNL     1     -13.882 -17.224 176.146  1.00  0.00     0.278 C 
ENDBRANCH   5  10
BRANCH   6  12
ATOM     12  O   UNL     1     -13.840 -17.215 172.331  1.00  0.00    -0.504 OA
ATOM     13  H   UNL     1     -14.571 -16.649 171.916  1.00  0.00     0.293 HD
ENDBRANCH   6  12
TORSDOF 3
ENDMDL
MODEL 9
REMARK VINA RESULT:    -3.216      3.179      4.398
REMARK INTER + INTRA:          -3.760
REMARK INTER:                  -3.658
REMARK INTRA:                  -0.102
REMARK UNBOUND:                -0.075
REMARK SMILES COc1cc(C(=O)[O-])ccc1O
REMARK SMILES IDX 5 1 9 2 4 3 10 4 3 5 11 6 6 7 7 8 8 9 2 10 1 11 12 12
REMARK H PARENT 12 13
REMARK Flexibility Score: inf
ROOT
ATOM      1  C   UNL     1     -14.278 -21.472 174.541  1.00  0.00     0.001 A 
ATOM      2  C   UNL     1     -15.367 -22.016 173.841  1.00  0.00     0.014 A 
ATOM      3  C   UNL     1     -13.713 -22.203 175.603  1.00  0.00     0.060 A 
ATOM      4  C   UNL     1     -15.882 -23.265 174.195  1.00  0.00     0.051 A 
ATOM      5  C   UNL     1     -14.230 -23.464 175.963  1.00  0.00     0.161 A 
ATOM      6  C   UNL     1     -15.317 -23.989 175.252  1.00  0.00     0.157 A 
ENDROOT
BRANCH   1   7
ATOM      7  C   UNL     1     -13.736 -20.148 174.162  1.00  0.00     0.072 C 
ATOM      8  O   UNL     1     -12.530 -19.862 174.385  1.00  0.00    -0.545 OA
ATOM      9  O   UNL     1     -14.551 -19.201 173.553  1.00  0.00    -0.545 OA
ENDBRANCH   1   7
BRANCH   5  10
ATOM     10  O   UNL     1     -13.692 -24.221 177.016  1.00  0.00    -0.493 OA
ATOM     11  C   UNL     1     -13.899 -23.943 178.397  1.00  0.00     0.278 C 
ENDBRANCH   5  10
BRANCH   6  12
ATOM     12  O   UNL     1     -15.833 -25.235 175.603  1.00  0.00    -0.504 OA
ATOM     13  H   UNL     1     -15.353 -26.095 175.364  1.00  0.00     0.293 HD
ENDBRANCH   6  12
TORSDOF 3
ENDMDL
